AV-unprocessed.smi:1072|AV-procd|sdf|4687|dock9
  -GOLD-   22720 3203D 1   1.00000     0.00000
 Structure written by MMmdl.
 45 46  0  0  0  0  0  0  0  0  2 V2000
  151.0563  142.4243  157.1487 C   0  0  0  0  0  0  0  0  0  0  0  0
  151.1055  141.1781  156.2908 C   0  0  0  0  0  0  0  0  0  0  0  0
  150.0297  140.7496  155.7488 N   0  0  0  0  0  0  0  0  0  0  0  0
  150.0706  139.5946  154.9495 C   0  0  0  0  0  0  0  0  0  0  0  0
  148.7470  139.1563  154.3472 C   0  0  0  0  0  0  0  0  0  0  0  0
  151.2389  138.9229  154.7390 C   0  0  0  0  0  0  0  0  0  0  0  0
  151.3335  137.6629  153.8784 C   0  0  0  0  0  0  0  0  0  0  0  0
  151.3186  136.3331  154.6359 C   0  0  0  0  0  0  0  0  0  0  0  0
  152.1434  136.1146  155.5228 O   0  0  0  0  0  0  0  0  0  0  0  0
  150.3693  135.4577  154.2616 N   0  0  0  0  0  0  0  0  0  0  0  0
  150.1083  134.1077  154.7819 C   0  0  1  0  0  0  0  0  0  0  0  0
  151.4281  133.4715  155.2693 C   0  0  0  0  0  0  0  0  0  0  0  0
  149.0627  134.1273  155.9281 C   0  0  0  0  0  0  0  0  0  0  0  0
  147.6800  134.6202  155.4652 C   0  0  0  0  0  0  0  0  0  0  0  0
  147.1395  133.7684  154.3025 C   0  0  1  0  0  0  0  0  0  0  0  0
  145.7656  134.2664  153.8322 C   0  0  0  0  0  0  0  0  0  0  0  0
  148.1546  133.7338  153.1452 C   0  0  0  0  0  0  0  0  0  0  0  0
  149.5423  133.2585  153.6183 C   0  0  0  0  0  0  0  0  0  0  0  0
  152.4571  139.4517  155.3783 C   0  0  0  0  0  0  0  0  0  0  0  0
  153.5399  138.8920  155.2108 O   0  0  0  0  0  0  0  0  0  0  0  0
  152.3328  140.5708  156.1476 N   0  5  0  0  0  0  0  0  0  0  0  0
  150.1054  142.9454  157.0298 H   0  0  0  0  0  0  0  0  0  0  0  0
  151.8568  143.1106  156.8703 H   0  0  0  0  0  0  0  0  0  0  0  0
  151.1760  142.1617  158.2000 H   0  0  0  0  0  0  0  0  0  0  0  0
  148.4613  138.1747  154.7255 H   0  0  0  0  0  0  0  0  0  0  0  0
  148.8170  139.1042  153.2606 H   0  0  0  0  0  0  0  0  0  0  0  0
  147.9491  139.8565  154.5966 H   0  0  0  0  0  0  0  0  0  0  0  0
  150.5371  137.6388  153.1343 H   0  0  0  0  0  0  0  0  0  0  0  0
  152.2527  137.7212  153.2946 H   0  0  0  0  0  0  0  0  0  0  0  0
  149.7514  135.7609  153.5228 H   0  0  0  0  0  0  0  0  0  0  0  0
  151.2786  132.4340  155.5697 H   0  0  0  0  0  0  0  0  0  0  0  0
  151.8420  133.9946  156.1314 H   0  0  0  0  0  0  0  0  0  0  0  0
  152.1854  133.4789  154.4844 H   0  0  0  0  0  0  0  0  0  0  0  0
  148.9544  133.1194  156.3306 H   0  0  0  0  0  0  0  0  0  0  0  0
  149.4068  134.7365  156.7638 H   0  0  0  0  0  0  0  0  0  0  0  0
  146.9847  134.5856  156.3045 H   0  0  0  0  0  0  0  0  0  0  0  0
  147.7420  135.6669  155.1648 H   0  0  0  0  0  0  0  0  0  0  0  0
  147.0125  132.7475  154.6660 H   0  0  0  0  0  0  0  0  0  0  0  0
  145.8217  135.2880  153.4549 H   0  0  0  0  0  0  0  0  0  0  0  0
  145.0427  134.2526  154.6482 H   0  0  0  0  0  0  0  0  0  0  0  0
  145.3719  133.6375  153.0332 H   0  0  0  0  0  0  0  0  0  0  0  0
  147.7947  133.0707  152.3576 H   0  0  0  0  0  0  0  0  0  0  0  0
  148.2356  134.7236  152.6941 H   0  0  0  0  0  0  0  0  0  0  0  0
  150.2354  133.2654  152.7757 H   0  0  0  0  0  0  0  0  0  0  0  0
  149.4640  132.2163  153.9316 H   0  0  0  0  0  0  0  0  0  0  0  0
  1  2  1  0  0  0  0
  1 22  1  0  0  0  0
  1 23  1  0  0  0  0
  1 24  1  0  0  0  0
  2 21  1  0  0  0  0
  2  3  2  0  0  0  0
  3  4  1  0  0  0  0
  4  5  1  0  0  0  0
  4  6  2  0  0  0  0
  5 25  1  0  0  0  0
  5 26  1  0  0  0  0
  5 27  1  0  0  0  0
  6  7  1  0  0  0  0
  6 19  1  0  0  0  0
  7  8  1  0  0  0  0
  7 28  1  0  0  0  0
  7 29  1  0  0  0  0
  8  9  2  0  0  0  0
  8 10  1  0  0  0  0
 10 11  1  0  0  0  0
 10 30  1  0  0  0  0
 11 18  1  0  0  0  0
 11 12  1  0  0  0  0
 11 13  1  0  0  0  0
 12 31  1  0  0  0  0
 12 32  1  0  0  0  0
 12 33  1  0  0  0  0
 13 14  1  0  0  0  0
 13 34  1  0  0  0  0
 13 35  1  0  0  0  0
 14 15  1  0  0  0  0
 14 36  1  0  0  0  0
 14 37  1  0  0  0  0
 15 16  1  0  0  0  0
 15 17  1  0  0  0  0
 15 38  1  0  0  0  0
 16 39  1  0  0  0  0
 16 40  1  0  0  0  0
 16 41  1  0  0  0  0
 17 18  1  0  0  0  0
 17 42  1  0  0  0  0
 17 43  1  0  0  0  0
 18 44  1  0  0  0  0
 18 45  1  0  0  0  0
 19 20  2  0  0  0  0
 19 21  1  0  0  0  0
M  CHG  1  21  -1
M  END
> <s_m_source_file>
AV-unprocessed.smi

> <i_m_source_file_index>
1072

> <i_lp_mmshare_version>
43012

> <i_f3d_flags>
0

> <s_epik_input>
W0NIM11jMW5jKFtDSDNdKWMoYyg9TylbbkhdMSlbQ0gyXUMoPU8pW05IXVtDQEBdMihbQ0gzXSlbQ0gyXVtDSDJdW0NAQEhdKFtDSDNdKVtDSDJdW0NIMl0y

> <s_epik_cmdline>
J2VwaWtfcHl0aG9uJywgJy1waCcsICc3LjAnLCAnLXRuJywgJzgnLCAnLW1hJywgJzIwMCcsICctbWV0YWxfYmluZGluZycsICctaW1hZScsICc8aW5maWxlLm1hZT4nLCAnLW9tYWUnLCAnPG91dGZpbGUubWFlPic=

> <r_lp_tautomer_probability>
0.839158

> <r_epik_Ionization_Penalty>
6.73882

> <r_epik_Ionization_Penalty_Charging>
8.02239e-08

> <r_epik_Ionization_Penalty_Neutral>
6.73882

> <r_epik_State_Penalty>
4.55873

> <r_epik_Charging_Adjusted_Penalty>
4.55873

> <i_epik_Tot_Q>
-1

> <i_epik_Tot_abs_Q>
1

> <r_epik_Metal_State_Penalty>
0.872514

> <b_epik_Metal_Only>
1

> <s_lp_Force_Field>
OPLS_2005

> <r_lp_Energy>
14.8033

> <b_lp_Chiralities_Consistent>
1

> <s_lp_Variant>
AV-unprocessed.smi:1072-5

> <Gold.Version>
5.8.1

> <Gold.Id.Protein>
6NUR|6NUR_protein|mol2

> <Gold.PLP.Fitness>
38.1334

> <Gold.PLP.PLP>
-30.9178

> <Gold.PLP.part.hbond>
-3.4388

> <Gold.PLP.part.metal>
0.0000

> <Gold.PLP.part.buried>
1.7513

> <Gold.PLP.part.nonpolar>
-28.9003

> <Gold.PLP.part.repulsive>
0.1667

> <Gold.PLP.ligand.clash>
0.0026

> <Gold.PLP.ligand.torsion>
0.8932

> <Gold.PLP.Chemscore.Hbond>
3.0000

> <Gold.PLP.Chemscore.CHOScore>
0.0000

> <Gold.PLP.Chemscore.Metal>
0.0000

> <Gold.Chemscore.Hbonds>
donor molecule, donor type, donor heavy atom, donor atom, acceptor molecule, acceptor atom, score
      L1  H    10    30       P1  7948  0.70
      P1  H  7997  8009       L1    20  0.41
      P1  H 10752 10763       L1     9  0.47

> <Gold.PLP.Chemscore.Internal.Correction>
0.0047

> <Gold.Rescore>
     Score         DG    S(hbond)    S(metal)    S(lipo)     H(rot)  DE(clash)    DE(int)     intcor
     11.71     -14.50       1.69        0.00      60.32       1.43       0.42       2.38       ----

> <Gold.Chemscore.Fitness>
11.7052

> <Gold.Chemscore.DG>
-14.5017

> <Gold.Chemscore.ZeroCoef>
-5.4800

> <Gold.Chemscore.Hbond>
1.6870

> <Gold.Chemscore.Metal>
0.0000

> <Gold.Chemscore.Lipo>
60.3248

> <Gold.Chemscore.Internal_Hbond>
0.0000

> <Gold.Chemscore.DEClash>
0.4188

> <Gold.Chemscore.DEInternal>
2.3777

> <Gold.Chemscore.Rot>
1.4339

> <Gold.Chemscore.Internal.Correction>
   9.000000E+99

> <Gold.Chemscore.Hbonds>
donor molecule, donor type, donor heavy atom, donor atom, acceptor molecule, acceptor atom, score
      L1  H    10    30       P1  7948  0.07
      P1  H  7997  8009       L1    20  0.02
      P1  H 10752 10763       L1     9  0.43

> <Gold.Chemscore.Hbond.Weighted>
-5.6344

> <Gold.Chemscore.Metal.Weighted>
-0.0000

> <Gold.Chemscore.Lipo.Weighted>
-7.0580

> <Gold.Chemscore.Internal_Hbond.Weighted>
0.0000

> <Gold.Chemscore.DEClash.Weighted>
0.4188

> <Gold.Chemscore.DEInternal.Weighted>
2.3777

> <Gold.Chemscore.Rot.Weighted>
3.6708

> <Gold.Chemscore.Internal.Correction.Weighted>
   9.000000E+99

> <Gold.Protein.RotatedTorsions>
[ 6907 6896 6895 6894 ] final   26.62 input  -60.11 | X-H torsion
[ 7974 7965 7964 7962 ] final  170.22 input  175.53 | X-H torsion
[ 8008 7997 7996 7995 ] final -160.26 input   59.86 | X-H torsion
[ 10167 10162 10161 10158 ] final   45.90 input  -65.29 | X-H torsion
[ 10718 10713 10712 10709 ] final  -58.46 input   66.30 | X-H torsion
[ 10763 10752 10751 10750 ] final   99.98 input  -60.55 | X-H torsion
[ 11005 11000 10999 10996 ] final -168.63 input  -57.11 | X-H torsion

> <Gold.Protein.ActiveResidues>
 VAL166  LYS551  ARG553  GLY616  TRP617  ASP618  TYR619  PRO620  LYS621  CYS622 
 ASP623  PHE694  ASN695  SER759  ASP760  ASP761  ALA762  ILE779  LEU786  VAL792 
 PHE793  MET794  SER795  GLU796  ALA797  LYS798  CYS799  TRP800  GLU811  SER814 

> <Gold.Protein.RotatedAtoms>
  151.9902  134.9983  160.0560 H   0  0  0  0  0  0  0  0  0  0  0  0  # atno 6907 bound_to 6896
  152.1615  133.4580  159.4872 H   0  0  0  0  0  0  0  0  0  0  0  0  # atno 6908 bound_to 6896
  150.6888  134.1983  159.4355 H   0  0  0  0  0  0  0  0  0  0  0  0  # atno 6909 bound_to 6896
  144.7330  139.9169  143.6418 H   0  0  0  0  0  0  0  0  0  0  0  0  # atno 7974 bound_to 7965
  155.7749  140.0857  157.2089 H   0  0  0  0  0  0  0  0  0  0  0  0  # atno 8008 bound_to 7997
  154.3994  140.1518  156.3042 H   0  0  0  0  0  0  0  0  0  0  0  0  # atno 8009 bound_to 7997
  155.8711  140.3425  155.5824 H   0  0  0  0  0  0  0  0  0  0  0  0  # atno 8010 bound_to 7997
  140.3194  144.2724  150.6185 H   0  0  0  0  0  0  0  0  0  0  0  0  # atno 10167 bound_to 10162
  156.1134  130.4173  150.0580 H   0  0  0  0  0  0  0  0  0  0  0  0  # atno 10718 bound_to 10713
  153.3082  135.4094  155.1313 H   0  0  0  0  0  0  0  0  0  0  0  0  # atno 10763 bound_to 10752
  154.8568  135.3558  154.5759 H   0  0  0  0  0  0  0  0  0  0  0  0  # atno 10764 bound_to 10752
  153.6186  135.7065  153.5377 H   0  0  0  0  0  0  0  0  0  0  0  0  # atno 10765 bound_to 10752
  140.5398  134.5534  157.5096 H   0  0  0  0  0  0  0  0  0  0  0  0  # atno 11005 bound_to 11000
  146.0958  139.3951  143.0377 LP  0  0  0  0  0  0  0  0  0  0  0  0  # atno 17320 bound_to 7965
  145.7647  140.9921  143.1181 LP  0  0  0  0  0  0  0  0  0  0  0  0  # atno 17321 bound_to 7965
  140.5497  143.2208  151.7948 LP  0  0  0  0  0  0  0  0  0  0  0  0  # atno 17342 bound_to 10162
  139.4877  144.4493  151.9673 LP  0  0  0  0  0  0  0  0  0  0  0  0  # atno 17343 bound_to 10162
  156.8537  130.9468  151.3623 LP  0  0  0  0  0  0  0  0  0  0  0  0  # atno 17370 bound_to 10713
  157.6316  130.8734  149.9284 LP  0  0  0  0  0  0  0  0  0  0  0  0  # atno 17371 bound_to 10713
  139.9510  134.7617  156.0449 LP  0  0  0  0  0  0  0  0  0  0  0  0  # atno 17394 bound_to 11000
  141.1234  133.6606  156.3272 LP  0  0  0  0  0  0  0  0  0  0  0  0  # atno 17395 bound_to 11000

$$$$
