AV-unprocessed.smi:2061|AV-procd|sdf|8373|dock1
  -GOLD-   2272011 43D 1   1.00000     0.00000
 Structure written by MMmdl.
 46 47  0  0  0  0  0  0  0  0  2 V2000
  145.5744  123.8348  157.5873 C   0  0  0  0  0  0  0  0  0  0  0  0
  145.8692  124.9163  156.6049 C   0  0  0  0  0  0  0  0  0  0  0  0
  145.1004  125.8956  156.0415 C   0  0  0  0  0  0  0  0  0  0  0  0
  146.0170  126.5739  155.1949 C   0  0  0  0  0  0  0  0  0  0  0  0
  145.6011  127.6803  154.4115 N   0  0  0  0  0  0  0  0  0  0  0  0
  146.2595  128.2533  153.3901 C   0  0  0  0  0  0  0  0  0  0  0  0
  147.3668  127.9094  152.9748 O   0  0  0  0  0  0  0  0  0  0  0  0
  145.5529  129.2603  152.8564 N   0  0  0  0  0  0  0  0  0  0  0  0
  145.9828  130.0665  151.7173 C   0  0  0  0  0  0  0  0  0  0  0  0
  146.1592  131.5705  152.0645 C   0  0  1  0  0  0  0  0  0  0  0  0
  147.1760  131.7280  153.2212 C   0  0  0  0  0  0  0  0  0  0  0  0
  146.5352  132.3548  150.8393 N   0  3  1  0  0  0  0  0  0  0  0  0
  145.7219  132.0412  149.6315 C   0  0  0  0  0  0  0  0  0  0  0  0
  144.3286  132.7082  149.6906 C   0  0  2  0  0  0  0  0  0  0  0  0
  143.5315  132.4854  148.4005 C   0  0  0  0  0  0  0  0  0  0  0  0
  144.4838  134.1119  149.8740 O   0  0  0  0  0  0  0  0  0  0  0  0
  145.1868  134.4456  151.0663 C   0  0  2  0  0  0  0  0  0  0  0  0
  145.2245  135.9728  151.1841 C   0  0  0  0  0  0  0  0  0  0  0  0
  146.6004  133.8342  150.9867 C   0  0  0  0  0  0  0  0  0  0  0  0
  147.2350  126.0558  155.2370 N   0  0  0  0  0  0  0  0  0  0  0  0
  147.1468  124.9914  156.1422 O   0  0  0  0  0  0  0  0  0  0  0  0
  144.4997  123.7217  157.7313 H   0  0  0  0  0  0  0  0  0  0  0  0
  146.0233  124.0596  158.5549 H   0  0  0  0  0  0  0  0  0  0  0  0
  145.9708  122.8794  157.2433 H   0  0  0  0  0  0  0  0  0  0  0  0
  144.0518  126.0915  156.2096 H   0  0  0  0  0  0  0  0  0  0  0  0
  144.7003  128.0690  154.6482 H   0  0  0  0  0  0  0  0  0  0  0  0
  144.6543  129.4814  153.2607 H   0  0  0  0  0  0  0  0  0  0  0  0
  146.9281  129.6599  151.3566 H   0  0  0  0  0  0  0  0  0  0  0  0
  145.2620  129.9084  150.9168 H   0  0  0  0  0  0  0  0  0  0  0  0
  145.2095  131.9546  152.4344 H   0  0  0  0  0  0  0  0  0  0  0  0
  146.9171  131.1063  154.0781 H   0  0  0  0  0  0  0  0  0  0  0  0
  147.2059  132.7478  153.6038 H   0  0  0  0  0  0  0  0  0  0  0  0
  148.1825  131.4483  152.9082 H   0  0  0  0  0  0  0  0  0  0  0  0
  146.2606  132.4178  148.7606 H   0  0  0  0  0  0  0  0  0  0  0  0
  145.6224  130.9708  149.4675 H   0  0  0  0  0  0  0  0  0  0  0  0
  143.7470  132.3028  150.5190 H   0  0  0  0  0  0  0  0  0  0  0  0
  143.3716  131.4228  148.2165 H   0  0  0  0  0  0  0  0  0  0  0  0
  144.0517  132.9000  147.5367 H   0  0  0  0  0  0  0  0  0  0  0  0
  142.5529  132.9624  148.4593 H   0  0  0  0  0  0  0  0  0  0  0  0
  144.6486  134.0473  151.9277 H   0  0  0  0  0  0  0  0  0  0  0  0
  145.7471  136.2835  152.0890 H   0  0  0  0  0  0  0  0  0  0  0  0
  144.2159  136.3852  151.2258 H   0  0  0  0  0  0  0  0  0  0  0  0
  145.7337  136.4233  150.3315 H   0  0  0  0  0  0  0  0  0  0  0  0
  147.2219  134.1413  151.8262 H   0  0  0  0  0  0  0  0  0  0  0  0
  147.1090  134.2356  150.1087 H   0  0  0  0  0  0  0  0  0  0  0  0
  147.4799  132.0653  150.6300 H   0  0  0  0  0  0  0  0  0  0  0  0
  1  2  1  0  0  0  0
  1 22  1  0  0  0  0
  1 23  1  0  0  0  0
  1 24  1  0  0  0  0
  2 21  1  0  0  0  0
  2  3  2  0  0  0  0
  3  4  1  0  0  0  0
  3 25  1  0  0  0  0
  4  5  1  0  0  0  0
  4 20  2  0  0  0  0
  5  6  1  0  0  0  0
  5 26  1  0  0  0  0
  6  7  2  0  0  0  0
  6  8  1  0  0  0  0
  8  9  1  0  0  0  0
  8 27  1  0  0  0  0
  9 10  1  0  0  0  0
  9 28  1  0  0  0  0
  9 29  1  0  0  0  0
 10 11  1  0  0  0  0
 10 12  1  0  0  0  0
 10 30  1  0  0  0  0
 11 31  1  0  0  0  0
 11 32  1  0  0  0  0
 11 33  1  0  0  0  0
 12 19  1  0  0  0  0
 12 13  1  0  0  0  0
 12 46  1  0  0  0  0
 13 14  1  0  0  0  0
 13 34  1  0  0  0  0
 13 35  1  0  0  0  0
 14 15  1  0  0  0  0
 14 16  1  0  0  0  0
 14 36  1  0  0  0  0
 15 37  1  0  0  0  0
 15 38  1  0  0  0  0
 15 39  1  0  0  0  0
 16 17  1  0  0  0  0
 17 18  1  0  0  0  0
 17 19  1  0  0  0  0
 17 40  1  0  0  0  0
 18 41  1  0  0  0  0
 18 42  1  0  0  0  0
 18 43  1  0  0  0  0
 19 44  1  0  0  0  0
 19 45  1  0  0  0  0
 20 21  1  0  0  0  0
M  CHG  1  12   1
M  END
> <s_m_source_file>
AV-unprocessed.smi

> <i_m_source_file_index>
2061

> <i_lp_mmshare_version>
43012

> <i_f3d_flags>
0

> <s_epik_input>
W0NIM11jMVtjSF1jKG5vMSlbTkhdQyg9TylbTkhdW0NIMl1bQ0BIXShbQ0gzXSlOMltDSDJdW0NAQEhdKFtDSDNdKU9bQ0BASF0oW0NIM10pW0NIMl0y

> <s_epik_cmdline>
J2VwaWtfcHl0aG9uJywgJy1waCcsICc3LjAnLCAnLXRuJywgJzgnLCAnLW1hJywgJzIwMCcsICctbWV0YWxfYmluZGluZycsICctaW1hZScsICc8aW5maWxlLm1hZT4nLCAnLW9tYWUnLCAnPG91dGZpbGUubWFlPic=

> <r_epik_Ionization_Penalty>
0.707076

> <r_epik_Ionization_Penalty_Charging>
0.707039

> <r_epik_Ionization_Penalty_Neutral>
3.6548e-05

> <r_epik_State_Penalty>
0.730276

> <r_epik_Charging_Adjusted_Penalty>
1.43732

> <i_epik_Tot_Q>
1

> <i_epik_Tot_abs_Q>
1

> <r_epik_Metal_State_Penalty>
0.743132

> <b_epik_Metal_Only>
0

> <s_lp_Force_Field>
OPLS_2005

> <r_lp_Energy>
17.8186

> <b_lp_Chiralities_Consistent>
1

> <s_lp_Variant>
AV-unprocessed.smi:2061-14

> <Gold.Version>
5.8.1

> <Gold.Id.Protein>
6NUR|6NUR_protein|mol2

> <Gold.PLP.Fitness>
44.1332

> <Gold.PLP.PLP>
-35.6506

> <Gold.PLP.part.hbond>
-3.0000

> <Gold.PLP.part.metal>
0.0000

> <Gold.PLP.part.buried>
-7.1480

> <Gold.PLP.part.nonpolar>
-27.7145

> <Gold.PLP.part.repulsive>
1.9465

> <Gold.PLP.ligand.clash>
0.0000

> <Gold.PLP.ligand.torsion>
0.1378

> <Gold.PLP.Chemscore.Hbond>
2.9000

> <Gold.PLP.Chemscore.CHOScore>
0.0000

> <Gold.PLP.Chemscore.Metal>
0.0000

> <Gold.Chemscore.Hbonds>
donor molecule, donor type, donor heavy atom, donor atom, acceptor molecule, acceptor atom, score
      L1  H     5    26       P1 10956  0.98
      L1  H     8    27       P1 10956  0.89
      L1  H    12    46       P1 10747  1.00

> <Gold.PLP.Chemscore.Internal.Correction>
0.0582

> <Gold.Rescore>
     Score         DG    S(hbond)    S(metal)    S(lipo)     H(rot)  DE(clash)    DE(int)     intcor
     16.62     -18.22       2.06        0.00      84.74       1.58       0.22       1.38       ----

> <Gold.Chemscore.Fitness>
16.6160

> <Gold.Chemscore.DG>
-18.2183

> <Gold.Chemscore.ZeroCoef>
-5.4800

> <Gold.Chemscore.Hbond>
2.0591

> <Gold.Chemscore.Metal>
0.0000

> <Gold.Chemscore.Lipo>
84.7374

> <Gold.Chemscore.Internal_Hbond>
0.0000

> <Gold.Chemscore.DEClash>
0.2184

> <Gold.Chemscore.DEInternal>
1.3840

> <Gold.Chemscore.Rot>
1.5834

> <Gold.Chemscore.Internal.Correction>
   9.000000E+99

> <Gold.Chemscore.Hbonds>
donor molecule, donor type, donor heavy atom, donor atom, acceptor molecule, acceptor atom, score
      L1  H     5    26       P1 10956  0.90
      L1  H     8    27       P1 10956  0.16
      L1  H    12    46       P1 10747  0.98

> <Gold.Chemscore.Hbond.Weighted>
-6.8775

> <Gold.Chemscore.Metal.Weighted>
-0.0000

> <Gold.Chemscore.Lipo.Weighted>
-9.9143

> <Gold.Chemscore.Internal_Hbond.Weighted>
0.0000

> <Gold.Chemscore.DEClash.Weighted>
0.2184

> <Gold.Chemscore.DEInternal.Weighted>
1.3840

> <Gold.Chemscore.Rot.Weighted>
4.0535

> <Gold.Chemscore.Internal.Correction.Weighted>
   9.000000E+99

> <Gold.Protein.RotatedTorsions>
[ 6907 6896 6895 6894 ] final -125.33 input  -60.11 | X-H torsion
[ 7974 7965 7964 7962 ] final    3.24 input  175.53 | X-H torsion
[ 8008 7997 7996 7995 ] final  -11.12 input   59.86 | X-H torsion
[ 10167 10162 10161 10158 ] final   23.83 input  -65.29 | X-H torsion
[ 10718 10713 10712 10709 ] final    1.53 input   66.30 | X-H torsion
[ 10763 10752 10751 10750 ] final   12.73 input  -60.55 | X-H torsion
[ 11005 11000 10999 10996 ] final   26.68 input  -57.11 | X-H torsion

> <Gold.Protein.ActiveResidues>
 VAL166  LYS551  ARG553  GLY616  TRP617  ASP618  TYR619  PRO620  LYS621  CYS622 
 ASP623  PHE694  ASN695  SER759  ASP760  ASP761  ALA762  ILE779  LEU786  VAL792 
 PHE793  MET794  SER795  GLU796  ALA797  LYS798  CYS799  TRP800  GLU811  SER814 

> <Gold.Protein.RotatedAtoms>
  150.8857  133.7311  159.2918 H   0  0  0  0  0  0  0  0  0  0  0  0  # atno 6907 bound_to 6896
  151.4878  135.1054  159.9805 H   0  0  0  0  0  0  0  0  0  0  0  0  # atno 6908 bound_to 6896
  152.4788  133.8157  159.7083 H   0  0  0  0  0  0  0  0  0  0  0  0  # atno 6909 bound_to 6896
  146.2445  140.0715  142.8362 H   0  0  0  0  0  0  0  0  0  0  0  0  # atno 7974 bound_to 7965
  154.5492  140.2311  155.8512 H   0  0  0  0  0  0  0  0  0  0  0  0  # atno 8008 bound_to 7997
  156.1931  140.3072  155.9334 H   0  0  0  0  0  0  0  0  0  0  0  0  # atno 8009 bound_to 7997
  155.3103  140.0435  157.3025 H   0  0  0  0  0  0  0  0  0  0  0  0  # atno 8010 bound_to 7997
  140.5237  143.9959  150.6429 H   0  0  0  0  0  0  0  0  0  0  0  0  # atno 10167 bound_to 10162
  156.8495  130.5549  149.5671 H   0  0  0  0  0  0  0  0  0  0  0  0  # atno 10718 bound_to 10713
  153.1793  135.6825  153.8500 H   0  0  0  0  0  0  0  0  0  0  0  0  # atno 10763 bound_to 10752
  153.7837  135.3178  155.3370 H   0  0  0  0  0  0  0  0  0  0  0  0  # atno 10764 bound_to 10752
  154.8049  135.4755  154.0462 H   0  0  0  0  0  0  0  0  0  0  0  0  # atno 10765 bound_to 10752
  140.3344  134.2402  155.7698 H   0  0  0  0  0  0  0  0  0  0  0  0  # atno 11005 bound_to 11000
  145.0812  140.9222  143.4824 LP  0  0  0  0  0  0  0  0  0  0  0  0  # atno 17320 bound_to 7965
  145.0868  139.2919  143.5755 LP  0  0  0  0  0  0  0  0  0  0  0  0  # atno 17321 bound_to 7965
  140.3315  143.3075  152.0682 LP  0  0  0  0  0  0  0  0  0  0  0  0  # atno 17342 bound_to 10162
  139.4931  144.6506  151.6684 LP  0  0  0  0  0  0  0  0  0  0  0  0  # atno 17343 bound_to 10162
  156.0836  130.5840  150.9607 LP  0  0  0  0  0  0  0  0  0  0  0  0  # atno 17370 bound_to 10713
  157.6311  131.0921  150.8439 LP  0  0  0  0  0  0  0  0  0  0  0  0  # atno 17371 bound_to 10713
  141.2055  133.7858  157.0229 LP  0  0  0  0  0  0  0  0  0  0  0  0  # atno 17394 bound_to 11000
  140.0833  134.9635  157.1660 LP  0  0  0  0  0  0  0  0  0  0  0  0  # atno 17395 bound_to 11000

$$$$
