#       Name:                AV-unprocessed.smi:1648
#       Creating user name   scv26
#       Creation time:       Fri Mar 27 07:32:45 2020


#       File generated by GOLD software.
#

@<TRIPOS>MOLECULE
AV-unprocessed.smi:1648
    46    46     1
SMALL
NO_CHARGES


@<TRIPOS>ATOM
      1 ****        -1.8391   0.8010   3.4720 C.3            1 S1                 0.0000
      2 ****        -1.9148  -0.7058   3.2181 C.2            1 S1                 0.0000
      3 ****        -2.1021  -1.4684   4.1631 O.2            1 S1                 0.0000
      4 ****        -1.7774  -1.1710   1.9641 N.am           1 S1                 0.0000
      5 ****        -1.8189  -2.5673   1.5191 C.3            1 S1                 0.0000
      6 ****        -3.2924  -2.9883   1.3489 C.2            1 S1                 0.0000
      7 ****        -4.1010  -2.2336   0.8064 O.2            1 S1                 0.0000
      8 ****        -3.6199  -4.2041   1.8148 N.am           1 S1                 0.0000
      9 ****        -4.9616  -4.7850   1.8352 C.3            1 S1                 0.0000
     10 ****        -5.0902  -5.6659   3.0854 C.3            1 S1                 0.0000
     11 ****        -5.2515  -5.5952   0.5520 C.3            1 S1                 0.0000
     12 ****        -5.4410  -4.7551  -0.6367 N.pl3          1 S1                 0.0000
     13 ****        -6.4291  -3.8273  -0.8495 C.2            1 S1                 0.0000
     14 ****        -6.2085  -3.2987  -2.0950 C.2            1 S1                 0.0000
     15 ****        -5.1063  -3.9368  -2.5968 N.pl3          1 S1                 1.0000
     16 ****        -4.6476  -4.8290  -1.7131 C.2            1 S1                 0.0000
     17 ****        -1.0733  -2.6843   0.1565 C.3            1 S1                 0.0000
     18 ****        -1.0210  -4.1315  -0.3740 C.3            1 S1                 0.0000
     19 ****         0.3641  -2.1306   0.2298 C.3            1 S1                 0.0000
     20 ****        -0.8771   1.2024   3.1533 H              1 S1                 0.0000
     21 ****        -1.9541   1.0157   4.5350 H              1 S1                 0.0000
     22 ****        -2.6330   1.3235   2.9383 H              1 S1                 0.0000
     23 ****        -1.6436  -0.4823   1.2379 H              1 S1                 0.0000
     24 ****        -1.3255  -3.2085   2.2518 H              1 S1                 0.0000
     25 ****        -2.8853  -4.7549   2.2357 H              1 S1                 0.0000
     26 ****        -5.7005  -3.9875   1.9317 H              1 S1                 0.0000
     27 ****        -6.0914  -6.0903   3.1662 H              1 S1                 0.0000
     28 ****        -4.9051  -5.0901   3.9931 H              1 S1                 0.0000
     29 ****        -4.3796  -6.4931   3.0648 H              1 S1                 0.0000
     30 ****        -4.4524  -6.3125   0.3568 H              1 S1                 0.0000
     31 ****        -6.1692  -6.1722   0.6722 H              1 S1                 0.0000
     32 ****        -7.1904  -3.6104  -0.1141 H              1 S1                 0.0000
     33 ****        -6.7412  -2.5391  -2.6483 H              1 S1                 0.0000
     34 ****        -3.7989  -5.4764  -1.8442 H              1 S1                 0.0000
     35 ****        -1.6074  -2.0855  -0.5836 H              1 S1                 0.0000
     36 ****        -0.5192  -4.7920   0.3337 H              1 S1                 0.0000
     37 ****        -0.4765  -4.1838  -1.3173 H              1 S1                 0.0000
     38 ****        -2.0131  -4.5381  -0.5606 H              1 S1                 0.0000
     39 ****         0.9520  -2.6569   0.9824 H              1 S1                 0.0000
     40 ****         0.3837  -1.0688   0.4751 H              1 S1                 0.0000
     41 ****         0.8767  -2.2412  -0.7262 H              1 S1                 0.0000
     42 ****        -4.6979  -3.7626  -3.5066 H              1 S1                 0.0000
     43 ****        -2.2036  -1.1026   5.0882 LP             1 S1                 0.0000
     44 ****        -2.1531  -2.4548   4.0070 LP             1 S1                 0.0000
     45 ****        -3.8037  -1.3393   0.4719 LP             1 S1                 0.0000
     46 ****        -5.0546  -2.5153   0.7004 LP             1 S1                 0.0000
@<TRIPOS>BOND
    1    1    2 1     
    2    1   20 1     
    3    1   21 1     
    4    1   22 1     
    5    2    3 2     
    6    2    4 am    
    7    4    5 1     
    8    4   23 1     
    9    5    6 1     
   10    5   17 1     
   11    5   24 1     
   12    6    7 2     
   13    6    8 am    
   14    8    9 1     
   15    8   25 1     
   16    9   10 1     
   17    9   11 1     
   18    9   26 1     
   19   10   27 1     
   20   10   28 1     
   21   10   29 1     
   22   11   12 1     
   23   11   30 1     
   24   11   31 1     
   25   12   16 1     
   26   12   13 1     
   27   13   14 2     
   28   13   32 1     
   29   14   15 1     
   30   14   33 1     
   31   15   16 2     
   32   15   42 1     
   33   16   34 1     
   34   17   18 1     
   35   17   19 1     
   36   17   35 1     
   37   18   36 1     
   38   18   37 1     
   39   18   38 1     
   40   19   39 1     
   41   19   40 1     
   42   19   41 1     
   43    3   43 1     
   44    3   44 1     
   45    7   45 1     
   46    7   46 1     
@<TRIPOS>SUBSTRUCTURE
      1 S1             1
@<TRIPOS>SET
LONE_PAIRS      STATIC     ATOMS    <user>   **** ""
4 43 44 45 46
DONOR_HYDROGENS      STATIC     ATOMS    <user>   **** ""
3 23 25 42
ATOM$BLUE        STATIC     ATOMS    COLORGROUP SYSTEM
4 43 44 45 46
ATOM$RED        STATIC     ATOMS    COLORGROUP SYSTEM
3 23 25 42
