AV-unprocessed.smi:1022|AV-procd|sdf|4461|dock10
  -GOLD-   22720 2433D 1   1.00000     0.00000
 Structure written by MMmdl.
 32 33  0  0  0  0  0  0  0  0  2 V2000
  146.6294  133.2331  151.7625 C   0  0  0  0  0  0  0  0  0  0  0  0
  147.7280  133.4412  152.6317 O   0  0  0  0  0  0  0  0  0  0  0  0
  147.3328  133.9528  153.8955 C   0  0  0  0  0  0  0  0  0  0  0  0
  148.5418  134.0054  154.8477 C   0  0  1  0  0  0  0  0  0  0  0  0
  149.2158  132.6356  155.0108 C   0  0  0  0  0  0  0  0  0  0  0  0
  149.5214  134.9903  154.3935 N   0  0  0  0  0  0  0  0  0  0  0  0
  150.6067  135.3972  155.0682 C   0  0  0  0  0  0  0  0  0  0  0  0
  150.8536  134.9254  156.1807 O   0  0  0  0  0  0  0  0  0  0  0  0
  151.3369  136.3289  154.4140 N   0  5  0  0  0  0  0  0  0  0  0  0
  151.2792  137.6156  154.7950 C   0  0  0  0  0  0  0  0  0  0  0  0
  152.3042  138.4625  154.6240 N   0  0  0  0  0  0  0  0  0  0  0  0
  152.0351  139.7429  155.0852 N   0  0  0  0  0  0  0  0  0  0  0  0
  150.8047  139.8472  155.5930 C   0  0  0  0  0  0  0  0  0  0  0  0
  150.2792  141.1242  156.1582 C   0  0  0  0  0  0  0  0  0  0  0  0
  151.0742  141.8993  157.1839 C   0  0  0  0  0  0  0  0  0  0  0  0
  149.7918  141.2174  157.5878 C   0  0  0  0  0  0  0  0  0  0  0  0
  149.8649  138.3643  155.5354 S   0  0  0  0  0  0  0  0  0  0  0  0
  146.9852  132.8373  150.8113 H   0  0  0  0  0  0  0  0  0  0  0  0
  146.1033  134.1674  151.5624 H   0  0  0  0  0  0  0  0  0  0  0  0
  145.9236  132.5159  152.1833 H   0  0  0  0  0  0  0  0  0  0  0  0
  146.9041  134.9493  153.7767 H   0  0  0  0  0  0  0  0  0  0  0  0
  146.5532  133.3196  154.3217 H   0  0  0  0  0  0  0  0  0  0  0  0
  148.1829  134.3049  155.8339 H   0  0  0  0  0  0  0  0  0  0  0  0
  148.5073  131.8919  155.3760 H   0  0  0  0  0  0  0  0  0  0  0  0
  150.0376  132.6867  155.7257 H   0  0  0  0  0  0  0  0  0  0  0  0
  149.6205  132.2739  154.0649 H   0  0  0  0  0  0  0  0  0  0  0  0
  149.3577  135.4086  153.4896 H   0  0  0  0  0  0  0  0  0  0  0  0
  149.7390  141.6867  155.3990 H   0  0  0  0  0  0  0  0  0  0  0  0
  152.0070  141.4626  157.5353 H   0  0  0  0  0  0  0  0  0  0  0  0
  151.0660  142.9849  157.1094 H   0  0  0  0  0  0  0  0  0  0  0  0
  148.9268  141.8480  157.7817 H   0  0  0  0  0  0  0  0  0  0  0  0
  149.8761  140.3354  158.2197 H   0  0  0  0  0  0  0  0  0  0  0  0
  1  2  1  0  0  0  0
  1 18  1  0  0  0  0
  1 19  1  0  0  0  0
  1 20  1  0  0  0  0
  2  3  1  0  0  0  0
  3  4  1  0  0  0  0
  3 21  1  0  0  0  0
  3 22  1  0  0  0  0
  4  5  1  0  0  0  0
  4  6  1  0  0  0  0
  4 23  1  0  0  0  0
  5 24  1  0  0  0  0
  5 25  1  0  0  0  0
  5 26  1  0  0  0  0
  6  7  1  0  0  0  0
  6 27  1  0  0  0  0
  7  8  2  0  0  0  0
  7  9  1  0  0  0  0
  9 10  1  0  0  0  0
 10 17  1  0  0  0  0
 10 11  2  0  0  0  0
 11 12  1  0  0  0  0
 12 13  2  0  0  0  0
 13 14  1  0  0  0  0
 13 17  1  0  0  0  0
 14 16  1  0  0  0  0
 14 15  1  0  0  0  0
 14 28  1  0  0  0  0
 15 16  1  0  0  0  0
 15 29  1  0  0  0  0
 15 30  1  0  0  0  0
 16 31  1  0  0  0  0
 16 32  1  0  0  0  0
M  CHG  1   9  -1
M  END
> <s_m_source_file>
AV-unprocessed.smi

> <i_m_source_file_index>
1022

> <i_lp_mmshare_version>
43012

> <i_f3d_flags>
0

> <s_epik_input>
W0NIM11PW0NIMl1bQ0BIXShbQ0gzXSlbTkhdQyg9TylbTkhdYzFubmMoczEpW0NIXTJbQ0gyXVtDSDJdMg==

> <s_epik_cmdline>
J2VwaWtfcHl0aG9uJywgJy1waCcsICc3LjAnLCAnLXRuJywgJzgnLCAnLW1hJywgJzIwMCcsICctbWV0YWxfYmluZGluZycsICctaW1hZScsICc8aW5maWxlLm1hZT4nLCAnLW9tYWUnLCAnPG91dGZpbGUubWFlPic=

> <r_lp_tautomer_probability>
1

> <r_epik_Ionization_Penalty>
3.79487

> <r_epik_Ionization_Penalty_Charging>
3.64217

> <r_epik_Ionization_Penalty_Neutral>
0.152695

> <r_epik_State_Penalty>
3.6409

> <r_epik_Charging_Adjusted_Penalty>
7.28307

> <i_epik_Tot_Q>
-1

> <i_epik_Tot_abs_Q>
1

> <r_epik_Metal_State_Penalty>
0.534129

> <b_epik_Metal_Only>
1

> <s_lp_Force_Field>
OPLS_2005

> <r_lp_Energy>
0.506403

> <b_lp_Chiralities_Consistent>
1

> <s_lp_Variant>
AV-unprocessed.smi:1022-4

> <Gold.Version>
5.8.1

> <Gold.Id.Protein>
6NUR|6NUR_protein|mol2

> <Gold.PLP.Fitness>
35.1487

> <Gold.PLP.PLP>
-25.1685

> <Gold.PLP.part.hbond>
-3.0000

> <Gold.PLP.part.metal>
0.0000

> <Gold.PLP.part.buried>
-6.0759

> <Gold.PLP.part.nonpolar>
-19.1883

> <Gold.PLP.part.repulsive>
1.7522

> <Gold.PLP.ligand.clash>
0.0000

> <Gold.PLP.ligand.torsion>
1.0331

> <Gold.PLP.Chemscore.Hbond>
3.9420

> <Gold.PLP.Chemscore.CHOScore>
0.0000

> <Gold.PLP.Chemscore.Metal>
0.0000

> <Gold.Chemscore.Hbonds>
donor molecule, donor type, donor heavy atom, donor atom, acceptor molecule, acceptor atom, score
      L1  H     6    27       P1  7948  0.95
      P1  H  7989  7998       L1    12  0.66
      P1  H 10752 10764       L1     9  2.00

> <Gold.PLP.Chemscore.Internal.Correction>
0.2204

> <Gold.Rescore>
     Score         DG    S(hbond)    S(metal)    S(lipo)     H(rot)  DE(clash)    DE(int)     intcor
     11.09     -12.08       1.84        0.00      40.74       1.69       0.08       0.90       ----

> <Gold.Chemscore.Fitness>
11.0929

> <Gold.Chemscore.DG>
-12.0761

> <Gold.Chemscore.ZeroCoef>
-5.4800

> <Gold.Chemscore.Hbond>
1.8446

> <Gold.Chemscore.Metal>
0.0000

> <Gold.Chemscore.Lipo>
40.7422

> <Gold.Chemscore.Internal_Hbond>
0.0000

> <Gold.Chemscore.DEClash>
0.0834

> <Gold.Chemscore.DEInternal>
0.8998

> <Gold.Chemscore.Rot>
1.6921

> <Gold.Chemscore.Internal.Correction>
   9.000000E+99

> <Gold.Chemscore.Hbonds>
donor molecule, donor type, donor heavy atom, donor atom, acceptor molecule, acceptor atom, score
      L1  H     6    27       P1  7948  0.22
      P1  H  7989  7998       L1    12  0.05
      P1  H 10752 10764       L1     9  0.37

> <Gold.Chemscore.Hbond.Weighted>
-6.1609

> <Gold.Chemscore.Metal.Weighted>
-0.0000

> <Gold.Chemscore.Lipo.Weighted>
-4.7668

> <Gold.Chemscore.Internal_Hbond.Weighted>
0.0000

> <Gold.Chemscore.DEClash.Weighted>
0.0834

> <Gold.Chemscore.DEInternal.Weighted>
0.8998

> <Gold.Chemscore.Rot.Weighted>
4.3317

> <Gold.Chemscore.Internal.Correction.Weighted>
   9.000000E+99

> <Gold.Protein.RotatedTorsions>
[ 6907 6896 6895 6894 ] final -170.85 input  -60.11 | X-H torsion
[ 7974 7965 7964 7962 ] final  -35.23 input  175.53 | X-H torsion
[ 8008 7997 7996 7995 ] final   85.62 input   59.86 | X-H torsion
[ 10167 10162 10161 10158 ] final   -7.92 input  -65.29 | X-H torsion
[ 10718 10713 10712 10709 ] final -175.27 input   66.30 | X-H torsion
[ 10763 10752 10751 10750 ] final  -70.88 input  -60.55 | X-H torsion
[ 11005 11000 10999 10996 ] final  158.41 input  -57.11 | X-H torsion

> <Gold.Protein.ActiveResidues>
 VAL166  LYS551  ARG553  GLY616  TRP617  ASP618  TYR619  PRO620  LYS621  CYS622 
 ASP623  PHE694  ASN695  SER759  ASP760  ASP761  ALA762  ILE779  LEU786  VAL792 
 PHE793  MET794  SER795  GLU796  ALA797  LYS798  CYS799  TRP800  GLU811  SER814 

> <Gold.Protein.RotatedAtoms>
  151.5143  133.3479  159.2890 H   0  0  0  0  0  0  0  0  0  0  0  0  # atno 6907 bound_to 6896
  150.8692  134.8065  159.7153 H   0  0  0  0  0  0  0  0  0  0  0  0  # atno 6908 bound_to 6896
  152.4686  134.5025  159.9781 H   0  0  0  0  0  0  0  0  0  0  0  0  # atno 6909 bound_to 6896
  146.0763  140.6135  142.8929 H   0  0  0  0  0  0  0  0  0  0  0  0  # atno 7974 bound_to 7965
  155.9524  140.3400  155.6419 H   0  0  0  0  0  0  0  0  0  0  0  0  # atno 8008 bound_to 7997
  155.6903  140.0748  157.2469 H   0  0  0  0  0  0  0  0  0  0  0  0  # atno 8009 bound_to 7997
  154.4125  140.1658  156.2067 H   0  0  0  0  0  0  0  0  0  0  0  0  # atno 8010 bound_to 7997
  140.7043  143.6027  150.8782 H   0  0  0  0  0  0  0  0  0  0  0  0  # atno 10167 bound_to 10162
  156.7974  130.9540  151.3119 H   0  0  0  0  0  0  0  0  0  0  0  0  # atno 10718 bound_to 10713
  154.4240  135.5980  153.6027 H   0  0  0  0  0  0  0  0  0  0  0  0  # atno 10763 bound_to 10752
  152.9795  135.5959  154.3921 H   0  0  0  0  0  0  0  0  0  0  0  0  # atno 10764 bound_to 10752
  154.3750  135.2841  155.2223 H   0  0  0  0  0  0  0  0  0  0  0  0  # atno 10765 bound_to 10752
  140.1863  134.8439  157.2861 H   0  0  0  0  0  0  0  0  0  0  0  0  # atno 11005 bound_to 11000
  144.7264  140.4537  143.6970 LP  0  0  0  0  0  0  0  0  0  0  0  0  # atno 17320 bound_to 7965
  145.6299  139.1535  143.2975 LP  0  0  0  0  0  0  0  0  0  0  0  0  # atno 17321 bound_to 7965
  139.9751  143.6013  152.2961 LP  0  0  0  0  0  0  0  0  0  0  0  0  # atno 17342 bound_to 10162
  139.6614  144.7662  151.1956 LP  0  0  0  0  0  0  0  0  0  0  0  0  # atno 17343 bound_to 10162
  157.6570  130.8933  149.9750 LP  0  0  0  0  0  0  0  0  0  0  0  0  # atno 17370 bound_to 10713
  156.1122  130.3649  150.0030 LP  0  0  0  0  0  0  0  0  0  0  0  0  # atno 17371 bound_to 10713
  140.2210  134.4023  155.7566 LP  0  0  0  0  0  0  0  0  0  0  0  0  # atno 17394 bound_to 11000
  141.2225  133.7166  156.8490 LP  0  0  0  0  0  0  0  0  0  0  0  0  # atno 17395 bound_to 11000

$$$$
