AV-unprocessed.smi:2448|AV-procd|sdf|9651|dock3
  -GOLD-   2272013283D 1   1.00000     0.00000
 Structure written by MMmdl.
 37 38  0  0  0  0  0  0  0  0  1 V2000
  148.8337  137.3733  154.4639 O   0  0  0  0  0  0  0  0  0  0  0  0
  148.7578  136.2993  155.3850 C   0  0  1  0  0  0  0  0  0  0  0  0
  147.8802  135.1942  154.7627 C   0  0  0  0  0  0  0  0  0  0  0  0
  148.5170  134.5744  153.5992 N   0  0  0  0  0  0  0  0  0  0  0  0
  147.7847  133.4694  152.9613 C   0  0  2  0  0  0  0  0  0  0  0  0
  146.2664  133.7521  152.8069 C   0  0  0  0  0  0  0  0  0  0  0  0
  145.6258  133.1997  151.5431 C   0  0  0  0  0  0  0  0  0  0  0  0
  146.4233  132.7865  150.4549 C   0  0  0  0  0  0  0  0  0  0  0  0
  145.7847  132.2817  149.3046 C   0  0  0  0  0  0  0  0  0  0  0  0
  144.4439  132.1779  149.1860 N   0  0  0  0  0  0  0  0  0  0  0  0
  143.6852  132.5861  150.2256 C   0  0  0  0  0  0  0  0  0  0  0  0
  144.2233  133.1048  151.4203 C   0  0  0  0  0  0  0  0  0  0  0  0
  148.0290  132.1681  153.7547 C   0  0  0  0  0  0  0  0  0  0  0  0
  147.5158  131.1301  153.0928 F   0  0  0  0  0  0  0  0  0  0  0  0
  149.3345  131.9621  153.9339 F   0  0  0  0  0  0  0  0  0  0  0  0
  147.4333  132.2331  154.9456 F   0  0  0  0  0  0  0  0  0  0  0  0
  150.1926  135.8063  155.6357 C   0  0  0  0  0  0  0  0  0  0  0  0
  150.8939  136.8359  156.5265 C   0  0  0  0  0  0  0  0  0  0  0  0
  149.6535  137.5098  157.6588 S   0  0  0  0  0  0  0  0  0  0  0  0
  148.2512  136.8078  156.7477 C   0  0  0  0  0  0  0  0  0  0  0  0
  149.0072  137.0200  153.6048 H   0  0  0  0  0  0  0  0  0  0  0  0
  147.6568  134.4489  155.5236 H   0  0  0  0  0  0  0  0  0  0  0  0
  146.9265  135.6288  154.4607 H   0  0  0  0  0  0  0  0  0  0  0  0
  148.7201  135.2865  152.9048 H   0  0  0  0  0  0  0  0  0  0  0  0
  148.2092  133.2953  151.9722 H   0  0  0  0  0  0  0  0  0  0  0  0
  145.7238  133.3017  153.6380 H   0  0  0  0  0  0  0  0  0  0  0  0
  146.0799  134.8243  152.8814 H   0  0  0  0  0  0  0  0  0  0  0  0
  147.5009  132.8473  150.4986 H   0  0  0  0  0  0  0  0  0  0  0  0
  146.3673  131.9518  148.4572 H   0  0  0  0  0  0  0  0  0  0  0  0
  142.6160  132.4975  150.1015 H   0  0  0  0  0  0  0  0  0  0  0  0
  143.5696  133.4208  152.2199 H   0  0  0  0  0  0  0  0  0  0  0  0
  150.1603  134.8528  156.1646 H   0  0  0  0  0  0  0  0  0  0  0  0
  150.7413  135.6332  154.7090 H   0  0  0  0  0  0  0  0  0  0  0  0
  151.7322  136.4037  157.0732 H   0  0  0  0  0  0  0  0  0  0  0  0
  151.2807  137.6554  155.9200 H   0  0  0  0  0  0  0  0  0  0  0  0
  147.4446  137.5357  156.6512 H   0  0  0  0  0  0  0  0  0  0  0  0
  147.8685  135.9743  157.3377 H   0  0  0  0  0  0  0  0  0  0  0  0
  1  2  1  0  0  0  0
  1 21  1  0  0  0  0
  2 20  1  0  0  0  0
  2  3  1  0  0  0  0
  2 17  1  0  0  0  0
  3  4  1  0  0  0  0
  3 22  1  0  0  0  0
  3 23  1  0  0  0  0
  4  5  1  0  0  0  0
  4 24  1  0  0  0  0
  5  6  1  0  0  0  0
  5 13  1  0  0  0  0
  5 25  1  0  0  0  0
  6  7  1  0  0  0  0
  6 26  1  0  0  0  0
  6 27  1  0  0  0  0
  7 12  1  0  0  0  0
  7  8  2  0  0  0  0
  8  9  1  0  0  0  0
  8 28  1  0  0  0  0
  9 10  2  0  0  0  0
  9 29  1  0  0  0  0
 10 11  1  0  0  0  0
 11 12  2  0  0  0  0
 11 30  1  0  0  0  0
 12 31  1  0  0  0  0
 13 14  1  0  0  0  0
 13 15  1  0  0  0  0
 13 16  1  0  0  0  0
 17 18  1  0  0  0  0
 17 32  1  0  0  0  0
 17 33  1  0  0  0  0
 18 19  1  0  0  0  0
 18 34  1  0  0  0  0
 18 35  1  0  0  0  0
 19 20  1  0  0  0  0
 20 36  1  0  0  0  0
 20 37  1  0  0  0  0
M  END
> <s_m_source_file>
AV-unprocessed.smi

> <i_m_source_file_index>
2448

> <i_lp_mmshare_version>
43012

> <i_f3d_flags>
0

> <s_epik_input>
W0NIMl0xU1tDSDJdW0NIMl1bQ0BAXTEoW09IXSlbQ0gyXVtOSF1bQ0BASF0oQyhGKShGKUYpW0NIMl1jMltjSF1bY0hdbltjSF1bY0hdMg==

> <s_epik_cmdline>
J2VwaWtfcHl0aG9uJywgJy1waCcsICc3LjAnLCAnLXRuJywgJzgnLCAnLW1hJywgJzIwMCcsICctbWV0YWxfYmluZGluZycsICctaW1hZScsICc8aW5maWxlLm1hZT4nLCAnLW9tYWUnLCAnPG91dGZpbGUubWFlPic=

> <r_epik_Ionization_Penalty>
0.187708

> <r_epik_Ionization_Penalty_Charging>
0

> <r_epik_Ionization_Penalty_Neutral>
0.187708

> <r_epik_State_Penalty>
0.22769

> <r_epik_Charging_Adjusted_Penalty>
0.22769

> <i_epik_Tot_Q>
0

> <i_epik_Tot_abs_Q>
0

> <r_epik_Metal_State_Penalty>
0.176206

> <b_epik_Metal_Only>
0

> <s_lp_Force_Field>
OPLS_2005

> <r_lp_Energy>
32.3304

> <b_lp_Chiralities_Consistent>
1

> <s_lp_Variant>
AV-unprocessed.smi:2448-1

> <Gold.Version>
5.8.1

> <Gold.Id.Protein>
6NUR|6NUR_protein|mol2

> <Gold.PLP.Fitness>
42.8448

> <Gold.PLP.PLP>
-31.2479

> <Gold.PLP.part.hbond>
-3.0000

> <Gold.PLP.part.metal>
0.0000

> <Gold.PLP.part.buried>
-3.0610

> <Gold.PLP.part.nonpolar>
-25.2549

> <Gold.PLP.part.repulsive>
0.2107

> <Gold.PLP.ligand.clash>
0.0000

> <Gold.PLP.ligand.torsion>
0.9470

> <Gold.PLP.Chemscore.Hbond>
2.4969

> <Gold.PLP.Chemscore.CHOScore>
1.7669

> <Gold.PLP.Chemscore.Metal>
0.0000

> <Gold.Chemscore.Hbonds>
donor molecule, donor type, donor heavy atom, donor atom, acceptor molecule, acceptor atom, score
      L1  H     1    21       P1  7948  1.00
      L1  H     4    24       P1  7948  0.65
      P1  H 10785 10796       L1    10  0.02
      L1  C    11    30       P1 10186  0.85
      L1  C    11    30       P1 10952  0.22

> <Gold.PLP.Chemscore.Internal.Correction>
0.6996

> <Gold.Rescore>
     Score         DG    S(hbond)    S(metal)    S(lipo)     H(rot)  DE(clash)    DE(int)     intcor
     14.60     -15.86       2.49        0.00      68.25       2.31       0.08       1.18       ----

> <Gold.Chemscore.Fitness>
14.6037

> <Gold.Chemscore.DG>
-15.8602

> <Gold.Chemscore.ZeroCoef>
-5.4800

> <Gold.Chemscore.Hbond>
2.4884

> <Gold.Chemscore.Metal>
0.0000

> <Gold.Chemscore.Lipo>
68.2491

> <Gold.Chemscore.Internal_Hbond>
0.0000

> <Gold.Chemscore.DEClash>
0.0811

> <Gold.Chemscore.DEInternal>
1.1754

> <Gold.Chemscore.Rot>
2.3111

> <Gold.Chemscore.Internal.Correction>
   9.000000E+99

> <Gold.Chemscore.Hbonds>
donor molecule, donor type, donor heavy atom, donor atom, acceptor molecule, acceptor atom, score
      L1  H     1    21       P1  7948  1.00
      L1  H     4    24       P1  7948  0.42
      P1  H 10785 10796       L1    10  0.01

> <Gold.Chemscore.Hbond.Weighted>
-8.3114

> <Gold.Chemscore.Metal.Weighted>
-0.0000

> <Gold.Chemscore.Lipo.Weighted>
-7.9851

> <Gold.Chemscore.Internal_Hbond.Weighted>
0.0000

> <Gold.Chemscore.DEClash.Weighted>
0.0811

> <Gold.Chemscore.DEInternal.Weighted>
1.1754

> <Gold.Chemscore.Rot.Weighted>
5.9164

> <Gold.Chemscore.Internal.Correction.Weighted>
   9.000000E+99

> <Gold.Protein.RotatedTorsions>
[ 6907 6896 6895 6894 ] final   34.70 input  -60.11 | X-H torsion
[ 7974 7965 7964 7962 ] final  168.64 input  175.53 | X-H torsion
[ 8008 7997 7996 7995 ] final  -28.74 input   59.86 | X-H torsion
[ 10167 10162 10161 10158 ] final  140.91 input  -65.29 | X-H torsion
[ 10718 10713 10712 10709 ] final  125.97 input   66.30 | X-H torsion
[ 10763 10752 10751 10750 ] final   -5.27 input  -60.55 | X-H torsion
[ 11005 11000 10999 10996 ] final   28.36 input  -57.11 | X-H torsion

> <Gold.Protein.ActiveResidues>
 VAL166  LYS551  ARG553  GLY616  TRP617  ASP618  TYR619  PRO620  LYS621  CYS622 
 ASP623  PHE694  ASN695  SER759  ASP760  ASP761  ALA762  ILE779  LEU786  VAL792 
 PHE793  MET794  SER795  GLU796  ALA797  LYS798  CYS799  TRP800  GLU811  SER814 

> <Gold.Protein.RotatedAtoms>
  152.1060  134.9308  160.0567 H   0  0  0  0  0  0  0  0  0  0  0  0  # atno 6907 bound_to 6896
  152.0504  133.4011  159.4383 H   0  0  0  0  0  0  0  0  0  0  0  0  # atno 6908 bound_to 6896
  150.6841  134.3235  159.4840 H   0  0  0  0  0  0  0  0  0  0  0  0  # atno 6909 bound_to 6896
  144.7382  139.8937  143.6405 H   0  0  0  0  0  0  0  0  0  0  0  0  # atno 7974 bound_to 7965
  154.4319  140.1837  156.1137 H   0  0  0  0  0  0  0  0  0  0  0  0  # atno 8008 bound_to 7997
  156.0197  140.3342  155.7001 H   0  0  0  0  0  0  0  0  0  0  0  0  # atno 8009 bound_to 7997
  155.5993  140.0639  157.2728 H   0  0  0  0  0  0  0  0  0  0  0  0  # atno 8010 bound_to 7997
  139.5035  144.6204  151.6064 H   0  0  0  0  0  0  0  0  0  0  0  0  # atno 10167 bound_to 10162
  157.5458  131.1095  150.8784 H   0  0  0  0  0  0  0  0  0  0  0  0  # atno 10718 bound_to 10713
  153.3963  135.7003  153.6458 H   0  0  0  0  0  0  0  0  0  0  0  0  # atno 10763 bound_to 10752
  153.5010  135.3652  155.2540 H   0  0  0  0  0  0  0  0  0  0  0  0  # atno 10764 bound_to 10752
  154.8707  135.4112  154.3289 H   0  0  0  0  0  0  0  0  0  0  0  0  # atno 10765 bound_to 10752
  140.3164  134.2592  155.7725 H   0  0  0  0  0  0  0  0  0  0  0  0  # atno 11005 bound_to 11000
  146.1123  139.4129  143.0280 LP  0  0  0  0  0  0  0  0  0  0  0  0  # atno 17320 bound_to 7965
  145.7425  141.0003  143.1293 LP  0  0  0  0  0  0  0  0  0  0  0  0  # atno 17321 bound_to 7965
  140.5905  143.9788  150.6322 LP  0  0  0  0  0  0  0  0  0  0  0  0  # atno 17342 bound_to 10162
  140.2967  143.3288  152.1011 LP  0  0  0  0  0  0  0  0  0  0  0  0  # atno 17343 bound_to 10162
  156.9323  130.5354  149.5279 LP  0  0  0  0  0  0  0  0  0  0  0  0  # atno 17370 bound_to 10713
  156.0534  130.5600  150.9040 LP  0  0  0  0  0  0  0  0  0  0  0  0  # atno 17371 bound_to 10713
  141.2096  133.7742  156.9982 LP  0  0  0  0  0  0  0  0  0  0  0  0  # atno 17394 bound_to 11000
  140.0980  134.9553  157.1879 LP  0  0  0  0  0  0  0  0  0  0  0  0  # atno 17395 bound_to 11000

$$$$
