AV-unprocessed.smi:496|AV-procd|sdf|2720|dock4
  -GOLD-   2262023163D 1   1.00000     0.00000
 Structure written by MMmdl.
 41 43  0  0  0  0  0  0  0  0  2 V2000
  147.6913  141.2965  154.7123 C   0  0  0  0  0  0  0  0  0  0  0  0
  149.0974  141.4357  154.8043 O   0  0  0  0  0  0  0  0  0  0  0  0
  149.5774  141.2481  156.1261 C   0  0  0  0  0  0  0  0  0  0  0  0
  151.0751  141.5854  156.1869 C   0  0  0  0  0  0  0  0  0  0  0  0
  151.5897  141.5949  157.5592 N   0  0  0  0  0  0  0  0  0  0  0  0
  152.0541  140.5713  158.3414 C   0  0  0  0  0  0  0  0  0  0  0  0
  152.1336  139.1190  157.9007 C   0  0  2  0  0  0  0  0  0  0  0  0
  151.4040  138.1901  158.8822 C   0  0  0  0  0  0  0  0  0  0  0  0
  153.5157  138.6633  157.7365 N   0  5  0  0  0  0  0  0  0  0  0  0
  153.8615  137.4482  157.2239 C   0  0  0  0  0  0  0  0  0  0  0  0
  153.1598  136.5980  156.6650 O   0  0  0  0  0  0  0  0  0  0  0  0
  155.2960  137.1466  157.4318 C   0  0  0  0  0  0  0  0  0  0  0  0
  156.2455  137.7187  158.2401 C   0  0  0  0  0  0  0  0  0  0  0  0
  157.4640  137.0268  157.9972 C   0  0  0  0  0  0  0  0  0  0  0  0
  157.1779  136.0870  157.0497 C   0  0  0  0  0  0  0  0  0  0  0  0
  155.8673  136.1519  156.6899 O   0  0  0  0  0  0  0  0  0  0  0  0
  152.4704  140.9350  159.5593 N   0  0  0  0  0  0  0  0  0  0  0  0
  152.2451  142.2951  159.5802 C   0  0  0  0  0  0  0  0  0  0  0  0
  152.4733  143.2464  160.6002 C   0  0  0  0  0  0  0  0  0  0  0  0
  152.1549  144.6044  160.3942 C   0  0  0  0  0  0  0  0  0  0  0  0
  151.6046  145.0286  159.1676 C   0  0  0  0  0  0  0  0  0  0  0  0
  151.3714  144.0958  158.1387 C   0  0  0  0  0  0  0  0  0  0  0  0
  151.6922  142.7401  158.3483 C   0  0  0  0  0  0  0  0  0  0  0  0
  147.3755  141.4483  153.6803 H   0  0  0  0  0  0  0  0  0  0  0  0
  147.1811  142.0350  155.3320 H   0  0  0  0  0  0  0  0  0  0  0  0
  147.3727  140.2998  155.0198 H   0  0  0  0  0  0  0  0  0  0  0  0
  149.0215  141.8830  156.8172 H   0  0  0  0  0  0  0  0  0  0  0  0
  149.4189  140.2147  156.4371 H   0  0  0  0  0  0  0  0  0  0  0  0
  151.6562  140.8949  155.5753 H   0  0  0  0  0  0  0  0  0  0  0  0
  151.2431  142.5682  155.7470 H   0  0  0  0  0  0  0  0  0  0  0  0
  151.5958  139.0269  156.9573 H   0  0  0  0  0  0  0  0  0  0  0  0
  150.3592  138.4829  158.9887 H   0  0  0  0  0  0  0  0  0  0  0  0
  151.8583  138.2157  159.8734 H   0  0  0  0  0  0  0  0  0  0  0  0
  151.4218  137.1565  158.5350 H   0  0  0  0  0  0  0  0  0  0  0  0
  156.0810  138.5377  158.9252 H   0  0  0  0  0  0  0  0  0  0  0  0
  158.4270  137.1978  158.4548 H   0  0  0  0  0  0  0  0  0  0  0  0
  157.7587  135.3311  156.5421 H   0  0  0  0  0  0  0  0  0  0  0  0
  152.8933  142.9283  161.5427 H   0  0  0  0  0  0  0  0  0  0  0  0
  152.3324  145.3230  161.1806 H   0  0  0  0  0  0  0  0  0  0  0  0
  151.3613  146.0699  159.0167 H   0  0  0  0  0  0  0  0  0  0  0  0
  150.9472  144.4194  157.2002 H   0  0  0  0  0  0  0  0  0  0  0  0
  1  2  1  0  0  0  0
  1 24  1  0  0  0  0
  1 25  1  0  0  0  0
  1 26  1  0  0  0  0
  2  3  1  0  0  0  0
  3  4  1  0  0  0  0
  3 27  1  0  0  0  0
  3 28  1  0  0  0  0
  4  5  1  0  0  0  0
  4 29  1  0  0  0  0
  4 30  1  0  0  0  0
  5 23  1  0  0  0  0
  5  6  1  0  0  0  0
  6  7  1  0  0  0  0
  6 17  2  0  0  0  0
  7  8  1  0  0  0  0
  7  9  1  0  0  0  0
  7 31  1  0  0  0  0
  8 32  1  0  0  0  0
  8 33  1  0  0  0  0
  8 34  1  0  0  0  0
  9 10  1  0  0  0  0
 10 11  2  0  0  0  0
 10 12  1  0  0  0  0
 12 16  1  0  0  0  0
 12 13  2  0  0  0  0
 13 14  1  0  0  0  0
 13 35  1  0  0  0  0
 14 15  2  0  0  0  0
 14 36  1  0  0  0  0
 15 16  1  0  0  0  0
 15 37  1  0  0  0  0
 17 18  1  0  0  0  0
 18 23  2  0  0  0  0
 18 19  1  0  0  0  0
 19 20  2  0  0  0  0
 19 38  1  0  0  0  0
 20 21  1  0  0  0  0
 20 39  1  0  0  0  0
 21 22  2  0  0  0  0
 21 40  1  0  0  0  0
 22 23  1  0  0  0  0
 22 41  1  0  0  0  0
M  CHG  1   9  -1
M  END
> <s_m_source_file>
AV-unprocessed.smi

> <i_m_source_file_index>
496

> <i_lp_mmshare_version>
43012

> <i_f3d_flags>
0

> <s_epik_input>
W2NIXTFbY0hdW2NIXVtjSF1jKGMxMiluKFtDSDJdW0NIMl1PW0NIM10pYyhuMilbQ0BIXShbQ0gzXSlbTkhdQyg9TyljM1tjSF1bY0hdW2NIXW8z

> <s_epik_cmdline>
J2VwaWtfcHl0aG9uJywgJy1waCcsICc3LjAnLCAnLXRuJywgJzgnLCAnLW1hJywgJzIwMCcsICctbWV0YWxfYmluZGluZycsICctaW1hZScsICc8aW5maWxlLm1hZT4nLCAnLW9tYWUnLCAnPG91dGZpbGUubWFlPic=

> <r_epik_Ionization_Penalty>
7.3423

> <r_epik_Ionization_Penalty_Charging>
6.43826

> <r_epik_Ionization_Penalty_Neutral>
0.90404

> <r_epik_State_Penalty>
6.54438

> <r_epik_Charging_Adjusted_Penalty>
12.9826

> <i_epik_Tot_Q>
-1

> <i_epik_Tot_abs_Q>
1

> <r_epik_Metal_State_Penalty>
2.56942

> <b_epik_Metal_Only>
1

> <s_lp_Force_Field>
OPLS_2005

> <r_lp_Energy>
15.948

> <b_lp_Chiralities_Consistent>
1

> <s_lp_Variant>
AV-unprocessed.smi:496-5

> <Gold.Version>
5.8.1

> <Gold.Id.Protein>
6NUR|6NUR_protein|mol2

> <Gold.PLP.Fitness>
51.7252

> <Gold.PLP.PLP>
-41.9708

> <Gold.PLP.part.hbond>
-3.0000

> <Gold.PLP.part.metal>
0.0000

> <Gold.PLP.part.buried>
-7.6264

> <Gold.PLP.part.nonpolar>
-31.5476

> <Gold.PLP.part.repulsive>
0.1510

> <Gold.PLP.ligand.clash>
0.0000

> <Gold.PLP.ligand.torsion>
0.6503

> <Gold.PLP.Chemscore.Hbond>
3.6160

> <Gold.PLP.Chemscore.CHOScore>
0.0000

> <Gold.PLP.Chemscore.Metal>
0.0000

> <Gold.Chemscore.Hbonds>
donor molecule, donor type, donor heavy atom, donor atom, acceptor molecule, acceptor atom, score
      P1  H  7997  8009       L1     9  2.00
      P1  H 10752 10763       L1    11  0.54
      P1  H 10752 10764       L1    16  0.50

> <Gold.PLP.Chemscore.Internal.Correction>
0.2069

> <Gold.Rescore>
     Score         DG    S(hbond)    S(metal)    S(lipo)     H(rot)  DE(clash)    DE(int)     intcor
     21.39     -22.12       2.46        0.00     111.16       1.78       0.02       0.71       ----

> <Gold.Chemscore.Fitness>
21.3873

> <Gold.Chemscore.DG>
-22.1238

> <Gold.Chemscore.ZeroCoef>
-5.4800

> <Gold.Chemscore.Hbond>
2.4552

> <Gold.Chemscore.Metal>
0.0000

> <Gold.Chemscore.Lipo>
111.1556

> <Gold.Chemscore.Internal_Hbond>
0.0000

> <Gold.Chemscore.DEClash>
0.0226

> <Gold.Chemscore.DEInternal>
0.7138

> <Gold.Chemscore.Rot>
1.7819

> <Gold.Chemscore.Internal.Correction>
   9.000000E+99

> <Gold.Chemscore.Hbonds>
donor molecule, donor type, donor heavy atom, donor atom, acceptor molecule, acceptor atom, score
      P1  H  7997  8009       L1     9  0.55
      P1  H 10752 10763       L1    11  0.50
      P1  H 10752 10764       L1    16  0.46

> <Gold.Chemscore.Hbond.Weighted>
-8.2002

> <Gold.Chemscore.Metal.Weighted>
-0.0000

> <Gold.Chemscore.Lipo.Weighted>
-13.0052

> <Gold.Chemscore.Internal_Hbond.Weighted>
0.0000

> <Gold.Chemscore.DEClash.Weighted>
0.0226

> <Gold.Chemscore.DEInternal.Weighted>
0.7138

> <Gold.Chemscore.Rot.Weighted>
4.5617

> <Gold.Chemscore.Internal.Correction.Weighted>
   9.000000E+99

> <Gold.Protein.RotatedTorsions>
[ 6907 6896 6895 6894 ] final  147.66 input  -60.11 | X-H torsion
[ 7974 7965 7964 7962 ] final   96.52 input  175.53 | X-H torsion
[ 8008 7997 7996 7995 ] final  161.78 input   59.86 | X-H torsion
[ 10167 10162 10161 10158 ] final  139.25 input  -65.29 | X-H torsion
[ 10718 10713 10712 10709 ] final   14.74 input   66.30 | X-H torsion
[ 10763 10752 10751 10750 ] final   80.78 input  -60.55 | X-H torsion
[ 11005 11000 10999 10996 ] final  -96.54 input  -57.11 | X-H torsion

> <Gold.Protein.ActiveResidues>
 VAL166  LYS551  ARG553  GLY616  TRP617  ASP618  TYR619  PRO620  LYS621  CYS622 
 ASP623  PHE694  ASN695  SER759  ASP760  ASP761  ALA762  ILE779  LEU786  VAL792 
 PHE793  MET794  SER795  GLU796  ALA797  LYS798  CYS799  TRP800  GLU811  SER814 

> <Gold.Protein.RotatedAtoms>
  152.1518  133.4527  159.4817 H   0  0  0  0  0  0  0  0  0  0  0  0  # atno 6907 bound_to 6896
  150.6896  134.2179  159.4394 H   0  0  0  0  0  0  0  0  0  0  0  0  # atno 6908 bound_to 6896
  152.0076  134.9893  160.0618 H   0  0  0  0  0  0  0  0  0  0  0  0  # atno 6909 bound_to 6896
  145.4378  139.2304  143.3109 H   0  0  0  0  0  0  0  0  0  0  0  0  # atno 7974 bound_to 7965
  156.2079  140.1768  156.7760 H   0  0  0  0  0  0  0  0  0  0  0  0  # atno 8008 bound_to 7997
  154.5680  140.0687  156.8951 H   0  0  0  0  0  0  0  0  0  0  0  0  # atno 8009 bound_to 7997
  155.2725  140.3343  155.4266 H   0  0  0  0  0  0  0  0  0  0  0  0  # atno 8010 bound_to 7997
  139.5085  144.6306  151.5827 H   0  0  0  0  0  0  0  0  0  0  0  0  # atno 10167 bound_to 10162
  157.0435  130.6241  149.5755 H   0  0  0  0  0  0  0  0  0  0  0  0  # atno 10718 bound_to 10713
  153.1062  135.4790  154.8955 H   0  0  0  0  0  0  0  0  0  0  0  0  # atno 10763 bound_to 10752
  154.7432  135.3087  154.8693 H   0  0  0  0  0  0  0  0  0  0  0  0  # atno 10764 bound_to 10752
  153.9295  135.6846  153.4799 H   0  0  0  0  0  0  0  0  0  0  0  0  # atno 10765 bound_to 10752
  141.1408  133.8105  157.0585 H   0  0  0  0  0  0  0  0  0  0  0  0  # atno 11005 bound_to 11000
  146.2573  140.5122  142.8868 LP  0  0  0  0  0  0  0  0  0  0  0  0  # atno 17320 bound_to 7965
  144.8141  140.6437  143.6396 LP  0  0  0  0  0  0  0  0  0  0  0  0  # atno 17321 bound_to 7965
  140.6037  143.9563  150.6404 LP  0  0  0  0  0  0  0  0  0  0  0  0  # atno 17342 bound_to 10162
  140.2783  143.3407  152.1175 LP  0  0  0  0  0  0  0  0  0  0  0  0  # atno 17343 bound_to 10162
  156.0030  130.5113  150.7732 LP  0  0  0  0  0  0  0  0  0  0  0  0  # atno 17370 bound_to 10713
  157.5086  131.0924  151.0226 LP  0  0  0  0  0  0  0  0  0  0  0  0  # atno 17371 bound_to 10713
  140.0586  134.9767  157.1265 LP  0  0  0  0  0  0  0  0  0  0  0  0  # atno 17394 bound_to 11000
  140.3882  134.2213  155.7167 LP  0  0  0  0  0  0  0  0  0  0  0  0  # atno 17395 bound_to 11000

$$$$
