#       Name:                AV-unprocessed.smi:1833
#       Creating user name   scv26
#       Creation time:       Fri Mar 27 09:16:01 2020


#       File generated by GOLD software.
#

@<TRIPOS>MOLECULE
AV-unprocessed.smi:1833
    45    46     1
SMALL
NO_CHARGES


@<TRIPOS>ATOM
      1 ****        -0.9474  -1.4224  -2.4864 C.3            1 S1                 0.0000
      2 ****        -1.8919  -2.0296  -1.4405 C.3            1 S1                 0.0000
      3 ****        -1.5904  -1.5666  -0.0628 N.4            1 S1                 1.0000
      4 ****        -2.1527  -2.4805   0.9662 C.3            1 S1                 0.0000
      5 ****        -1.7199  -2.0665   2.3828 C.3            1 S1                 0.0000
      6 ****        -2.0887  -0.6028   2.6720 C.3            1 S1                 0.0000
      7 ****        -1.5356   0.3275   1.5788 C.3            1 S1                 0.0000
      8 ****        -0.0774   0.3911   1.6708 N.am           1 S1                 0.0000
      9 ****         0.6865   1.3787   1.1843 C.2            1 S1                 0.0000
     10 ****         0.2471   2.3484   0.5667 O.2            1 S1                 0.0000
     11 ****         1.9835   1.1802   1.4571 N.am           1 S1                 0.0000
     12 ****         3.0704   2.0959   1.1224 C.3            1 S1                 0.0000
     13 ****         3.7852   1.7211  -0.1883 C.3            1 S1                 0.0000
     14 ****         2.9228   1.8177  -1.4051 C.2            1 S1                 0.0000
     15 ****         2.3070   0.7725  -1.9666 N.2            1 S1                 0.0000
     16 ****         1.5593   1.1366  -3.0894 C.2            1 S1                 0.0000
     17 ****         1.5887   2.4813  -3.3562 C.2            1 S1                 0.0000
     18 ****         2.5751   3.3443  -2.2096 S.3            1 S1                 0.0000
     19 ****        -1.9962  -0.1566   0.1868 C.3            1 S1                 0.0000
     20 ****        -1.1272  -1.8632  -3.4670 H              1 S1                 0.0000
     21 ****         0.0962  -1.6055  -2.2287 H              1 S1                 0.0000
     22 ****        -1.0876  -0.3468  -2.5877 H              1 S1                 0.0000
     23 ****        -2.9319  -1.8146  -1.6895 H              1 S1                 0.0000
     24 ****        -1.7812  -3.1139  -1.4857 H              1 S1                 0.0000
     25 ****        -3.2414  -2.4852   0.8927 H              1 S1                 0.0000
     26 ****        -1.8181  -3.5011   0.7770 H              1 S1                 0.0000
     27 ****        -2.1889  -2.7191   3.1197 H              1 S1                 0.0000
     28 ****        -0.6439  -2.2073   2.4921 H              1 S1                 0.0000
     29 ****        -3.1745  -0.5070   2.7123 H              1 S1                 0.0000
     30 ****        -1.7185  -0.3049   3.6539 H              1 S1                 0.0000
     31 ****        -1.9334   1.3289   1.7537 H              1 S1                 0.0000
     32 ****         0.3799  -0.3567   2.1718 H              1 S1                 0.0000
     33 ****         2.2388   0.3464   1.9655 H              1 S1                 0.0000
     34 ****         2.7108   3.1253   1.0764 H              1 S1                 0.0000
     35 ****         3.7880   2.0638   1.9422 H              1 S1                 0.0000
     36 ****         4.6452   2.3758  -0.3315 H              1 S1                 0.0000
     37 ****         4.1830   0.7079  -0.1178 H              1 S1                 0.0000
     38 ****         1.0351   0.3730  -3.6437 H              1 S1                 0.0000
     39 ****         1.0960   3.0141  -4.1560 H              1 S1                 0.0000
     40 ****        -1.5838   0.5013  -0.5775 H              1 S1                 0.0000
     41 ****        -3.0815  -0.0755   0.1073 H              1 S1                 0.0000
     42 ****        -0.5863  -1.6055   0.0394 H              1 S1                 0.0000
     43 ****        -0.7356   2.4327   0.4018 LP             1 S1                 0.0000
     44 ****         0.8728   3.0519   0.2297 LP             1 S1                 0.0000
     45 ****         2.3739  -0.1639  -1.6221 LP             1 S1                 0.0000
@<TRIPOS>BOND
    1    1    2 1     
    2    1   20 1     
    3    1   21 1     
    4    1   22 1     
    5    2    3 1     
    6    2   23 1     
    7    2   24 1     
    8    3   19 1     
    9    3    4 1     
   10    3   42 1     
   11    4    5 1     
   12    4   25 1     
   13    4   26 1     
   14    5    6 1     
   15    5   27 1     
   16    5   28 1     
   17    6    7 1     
   18    6   29 1     
   19    6   30 1     
   20    7    8 1     
   21    7   19 1     
   22    7   31 1     
   23    8    9 am    
   24    8   32 1     
   25    9   10 2     
   26    9   11 am    
   27   11   12 1     
   28   11   33 1     
   29   12   13 1     
   30   12   34 1     
   31   12   35 1     
   32   13   14 1     
   33   13   36 1     
   34   13   37 1     
   35   14   18 1     
   36   14   15 2     
   37   15   16 1     
   38   16   17 2     
   39   16   38 1     
   40   17   18 1     
   41   17   39 1     
   42   19   40 1     
   43   19   41 1     
   44   10   43 1     
   45   10   44 1     
   46   15   45 1     
@<TRIPOS>SUBSTRUCTURE
      1 S1             1
@<TRIPOS>SET
LONE_PAIRS      STATIC     ATOMS    <user>   **** ""
3 43 44 45
DONOR_HYDROGENS      STATIC     ATOMS    <user>   **** ""
3 42 32 33
ATOM$BLUE        STATIC     ATOMS    COLORGROUP SYSTEM
3 43 44 45
ATOM$RED        STATIC     ATOMS    COLORGROUP SYSTEM
3 42 32 33
