AV-unprocessed.smi:3230|AV-procd|sdf|12330|dock10
  -GOLD-   2272018183D 1   1.00000     0.00000
 Structure written by MMmdl.
 40 40  0  0  0  0  0  0  0  0  1 V2000
  146.6501  138.7448  152.2883 C   0  0  0  0  0  0  0  0  0  0  0  0
  147.1335  140.1894  152.4850 C   0  0  0  0  0  0  0  0  0  0  0  0
  147.5272  140.5467  153.9410 C   0  0  0  0  0  0  0  0  0  0  0  0
  147.7090  142.0763  154.1207 C   0  0  0  0  0  0  0  0  0  0  0  0
  146.4233  142.8942  153.9264 C   0  0  0  0  0  0  0  0  0  0  0  0
  148.7626  139.7408  154.4339 C   0  0  1  0  0  0  0  0  0  0  0  0
  149.8957  140.1300  153.6808 O   0  0  0  0  0  0  0  0  0  0  0  0
  149.0681  139.9395  155.9367 C   0  0  0  0  0  0  0  0  0  0  0  0
  149.9521  141.0763  156.1704 N   0  0  0  0  0  0  0  0  0  0  0  0
  150.5606  141.3574  157.3332 C   0  0  0  0  0  0  0  0  0  0  0  0
  150.4314  140.6746  158.3491 O   0  0  0  0  0  0  0  0  0  0  0  0
  151.4468  142.6032  157.3575 C   0  0  0  0  0  0  0  0  0  0  0  0
  151.8917  142.8980  158.7644 C   0  0  0  0  0  0  0  0  0  0  0  0
  152.5685  142.0399  159.6751 C   0  0  0  0  0  0  0  0  0  0  0  0
  152.7200  142.8094  160.7933 C   0  0  0  0  0  0  0  0  0  0  0  0
  153.3366  142.5557  162.1261 C   0  0  0  0  0  0  0  0  0  0  0  0
  152.1804  144.0391  160.5927 O   0  0  0  0  0  0  0  0  0  0  0  0
  151.6533  144.0863  159.2974 N   0  0  0  0  0  0  0  0  0  0  0  0
  146.2694  138.6038  151.2767 H   0  0  0  0  0  0  0  0  0  0  0  0
  145.8444  138.4997  152.9807 H   0  0  0  0  0  0  0  0  0  0  0  0
  147.4530  138.0226  152.4312 H   0  0  0  0  0  0  0  0  0  0  0  0
  147.9656  140.3900  151.8094 H   0  0  0  0  0  0  0  0  0  0  0  0
  146.3254  140.8407  152.1558 H   0  0  0  0  0  0  0  0  0  0  0  0
  146.6897  140.2507  154.5746 H   0  0  0  0  0  0  0  0  0  0  0  0
  148.0724  142.2917  155.1247 H   0  0  0  0  0  0  0  0  0  0  0  0
  148.4795  142.4435  153.4416 H   0  0  0  0  0  0  0  0  0  0  0  0
  146.5998  143.9444  154.1598 H   0  0  0  0  0  0  0  0  0  0  0  0
  145.6279  142.5405  154.5828 H   0  0  0  0  0  0  0  0  0  0  0  0
  146.0597  142.8499  152.9006 H   0  0  0  0  0  0  0  0  0  0  0  0
  148.5866  138.6799  154.2601 H   0  0  0  0  0  0  0  0  0  0  0  0
  149.7063  139.9946  152.7645 H   0  0  0  0  0  0  0  0  0  0  0  0
  148.1568  140.0212  156.5323 H   0  0  0  0  0  0  0  0  0  0  0  0
  149.6004  139.0680  156.3191 H   0  0  0  0  0  0  0  0  0  0  0  0
  150.1194  141.6918  155.3872 H   0  0  0  0  0  0  0  0  0  0  0  0
  152.3026  142.4559  156.6970 H   0  0  0  0  0  0  0  0  0  0  0  0
  150.8888  143.4489  156.9541 H   0  0  0  0  0  0  0  0  0  0  0  0
  152.8928  141.0204  159.5287 H   0  0  0  0  0  0  0  0  0  0  0  0
  153.8491  141.5937  162.1416 H   0  0  0  0  0  0  0  0  0  0  0  0
  152.5767  142.5464  162.9074 H   0  0  0  0  0  0  0  0  0  0  0  0
  154.0643  143.3301  162.3696 H   0  0  0  0  0  0  0  0  0  0  0  0
  1  2  1  0  0  0  0
  1 19  1  0  0  0  0
  1 20  1  0  0  0  0
  1 21  1  0  0  0  0
  2  3  1  0  0  0  0
  2 22  1  0  0  0  0
  2 23  1  0  0  0  0
  3  4  1  0  0  0  0
  3  6  1  0  0  0  0
  3 24  1  0  0  0  0
  4  5  1  0  0  0  0
  4 25  1  0  0  0  0
  4 26  1  0  0  0  0
  5 27  1  0  0  0  0
  5 28  1  0  0  0  0
  5 29  1  0  0  0  0
  6  7  1  0  0  0  0
  6  8  1  0  0  0  0
  6 30  1  0  0  0  0
  7 31  1  0  0  0  0
  8  9  1  0  0  0  0
  8 32  1  0  0  0  0
  8 33  1  0  0  0  0
  9 10  1  0  0  0  0
  9 34  1  0  0  0  0
 10 11  2  0  0  0  0
 10 12  1  0  0  0  0
 12 13  1  0  0  0  0
 12 35  1  0  0  0  0
 12 36  1  0  0  0  0
 13 18  2  0  0  0  0
 13 14  1  0  0  0  0
 14 15  2  0  0  0  0
 14 37  1  0  0  0  0
 15 16  1  0  0  0  0
 15 17  1  0  0  0  0
 16 38  1  0  0  0  0
 16 39  1  0  0  0  0
 16 40  1  0  0  0  0
 17 18  1  0  0  0  0
M  END
> <s_m_source_file>
AV-unprocessed.smi

> <i_m_source_file_index>
3230

> <i_lp_mmshare_version>
43012

> <i_f3d_flags>
0

> <s_epik_input>
W0NIM11bQ0gyXVtDSF0oW0NIMl1bQ0gzXSlbQ0BIXShbT0hdKVtDSDJdW05IXUMoPU8pW0NIMl1jMVtjSF1jKFtDSDNdKW9uMQ==

> <s_epik_cmdline>
J2VwaWtfcHl0aG9uJywgJy1waCcsICc3LjAnLCAnLXRuJywgJzgnLCAnLW1hJywgJzIwMCcsICctbWV0YWxfYmluZGluZycsICctaW1hZScsICc8aW5maWxlLm1hZT4nLCAnLW9tYWUnLCAnPG91dGZpbGUubWFlPic=

> <r_lp_tautomer_probability>
1

> <r_epik_Ionization_Penalty>
2.40054e-07

> <r_epik_Ionization_Penalty_Charging>
0

> <r_epik_Ionization_Penalty_Neutral>
2.40054e-07

> <r_epik_State_Penalty>
-0

> <r_epik_Charging_Adjusted_Penalty>
0

> <i_epik_Tot_Q>
0

> <i_epik_Tot_abs_Q>
0

> <r_epik_Metal_State_Penalty>
-0

> <b_epik_Metal_Only>
0

> <s_lp_Force_Field>
OPLS_2005

> <r_lp_Energy>
9.12341

> <b_lp_Chiralities_Consistent>
1

> <s_lp_Variant>
AV-unprocessed.smi:3230-2

> <Gold.Version>
5.8.1

> <Gold.Id.Protein>
6NUR|6NUR_protein|mol2

> <Gold.PLP.Fitness>
42.8841

> <Gold.PLP.PLP>
-39.1893

> <Gold.PLP.part.hbond>
-2.0000

> <Gold.PLP.part.metal>
0.0000

> <Gold.PLP.part.buried>
-4.4607

> <Gold.PLP.part.nonpolar>
-33.6817

> <Gold.PLP.part.repulsive>
0.2471

> <Gold.PLP.ligand.clash>
0.0000

> <Gold.PLP.ligand.torsion>
0.5880

> <Gold.PLP.Chemscore.Hbond>
1.5376

> <Gold.PLP.Chemscore.CHOScore>
0.0000

> <Gold.PLP.Chemscore.Metal>
0.0000

> <Gold.Chemscore.Hbonds>
donor molecule, donor type, donor heavy atom, donor atom, acceptor molecule, acceptor atom, score
      L1  H     7    31       P1  7957  1.00
      P1  H  7989  7998       L1     7  0.60

> <Gold.PLP.Chemscore.Internal.Correction>
0.2581

> <Gold.Rescore>
     Score         DG    S(hbond)    S(metal)    S(lipo)     H(rot)  DE(clash)    DE(int)     intcor
     11.69     -14.46       1.12        0.00     101.09       2.57       0.99       1.79       ----

> <Gold.Chemscore.Fitness>
11.6907

> <Gold.Chemscore.DG>
-14.4639

> <Gold.Chemscore.ZeroCoef>
-5.4800

> <Gold.Chemscore.Hbond>
1.1196

> <Gold.Chemscore.Metal>
0.0000

> <Gold.Chemscore.Lipo>
101.0897

> <Gold.Chemscore.Internal_Hbond>
0.0000

> <Gold.Chemscore.DEClash>
0.9879

> <Gold.Chemscore.DEInternal>
1.7852

> <Gold.Chemscore.Rot>
2.5715

> <Gold.Chemscore.Internal.Correction>
   9.000000E+99

> <Gold.Chemscore.Hbonds>
donor molecule, donor type, donor heavy atom, donor atom, acceptor molecule, acceptor atom, score
      L1  H     7    31       P1  7957  0.99
      P1  H  7989  7998       L1     7  0.10

> <Gold.Chemscore.Hbond.Weighted>
-3.7395

> <Gold.Chemscore.Metal.Weighted>
-0.0000

> <Gold.Chemscore.Lipo.Weighted>
-11.8275

> <Gold.Chemscore.Internal_Hbond.Weighted>
0.0000

> <Gold.Chemscore.DEClash.Weighted>
0.9879

> <Gold.Chemscore.DEInternal.Weighted>
1.7852

> <Gold.Chemscore.Rot.Weighted>
6.5831

> <Gold.Chemscore.Internal.Correction.Weighted>
   9.000000E+99

> <Gold.Protein.RotatedTorsions>
[ 6907 6896 6895 6894 ] final  144.48 input  -60.11 | X-H torsion
[ 7974 7965 7964 7962 ] final -108.56 input  175.53 | X-H torsion
[ 8008 7997 7996 7995 ] final  121.04 input   59.86 | X-H torsion
[ 10167 10162 10161 10158 ] final  -39.41 input  -65.29 | X-H torsion
[ 10718 10713 10712 10709 ] final -108.68 input   66.30 | X-H torsion
[ 10763 10752 10751 10750 ] final  -79.82 input  -60.55 | X-H torsion
[ 11005 11000 10999 10996 ] final -125.18 input  -57.11 | X-H torsion

> <Gold.Protein.ActiveResidues>
 VAL166  LYS551  ARG553  GLY616  TRP617  ASP618  TYR619  PRO620  LYS621  CYS622 
 ASP623  PHE694  ASN695  SER759  ASP760  ASP761  ALA762  ILE779  LEU786  VAL792 
 PHE793  MET794  SER795  GLU796  ALA797  LYS798  CYS799  TRP800  GLU811  SER814 

> <Gold.Protein.RotatedAtoms>
  152.1932  133.4787  159.5018 H   0  0  0  0  0  0  0  0  0  0  0  0  # atno 6907 bound_to 6896
  150.6955  134.1686  159.4213 H   0  0  0  0  0  0  0  0  0  0  0  0  # atno 6908 bound_to 6896
  151.9601  135.0127  160.0598 H   0  0  0  0  0  0  0  0  0  0  0  0  # atno 6909 bound_to 6896
  145.1913  140.9016  143.3423 H   0  0  0  0  0  0  0  0  0  0  0  0  # atno 7974 bound_to 7965
  156.2669  140.2817  156.1245 H   0  0  0  0  0  0  0  0  0  0  0  0  # atno 8008 bound_to 7997
  155.1120  140.0391  157.2744 H   0  0  0  0  0  0  0  0  0  0  0  0  # atno 8009 bound_to 7997
  154.6735  140.2593  155.6988 H   0  0  0  0  0  0  0  0  0  0  0  0  # atno 8010 bound_to 7997
  140.7065  143.3216  151.2778 H   0  0  0  0  0  0  0  0  0  0  0  0  # atno 10167 bound_to 10162
  156.0498  130.5725  150.7995 H   0  0  0  0  0  0  0  0  0  0  0  0  # atno 10718 bound_to 10713
  154.5434  135.5682  153.6859 H   0  0  0  0  0  0  0  0  0  0  0  0  # atno 10763 bound_to 10752
  152.9969  135.6233  154.2471 H   0  0  0  0  0  0  0  0  0  0  0  0  # atno 10764 bound_to 10752
  154.2403  135.2862  155.2836 H   0  0  0  0  0  0  0  0  0  0  0  0  # atno 10765 bound_to 10752
  140.9782  134.0710  157.3795 H   0  0  0  0  0  0  0  0  0  0  0  0  # atno 11005 bound_to 11000
  145.0038  139.3573  143.6154 LP  0  0  0  0  0  0  0  0  0  0  0  0  # atno 17320 bound_to 7965
  146.3435  139.9273  142.8758 LP  0  0  0  0  0  0  0  0  0  0  0  0  # atno 17321 bound_to 7965
  139.6672  144.0084  152.2730 LP  0  0  0  0  0  0  0  0  0  0  0  0  # atno 17342 bound_to 10162
  139.9671  144.6519  150.8024 LP  0  0  0  0  0  0  0  0  0  0  0  0  # atno 17343 bound_to 10162
  157.5412  131.0941  150.9825 LP  0  0  0  0  0  0  0  0  0  0  0  0  # atno 17370 bound_to 10713
  157.0107  130.5635  149.5320 LP  0  0  0  0  0  0  0  0  0  0  0  0  # atno 17371 bound_to 10713
  139.8939  135.0133  156.6924 LP  0  0  0  0  0  0  0  0  0  0  0  0  # atno 17394 bound_to 11000
  140.7227  133.9127  155.8157 LP  0  0  0  0  0  0  0  0  0  0  0  0  # atno 17395 bound_to 11000

$$$$
