AV-unprocessed.smi:2957|AV-procd|sdf|11306|dock2
  -GOLD-   2272016203D 1   1.00000     0.00000
 Structure written by MMmdl.
 29 30  0  0  0  0  0  0  0  0  1 V2000
  149.0105  141.2942  157.4095 O   0  0  0  0  0  0  0  0  0  0  0  0
  149.6621  141.2648  156.3643 C   0  0  0  0  0  0  0  0  0  0  0  0
  151.1960  141.3347  156.3918 C   0  0  0  0  0  0  0  0  0  0  0  0
  151.7426  141.6270  157.7282 N   0  0  0  0  0  0  0  0  0  0  0  0
  151.4052  142.8687  158.2999 C   0  0  0  0  0  0  0  0  0  0  0  0
  151.8542  143.2649  159.5052 C   0  0  0  0  0  0  0  0  0  0  0  0
  151.4331  144.5900  160.1209 C   0  0  0  0  0  0  0  0  0  0  0  0
  151.9490  144.7373  161.3414 F   0  0  0  0  0  0  0  0  0  0  0  0
  151.8638  145.5981  159.3638 F   0  0  0  0  0  0  0  0  0  0  0  0
  150.1057  144.6783  160.2139 F   0  0  0  0  0  0  0  0  0  0  0  0
  152.6914  142.3244  160.2222 C   0  0  0  0  0  0  0  0  0  0  0  0
  153.0231  141.1275  159.6978 C   0  0  0  0  0  0  0  0  0  0  0  0
  154.0304  140.0473  160.5941 Cl  0  0  0  0  0  0  0  0  0  0  0  0
  152.5433  140.7237  158.3699 C   0  0  0  0  0  0  0  0  0  0  0  0
  152.8383  139.6410  157.8611 O   0  0  0  0  0  0  0  0  0  0  0  0
  149.1037  141.1539  155.1500 N   0  0  0  0  0  0  0  0  0  0  0  0
  147.7040  141.0672  154.8854 C   0  0  0  0  0  0  0  0  0  0  0  0
  147.2713  140.8609  153.4497 C   0  0  0  0  0  0  0  0  0  0  0  0
  147.0653  142.1973  154.1075 C   0  0  0  0  0  0  0  0  0  0  0  0
  151.5848  140.3867  156.0178 H   0  0  0  0  0  0  0  0  0  0  0  0
  151.5376  142.0836  155.6746 H   0  0  0  0  0  0  0  0  0  0  0  0
  150.7589  143.4840  157.6907 H   0  0  0  0  0  0  0  0  0  0  0  0
  153.0658  142.5897  161.2001 H   0  0  0  0  0  0  0  0  0  0  0  0
  149.7180  141.1332  154.3489 H   0  0  0  0  0  0  0  0  0  0  0  0
  147.0792  140.5980  155.6441 H   0  0  0  0  0  0  0  0  0  0  0  0
  148.0459  140.7908  152.6885 H   0  0  0  0  0  0  0  0  0  0  0  0
  146.3907  140.2462  153.2753 H   0  0  0  0  0  0  0  0  0  0  0  0
  146.0472  142.4754  154.3724 H   0  0  0  0  0  0  0  0  0  0  0  0
  147.7026  143.0189  153.7856 H   0  0  0  0  0  0  0  0  0  0  0  0
  1  2  2  0  0  0  0
  2  3  1  0  0  0  0
  2 16  1  0  0  0  0
  3  4  1  0  0  0  0
  3 20  1  0  0  0  0
  3 21  1  0  0  0  0
  4 14  1  0  0  0  0
  4  5  1  0  0  0  0
  5  6  2  0  0  0  0
  5 22  1  0  0  0  0
  6  7  1  0  0  0  0
  6 11  1  0  0  0  0
  7  8  1  0  0  0  0
  7  9  1  0  0  0  0
  7 10  1  0  0  0  0
 11 12  2  0  0  0  0
 11 23  1  0  0  0  0
 12 13  1  0  0  0  0
 12 14  1  0  0  0  0
 14 15  2  0  0  0  0
 16 17  1  0  0  0  0
 16 24  1  0  0  0  0
 17 19  1  0  0  0  0
 17 18  1  0  0  0  0
 17 25  1  0  0  0  0
 18 19  1  0  0  0  0
 18 26  1  0  0  0  0
 18 27  1  0  0  0  0
 19 28  1  0  0  0  0
 19 29  1  0  0  0  0
M  END
> <s_m_source_file>
AV-unprocessed.smi

> <i_m_source_file_index>
2957

> <i_lp_mmshare_version>
43012

> <i_f3d_flags>
0

> <s_epik_input>
W0NIMl0xW0NIMl1bQ0hdMVtOSF1DKD1PKVtDSDJdbjJbY0hdYyhDKEYpKEYpRilbY0hdYyhDbCljMj1P

> <s_epik_cmdline>
J2VwaWtfcHl0aG9uJywgJy1waCcsICc3LjAnLCAnLXRuJywgJzgnLCAnLW1hJywgJzIwMCcsICctbWV0YWxfYmluZGluZycsICctaW1hZScsICc8aW5maWxlLm1hZT4nLCAnLW9tYWUnLCAnPG91dGZpbGUubWFlPic=

> <r_lp_tautomer_probability>
1

> <r_epik_Ionization_Penalty>
2.10194e-08

> <r_epik_Ionization_Penalty_Charging>
3.49098e-10

> <r_epik_Ionization_Penalty_Neutral>
2.06703e-08

> <r_epik_State_Penalty>
-0

> <r_epik_Charging_Adjusted_Penalty>
3.49098e-10

> <i_epik_Tot_Q>
0

> <i_epik_Tot_abs_Q>
0

> <r_epik_Metal_State_Penalty>
-0

> <b_epik_Metal_Only>
0

> <s_lp_Force_Field>
OPLS_2005

> <r_lp_Energy>
26.5923

> <b_lp_Chiralities_Consistent>
1

> <s_lp_Variant>
AV-unprocessed.smi:2957-1

> <Gold.Version>
5.8.1

> <Gold.Id.Protein>
6NUR|6NUR_protein|mol2

> <Gold.PLP.Fitness>
46.2835

> <Gold.PLP.PLP>
-43.4236

> <Gold.PLP.part.hbond>
-1.0000

> <Gold.PLP.part.metal>
0.0000

> <Gold.PLP.part.buried>
-4.7831

> <Gold.PLP.part.nonpolar>
-38.3248

> <Gold.PLP.part.repulsive>
0.2090

> <Gold.PLP.ligand.clash>
0.0000

> <Gold.PLP.ligand.torsion>
0.1029

> <Gold.PLP.Chemscore.Hbond>
1.0000

> <Gold.PLP.Chemscore.CHOScore>
0.0000

> <Gold.PLP.Chemscore.Metal>
0.0000

> <Gold.Chemscore.Hbonds>
donor molecule, donor type, donor heavy atom, donor atom, acceptor molecule, acceptor atom, score
      P1  H  7997  8008       L1    15  1.00

> <Gold.PLP.Chemscore.Internal.Correction>
0.0659

> <Gold.Rescore>
     Score         DG    S(hbond)    S(metal)    S(lipo)     H(rot)  DE(clash)    DE(int)     intcor
     12.64     -14.62       0.93        0.00      86.92       1.62       0.72       1.26       ----

> <Gold.Chemscore.Fitness>
12.6425

> <Gold.Chemscore.DG>
-14.6244

> <Gold.Chemscore.ZeroCoef>
-5.4800

> <Gold.Chemscore.Hbond>
0.9341

> <Gold.Chemscore.Metal>
0.0000

> <Gold.Chemscore.Lipo>
86.9217

> <Gold.Chemscore.Internal_Hbond>
0.0000

> <Gold.Chemscore.DEClash>
0.7232

> <Gold.Chemscore.DEInternal>
1.2587

> <Gold.Chemscore.Rot>
1.6192

> <Gold.Chemscore.Internal.Correction>
   9.000000E+99

> <Gold.Chemscore.Hbonds>
donor molecule, donor type, donor heavy atom, donor atom, acceptor molecule, acceptor atom, score
      P1  H  7997  8008       L1    15  0.39

> <Gold.Chemscore.Hbond.Weighted>
-3.1198

> <Gold.Chemscore.Metal.Weighted>
-0.0000

> <Gold.Chemscore.Lipo.Weighted>
-10.1698

> <Gold.Chemscore.Internal_Hbond.Weighted>
0.0000

> <Gold.Chemscore.DEClash.Weighted>
0.7232

> <Gold.Chemscore.DEInternal.Weighted>
1.2587

> <Gold.Chemscore.Rot.Weighted>
4.1452

> <Gold.Chemscore.Internal.Correction.Weighted>
   9.000000E+99

> <Gold.Protein.RotatedTorsions>
[ 6907 6896 6895 6894 ] final   68.51 input  -60.11 | X-H torsion
[ 7974 7965 7964 7962 ] final   98.73 input  175.53 | X-H torsion
[ 8008 7997 7996 7995 ] final  -77.61 input   59.86 | X-H torsion
[ 10167 10162 10161 10158 ] final  128.47 input  -65.29 | X-H torsion
[ 10718 10713 10712 10709 ] final    9.48 input   66.30 | X-H torsion
[ 10763 10752 10751 10750 ] final  -48.94 input  -60.55 | X-H torsion
[ 11005 11000 10999 10996 ] final  -88.55 input  -57.11 | X-H torsion

> <Gold.Protein.ActiveResidues>
 VAL166  LYS551  ARG553  GLY616  TRP617  ASP618  TYR619  PRO620  LYS621  CYS622 
 ASP623  PHE694  ASN695  SER759  ASP760  ASP761  ALA762  ILE779  LEU786  VAL792 
 PHE793  MET794  SER795  GLU796  ALA797  LYS798  CYS799  TRP800  GLU811  SER814 

> <Gold.Protein.RotatedAtoms>
  152.4625  134.5152  159.9765 H   0  0  0  0  0  0  0  0  0  0  0  0  # atno 6907 bound_to 6896
  151.5198  133.3463  159.2907 H   0  0  0  0  0  0  0  0  0  0  0  0  # atno 6908 bound_to 6896
  150.8594  134.7971  159.7133 H   0  0  0  0  0  0  0  0  0  0  0  0  # atno 6909 bound_to 6896
  145.4083  139.2337  143.3262 H   0  0  0  0  0  0  0  0  0  0  0  0  # atno 7974 bound_to 7965
  154.5612  140.0708  156.8821 H   0  0  0  0  0  0  0  0  0  0  0  0  # atno 8008 bound_to 7997
  155.2808  140.3371  155.4240 H   0  0  0  0  0  0  0  0  0  0  0  0  # atno 8009 bound_to 7997
  156.2043  140.1734  156.7818 H   0  0  0  0  0  0  0  0  0  0  0  0  # atno 8010 bound_to 7997
  139.5525  144.6824  151.4279 H   0  0  0  0  0  0  0  0  0  0  0  0  # atno 10167 bound_to 10162
  156.9670  130.5954  149.5666 H   0  0  0  0  0  0  0  0  0  0  0  0  # atno 10718 bound_to 10713
  154.0860  135.6584  153.4845 H   0  0  0  0  0  0  0  0  0  0  0  0  # atno 10763 bound_to 10752
  153.0338  135.5191  154.7427 H   0  0  0  0  0  0  0  0  0  0  0  0  # atno 10764 bound_to 10752
  154.6536  135.3005  154.9924 H   0  0  0  0  0  0  0  0  0  0  0  0  # atno 10765 bound_to 10752
  141.1600  133.7576  156.9467 H   0  0  0  0  0  0  0  0  0  0  0  0  # atno 11005 bound_to 11000
  146.2717  140.4791  142.8811 LP  0  0  0  0  0  0  0  0  0  0  0  0  # atno 17320 bound_to 7965
  144.8326  140.6731  143.6281 LP  0  0  0  0  0  0  0  0  0  0  0  0  # atno 17321 bound_to 7965
  140.6791  143.8122  150.7098 LP  0  0  0  0  0  0  0  0  0  0  0  0  # atno 17342 bound_to 10162
  140.1570  143.4308  152.2093 LP  0  0  0  0  0  0  0  0  0  0  0  0  # atno 17343 bound_to 10162
  156.0298  130.5390  150.8505 LP  0  0  0  0  0  0  0  0  0  0  0  0  # atno 17370 bound_to 10713
  157.5619  131.0946  150.9546 LP  0  0  0  0  0  0  0  0  0  0  0  0  # atno 17371 bound_to 10713
  140.1285  134.9371  157.2304 LP  0  0  0  0  0  0  0  0  0  0  0  0  # atno 17394 bound_to 11000
  140.2983  134.3161  155.7296 LP  0  0  0  0  0  0  0  0  0  0  0  0  # atno 17395 bound_to 11000

$$$$
