AV-unprocessed.smi:1381|AV-procd|sdf|5607|dock10
  -GOLD-   22720 5213D 1   1.00000     0.00000
 Structure written by MMmdl.
 43 44  0  0  0  0  0  0  0  0  2 V2000
  153.5830  137.6653  156.9154 C   0  0  0  0  0  0  0  0  0  0  0  0
  152.5347  138.1523  155.9750 C   0  0  0  0  0  0  0  0  0  0  0  0
  151.5894  137.5127  155.2231 C   0  0  0  0  0  0  0  0  0  0  0  0
  150.9288  138.5827  154.5629 C   0  0  0  0  0  0  0  0  0  0  0  0
  149.8549  138.3356  153.6701 N   0  0  0  0  0  0  0  0  0  0  0  0
  148.6208  138.8664  153.7091 C   0  0  0  0  0  0  0  0  0  0  0  0
  148.2228  139.6803  154.5432 O   0  0  0  0  0  0  0  0  0  0  0  0
  147.8528  138.3944  152.7164 N   0  0  0  0  0  0  0  0  0  0  0  0
  146.4630  138.7729  152.4888 C   0  0  0  0  0  0  0  0  0  0  0  0
  145.8444  137.9732  151.3258 C   0  0  0  0  0  0  0  0  0  0  0  0
  145.2580  136.6851  151.7714 N   0  3  1  0  0  0  0  0  0  0  0  0
  143.9928  136.8707  152.5187 C   0  0  0  0  0  0  0  0  0  0  0  0
  143.4785  135.5218  153.0523 C   0  0  1  0  0  0  0  0  0  0  0  0
  142.1236  135.6609  153.7552 C   0  0  0  0  0  0  0  0  0  0  0  0
  143.3176  134.6125  151.9668 O   0  0  0  0  0  0  0  0  0  0  0  0
  144.4986  134.3777  151.1998 C   0  0  2  0  0  0  0  0  0  0  0  0
  145.5326  133.5331  151.9653 C   0  0  0  0  0  0  0  0  0  0  0  0
  145.0640  135.7103  150.6698 C   0  0  0  0  0  0  0  0  0  0  0  0
  151.4260  139.7677  154.8820 N   0  0  0  0  0  0  0  0  0  0  0  0
  152.4583  139.4979  155.7880 O   0  0  0  0  0  0  0  0  0  0  0  0
  153.4398  136.6096  157.1459 H   0  0  0  0  0  0  0  0  0  0  0  0
  153.5527  138.2226  157.8516 H   0  0  0  0  0  0  0  0  0  0  0  0
  154.5759  137.7853  156.4820 H   0  0  0  0  0  0  0  0  0  0  0  0
  151.4033  136.4508  155.1596 H   0  0  0  0  0  0  0  0  0  0  0  0
  150.0459  137.6801  152.9267 H   0  0  0  0  0  0  0  0  0  0  0  0
  148.2573  137.7286  152.0739 H   0  0  0  0  0  0  0  0  0  0  0  0
  145.9011  138.6361  153.4132 H   0  0  0  0  0  0  0  0  0  0  0  0
  146.4352  139.8392  152.2633 H   0  0  0  0  0  0  0  0  0  0  0  0
  145.0618  138.5855  150.8754 H   0  0  0  0  0  0  0  0  0  0  0  0
  146.5779  137.7858  150.5399 H   0  0  0  0  0  0  0  0  0  0  0  0
  144.1548  137.5537  153.3536 H   0  0  0  0  0  0  0  0  0  0  0  0
  143.2486  137.3317  151.8670 H   0  0  0  0  0  0  0  0  0  0  0  0
  144.1911  135.1168  153.7709 H   0  0  0  0  0  0  0  0  0  0  0  0
  142.1876  136.3450  154.6018 H   0  0  0  0  0  0  0  0  0  0  0  0
  141.7802  134.6974  154.1327 H   0  0  0  0  0  0  0  0  0  0  0  0
  141.3617  136.0414  153.0743 H   0  0  0  0  0  0  0  0  0  0  0  0
  144.1852  133.7858  150.3393 H   0  0  0  0  0  0  0  0  0  0  0  0
  146.3610  133.2538  151.3137 H   0  0  0  0  0  0  0  0  0  0  0  0
  145.0830  132.6122  152.3376 H   0  0  0  0  0  0  0  0  0  0  0  0
  145.9565  134.0661  152.8159 H   0  0  0  0  0  0  0  0  0  0  0  0
  144.3732  136.1339  149.9389 H   0  0  0  0  0  0  0  0  0  0  0  0
  146.0001  135.5255  150.1437 H   0  0  0  0  0  0  0  0  0  0  0  0
  145.9149  136.2760  152.4204 H   0  0  0  0  0  0  0  0  0  0  0  0
  1  2  1  0  0  0  0
  1 21  1  0  0  0  0
  1 22  1  0  0  0  0
  1 23  1  0  0  0  0
  2 20  1  0  0  0  0
  2  3  2  0  0  0  0
  3  4  1  0  0  0  0
  3 24  1  0  0  0  0
  4  5  1  0  0  0  0
  4 19  2  0  0  0  0
  5  6  1  0  0  0  0
  5 25  1  0  0  0  0
  6  7  2  0  0  0  0
  6  8  1  0  0  0  0
  8  9  1  0  0  0  0
  8 26  1  0  0  0  0
  9 10  1  0  0  0  0
  9 27  1  0  0  0  0
  9 28  1  0  0  0  0
 10 11  1  0  0  0  0
 10 29  1  0  0  0  0
 10 30  1  0  0  0  0
 11 18  1  0  0  0  0
 11 12  1  0  0  0  0
 11 43  1  0  0  0  0
 12 13  1  0  0  0  0
 12 31  1  0  0  0  0
 12 32  1  0  0  0  0
 13 14  1  0  0  0  0
 13 15  1  0  0  0  0
 13 33  1  0  0  0  0
 14 34  1  0  0  0  0
 14 35  1  0  0  0  0
 14 36  1  0  0  0  0
 15 16  1  0  0  0  0
 16 17  1  0  0  0  0
 16 18  1  0  0  0  0
 16 37  1  0  0  0  0
 17 38  1  0  0  0  0
 17 39  1  0  0  0  0
 17 40  1  0  0  0  0
 18 41  1  0  0  0  0
 18 42  1  0  0  0  0
 19 20  1  0  0  0  0
M  CHG  1  11   1
M  END
> <s_m_source_file>
AV-unprocessed.smi

> <i_m_source_file_index>
1381

> <i_lp_mmshare_version>
43012

> <i_f3d_flags>
0

> <s_epik_input>
W0NIM11jMVtjSF1jKG5vMSlbTkhdQyg9TylbTkhdW0NIMl1bQ0gyXU4yW0NIMl1bQ0BASF0oW0NIM10pT1tDQEBIXShbQ0gzXSlbQ0gyXTI=

> <s_epik_cmdline>
J2VwaWtfcHl0aG9uJywgJy1waCcsICc3LjAnLCAnLXRuJywgJzgnLCAnLW1hJywgJzIwMCcsICctbWV0YWxfYmluZGluZycsICctaW1hZScsICc8aW5maWxlLm1hZT4nLCAnLW9tYWUnLCAnPG91dGZpbGUubWFlPic=

> <r_epik_Ionization_Penalty>
0.707076

> <r_epik_Ionization_Penalty_Charging>
0.707039

> <r_epik_Ionization_Penalty_Neutral>
3.6548e-05

> <r_epik_State_Penalty>
0.730276

> <r_epik_Charging_Adjusted_Penalty>
1.43732

> <i_epik_Tot_Q>
1

> <i_epik_Tot_abs_Q>
1

> <r_epik_Metal_State_Penalty>
0.743132

> <b_epik_Metal_Only>
0

> <s_lp_Force_Field>
OPLS_2005

> <r_lp_Energy>
14.2109

> <b_lp_Chiralities_Consistent>
1

> <s_lp_Variant>
AV-unprocessed.smi:1381-6

> <Gold.Version>
5.8.1

> <Gold.Id.Protein>
6NUR|6NUR_protein|mol2

> <Gold.PLP.Fitness>
41.7805

> <Gold.PLP.PLP>
-32.6311

> <Gold.PLP.part.hbond>
-6.7022

> <Gold.PLP.part.metal>
0.0000

> <Gold.PLP.part.buried>
-0.2999

> <Gold.PLP.part.nonpolar>
-27.9681

> <Gold.PLP.part.repulsive>
0.5080

> <Gold.PLP.ligand.clash>
0.0000

> <Gold.PLP.ligand.torsion>
0.7925

> <Gold.PLP.Chemscore.Hbond>
3.5713

> <Gold.PLP.Chemscore.CHOScore>
0.0000

> <Gold.PLP.Chemscore.Metal>
0.0000

> <Gold.Chemscore.Hbonds>
donor molecule, donor type, donor heavy atom, donor atom, acceptor molecule, acceptor atom, score
      L1  H     5    25       P1  7948  0.64
      L1  H     8    26       P1  7948  0.98
      P1  H  7989  7998       L1    19  1.00
      P1  H  7997  8010       L1    20  0.96

> <Gold.PLP.Chemscore.Internal.Correction>
0.0205

> <Gold.Rescore>
     Score         DG    S(hbond)    S(metal)    S(lipo)     H(rot)  DE(clash)    DE(int)     intcor
     16.40     -18.52       3.11        0.00      57.78       1.61       1.28       0.83       ----

> <Gold.Chemscore.Fitness>
16.4030

> <Gold.Chemscore.DG>
-18.5187

> <Gold.Chemscore.ZeroCoef>
-5.4800

> <Gold.Chemscore.Hbond>
3.1123

> <Gold.Chemscore.Metal>
0.0000

> <Gold.Chemscore.Lipo>
57.7795

> <Gold.Chemscore.Internal_Hbond>
0.0000

> <Gold.Chemscore.DEClash>
1.2849

> <Gold.Chemscore.DEInternal>
0.8308

> <Gold.Chemscore.Rot>
1.6081

> <Gold.Chemscore.Internal.Correction>
   9.000000E+99

> <Gold.Chemscore.Hbonds>
donor molecule, donor type, donor heavy atom, donor atom, acceptor molecule, acceptor atom, score
      L1  H     5    25       P1  7948  0.12
      L1  H     8    26       P1  7948  0.93
      P1  H  7989  7998       L1    19  0.87
      P1  H  7997  8010       L1    20  0.41

> <Gold.Chemscore.Hbond.Weighted>
-10.3952

> <Gold.Chemscore.Metal.Weighted>
-0.0000

> <Gold.Chemscore.Lipo.Weighted>
-6.7602

> <Gold.Chemscore.Internal_Hbond.Weighted>
0.0000

> <Gold.Chemscore.DEClash.Weighted>
1.2849

> <Gold.Chemscore.DEInternal.Weighted>
0.8308

> <Gold.Chemscore.Rot.Weighted>
4.1167

> <Gold.Chemscore.Internal.Correction.Weighted>
   9.000000E+99

> <Gold.Protein.RotatedTorsions>
[ 6907 6896 6895 6894 ] final  -44.13 input  -60.11 | X-H torsion
[ 7974 7965 7964 7962 ] final -122.89 input  175.53 | X-H torsion
[ 8008 7997 7996 7995 ] final   91.83 input   59.86 | X-H torsion
[ 10167 10162 10161 10158 ] final  149.89 input  -65.29 | X-H torsion
[ 10718 10713 10712 10709 ] final -116.08 input   66.30 | X-H torsion
[ 10763 10752 10751 10750 ] final  -96.21 input  -60.55 | X-H torsion
[ 11005 11000 10999 10996 ] final  -82.69 input  -57.11 | X-H torsion

> <Gold.Protein.ActiveResidues>
 VAL166  LYS551  ARG553  GLY616  TRP617  ASP618  TYR619  PRO620  LYS621  CYS622 
 ASP623  PHE694  ASN695  SER759  ASP760  ASP761  ALA762  ILE779  LEU786  VAL792 
 PHE793  MET794  SER795  GLU796  ALA797  LYS798  CYS799  TRP800  GLU811  SER814 

> <Gold.Protein.RotatedAtoms>
  150.9362  134.8775  159.7583 H   0  0  0  0  0  0  0  0  0  0  0  0  # atno 6907 bound_to 6896
  152.5060  134.4007  159.9425 H   0  0  0  0  0  0  0  0  0  0  0  0  # atno 6908 bound_to 6896
  151.4030  133.3711  159.2769 H   0  0  0  0  0  0  0  0  0  0  0  0  # atno 6909 bound_to 6896
  145.0245  140.8016  143.4361 H   0  0  0  0  0  0  0  0  0  0  0  0  # atno 7974 bound_to 7965
  156.0283  140.3333  155.7112 H   0  0  0  0  0  0  0  0  0  0  0  0  # atno 8008 bound_to 7997
  155.5922  140.0647  157.2773 H   0  0  0  0  0  0  0  0  0  0  0  0  # atno 8009 bound_to 7997
  154.4343  140.1825  156.1074 H   0  0  0  0  0  0  0  0  0  0  0  0  # atno 8010 bound_to 7997
  139.4856  144.5566  151.7306 H   0  0  0  0  0  0  0  0  0  0  0  0  # atno 10167 bound_to 10162
  156.0939  130.6116  150.8989 H   0  0  0  0  0  0  0  0  0  0  0  0  # atno 10718 bound_to 10713
  154.7219  135.5092  153.8825 H   0  0  0  0  0  0  0  0  0  0  0  0  # atno 10763 bound_to 10752
  153.0870  135.6648  153.9939 H   0  0  0  0  0  0  0  0  0  0  0  0  # atno 10764 bound_to 10752
  153.9760  135.3033  155.3403 H   0  0  0  0  0  0  0  0  0  0  0  0  # atno 10765 bound_to 10752
  141.1662  133.7257  156.8609 H   0  0  0  0  0  0  0  0  0  0  0  0  # atno 11005 bound_to 11000
  145.1851  139.2331  143.5272 LP  0  0  0  0  0  0  0  0  0  0  0  0  # atno 17320 bound_to 7965
  146.3490  140.1634  142.8590 LP  0  0  0  0  0  0  0  0  0  0  0  0  # atno 17321 bound_to 7965
  140.5129  144.0998  150.6000 LP  0  0  0  0  0  0  0  0  0  0  0  0  # atno 17342 bound_to 10162
  140.3930  143.2743  152.0038 LP  0  0  0  0  0  0  0  0  0  0  0  0  # atno 17343 bound_to 10162
  157.6095  131.0937  150.8819 LP  0  0  0  0  0  0  0  0  0  0  0  0  # atno 17370 bound_to 10713
  156.8962  130.5230  149.5284 LP  0  0  0  0  0  0  0  0  0  0  0  0  # atno 17371 bound_to 10713
  140.1849  134.9007  157.2993 LP  0  0  0  0  0  0  0  0  0  0  0  0  # atno 17394 bound_to 11000
  140.2354  134.3859  155.7503 LP  0  0  0  0  0  0  0  0  0  0  0  0  # atno 17395 bound_to 11000

$$$$
