AV-unprocessed.smi:2435|AV-procd|sdf|9592|dock7
  -GOLD-   2272013223D 1   1.00000     0.00000
 Structure written by MMmdl.
 44 45  0  0  0  0  0  0  0  0  1 V2000
  151.6986  137.8150  154.7254 C   0  0  0  0  0  0  0  0  0  0  0  0
  151.5348  136.4095  154.6422 O   0  0  0  0  0  0  0  0  0  0  0  0
  150.6947  135.9098  155.5735 C   0  0  0  0  0  0  0  0  0  0  0  0
  149.4446  135.3633  155.4805 C   0  0  0  0  0  0  0  0  0  0  0  0
  148.6239  135.1495  154.3436 N   0  0  0  0  0  0  0  0  0  0  0  0
  147.7728  134.1329  154.1334 C   0  0  0  0  0  0  0  0  0  0  0  0
  147.5716  133.2057  154.9173 O   0  0  0  0  0  0  0  0  0  0  0  0
  147.1433  134.2615  152.9564 N   0  0  0  0  0  0  0  0  0  0  0  0
  146.1492  133.3351  152.4190 C   0  0  0  0  0  0  0  0  0  0  0  0
  146.8317  132.4707  151.3420 C   0  0  0  0  0  0  0  0  0  0  0  0
  145.9190  131.4466  150.6451 C   0  0  0  0  0  0  0  0  0  0  0  0
  144.9551  132.0967  149.6396 C   0  0  0  0  0  0  0  0  0  0  0  0
  143.6305  132.6084  150.2318 C   0  0  0  0  0  0  0  0  0  0  0  0
  143.6992  133.2291  151.6382 C   0  0  0  0  0  0  0  0  0  0  0  0
  144.9200  134.1230  151.9124 C   0  0  0  0  0  0  0  0  0  0  0  0
  149.0642  135.0847  156.8223 C   0  0  0  0  0  0  0  0  0  0  0  0
  147.7786  134.5101  157.3445 C   0  0  0  0  0  0  0  0  0  0  0  0
  150.0374  135.3950  157.6717 N   0  0  0  0  0  0  0  0  0  0  0  0
  151.0412  135.8917  156.9079 N   0  0  0  0  0  0  0  0  0  0  0  0
  152.2664  136.3432  157.5349 C   0  0  0  0  0  0  0  0  0  0  0  0
  152.4004  138.1469  153.9607 H   0  0  0  0  0  0  0  0  0  0  0  0
  152.0978  138.1055  155.6984 H   0  0  0  0  0  0  0  0  0  0  0  0
  150.7558  138.3395  154.5656 H   0  0  0  0  0  0  0  0  0  0  0  0
  148.6191  135.8919  153.6598 H   0  0  0  0  0  0  0  0  0  0  0  0
  147.3695  135.0618  152.3843 H   0  0  0  0  0  0  0  0  0  0  0  0
  145.8307  132.6697  153.2239 H   0  0  0  0  0  0  0  0  0  0  0  0
  147.2983  133.1103  150.5912 H   0  0  0  0  0  0  0  0  0  0  0  0
  147.6519  131.9265  151.8124 H   0  0  0  0  0  0  0  0  0  0  0  0
  146.5600  130.7566  150.0951 H   0  0  0  0  0  0  0  0  0  0  0  0
  145.3805  130.8367  151.3713 H   0  0  0  0  0  0  0  0  0  0  0  0
  145.4644  132.9128  149.1259 H   0  0  0  0  0  0  0  0  0  0  0  0
  144.7155  131.3738  148.8587 H   0  0  0  0  0  0  0  0  0  0  0  0
  143.2084  133.3370  149.5389 H   0  0  0  0  0  0  0  0  0  0  0  0
  142.9140  131.7868  150.2620 H   0  0  0  0  0  0  0  0  0  0  0  0
  142.7925  133.8167  151.7856 H   0  0  0  0  0  0  0  0  0  0  0  0
  143.6510  132.4406  152.3902 H   0  0  0  0  0  0  0  0  0  0  0  0
  144.6284  134.8375  152.6835 H   0  0  0  0  0  0  0  0  0  0  0  0
  145.1693  134.7211  151.0348 H   0  0  0  0  0  0  0  0  0  0  0  0
  147.2171  134.0101  156.5552 H   0  0  0  0  0  0  0  0  0  0  0  0
  147.1429  135.2922  157.7599 H   0  0  0  0  0  0  0  0  0  0  0  0
  147.9631  133.7773  158.1304 H   0  0  0  0  0  0  0  0  0  0  0  0
  153.1140  136.1389  156.8803 H   0  0  0  0  0  0  0  0  0  0  0  0
  152.4219  135.8252  158.4822 H   0  0  0  0  0  0  0  0  0  0  0  0
  152.2081  137.4162  157.7182 H   0  0  0  0  0  0  0  0  0  0  0  0
  1  2  1  0  0  0  0
  1 21  1  0  0  0  0
  1 22  1  0  0  0  0
  1 23  1  0  0  0  0
  2  3  1  0  0  0  0
  3 19  1  0  0  0  0
  3  4  2  0  0  0  0
  4  5  1  0  0  0  0
  4 16  1  0  0  0  0
  5  6  1  0  0  0  0
  5 24  1  0  0  0  0
  6  7  2  0  0  0  0
  6  8  1  0  0  0  0
  8  9  1  0  0  0  0
  8 25  1  0  0  0  0
  9 15  1  0  0  0  0
  9 10  1  0  0  0  0
  9 26  1  0  0  0  0
 10 11  1  0  0  0  0
 10 27  1  0  0  0  0
 10 28  1  0  0  0  0
 11 12  1  0  0  0  0
 11 29  1  0  0  0  0
 11 30  1  0  0  0  0
 12 13  1  0  0  0  0
 12 31  1  0  0  0  0
 12 32  1  0  0  0  0
 13 14  1  0  0  0  0
 13 33  1  0  0  0  0
 13 34  1  0  0  0  0
 14 15  1  0  0  0  0
 14 35  1  0  0  0  0
 14 36  1  0  0  0  0
 15 37  1  0  0  0  0
 15 38  1  0  0  0  0
 16 17  1  0  0  0  0
 16 18  2  0  0  0  0
 17 39  1  0  0  0  0
 17 40  1  0  0  0  0
 17 41  1  0  0  0  0
 18 19  1  0  0  0  0
 19 20  1  0  0  0  0
 20 42  1  0  0  0  0
 20 43  1  0  0  0  0
 20 44  1  0  0  0  0
M  END
> <s_m_source_file>
AV-unprocessed.smi

> <i_m_source_file_index>
2435

> <i_lp_mmshare_version>
43012

> <i_f3d_flags>
0

> <s_epik_input>
W0NIM11uMW5jKFtDSDNdKWMoYzFPW0NIM10pW05IXUMoPU8pW05IXVtDSF0yW0NIMl1bQ0gyXVtDSDJdW0NIMl1bQ0gyXVtDSDJdMg==

> <s_epik_cmdline>
J2VwaWtfcHl0aG9uJywgJy1waCcsICc3LjAnLCAnLXRuJywgJzgnLCAnLW1hJywgJzIwMCcsICctbWV0YWxfYmluZGluZycsICctaW1hZScsICc8aW5maWxlLm1hZT4nLCAnLW9tYWUnLCAnPG91dGZpbGUubWFlPic=

> <r_lp_tautomer_probability>
1

> <r_epik_Ionization_Penalty>
0.000417553

> <r_epik_Ionization_Penalty_Charging>
0

> <r_epik_Ionization_Penalty_Neutral>
0.000417553

> <r_epik_State_Penalty>
-0

> <r_epik_Charging_Adjusted_Penalty>
0

> <i_epik_Tot_Q>
0

> <i_epik_Tot_abs_Q>
0

> <r_epik_Metal_State_Penalty>
-0

> <b_epik_Metal_Only>
0

> <s_lp_Force_Field>
OPLS_2005

> <r_lp_Energy>
21.6667

> <b_lp_Chiralities_Consistent>
1

> <s_lp_Variant>
AV-unprocessed.smi:2435-1

> <Gold.Version>
5.8.1

> <Gold.Id.Protein>
6NUR|6NUR_protein|mol2

> <Gold.PLP.Fitness>
36.6321

> <Gold.PLP.PLP>
-28.5143

> <Gold.PLP.part.hbond>
-4.0000

> <Gold.PLP.part.metal>
0.0000

> <Gold.PLP.part.buried>
-2.0073

> <Gold.PLP.part.nonpolar>
-24.0786

> <Gold.PLP.part.repulsive>
0.2407

> <Gold.PLP.ligand.clash>
0.0000

> <Gold.PLP.ligand.torsion>
0.5184

> <Gold.PLP.Chemscore.Hbond>
3.0455

> <Gold.PLP.Chemscore.CHOScore>
0.0000

> <Gold.PLP.Chemscore.Metal>
0.0000

> <Gold.Chemscore.Hbonds>
donor molecule, donor type, donor heavy atom, donor atom, acceptor molecule, acceptor atom, score
      L1  H     5    24       P1  7948  0.82
      L1  H     8    25       P1  7948  0.82
      P1  H  6896  6909       L1    18  0.61
      P1  H 10752 10765       L1     2  1.00

> <Gold.PLP.Chemscore.Internal.Correction>
0.0181

> <Gold.Rescore>
     Score         DG    S(hbond)    S(metal)    S(lipo)     H(rot)  DE(clash)    DE(int)     intcor
     18.09     -21.18       3.18        0.00      69.81       1.21       0.25       2.84       ----

> <Gold.Chemscore.Fitness>
18.0906

> <Gold.Chemscore.DG>
-21.1805

> <Gold.Chemscore.ZeroCoef>
-5.4800

> <Gold.Chemscore.Hbond>
3.1842

> <Gold.Chemscore.Metal>
0.0000

> <Gold.Chemscore.Lipo>
69.8086

> <Gold.Chemscore.Internal_Hbond>
0.0000

> <Gold.Chemscore.DEClash>
0.2488

> <Gold.Chemscore.DEInternal>
2.8411

> <Gold.Chemscore.Rot>
1.2119

> <Gold.Chemscore.Internal.Correction>
   9.000000E+99

> <Gold.Chemscore.Hbonds>
donor molecule, donor type, donor heavy atom, donor atom, acceptor molecule, acceptor atom, score
      L1  H     5    24       P1  7948  0.81
      L1  H     8    25       P1  7948  0.77
      P1  H  6896  6909       L1    18  0.54
      P1  H 10752 10765       L1     2  0.65

> <Gold.Chemscore.Hbond.Weighted>
-10.6353

> <Gold.Chemscore.Metal.Weighted>
-0.0000

> <Gold.Chemscore.Lipo.Weighted>
-8.1676

> <Gold.Chemscore.Internal_Hbond.Weighted>
0.0000

> <Gold.Chemscore.DEClash.Weighted>
0.2488

> <Gold.Chemscore.DEInternal.Weighted>
2.8411

> <Gold.Chemscore.Rot.Weighted>
3.1024

> <Gold.Chemscore.Internal.Correction.Weighted>
   9.000000E+99

> <Gold.Protein.RotatedTorsions>
[ 6907 6896 6895 6894 ] final   43.07 input  -60.11 | X-H torsion
[ 7974 7965 7964 7962 ] final  -24.17 input  175.53 | X-H torsion
[ 8008 7997 7996 7995 ] final  -40.08 input   59.86 | X-H torsion
[ 10167 10162 10161 10158 ] final  166.98 input  -65.29 | X-H torsion
[ 10718 10713 10712 10709 ] final  -34.09 input   66.30 | X-H torsion
[ 10763 10752 10751 10750 ] final -174.05 input  -60.55 | X-H torsion
[ 11005 11000 10999 10996 ] final  -71.68 input  -57.11 | X-H torsion

> <Gold.Protein.ActiveResidues>
 VAL166  LYS551  ARG553  GLY616  TRP617  ASP618  TYR619  PRO620  LYS621  CYS622 
 ASP623  PHE694  ASN695  SER759  ASP760  ASP761  ALA762  ILE779  LEU786  VAL792 
 PHE793  MET794  SER795  GLU796  ALA797  LYS798  CYS799  TRP800  GLU811  SER814 

> <Gold.Protein.RotatedAtoms>
  152.2158  134.8459  160.0491 H   0  0  0  0  0  0  0  0  0  0  0  0  # atno 6907 bound_to 6896
  151.9261  133.3593  159.3922 H   0  0  0  0  0  0  0  0  0  0  0  0  # atno 6908 bound_to 6896
  150.6987  134.4510  159.5380 H   0  0  0  0  0  0  0  0  0  0  0  0  # atno 6909 bound_to 6896
  146.1571  140.4715  142.8587 H   0  0  0  0  0  0  0  0  0  0  0  0  # atno 7974 bound_to 7965
  154.4016  140.1535  156.2969 H   0  0  0  0  0  0  0  0  0  0  0  0  # atno 8008 bound_to 7997
  155.8736  140.3447  155.5816 H   0  0  0  0  0  0  0  0  0  0  0  0  # atno 8009 bound_to 7997
  155.7747  140.0835  157.2080 H   0  0  0  0  0  0  0  0  0  0  0  0  # atno 8010 bound_to 7997
  139.4935  144.3970  151.9452 H   0  0  0  0  0  0  0  0  0  0  0  0  # atno 10167 bound_to 10162
  156.3547  130.4314  149.7674 H   0  0  0  0  0  0  0  0  0  0  0  0  # atno 10718 bound_to 10713
  154.6007  135.2854  155.0538 H   0  0  0  0  0  0  0  0  0  0  0  0  # atno 10763 bound_to 10752
  154.1804  135.6457  153.5036 H   0  0  0  0  0  0  0  0  0  0  0  0  # atno 10764 bound_to 10752
  153.0156  135.5422  154.6725 H   0  0  0  0  0  0  0  0  0  0  0  0  # atno 10765 bound_to 10752
  141.1596  133.6824  156.6943 H   0  0  0  0  0  0  0  0  0  0  0  0  # atno 11005 bound_to 11000
  144.7978  140.6156  143.6498 LP  0  0  0  0  0  0  0  0  0  0  0  0  # atno 17320 bound_to 7965
  145.4680  139.1506  143.3830 LP  0  0  0  0  0  0  0  0  0  0  0  0  # atno 17321 bound_to 7965
  140.3409  144.3205  150.5967 LP  0  0  0  0  0  0  0  0  0  0  0  0  # atno 17342 bound_to 10162
  140.5567  143.2198  151.7836 LP  0  0  0  0  0  0  0  0  0  0  0  0  # atno 17343 bound_to 10162
  156.4861  130.8063  151.3075 LP  0  0  0  0  0  0  0  0  0  0  0  0  # atno 17370 bound_to 10713
  157.7466  130.9990  150.2874 LP  0  0  0  0  0  0  0  0  0  0  0  0  # atno 17371 bound_to 10713
  140.3007  134.8166  157.4095 LP  0  0  0  0  0  0  0  0  0  0  0  0  # atno 17394 bound_to 11000
  140.1265  134.5152  155.8141 LP  0  0  0  0  0  0  0  0  0  0  0  0  # atno 17395 bound_to 11000

$$$$
