AV-unprocessed.smi:500|AV-procd|sdf|2734|dock9
  -GOLD-   2262023183D 1   1.00000     0.00000
 Structure written by MMmdl.
 45 47  0  0  0  0  0  0  0  0  1 V2000
  151.8082  129.3345  154.3891 C   0  0  0  0  0  0  0  0  0  0  0  0
  150.5813  130.2416  154.2214 C   0  0  0  0  0  0  0  0  0  0  0  0
  149.3723  129.4959  154.1855 O   0  0  0  0  0  0  0  0  0  0  0  0
  148.2096  130.2803  153.9689 C   0  0  0  0  0  0  0  0  0  0  0  0
  148.3768  131.0530  152.6548 C   0  0  0  0  0  0  0  0  0  0  0  0
  147.5401  132.2434  152.6186 N   0  0  0  0  0  0  0  0  0  0  0  0
  147.6289  133.3668  153.3786 C   0  0  0  0  0  0  0  0  0  0  0  0
  148.6820  133.5535  154.4430 C   0  0  2  0  0  0  0  0  0  0  0  0
  148.1072  133.4108  155.8590 C   0  0  0  0  0  0  0  0  0  0  0  0
  149.2826  134.8737  154.2693 N   0  0  0  0  0  0  0  0  0  0  0  0
  150.3021  135.3611  154.9948 C   0  0  0  0  0  0  0  0  0  0  0  0
  150.8301  134.7459  155.9213 O   0  0  0  0  0  0  0  0  0  0  0  0
  150.7684  136.7096  154.6219 C   0  0  0  0  0  0  0  0  0  0  0  0
  150.0870  137.8824  154.4273 C   0  0  0  0  0  0  0  0  0  0  0  0
  151.0546  138.8597  154.0645 C   0  0  0  0  0  0  0  0  0  0  0  0
  152.2573  138.2139  154.0602 C   0  0  0  0  0  0  0  0  0  0  0  0
  152.0999  136.9044  154.3940 O   0  0  0  0  0  0  0  0  0  0  0  0
  146.7235  134.3126  153.1134 N   0  0  0  0  0  0  0  0  0  0  0  0
  145.9762  133.7490  152.0997 C   0  0  0  0  0  0  0  0  0  0  0  0
  144.8632  134.2550  151.3907 C   0  0  0  0  0  0  0  0  0  0  0  0
  144.2503  133.4850  150.3808 C   0  0  0  0  0  0  0  0  0  0  0  0
  144.7408  132.2012  150.0664 C   0  0  0  0  0  0  0  0  0  0  0  0
  145.8493  131.6789  150.7604 C   0  0  0  0  0  0  0  0  0  0  0  0
  146.4586  132.4522  151.7674 C   0  0  0  0  0  0  0  0  0  0  0  0
  152.7129  129.9308  154.5104 H   0  0  0  0  0  0  0  0  0  0  0  0
  151.9585  128.6883  153.5248 H   0  0  0  0  0  0  0  0  0  0  0  0
  151.7076  128.7008  155.2703 H   0  0  0  0  0  0  0  0  0  0  0  0
  150.5245  130.9148  155.0769 H   0  0  0  0  0  0  0  0  0  0  0  0
  150.6776  130.8732  153.3371 H   0  0  0  0  0  0  0  0  0  0  0  0
  147.3296  129.6377  153.9122 H   0  0  0  0  0  0  0  0  0  0  0  0
  148.0568  130.9742  154.7948 H   0  0  0  0  0  0  0  0  0  0  0  0
  149.4167  131.3362  152.4935 H   0  0  0  0  0  0  0  0  0  0  0  0
  148.1115  130.4116  151.8141 H   0  0  0  0  0  0  0  0  0  0  0  0
  149.4663  132.8050  154.3405 H   0  0  0  0  0  0  0  0  0  0  0  0
  147.6615  132.4260  156.0016 H   0  0  0  0  0  0  0  0  0  0  0  0
  147.3353  134.1558  156.0552 H   0  0  0  0  0  0  0  0  0  0  0  0
  148.8859  133.5326  156.6125 H   0  0  0  0  0  0  0  0  0  0  0  0
  148.9129  135.4483  153.5261 H   0  0  0  0  0  0  0  0  0  0  0  0
  149.0208  138.0221  154.5309 H   0  0  0  0  0  0  0  0  0  0  0  0
  150.8910  139.9020  153.8340 H   0  0  0  0  0  0  0  0  0  0  0  0
  153.2723  138.5182  153.8513 H   0  0  0  0  0  0  0  0  0  0  0  0
  144.4802  135.2372  151.6248 H   0  0  0  0  0  0  0  0  0  0  0  0
  143.3998  133.8809  149.8456 H   0  0  0  0  0  0  0  0  0  0  0  0
  144.2657  131.6172  149.2918 H   0  0  0  0  0  0  0  0  0  0  0  0
  146.2247  130.6953  150.5201 H   0  0  0  0  0  0  0  0  0  0  0  0
  1  2  1  0  0  0  0
  1 25  1  0  0  0  0
  1 26  1  0  0  0  0
  1 27  1  0  0  0  0
  2  3  1  0  0  0  0
  2 28  1  0  0  0  0
  2 29  1  0  0  0  0
  3  4  1  0  0  0  0
  4  5  1  0  0  0  0
  4 30  1  0  0  0  0
  4 31  1  0  0  0  0
  5  6  1  0  0  0  0
  5 32  1  0  0  0  0
  5 33  1  0  0  0  0
  6 24  1  0  0  0  0
  6  7  1  0  0  0  0
  7  8  1  0  0  0  0
  7 18  2  0  0  0  0
  8  9  1  0  0  0  0
  8 10  1  0  0  0  0
  8 34  1  0  0  0  0
  9 35  1  0  0  0  0
  9 36  1  0  0  0  0
  9 37  1  0  0  0  0
 10 11  1  0  0  0  0
 10 38  1  0  0  0  0
 11 12  2  0  0  0  0
 11 13  1  0  0  0  0
 13 17  1  0  0  0  0
 13 14  2  0  0  0  0
 14 15  1  0  0  0  0
 14 39  1  0  0  0  0
 15 16  2  0  0  0  0
 15 40  1  0  0  0  0
 16 17  1  0  0  0  0
 16 41  1  0  0  0  0
 18 19  1  0  0  0  0
 19 24  2  0  0  0  0
 19 20  1  0  0  0  0
 20 21  2  0  0  0  0
 20 42  1  0  0  0  0
 21 22  1  0  0  0  0
 21 43  1  0  0  0  0
 22 23  2  0  0  0  0
 22 44  1  0  0  0  0
 23 24  1  0  0  0  0
 23 45  1  0  0  0  0
M  END
> <s_m_source_file>
AV-unprocessed.smi

> <i_m_source_file_index>
500

> <i_lp_mmshare_version>
43012

> <i_f3d_flags>
0

> <s_epik_input>
W0NIM11bQ0gyXU9bQ0gyXVtDSDJdbihjKGMxMilbY0hdW2NIXVtjSF1bY0hdMiljKG4xKVtDQEhdKFtDSDNdKVtOSF1DKD1PKWMzW2NIXVtjSF1bY0hdbzM=

> <s_epik_cmdline>
J2VwaWtfcHl0aG9uJywgJy1waCcsICc3LjAnLCAnLXRuJywgJzgnLCAnLW1hJywgJzIwMCcsICctbWV0YWxfYmluZGluZycsICctaW1hZScsICc8aW5maWxlLm1hZT4nLCAnLW9tYWUnLCAnPG91dGZpbGUubWFlPic=

> <r_epik_Ionization_Penalty>
0.109801

> <r_epik_Ionization_Penalty_Charging>
0

> <r_epik_Ionization_Penalty_Neutral>
0.109801

> <r_epik_State_Penalty>
0.0995533

> <r_epik_Charging_Adjusted_Penalty>
0.0995533

> <i_epik_Tot_Q>
0

> <i_epik_Tot_abs_Q>
0

> <r_epik_Metal_State_Penalty>
0.0918163

> <b_epik_Metal_Only>
0

> <s_lp_Force_Field>
OPLS_2005

> <r_lp_Energy>
8.25657

> <b_lp_Chiralities_Consistent>
1

> <s_lp_Variant>
AV-unprocessed.smi:500-1

> <Gold.Version>
5.8.1

> <Gold.Id.Protein>
6NUR|6NUR_protein|mol2

> <Gold.PLP.Fitness>
42.0358

> <Gold.PLP.PLP>
-38.7630

> <Gold.PLP.part.hbond>
-2.0000

> <Gold.PLP.part.metal>
0.0000

> <Gold.PLP.part.buried>
-2.7593

> <Gold.PLP.part.nonpolar>
-34.4089

> <Gold.PLP.part.repulsive>
0.3102

> <Gold.PLP.ligand.clash>
0.0000

> <Gold.PLP.ligand.torsion>
1.4013

> <Gold.PLP.Chemscore.Hbond>
1.9920

> <Gold.PLP.Chemscore.CHOScore>
0.0000

> <Gold.PLP.Chemscore.Metal>
0.0000

> <Gold.Chemscore.Hbonds>
donor molecule, donor type, donor heavy atom, donor atom, acceptor molecule, acceptor atom, score
      L1  H    10    38       P1  7948  1.00
      P1  H 10752 10763       L1    17  0.92

> <Gold.PLP.Chemscore.Internal.Correction>
0.0993

> <Gold.Rescore>
     Score         DG    S(hbond)    S(metal)    S(lipo)     H(rot)  DE(clash)    DE(int)     intcor
     15.68     -18.68       1.71        0.00     105.86       1.92       1.98       1.02       ----

> <Gold.Chemscore.Fitness>
15.6821

> <Gold.Chemscore.DG>
-18.6845

> <Gold.Chemscore.ZeroCoef>
-5.4800

> <Gold.Chemscore.Hbond>
1.7134

> <Gold.Chemscore.Metal>
0.0000

> <Gold.Chemscore.Lipo>
105.8629

> <Gold.Chemscore.Internal_Hbond>
0.0000

> <Gold.Chemscore.DEClash>
1.9833

> <Gold.Chemscore.DEInternal>
1.0191

> <Gold.Chemscore.Rot>
1.9156

> <Gold.Chemscore.Internal.Correction>
   9.000000E+99

> <Gold.Chemscore.Hbonds>
donor molecule, donor type, donor heavy atom, donor atom, acceptor molecule, acceptor atom, score
      L1  H    10    38       P1  7948  0.76
      P1  H 10752 10763       L1    17  0.78

> <Gold.Chemscore.Hbond.Weighted>
-5.7226

> <Gold.Chemscore.Metal.Weighted>
-0.0000

> <Gold.Chemscore.Lipo.Weighted>
-12.3860

> <Gold.Chemscore.Internal_Hbond.Weighted>
0.0000

> <Gold.Chemscore.DEClash.Weighted>
1.9833

> <Gold.Chemscore.DEInternal.Weighted>
1.0191

> <Gold.Chemscore.Rot.Weighted>
4.9041

> <Gold.Chemscore.Internal.Correction.Weighted>
   9.000000E+99

> <Gold.Protein.RotatedTorsions>
[ 6907 6896 6895 6894 ] final -107.78 input  -60.11 | X-H torsion
[ 7974 7965 7964 7962 ] final  -60.81 input  175.53 | X-H torsion
[ 8008 7997 7996 7995 ] final  -59.72 input   59.86 | X-H torsion
[ 10167 10162 10161 10158 ] final  -85.36 input  -65.29 | X-H torsion
[ 10718 10713 10712 10709 ] final   14.05 input   66.30 | X-H torsion
[ 10763 10752 10751 10750 ] final   45.91 input  -60.55 | X-H torsion
[ 11005 11000 10999 10996 ] final  -40.59 input  -57.11 | X-H torsion

> <Gold.Protein.ActiveResidues>
 VAL166  LYS551  ARG553  GLY616  TRP617  ASP618  TYR619  PRO620  LYS621  CYS622 
 ASP623  PHE694  ASN695  SER759  ASP760  ASP761  ALA762  ILE779  LEU786  VAL792 
 PHE793  MET794  SER795  GLU796  ALA797  LYS798  CYS799  TRP800  GLU811  SER814 

> <Gold.Protein.RotatedAtoms>
  150.7464  133.9775  159.3565 H   0  0  0  0  0  0  0  0  0  0  0  0  # atno 6907 bound_to 6896
  151.7713  135.0783  160.0370 H   0  0  0  0  0  0  0  0  0  0  0  0  # atno 6908 bound_to 6896
  152.3337  133.5950  159.5863 H   0  0  0  0  0  0  0  0  0  0  0  0  # atno 6909 bound_to 6896
  145.8110  140.8598  143.0182 H   0  0  0  0  0  0  0  0  0  0  0  0  # atno 7974 bound_to 7965
  154.4365  140.1055  156.6160 H   0  0  0  0  0  0  0  0  0  0  0  0  # atno 8008 bound_to 7997
  155.5758  140.3490  155.4508 H   0  0  0  0  0  0  0  0  0  0  0  0  # atno 8009 bound_to 7997
  156.0355  140.1270  157.0201 H   0  0  0  0  0  0  0  0  0  0  0  0  # atno 8010 bound_to 7997
  140.4045  143.2648  151.9099 H   0  0  0  0  0  0  0  0  0  0  0  0  # atno 10167 bound_to 10162
  157.0336  130.6202  149.5739 H   0  0  0  0  0  0  0  0  0  0  0  0  # atno 10718 bound_to 10713
  152.9818  135.6025  154.3513 H   0  0  0  0  0  0  0  0  0  0  0  0  # atno 10763 bound_to 10752
  154.3202  135.2770  155.2525 H   0  0  0  0  0  0  0  0  0  0  0  0  # atno 10764 bound_to 10752
  154.4695  135.5945  153.6367 H   0  0  0  0  0  0  0  0  0  0  0  0  # atno 10765 bound_to 10752
  141.0185  133.6874  156.2342 H   0  0  0  0  0  0  0  0  0  0  0  0  # atno 11005 bound_to 11000
  144.6757  140.0396  143.7481 LP  0  0  0  0  0  0  0  0  0  0  0  0  # atno 17320 bound_to 7965
  145.9777  139.2917  143.1060 LP  0  0  0  0  0  0  0  0  0  0  0  0  # atno 17321 bound_to 7965
  139.4784  144.5600  151.8254 LP  0  0  0  0  0  0  0  0  0  0  0  0  # atno 17342 bound_to 10162
  140.4704  144.1594  150.5917 LP  0  0  0  0  0  0  0  0  0  0  0  0  # atno 17343 bound_to 10162
  156.0061  130.5148  150.7835 LP  0  0  0  0  0  0  0  0  0  0  0  0  # atno 17370 bound_to 10713
  157.5159  131.0928  151.0140 LP  0  0  0  0  0  0  0  0  0  0  0  0  # atno 17371 bound_to 10713
  140.6613  134.4965  157.5583 LP  0  0  0  0  0  0  0  0  0  0  0  0  # atno 17394 bound_to 11000
  139.9132  134.8301  156.1456 LP  0  0  0  0  0  0  0  0  0  0  0  0  # atno 17395 bound_to 11000

$$$$
