AV-unprocessed.smi:1434|AV-procd|sdf|5853|dock8
  -GOLD-   22720 5523D 1   1.00000     0.00000
 Structure written by MMmdl.
 43 44  0  0  0  0  0  0  0  0  2 V2000
  147.5087  137.6274  158.5053 C   0  0  0  0  0  0  0  0  0  0  0  0
  148.3096  136.2958  159.4846 S   0  0  0  0  0  0  0  0  0  0  0  0
  148.8159  136.9448  160.7047 O   0  0  0  0  0  0  0  0  0  0  0  0
  147.2844  135.2533  159.6533 O   0  0  0  0  0  0  0  0  0  0  0  0
  149.4957  135.8537  158.4706 N   0  5  0  0  0  0  0  0  0  0  0  0
  149.7743  136.6533  157.2867 C   0  0  2  0  0  0  0  0  0  0  0  0
  150.4296  135.7922  156.1734 C   0  0  0  0  0  0  0  0  0  0  0  0
  150.9869  136.6289  154.9902 C   0  0  0  0  0  0  0  0  0  0  0  0
  151.8939  137.7890  155.4599 C   0  0  0  0  0  0  0  0  0  0  0  0
  151.1210  138.5852  156.4396 N   0  0  0  0  0  0  0  0  0  0  0  0
  150.7521  139.8851  156.2894 C   0  0  0  0  0  0  0  0  0  0  0  0
  150.9226  140.5210  155.2482 O   0  0  0  0  0  0  0  0  0  0  0  0
  150.2326  140.4540  157.3907 N   0  0  0  0  0  0  0  0  0  0  0  0
  149.8350  141.8522  157.5067 C   0  0  0  0  0  0  0  0  0  0  0  0
  151.0314  142.7962  157.2997 C   0  0  0  0  0  0  0  0  0  0  0  0
  151.4775  143.4516  158.5926 C   0  0  0  0  0  0  0  0  0  0  0  0
  152.3481  142.7810  159.4781 C   0  0  0  0  0  0  0  0  0  0  0  0
  152.7284  143.4334  160.6670 C   0  0  0  0  0  0  0  0  0  0  0  0
  152.2249  144.7232  160.9241 C   0  0  0  0  0  0  0  0  0  0  0  0
  151.3595  145.3059  159.9766 C   0  0  0  0  0  0  0  0  0  0  0  0
  150.9890  144.6892  158.8337 N   0  0  0  0  0  0  0  0  0  0  0  0
  150.7547  137.8047  157.6442 C   0  0  0  0  0  0  0  0  0  0  0  0
  146.6708  138.0352  159.0697 H   0  0  0  0  0  0  0  0  0  0  0  0
  147.1468  137.2173  157.5631 H   0  0  0  0  0  0  0  0  0  0  0  0
  148.2321  138.4173  158.3058 H   0  0  0  0  0  0  0  0  0  0  0  0
  148.8658  137.1045  156.8855 H   0  0  0  0  0  0  0  0  0  0  0  0
  151.2526  135.2179  156.6020 H   0  0  0  0  0  0  0  0  0  0  0  0
  149.7164  135.0612  155.7927 H   0  0  0  0  0  0  0  0  0  0  0  0
  151.5445  135.9781  154.3163 H   0  0  0  0  0  0  0  0  0  0  0  0
  150.1615  137.0325  154.4001 H   0  0  0  0  0  0  0  0  0  0  0  0
  152.7833  137.3911  155.9508 H   0  0  0  0  0  0  0  0  0  0  0  0
  152.2594  138.3513  154.6009 H   0  0  0  0  0  0  0  0  0  0  0  0
  150.1358  139.8804  158.2157 H   0  0  0  0  0  0  0  0  0  0  0  0
  149.0402  142.0750  156.7926 H   0  0  0  0  0  0  0  0  0  0  0  0
  149.4118  142.0026  158.5002 H   0  0  0  0  0  0  0  0  0  0  0  0
  151.8691  142.2466  156.8681 H   0  0  0  0  0  0  0  0  0  0  0  0
  150.7778  143.5780  156.5822 H   0  0  0  0  0  0  0  0  0  0  0  0
  152.7164  141.7907  159.2540 H   0  0  0  0  0  0  0  0  0  0  0  0
  153.3940  142.9531  161.3688 H   0  0  0  0  0  0  0  0  0  0  0  0
  152.4950  145.2537  161.8251 H   0  0  0  0  0  0  0  0  0  0  0  0
  150.9540  146.2932  160.1410 H   0  0  0  0  0  0  0  0  0  0  0  0
  150.3121  138.4276  158.4233 H   0  0  0  0  0  0  0  0  0  0  0  0
  151.6680  137.3983  158.0822 H   0  0  0  0  0  0  0  0  0  0  0  0
  1  2  1  0  0  0  0
  1 23  1  0  0  0  0
  1 24  1  0  0  0  0
  1 25  1  0  0  0  0
  2  3  2  0  0  0  0
  2  4  2  0  0  0  0
  2  5  1  0  0  0  0
  5  6  1  0  0  0  0
  6 22  1  0  0  0  0
  6  7  1  0  0  0  0
  6 26  1  0  0  0  0
  7  8  1  0  0  0  0
  7 27  1  0  0  0  0
  7 28  1  0  0  0  0
  8  9  1  0  0  0  0
  8 29  1  0  0  0  0
  8 30  1  0  0  0  0
  9 10  1  0  0  0  0
  9 31  1  0  0  0  0
  9 32  1  0  0  0  0
 10 11  1  0  0  0  0
 10 22  1  0  0  0  0
 11 12  2  0  0  0  0
 11 13  1  0  0  0  0
 13 14  1  0  0  0  0
 13 33  1  0  0  0  0
 14 15  1  0  0  0  0
 14 34  1  0  0  0  0
 14 35  1  0  0  0  0
 15 16  1  0  0  0  0
 15 36  1  0  0  0  0
 15 37  1  0  0  0  0
 16 21  1  0  0  0  0
 16 17  2  0  0  0  0
 17 18  1  0  0  0  0
 17 38  1  0  0  0  0
 18 19  2  0  0  0  0
 18 39  1  0  0  0  0
 19 20  1  0  0  0  0
 19 40  1  0  0  0  0
 20 21  2  0  0  0  0
 20 41  1  0  0  0  0
 22 42  1  0  0  0  0
 22 43  1  0  0  0  0
M  CHG  1   5  -1
M  END
> <s_m_source_file>
AV-unprocessed.smi

> <i_m_source_file_index>
1434

> <i_lp_mmshare_version>
43012

> <i_f3d_flags>
0

> <s_epik_input>
W0NIM11TKD1PKSg9TylbTkhdW0NAQEhdMVtDSDJdW0NIMl1bQ0gyXU4oW0NIMl0xKUMoPU8pW05IXVtDSDJdW0NIMl1jMltjSF1bY0hdW2NIXVtjSF1uMg==

> <s_epik_cmdline>
J2VwaWtfcHl0aG9uJywgJy1waCcsICc3LjAnLCAnLXRuJywgJzgnLCAnLW1hJywgJzIwMCcsICctbWV0YWxfYmluZGluZycsICctaW1hZScsICc8aW5maWxlLm1hZT4nLCAnLW9tYWUnLCAnPG91dGZpbGUubWFlPic=

> <r_epik_Ionization_Penalty>
6.57847

> <r_epik_Ionization_Penalty_Charging>
6.53351

> <r_epik_Ionization_Penalty_Neutral>
0.0449527

> <r_epik_State_Penalty>
6.57157

> <r_epik_Charging_Adjusted_Penalty>
13.1051

> <i_epik_Tot_Q>
-1

> <i_epik_Tot_abs_Q>
1

> <r_epik_Metal_State_Penalty>
2.53928

> <b_epik_Metal_Only>
1

> <s_lp_Force_Field>
OPLS_2005

> <r_lp_Energy>
19.5099

> <b_lp_Chiralities_Consistent>
1

> <s_lp_Variant>
AV-unprocessed.smi:1434-5

> <Gold.Version>
5.8.1

> <Gold.Id.Protein>
6NUR|6NUR_protein|mol2

> <Gold.PLP.Fitness>
43.1219

> <Gold.PLP.PLP>
-35.3548

> <Gold.PLP.part.hbond>
-3.0000

> <Gold.PLP.part.metal>
0.0000

> <Gold.PLP.part.buried>
-7.2252

> <Gold.PLP.part.nonpolar>
-26.4880

> <Gold.PLP.part.repulsive>
0.2379

> <Gold.PLP.ligand.clash>
1.3656

> <Gold.PLP.ligand.torsion>
1.7050

> <Gold.PLP.Chemscore.Hbond>
3.8400

> <Gold.PLP.Chemscore.CHOScore>
0.0000

> <Gold.PLP.Chemscore.Metal>
0.0000

> <Gold.Chemscore.Hbonds>
donor molecule, donor type, donor heavy atom, donor atom, acceptor molecule, acceptor atom, score
      P1  H  6896  6909       L1     5  1.95
      P1  H  6931  6943       L1     3  0.85
      P1  H  7989  7998       L1    12  0.98

> <Gold.PLP.Chemscore.Internal.Correction>
1.0227

> <Gold.Rescore>
     Score         DG    S(hbond)    S(metal)    S(lipo)     H(rot)  DE(clash)    DE(int)     intcor
     19.67     -21.39       2.81        0.00      92.62       1.68       0.01       1.71       ----

> <Gold.Chemscore.Fitness>
19.6724

> <Gold.Chemscore.DG>
-21.3888

> <Gold.Chemscore.ZeroCoef>
-5.4800

> <Gold.Chemscore.Hbond>
2.8072

> <Gold.Chemscore.Metal>
0.0000

> <Gold.Chemscore.Lipo>
92.6246

> <Gold.Chemscore.Internal_Hbond>
0.0000

> <Gold.Chemscore.DEClash>
0.0089

> <Gold.Chemscore.DEInternal>
1.7075

> <Gold.Chemscore.Rot>
1.6813

> <Gold.Chemscore.Internal.Correction>
   9.000000E+99

> <Gold.Chemscore.Hbonds>
donor molecule, donor type, donor heavy atom, donor atom, acceptor molecule, acceptor atom, score
      P1  H  6896  6909       L1     5  0.46
      P1  H  6931  6943       L1     3  0.83
      P1  H  7989  7998       L1    12  0.93

> <Gold.Chemscore.Hbond.Weighted>
-9.3760

> <Gold.Chemscore.Metal.Weighted>
-0.0000

> <Gold.Chemscore.Lipo.Weighted>
-10.8371

> <Gold.Chemscore.Internal_Hbond.Weighted>
0.0000

> <Gold.Chemscore.DEClash.Weighted>
0.0089

> <Gold.Chemscore.DEInternal.Weighted>
1.7075

> <Gold.Chemscore.Rot.Weighted>
4.3042

> <Gold.Chemscore.Internal.Correction.Weighted>
   9.000000E+99

> <Gold.Protein.RotatedTorsions>
[ 6907 6896 6895 6894 ] final   50.44 input  -60.11 | X-H torsion
[ 7974 7965 7964 7962 ] final -156.34 input  175.53 | X-H torsion
[ 8008 7997 7996 7995 ] final  -34.22 input   59.86 | X-H torsion
[ 10167 10162 10161 10158 ] final  -24.12 input  -65.29 | X-H torsion
[ 10718 10713 10712 10709 ] final  -64.76 input   66.30 | X-H torsion
[ 10763 10752 10751 10750 ] final -117.41 input  -60.55 | X-H torsion
[ 11005 11000 10999 10996 ] final  165.87 input  -57.11 | X-H torsion

> <Gold.Protein.ActiveResidues>
 VAL166  LYS551  ARG553  GLY616  TRP617  ASP618  TYR619  PRO620  LYS621  CYS622 
 ASP623  PHE694  ASN695  SER759  ASP760  ASP761  ALA762  ILE779  LEU786  VAL792 
 PHE793  MET794  SER795  GLU796  ALA797  LYS798  CYS799  TRP800  GLU811  SER814 

> <Gold.Protein.RotatedAtoms>
  152.3019  134.7601  160.0355 H   0  0  0  0  0  0  0  0  0  0  0  0  # atno 6907 bound_to 6896
  151.8112  133.3377  159.3564 H   0  0  0  0  0  0  0  0  0  0  0  0  # atno 6908 bound_to 6896
  150.7277  134.5592  159.5878 H   0  0  0  0  0  0  0  0  0  0  0  0  # atno 6909 bound_to 6896
  144.7598  140.4123  143.5985 H   0  0  0  0  0  0  0  0  0  0  0  0  # atno 7974 bound_to 7965
  154.4127  140.1690  156.2014 H   0  0  0  0  0  0  0  0  0  0  0  0  # atno 8008 bound_to 7997
  155.9521  140.3400  155.6393 H   0  0  0  0  0  0  0  0  0  0  0  0  # atno 8009 bound_to 7997
  155.6857  140.0728  157.2458 H   0  0  0  0  0  0  0  0  0  0  0  0  # atno 8010 bound_to 7997
  140.7288  143.4382  151.0697 H   0  0  0  0  0  0  0  0  0  0  0  0  # atno 10167 bound_to 10162
  156.0710  130.4238  150.1466 H   0  0  0  0  0  0  0  0  0  0  0  0  # atno 10718 bound_to 10713
  154.8554  135.4311  154.1975 H   0  0  0  0  0  0  0  0  0  0  0  0  # atno 10763 bound_to 10752
  153.3029  135.6970  153.7192 H   0  0  0  0  0  0  0  0  0  0  0  0  # atno 10764 bound_to 10752
  153.6315  135.3484  155.3017 H   0  0  0  0  0  0  0  0  0  0  0  0  # atno 10765 bound_to 10752
  140.2606  134.7905  157.3586 H   0  0  0  0  0  0  0  0  0  0  0  0  # atno 11005 bound_to 11000
  145.6658  139.1590  143.2782 LP  0  0  0  0  0  0  0  0  0  0  0  0  # atno 17320 bound_to 7965
  146.1648  140.6734  142.9260 LP  0  0  0  0  0  0  0  0  0  0  0  0  # atno 17321 bound_to 7965
  139.8046  143.8035  152.3166 LP  0  0  0  0  0  0  0  0  0  0  0  0  # atno 17342 bound_to 10162
  139.8064  144.7353  150.9756 LP  0  0  0  0  0  0  0  0  0  0  0  0  # atno 17343 bound_to 10162
  156.9517  130.9777  151.3497 LP  0  0  0  0  0  0  0  0  0  0  0  0  # atno 17370 bound_to 10713
  157.5780  130.8357  149.8483 LP  0  0  0  0  0  0  0  0  0  0  0  0  # atno 17371 bound_to 10713
  140.1469  134.4900  155.7990 LP  0  0  0  0  0  0  0  0  0  0  0  0  # atno 17394 bound_to 11000
  141.2191  133.6847  156.7309 LP  0  0  0  0  0  0  0  0  0  0  0  0  # atno 17395 bound_to 11000

$$$$
