AV-unprocessed.smi:1068|AV-procd|sdf|4674|dock9
  -GOLD-   22720 3183D 1   1.00000     0.00000
 Structure written by MMmdl.
 51 52  0  0  0  0  0  0  0  0  1 V2000
  150.8008  129.6051  154.7844 C   0  0  0  0  0  0  0  0  0  0  0  0
  149.4705  130.2942  155.1703 C   0  0  0  0  0  0  0  0  0  0  0  0
  148.4075  129.7535  154.1854 C   0  0  0  0  0  0  0  0  0  0  0  0
  149.0869  129.9045  156.6096 C   0  0  0  0  0  0  0  0  0  0  0  0
  149.5895  131.8248  155.0698 C   0  0  0  0  0  0  0  0  0  0  0  0
  148.8687  132.4320  154.1180 N   0  0  0  0  0  0  0  0  0  0  0  0
  149.0603  133.7549  153.9352 C   0  0  0  0  0  0  0  0  0  0  0  0
  150.0021  134.4846  154.6874 C   0  0  0  0  0  0  0  0  0  0  0  0
  150.1607  135.8722  154.4263 N   0  0  0  0  0  0  0  0  0  0  0  0
  151.0778  136.7196  154.9221 C   0  0  0  0  0  0  0  0  0  0  0  0
  151.9390  136.4337  155.7528 O   0  0  0  0  0  0  0  0  0  0  0  0
  150.9385  137.9450  154.3950 N   0  0  0  0  0  0  0  0  0  0  0  0
  151.7822  139.0999  154.7055 C   0  0  0  0  0  0  0  0  0  0  0  0
  151.7406  139.5570  156.1730 C   0  0  0  0  0  0  0  0  0  0  0  0
  152.0539  138.7584  157.0548 O   0  0  0  0  0  0  0  0  0  0  0  0
  151.3576  140.8183  156.4361 N   0  0  0  0  0  0  0  0  0  0  0  0
  151.2754  141.4255  157.7602 C   0  0  0  0  0  0  0  0  0  0  0  0
  151.0910  142.9530  157.6479 C   0  0  0  0  0  0  0  0  0  0  0  0
  151.0878  143.6223  159.0318 C   0  0  0  0  0  0  0  0  0  0  0  0
  152.3599  143.2777  159.8216 C   0  0  0  0  0  0  0  0  0  0  0  0
  152.5434  141.7565  159.9413 C   0  0  0  0  0  0  0  0  0  0  0  0
  152.5482  141.0850  158.5586 C   0  0  0  0  0  0  0  0  0  0  0  0
  150.7464  133.7366  155.6310 C   0  0  0  0  0  0  0  0  0  0  0  0
  150.5440  132.4127  155.8028 N   0  0  0  0  0  0  0  0  0  0  0  0
  150.7061  128.5188  154.8048 H   0  0  0  0  0  0  0  0  0  0  0  0
  151.6085  129.8625  155.4705 H   0  0  0  0  0  0  0  0  0  0  0  0
  151.1179  129.8871  153.7797 H   0  0  0  0  0  0  0  0  0  0  0  0
  148.6373  130.0372  153.1576 H   0  0  0  0  0  0  0  0  0  0  0  0
  147.4088  130.1260  154.4160 H   0  0  0  0  0  0  0  0  0  0  0  0
  148.3517  128.6649  154.2196 H   0  0  0  0  0  0  0  0  0  0  0  0
  148.9931  128.8234  156.7180 H   0  0  0  0  0  0  0  0  0  0  0  0
  148.1336  130.3482  156.8993 H   0  0  0  0  0  0  0  0  0  0  0  0
  149.8373  130.2432  157.3248 H   0  0  0  0  0  0  0  0  0  0  0  0
  148.4590  134.2325  153.1751 H   0  0  0  0  0  0  0  0  0  0  0  0
  149.4775  136.2737  153.8007 H   0  0  0  0  0  0  0  0  0  0  0  0
  150.2005  138.0918  153.7222 H   0  0  0  0  0  0  0  0  0  0  0  0
  152.8115  138.8394  154.4586 H   0  0  0  0  0  0  0  0  0  0  0  0
  151.5164  139.9414  154.0635 H   0  0  0  0  0  0  0  0  0  0  0  0
  151.1197  141.4083  155.6521 H   0  0  0  0  0  0  0  0  0  0  0  0
  150.4201  141.0039  158.2922 H   0  0  0  0  0  0  0  0  0  0  0  0
  151.8934  143.3780  157.0430 H   0  0  0  0  0  0  0  0  0  0  0  0
  150.1594  143.1835  157.1301 H   0  0  0  0  0  0  0  0  0  0  0  0
  150.9998  144.7035  158.9217 H   0  0  0  0  0  0  0  0  0  0  0  0
  150.2107  143.2961  159.5922 H   0  0  0  0  0  0  0  0  0  0  0  0
  153.2280  143.7130  159.3249 H   0  0  0  0  0  0  0  0  0  0  0  0
  152.3145  143.7261  160.8146 H   0  0  0  0  0  0  0  0  0  0  0  0
  153.4735  141.5346  160.4652 H   0  0  0  0  0  0  0  0  0  0  0  0
  151.7394  141.3375  160.5477 H   0  0  0  0  0  0  0  0  0  0  0  0
  152.6376  140.0042  158.6764 H   0  0  0  0  0  0  0  0  0  0  0  0
  153.4305  141.4088  158.0045 H   0  0  0  0  0  0  0  0  0  0  0  0
  151.5245  134.1671  156.2412 H   0  0  0  0  0  0  0  0  0  0  0  0
  1  2  1  0  0  0  0
  1 25  1  0  0  0  0
  1 26  1  0  0  0  0
  1 27  1  0  0  0  0
  2  3  1  0  0  0  0
  2  4  1  0  0  0  0
  2  5  1  0  0  0  0
  3 28  1  0  0  0  0
  3 29  1  0  0  0  0
  3 30  1  0  0  0  0
  4 31  1  0  0  0  0
  4 32  1  0  0  0  0
  4 33  1  0  0  0  0
  5 24  1  0  0  0  0
  5  6  2  0  0  0  0
  6  7  1  0  0  0  0
  7  8  2  0  0  0  0
  7 34  1  0  0  0  0
  8  9  1  0  0  0  0
  8 23  1  0  0  0  0
  9 10  1  0  0  0  0
  9 35  1  0  0  0  0
 10 11  2  0  0  0  0
 10 12  1  0  0  0  0
 12 13  1  0  0  0  0
 12 36  1  0  0  0  0
 13 14  1  0  0  0  0
 13 37  1  0  0  0  0
 13 38  1  0  0  0  0
 14 15  2  0  0  0  0
 14 16  1  0  0  0  0
 16 17  1  0  0  0  0
 16 39  1  0  0  0  0
 17 22  1  0  0  0  0
 17 18  1  0  0  0  0
 17 40  1  0  0  0  0
 18 19  1  0  0  0  0
 18 41  1  0  0  0  0
 18 42  1  0  0  0  0
 19 20  1  0  0  0  0
 19 43  1  0  0  0  0
 19 44  1  0  0  0  0
 20 21  1  0  0  0  0
 20 45  1  0  0  0  0
 20 46  1  0  0  0  0
 21 22  1  0  0  0  0
 21 47  1  0  0  0  0
 21 48  1  0  0  0  0
 22 49  1  0  0  0  0
 22 50  1  0  0  0  0
 23 24  2  0  0  0  0
 23 51  1  0  0  0  0
M  END
> <s_m_source_file>
AV-unprocessed.smi

> <i_m_source_file_index>
1068

> <i_lp_mmshare_version>
43012

> <i_f3d_flags>
0

> <s_epik_input>
W0NIM11DKFtDSDNdKShbQ0gzXSljMW5bY0hdYyhbY0hdbjEpW05IXUMoPU8pW05IXVtDSDJdQyg9TylbTkhdW0NIXTJbQ0gyXVtDSDJdW0NIMl1bQ0gyXVtDSDJdMg==

> <s_epik_cmdline>
J2VwaWtfcHl0aG9uJywgJy1waCcsICc3LjAnLCAnLXRuJywgJzgnLCAnLW1hJywgJzIwMCcsICctbWV0YWxfYmluZGluZycsICctaW1hZScsICc8aW5maWxlLm1hZT4nLCAnLW9tYWUnLCAnPG91dGZpbGUubWFlPic=

> <r_lp_tautomer_probability>
1

> <r_epik_Ionization_Penalty>
2.47974e-05

> <r_epik_Ionization_Penalty_Charging>
0

> <r_epik_Ionization_Penalty_Neutral>
2.47974e-05

> <r_epik_State_Penalty>
-0

> <r_epik_Charging_Adjusted_Penalty>
0

> <i_epik_Tot_Q>
0

> <i_epik_Tot_abs_Q>
0

> <r_epik_Metal_State_Penalty>
-0

> <b_epik_Metal_Only>
0

> <s_lp_Force_Field>
OPLS_2005

> <r_lp_Energy>
3.00881

> <b_lp_Chiralities_Consistent>
1

> <s_lp_Variant>
AV-unprocessed.smi:1068-1

> <Gold.Version>
5.8.1

> <Gold.Id.Protein>
6NUR|6NUR_protein|mol2

> <Gold.PLP.Fitness>
47.7107

> <Gold.PLP.PLP>
-39.8829

> <Gold.PLP.part.hbond>
-2.7985

> <Gold.PLP.part.metal>
0.0000

> <Gold.PLP.part.buried>
-3.3895

> <Gold.PLP.part.nonpolar>
-33.9486

> <Gold.PLP.part.repulsive>
0.4113

> <Gold.PLP.ligand.clash>
0.0000

> <Gold.PLP.ligand.torsion>
0.2421

> <Gold.PLP.Chemscore.Hbond>
1.7520

> <Gold.PLP.Chemscore.CHOScore>
0.9659

> <Gold.PLP.Chemscore.Metal>
0.0000

> <Gold.Chemscore.Hbonds>
donor molecule, donor type, donor heavy atom, donor atom, acceptor molecule, acceptor atom, score
      L1  H     9    35       P1  7948  0.77
      P1  H 10752 10763       L1    11  1.00
      L1  C     7    34       P1  7948  0.94

> <Gold.PLP.Chemscore.Internal.Correction>
0.1584

> <Gold.Rescore>
     Score         DG    S(hbond)    S(metal)    S(lipo)     H(rot)  DE(clash)    DE(int)     intcor
     12.66     -17.00       1.40        0.00      94.37       1.64       0.08       4.26       ----

> <Gold.Chemscore.Fitness>
12.6571

> <Gold.Chemscore.DG>
-17.0012

> <Gold.Chemscore.ZeroCoef>
-5.4800

> <Gold.Chemscore.Hbond>
1.4031

> <Gold.Chemscore.Metal>
0.0000

> <Gold.Chemscore.Lipo>
94.3702

> <Gold.Chemscore.Internal_Hbond>
0.0000

> <Gold.Chemscore.DEClash>
0.0833

> <Gold.Chemscore.DEInternal>
4.2608

> <Gold.Chemscore.Rot>
1.6431

> <Gold.Chemscore.Internal.Correction>
   9.000000E+99

> <Gold.Chemscore.Hbonds>
donor molecule, donor type, donor heavy atom, donor atom, acceptor molecule, acceptor atom, score
      L1  H     9    35       P1  7948  0.53
      P1  H 10752 10763       L1    11  0.25

> <Gold.Chemscore.Hbond.Weighted>
-4.6862

> <Gold.Chemscore.Metal.Weighted>
-0.0000

> <Gold.Chemscore.Lipo.Weighted>
-11.0413

> <Gold.Chemscore.Internal_Hbond.Weighted>
0.0000

> <Gold.Chemscore.DEClash.Weighted>
0.0833

> <Gold.Chemscore.DEInternal.Weighted>
4.2608

> <Gold.Chemscore.Rot.Weighted>
4.2063

> <Gold.Chemscore.Internal.Correction.Weighted>
   9.000000E+99

> <Gold.Protein.RotatedTorsions>
[ 6907 6896 6895 6894 ] final   24.66 input  -60.11 | X-H torsion
[ 7974 7965 7964 7962 ] final  101.07 input  175.53 | X-H torsion
[ 8008 7997 7996 7995 ] final  128.75 input   59.86 | X-H torsion
[ 10167 10162 10161 10158 ] final -114.30 input  -65.29 | X-H torsion
[ 10718 10713 10712 10709 ] final -157.52 input   66.30 | X-H torsion
[ 10763 10752 10751 10750 ] final   70.47 input  -60.55 | X-H torsion
[ 11005 11000 10999 10996 ] final  -54.29 input  -57.11 | X-H torsion

> <Gold.Protein.ActiveResidues>
 VAL166  LYS551  ARG553  GLY616  TRP617  ASP618  TYR619  PRO620  LYS621  CYS622 
 ASP623  PHE694  ASN695  SER759  ASP760  ASP761  ALA762  ILE779  LEU786  VAL792 
 PHE793  MET794  SER795  GLU796  ALA797  LYS798  CYS799  TRP800  GLU811  SER814 

> <Gold.Protein.RotatedAtoms>
  151.9608  135.0124  160.0547 H   0  0  0  0  0  0  0  0  0  0  0  0  # atno 6907 bound_to 6896
  152.1870  133.4742  159.4996 H   0  0  0  0  0  0  0  0  0  0  0  0  # atno 6908 bound_to 6896
  150.6928  134.1678  159.4243 H   0  0  0  0  0  0  0  0  0  0  0  0  # atno 6909 bound_to 6896
  145.3772  139.2386  143.3423 H   0  0  0  0  0  0  0  0  0  0  0  0  # atno 7974 bound_to 7965
  156.2922  140.2637  156.2487 H   0  0  0  0  0  0  0  0  0  0  0  0  # atno 8008 bound_to 7997
  154.9904  140.0389  157.2335 H   0  0  0  0  0  0  0  0  0  0  0  0  # atno 8009 bound_to 7997
  154.7691  140.2775  155.6157 H   0  0  0  0  0  0  0  0  0  0  0  0  # atno 8010 bound_to 7997
  140.1024  143.4601  152.1804 H   0  0  0  0  0  0  0  0  0  0  0  0  # atno 10167 bound_to 10162
  156.5414  130.8565  151.2750 H   0  0  0  0  0  0  0  0  0  0  0  0  # atno 10718 bound_to 10713
  153.0343  135.5173  154.7445 H   0  0  0  0  0  0  0  0  0  0  0  0  # atno 10763 bound_to 10752
  154.6435  135.2915  155.0077 H   0  0  0  0  0  0  0  0  0  0  0  0  # atno 10764 bound_to 10752
  154.0987  135.6639  153.4917 H   0  0  0  0  0  0  0  0  0  0  0  0  # atno 10765 bound_to 10752
  141.1018  133.6617  156.4299 H   0  0  0  0  0  0  0  0  0  0  0  0  # atno 11005 bound_to 11000
  146.2859  140.4433  142.8758 LP  0  0  0  0  0  0  0  0  0  0  0  0  # atno 17320 bound_to 7965
  144.8534  140.7034  143.6154 LP  0  0  0  0  0  0  0  0  0  0  0  0  # atno 17321 bound_to 7965
  139.5664  144.7437  151.4011 LP  0  0  0  0  0  0  0  0  0  0  0  0  # atno 17342 bound_to 10162
  140.6970  143.7724  150.7343 LP  0  0  0  0  0  0  0  0  0  0  0  0  # atno 17343 bound_to 10162
  157.7404  130.9850  150.2378 LP  0  0  0  0  0  0  0  0  0  0  0  0  # atno 17370 bound_to 10713
  156.2968  130.3753  149.7789 LP  0  0  0  0  0  0  0  0  0  0  0  0  # atno 17371 bound_to 10713
  140.5001  134.6493  157.5245 LP  0  0  0  0  0  0  0  0  0  0  0  0  # atno 17394 bound_to 11000
  139.9873  134.7041  155.9751 LP  0  0  0  0  0  0  0  0  0  0  0  0  # atno 17395 bound_to 11000

$$$$
