AV-unprocessed.smi:2259|AV-procd|sdf|9130|dock4
  -GOLD-   2272012333D 1   1.00000     0.00000
 Structure written by MMmdl.
 39 40  0  0  0  0  0  0  0  0  1 V2000
  151.5198  144.6180  160.7309 C   0  0  0  0  0  0  0  0  0  0  0  0
  152.3780  143.3690  160.6369 C   0  0  0  0  0  0  0  0  0  0  0  0
  152.4027  142.7461  159.3859 N   0  0  0  0  0  0  0  0  0  0  0  0
  153.0997  141.6711  159.2144 C   0  0  0  0  0  0  0  0  0  0  0  0
  153.8433  141.0972  160.2602 N   0  0  0  0  0  0  0  0  0  0  0  0
  154.5985  139.8718  159.9399 C   0  0  0  0  0  0  0  0  0  0  0  0
  156.1294  140.0423  160.0832 C   0  0  2  0  0  0  0  0  0  0  0  0
  156.7029  139.6807  158.8433 O   0  0  0  0  0  0  0  0  0  0  0  0
  156.7544  139.1610  161.1801 C   0  0  0  0  0  0  0  0  0  0  0  0
  155.8087  138.9944  162.2281 O   0  0  0  0  0  0  0  0  0  0  0  0
  155.4759  137.7128  162.6119 C   0  0  0  0  0  0  0  0  0  0  0  0
  154.6757  137.5785  163.7651 C   0  0  0  0  0  0  0  0  0  0  0  0
  154.2881  136.3077  164.2318 C   0  0  0  0  0  0  0  0  0  0  0  0
  154.6993  135.1489  163.5442 C   0  0  0  0  0  0  0  0  0  0  0  0
  154.3020  133.8356  164.0241 C   0  0  0  0  0  0  0  0  0  0  0  0
  153.9856  132.7904  164.4061 N   0  0  0  0  0  0  0  0  0  0  0  0
  155.4972  135.2694  162.3894 C   0  0  0  0  0  0  0  0  0  0  0  0
  155.8846  136.5416  161.9245 C   0  0  0  0  0  0  0  0  0  0  0  0
  153.8906  141.6535  161.5055 C   0  0  0  0  0  0  0  0  0  0  0  0
  154.5665  141.1588  162.4096 O   0  0  0  0  0  0  0  0  0  0  0  0
  153.0845  142.8714  161.6882 C   0  0  0  0  0  0  0  0  0  0  0  0
  153.0954  143.5067  163.0731 C   0  0  0  0  0  0  0  0  0  0  0  0
  152.1250  145.4765  161.0232 H   0  0  0  0  0  0  0  0  0  0  0  0
  150.7273  144.4820  161.4673 H   0  0  0  0  0  0  0  0  0  0  0  0
  151.0506  144.8507  159.7740 H   0  0  0  0  0  0  0  0  0  0  0  0
  153.1474  141.1469  158.2583 H   0  0  0  0  0  0  0  0  0  0  0  0
  154.2689  139.0256  160.5464 H   0  0  0  0  0  0  0  0  0  0  0  0
  154.3606  139.5810  158.9147 H   0  0  0  0  0  0  0  0  0  0  0  0
  156.3665  141.0895  160.2736 H   0  0  0  0  0  0  0  0  0  0  0  0
  157.6411  139.7732  158.9061 H   0  0  0  0  0  0  0  0  0  0  0  0
  156.9814  138.1737  160.7781 H   0  0  0  0  0  0  0  0  0  0  0  0
  157.6874  139.5970  161.5420 H   0  0  0  0  0  0  0  0  0  0  0  0
  154.3557  138.4611  164.2996 H   0  0  0  0  0  0  0  0  0  0  0  0
  153.6754  136.2298  165.1187 H   0  0  0  0  0  0  0  0  0  0  0  0
  155.8175  134.3876  161.8530 H   0  0  0  0  0  0  0  0  0  0  0  0
  156.4954  136.5915  161.0361 H   0  0  0  0  0  0  0  0  0  0  0  0
  152.7395  142.7929  163.8167 H   0  0  0  0  0  0  0  0  0  0  0  0
  152.4671  144.3930  163.1443 H   0  0  0  0  0  0  0  0  0  0  0  0
  154.1100  143.8005  163.3440 H   0  0  0  0  0  0  0  0  0  0  0  0
  1  2  1  0  0  0  0
  1 23  1  0  0  0  0
  1 24  1  0  0  0  0
  1 25  1  0  0  0  0
  2 21  2  0  0  0  0
  2  3  1  0  0  0  0
  3  4  2  0  0  0  0
  4  5  1  0  0  0  0
  4 26  1  0  0  0  0
  5  6  1  0  0  0  0
  5 19  1  0  0  0  0
  6  7  1  0  0  0  0
  6 27  1  0  0  0  0
  6 28  1  0  0  0  0
  7  8  1  0  0  0  0
  7  9  1  0  0  0  0
  7 29  1  0  0  0  0
  8 30  1  0  0  0  0
  9 10  1  0  0  0  0
  9 31  1  0  0  0  0
  9 32  1  0  0  0  0
 10 11  1  0  0  0  0
 11 18  1  0  0  0  0
 11 12  2  0  0  0  0
 12 13  1  0  0  0  0
 12 33  1  0  0  0  0
 13 14  2  0  0  0  0
 13 34  1  0  0  0  0
 14 15  1  0  0  0  0
 14 17  1  0  0  0  0
 15 16  3  0  0  0  0
 17 18  2  0  0  0  0
 17 35  1  0  0  0  0
 18 36  1  0  0  0  0
 19 20  2  0  0  0  0
 19 21  1  0  0  0  0
 21 22  1  0  0  0  0
 22 37  1  0  0  0  0
 22 38  1  0  0  0  0
 22 39  1  0  0  0  0
M  END
> <s_m_source_file>
AV-unprocessed.smi

> <i_m_source_file_index>
2259

> <i_lp_mmshare_version>
43012

> <i_f3d_flags>
0

> <s_epik_input>
W0NIM11jMW5bY0hdbihjKD1PKWMxW0NIM10pW0NIMl1bQ0BIXShbT0hdKVtDSDJdT2MyW2NIXVtjSF1jKEMjTilbY0hdW2NIXTI=

> <s_epik_cmdline>
J2VwaWtfcHl0aG9uJywgJy1waCcsICc3LjAnLCAnLXRuJywgJzgnLCAnLW1hJywgJzIwMCcsICctbWV0YWxfYmluZGluZycsICctaW1hZScsICc8aW5maWxlLm1hZT4nLCAnLW9tYWUnLCAnPG91dGZpbGUubWFlPic=

> <r_lp_tautomer_probability>
1

> <r_epik_Ionization_Penalty>
3.47921e-05

> <r_epik_Ionization_Penalty_Charging>
7.82631e-08

> <r_epik_Ionization_Penalty_Neutral>
3.47138e-05

> <r_epik_State_Penalty>
-0

> <r_epik_Charging_Adjusted_Penalty>
7.82631e-08

> <i_epik_Tot_Q>
0

> <i_epik_Tot_abs_Q>
0

> <r_epik_Metal_State_Penalty>
-0

> <b_epik_Metal_Only>
0

> <s_lp_Force_Field>
OPLS_2005

> <r_lp_Energy>
23.7954

> <b_lp_Chiralities_Consistent>
1

> <s_lp_Variant>
AV-unprocessed.smi:2259-1

> <Gold.Version>
5.8.1

> <Gold.Id.Protein>
6NUR|6NUR_protein|mol2

> <Gold.PLP.Fitness>
45.0497

> <Gold.PLP.PLP>
-45.0274

> <Gold.PLP.part.hbond>
-2.0000

> <Gold.PLP.part.metal>
0.0000

> <Gold.PLP.part.buried>
-6.3321

> <Gold.PLP.part.nonpolar>
-35.4118

> <Gold.PLP.part.repulsive>
0.0379

> <Gold.PLP.ligand.clash>
0.0000

> <Gold.PLP.ligand.torsion>
1.5270

> <Gold.PLP.Chemscore.Hbond>
1.0000

> <Gold.PLP.Chemscore.CHOScore>
0.0000

> <Gold.PLP.Chemscore.Metal>
0.0000

> <Gold.Chemscore.Hbonds>
donor molecule, donor type, donor heavy atom, donor atom, acceptor molecule, acceptor atom, score
      P1  H  7997  8009       L1     8  1.00

> <Gold.PLP.Chemscore.Internal.Correction>
0.0762

> <Gold.Rescore>
     Score         DG    S(hbond)    S(metal)    S(lipo)     H(rot)  DE(clash)    DE(int)     intcor
     10.61     -14.01       0.97        0.00     103.35       2.66       0.11       3.28       ----

> <Gold.Chemscore.Fitness>
10.6119

> <Gold.Chemscore.DG>
-14.0088

> <Gold.Chemscore.ZeroCoef>
-5.4800

> <Gold.Chemscore.Hbond>
0.9692

> <Gold.Chemscore.Metal>
0.0000

> <Gold.Chemscore.Lipo>
103.3506

> <Gold.Chemscore.Internal_Hbond>
0.0000

> <Gold.Chemscore.DEClash>
0.1130

> <Gold.Chemscore.DEInternal>
3.2840

> <Gold.Chemscore.Rot>
2.6563

> <Gold.Chemscore.Internal.Correction>
   9.000000E+99

> <Gold.Chemscore.Hbonds>
donor molecule, donor type, donor heavy atom, donor atom, acceptor molecule, acceptor atom, score
      P1  H  7997  8009       L1     8  0.92

> <Gold.Chemscore.Hbond.Weighted>
-3.2370

> <Gold.Chemscore.Metal.Weighted>
-0.0000

> <Gold.Chemscore.Lipo.Weighted>
-12.0920

> <Gold.Chemscore.Internal_Hbond.Weighted>
0.0000

> <Gold.Chemscore.DEClash.Weighted>
0.1130

> <Gold.Chemscore.DEInternal.Weighted>
3.2840

> <Gold.Chemscore.Rot.Weighted>
6.8002

> <Gold.Chemscore.Internal.Correction.Weighted>
   9.000000E+99

> <Gold.Protein.RotatedTorsions>
[ 6907 6896 6895 6894 ] final -164.67 input  -60.11 | X-H torsion
[ 7974 7965 7964 7962 ] final  140.44 input  175.53 | X-H torsion
[ 8008 7997 7996 7995 ] final   70.30 input   59.86 | X-H torsion
[ 10167 10162 10161 10158 ] final   29.57 input  -65.29 | X-H torsion
[ 10718 10713 10712 10709 ] final   73.71 input   66.30 | X-H torsion
[ 10763 10752 10751 10750 ] final   60.67 input  -60.55 | X-H torsion
[ 11005 11000 10999 10996 ] final -126.99 input  -57.11 | X-H torsion

> <Gold.Protein.ActiveResidues>
 VAL166  LYS551  ARG553  GLY616  TRP617  ASP618  TYR619  PRO620  LYS621  CYS622 
 ASP623  PHE694  ASN695  SER759  ASP760  ASP761  ALA762  ILE779  LEU786  VAL792 
 PHE793  MET794  SER795  GLU796  ALA797  LYS798  CYS799  TRP800  GLU811  SER814 

> <Gold.Protein.RotatedAtoms>
  151.4155  133.3714  159.2749 H   0  0  0  0  0  0  0  0  0  0  0  0  # atno 6907 bound_to 6896
  150.9331  134.8747  159.7575 H   0  0  0  0  0  0  0  0  0  0  0  0  # atno 6908 bound_to 6896
  152.5037  134.4101  159.9498 H   0  0  0  0  0  0  0  0  0  0  0  0  # atno 6909 bound_to 6896
  144.9187  139.5196  143.5674 H   0  0  0  0  0  0  0  0  0  0  0  0  # atno 7974 bound_to 7965
  155.7367  140.3491  155.5085 H   0  0  0  0  0  0  0  0  0  0  0  0  # atno 8008 bound_to 7997
  155.9132  140.1054  157.1285 H   0  0  0  0  0  0  0  0  0  0  0  0  # atno 8009 bound_to 7997
  154.4059  140.1264  156.4571 H   0  0  0  0  0  0  0  0  0  0  0  0  # atno 8010 bound_to 7997
  140.4754  144.0698  150.6249 H   0  0  0  0  0  0  0  0  0  0  0  0  # atno 10167 bound_to 10162
  157.6560  130.9642  150.1108 H   0  0  0  0  0  0  0  0  0  0  0  0  # atno 10718 bound_to 10713
  152.9928  135.5528  154.5911 H   0  0  0  0  0  0  0  0  0  0  0  0  # atno 10763 bound_to 10752
  154.5273  135.2811  155.1213 H   0  0  0  0  0  0  0  0  0  0  0  0  # atno 10764 bound_to 10752
  154.2543  135.6393  153.5304 H   0  0  0  0  0  0  0  0  0  0  0  0  # atno 10765 bound_to 10752
  140.9636  134.0903  157.3943 H   0  0  0  0  0  0  0  0  0  0  0  0  # atno 11005 bound_to 11000
  146.3194  139.8049  142.8957 LP  0  0  0  0  0  0  0  0  0  0  0  0  # atno 17320 bound_to 7965
  145.3333  141.0271  143.3434 LP  0  0  0  0  0  0  0  0  0  0  0  0  # atno 17321 bound_to 7965
  140.3924  143.2745  152.0044 LP  0  0  0  0  0  0  0  0  0  0  0  0  # atno 17342 bound_to 10162
  139.4825  144.6066  151.7510 LP  0  0  0  0  0  0  0  0  0  0  0  0  # atno 17343 bound_to 10162
  156.2005  130.3660  149.8794 LP  0  0  0  0  0  0  0  0  0  0  0  0  # atno 17370 bound_to 10713
  156.6699  130.8816  151.3560 LP  0  0  0  0  0  0  0  0  0  0  0  0  # atno 17371 bound_to 10713
  139.8886  135.0099  156.6633 LP  0  0  0  0  0  0  0  0  0  0  0  0  # atno 17394 bound_to 11000
  140.7432  133.8960  155.8293 LP  0  0  0  0  0  0  0  0  0  0  0  0  # atno 17395 bound_to 11000

$$$$
