AV-unprocessed.smi:2893|AV-procd|sdf|11125|dock10
  -GOLD-   2272016 03D 1   1.00000     0.00000
 Structure written by MMmdl.
 37 39  0  0  0  0  0  0  0  0  1 V2000
  154.8812  133.5063  158.4233 C   0  0  0  0  0  0  0  0  0  0  0  0
  155.8235  134.6974  158.2049 C   0  0  0  0  0  0  0  0  0  0  0  0
  155.0890  135.9537  158.1163 N   0  0  0  0  0  0  0  0  0  0  0  0
  154.2434  136.4259  159.0484 C   0  0  0  0  0  0  0  0  0  0  0  0
  154.0044  135.8361  160.1030 O   0  0  0  0  0  0  0  0  0  0  0  0
  153.6188  137.7635  158.7524 C   0  0  0  0  0  0  0  0  0  0  0  0
  153.0561  138.5296  159.7963 C   0  0  0  0  0  0  0  0  0  0  0  0
  152.4742  139.7650  159.4643 C   0  0  0  0  0  0  0  0  0  0  0  0
  152.4879  140.1525  158.1112 C   0  0  0  0  0  0  0  0  0  0  0  0
  151.9129  141.3794  157.7516 N   0  0  0  0  0  0  0  0  0  0  0  0
  151.5712  142.3763  158.7605 C   0  0  1  0  0  0  0  0  0  0  0  0
  152.7940  142.9113  159.5172 C   0  0  0  0  0  0  0  0  0  0  0  0
  152.6766  144.4219  159.2821 C   0  0  2  0  0  0  0  0  0  0  0  0
  151.4778  145.0345  160.0193 C   0  0  0  0  0  0  0  0  0  0  0  0
  150.3040  144.5274  159.1822 C   0  0  0  0  0  0  0  0  0  0  0  0
  151.0148  143.6646  158.1308 C   0  0  1  0  0  0  0  0  0  0  0  0
  152.1974  144.4268  157.9492 O   0  0  0  0  0  0  0  0  0  0  0  0
  153.0426  139.3729  157.1509 N   0  0  0  0  0  0  0  0  0  0  0  0
  153.5952  138.1970  157.4662 N   0  0  0  0  0  0  0  0  0  0  0  0
  155.4411  132.5716  158.4577 H   0  0  0  0  0  0  0  0  0  0  0  0
  154.1521  133.4273  157.6163 H   0  0  0  0  0  0  0  0  0  0  0  0
  154.3347  133.5986  159.3624 H   0  0  0  0  0  0  0  0  0  0  0  0
  156.5652  134.7474  159.0038 H   0  0  0  0  0  0  0  0  0  0  0  0
  156.3775  134.5618  157.2759 H   0  0  0  0  0  0  0  0  0  0  0  0
  155.2307  136.5109  157.2856 H   0  0  0  0  0  0  0  0  0  0  0  0
  153.0671  138.1884  160.8213 H   0  0  0  0  0  0  0  0  0  0  0  0
  152.0310  140.3908  160.2251 H   0  0  0  0  0  0  0  0  0  0  0  0
  151.9083  141.6585  156.7812 H   0  0  0  0  0  0  0  0  0  0  0  0
  150.8328  141.9536  159.4433 H   0  0  0  0  0  0  0  0  0  0  0  0
  152.7789  142.6509  160.5759 H   0  0  0  0  0  0  0  0  0  0  0  0
  153.7266  142.5374  159.0915 H   0  0  0  0  0  0  0  0  0  0  0  0
  153.6107  144.9656  159.4254 H   0  0  0  0  0  0  0  0  0  0  0  0
  151.4257  144.7148  161.0607 H   0  0  0  0  0  0  0  0  0  0  0  0
  151.5210  146.1239  159.9967 H   0  0  0  0  0  0  0  0  0  0  0  0
  149.5777  143.9617  159.7668 H   0  0  0  0  0  0  0  0  0  0  0  0
  149.7852  145.3621  158.7092 H   0  0  0  0  0  0  0  0  0  0  0  0
  150.4278  143.5110  157.2244 H   0  0  0  0  0  0  0  0  0  0  0  0
  1  2  1  0  0  0  0
  1 20  1  0  0  0  0
  1 21  1  0  0  0  0
  1 22  1  0  0  0  0
  2  3  1  0  0  0  0
  2 23  1  0  0  0  0
  2 24  1  0  0  0  0
  3  4  1  0  0  0  0
  3 25  1  0  0  0  0
  4  5  2  0  0  0  0
  4  6  1  0  0  0  0
  6 19  1  0  0  0  0
  6  7  2  0  0  0  0
  7  8  1  0  0  0  0
  7 26  1  0  0  0  0
  8  9  2  0  0  0  0
  8 27  1  0  0  0  0
  9 10  1  0  0  0  0
  9 18  1  0  0  0  0
 10 11  1  0  0  0  0
 10 28  1  0  0  0  0
 11 16  1  0  0  0  0
 11 12  1  0  0  0  0
 11 29  1  0  0  0  0
 12 13  1  0  0  0  0
 12 30  1  0  0  0  0
 12 31  1  0  0  0  0
 13 17  1  0  0  0  0
 13 14  1  0  0  0  0
 13 32  1  0  0  0  0
 14 15  1  0  0  0  0
 14 33  1  0  0  0  0
 14 34  1  0  0  0  0
 15 16  1  0  0  0  0
 15 35  1  0  0  0  0
 15 36  1  0  0  0  0
 16 17  1  0  0  0  0
 16 37  1  0  0  0  0
 18 19  2  0  0  0  0
M  END
> <s_m_source_file>
AV-unprocessed.smi

> <i_m_source_file_index>
2893

> <i_lp_mmshare_version>
43012

> <i_f3d_flags>
0

> <s_epik_input>
W0NIM11bQ0gyXVtOSF1DKD1PKWMxW2NIXVtjSF1jKG5uMSlbTkhdW0NASF0oW0NIMl1bQ0BASF0yMylbQ0BASF0oTzMpW0NIMl1bQ0gyXTI=

> <s_epik_cmdline>
J2VwaWtfcHl0aG9uJywgJy1waCcsICc3LjAnLCAnLXRuJywgJzgnLCAnLW1hJywgJzIwMCcsICctbWV0YWxfYmluZGluZycsICctaW1hZScsICc8aW5maWxlLm1hZT4nLCAnLW9tYWUnLCAnPG91dGZpbGUubWFlPic=

> <r_lp_tautomer_probability>
1

> <r_epik_Ionization_Penalty>
0.00432031

> <r_epik_Ionization_Penalty_Charging>
0

> <r_epik_Ionization_Penalty_Neutral>
0.00432031

> <r_epik_State_Penalty>
-0

> <r_epik_Charging_Adjusted_Penalty>
0

> <i_epik_Tot_Q>
0

> <i_epik_Tot_abs_Q>
0

> <r_epik_Metal_State_Penalty>
-0

> <b_epik_Metal_Only>
0

> <s_lp_Force_Field>
OPLS_2005

> <r_lp_Energy>
49.39

> <b_lp_Chiralities_Consistent>
1

> <s_lp_Variant>
AV-unprocessed.smi:2893-4

> <Gold.Version>
5.8.1

> <Gold.Id.Protein>
6NUR|6NUR_protein|mol2

> <Gold.PLP.Fitness>
36.0401

> <Gold.PLP.PLP>
-30.4466

> <Gold.PLP.part.hbond>
-2.9102

> <Gold.PLP.part.metal>
0.0000

> <Gold.PLP.part.buried>
-5.1031

> <Gold.PLP.part.nonpolar>
-21.9888

> <Gold.PLP.part.repulsive>
0.2479

> <Gold.PLP.ligand.clash>
0.0000

> <Gold.PLP.ligand.torsion>
0.2145

> <Gold.PLP.Chemscore.Hbond>
2.0000

> <Gold.PLP.Chemscore.CHOScore>
0.0000

> <Gold.PLP.Chemscore.Metal>
0.0000

> <Gold.Chemscore.Hbonds>
donor molecule, donor type, donor heavy atom, donor atom, acceptor molecule, acceptor atom, score
      P1  H  6896  6909       L1     5  1.00
      P1  H  7997  8010       L1    18  0.96

> <Gold.PLP.Chemscore.Internal.Correction>
0.0224

> <Gold.Rescore>
     Score         DG    S(hbond)    S(metal)    S(lipo)     H(rot)  DE(clash)    DE(int)     intcor
     15.33     -16.96       1.40        0.00      84.42       1.21       0.07       1.56       ----

> <Gold.Chemscore.Fitness>
15.3298

> <Gold.Chemscore.DG>
-16.9584

> <Gold.Chemscore.ZeroCoef>
-5.4800

> <Gold.Chemscore.Hbond>
1.4037

> <Gold.Chemscore.Metal>
0.0000

> <Gold.Chemscore.Lipo>
84.4244

> <Gold.Chemscore.Internal_Hbond>
0.0000

> <Gold.Chemscore.DEClash>
0.0727

> <Gold.Chemscore.DEInternal>
1.5558

> <Gold.Chemscore.Rot>
1.2061

> <Gold.Chemscore.Internal.Correction>
   9.000000E+99

> <Gold.Chemscore.Hbonds>
donor molecule, donor type, donor heavy atom, donor atom, acceptor molecule, acceptor atom, score
      P1  H  6896  6909       L1     5  0.86
      P1  H  7997  8010       L1    18  0.20

> <Gold.Chemscore.Hbond.Weighted>
-4.6884

> <Gold.Chemscore.Metal.Weighted>
-0.0000

> <Gold.Chemscore.Lipo.Weighted>
-9.8777

> <Gold.Chemscore.Internal_Hbond.Weighted>
0.0000

> <Gold.Chemscore.DEClash.Weighted>
0.0727

> <Gold.Chemscore.DEInternal.Weighted>
1.5558

> <Gold.Chemscore.Rot.Weighted>
3.0876

> <Gold.Chemscore.Internal.Correction.Weighted>
   9.000000E+99

> <Gold.Protein.RotatedTorsions>
[ 6907 6896 6895 6894 ] final -168.66 input  -60.11 | X-H torsion
[ 7974 7965 7964 7962 ] final -144.03 input  175.53 | X-H torsion
[ 8008 7997 7996 7995 ] final   77.12 input   59.86 | X-H torsion
[ 10167 10162 10161 10158 ] final   -4.50 input  -65.29 | X-H torsion
[ 10718 10713 10712 10709 ] final   17.56 input   66.30 | X-H torsion
[ 10763 10752 10751 10750 ] final -140.46 input  -60.55 | X-H torsion
[ 11005 11000 10999 10996 ] final   53.60 input  -57.11 | X-H torsion

> <Gold.Protein.ActiveResidues>
 VAL166  LYS551  ARG553  GLY616  TRP617  ASP618  TYR619  PRO620  LYS621  CYS622 
 ASP623  PHE694  ASN695  SER759  ASP760  ASP761  ALA762  ILE779  LEU786  VAL792 
 PHE793  MET794  SER795  GLU796  ALA797  LYS798  CYS799  TRP800  GLU811  SER814 

> <Gold.Protein.RotatedAtoms>
  151.4791  133.3550  159.2835 H   0  0  0  0  0  0  0  0  0  0  0  0  # atno 6907 bound_to 6896
  150.8909  134.8314  159.7303 H   0  0  0  0  0  0  0  0  0  0  0  0  # atno 6908 bound_to 6896
  152.4822  134.4701  159.9684 H   0  0  0  0  0  0  0  0  0  0  0  0  # atno 6909 bound_to 6896
  144.8327  140.5761  143.5504 H   0  0  0  0  0  0  0  0  0  0  0  0  # atno 7974 bound_to 7965
  155.8371  140.3464  155.5608 H   0  0  0  0  0  0  0  0  0  0  0  0  # atno 8008 bound_to 7997
  155.8180  140.0908  157.1885 H   0  0  0  0  0  0  0  0  0  0  0  0  # atno 8009 bound_to 7997
  154.4004  140.1435  156.3454 H   0  0  0  0  0  0  0  0  0  0  0  0  # atno 8010 bound_to 7997
  140.6930  143.6416  150.8430 H   0  0  0  0  0  0  0  0  0  0  0  0  # atno 10167 bound_to 10162
  157.0839  130.6399  149.5833 H   0  0  0  0  0  0  0  0  0  0  0  0  # atno 10718 bound_to 10713
  154.8578  135.3552  154.5711 H   0  0  0  0  0  0  0  0  0  0  0  0  # atno 10763 bound_to 10752
  153.6324  135.7001  153.5275 H   0  0  0  0  0  0  0  0  0  0  0  0  # atno 10764 bound_to 10752
  153.3038  135.4198  155.1236 H   0  0  0  0  0  0  0  0  0  0  0  0  # atno 10765 bound_to 10752
  140.0754  134.5412  155.9002 H   0  0  0  0  0  0  0  0  0  0  0  0  # atno 11005 bound_to 11000
  145.4861  139.1492  143.3735 LP  0  0  0  0  0  0  0  0  0  0  0  0  # atno 17320 bound_to 7965
  146.2628  140.4999  142.8846 LP  0  0  0  0  0  0  0  0  0  0  0  0  # atno 17321 bound_to 7965
  140.0131  143.5622  152.2831 LP  0  0  0  0  0  0  0  0  0  0  0  0  # atno 17342 bound_to 10162
  139.6353  144.7649  151.2452 LP  0  0  0  0  0  0  0  0  0  0  0  0  # atno 17343 bound_to 10162
  155.9916  130.4971  150.7306 LP  0  0  0  0  0  0  0  0  0  0  0  0  # atno 17370 bound_to 10713
  157.4777  131.0899  151.0571 LP  0  0  0  0  0  0  0  0  0  0  0  0  # atno 17371 bound_to 10713
  141.2027  133.6627  156.6023 LP  0  0  0  0  0  0  0  0  0  0  0  0  # atno 17394 bound_to 11000
  140.3566  134.7723  157.4504 LP  0  0  0  0  0  0  0  0  0  0  0  0  # atno 17395 bound_to 11000

$$$$
