AV-unprocessed.smi:898|AV-procd|sdf|4083|dock3
  -GOLD-   22720 1573D 1   1.00000     0.00000
 Structure written by MMmdl.
 34 36  0  0  0  0  0  0  0  0  1 V2000
  141.3324  136.7803  153.4910 O   0  0  0  0  0  0  0  0  0  0  0  0
  142.0092  137.7596  153.1770 C   0  0  0  0  0  0  0  0  0  0  0  0
  143.2139  137.7142  152.5814 N   0  0  0  0  0  0  0  0  0  0  0  0
  143.9574  136.5713  152.1842 C   0  0  0  0  0  0  0  0  0  0  0  0
  145.2328  136.6171  151.7752 N   0  0  0  0  0  0  0  0  0  0  0  0
  145.7178  135.3582  151.4495 N   0  0  0  0  0  0  0  0  0  0  0  0
  144.7992  134.3997  151.6201 C   0  0  0  0  0  0  0  0  0  0  0  0
  145.0871  132.9622  151.3392 C   0  0  0  0  0  0  0  0  0  0  0  0
  145.6663  132.5359  150.0099 C   0  0  0  0  0  0  0  0  0  0  0  0
  144.2509  132.1595  150.3663 C   0  0  0  0  0  0  0  0  0  0  0  0
  143.2382  134.9704  152.2012 S   0  0  0  0  0  0  0  0  0  0  0  0
  141.6207  139.0259  153.3879 N   0  0  0  0  0  0  0  0  0  0  0  0
  140.3610  139.4317  154.0060 C   0  0  2  0  0  0  0  0  0  0  0  0
  139.1677  138.8824  153.1960 C   0  0  0  0  0  0  0  0  0  0  0  0
  137.8111  139.2347  153.8277 C   0  0  0  0  0  0  0  0  0  0  0  0
  137.5854  140.7499  153.9269 C   0  0  0  0  0  0  0  0  0  0  0  0
  138.8332  141.5317  154.9849 S   0  0  0  0  0  0  0  0  0  0  0  0
  140.3195  140.9661  154.1124 C   0  0  0  0  0  0  0  0  0  0  0  0
  143.6468  138.6031  152.3796 H   0  0  0  0  0  0  0  0  0  0  0  0
  145.4448  132.4602  152.2360 H   0  0  0  0  0  0  0  0  0  0  0  0
  145.8049  133.3019  149.2490 H   0  0  0  0  0  0  0  0  0  0  0  0
  146.4149  131.7463  150.0191 H   0  0  0  0  0  0  0  0  0  0  0  0
  144.0561  131.1179  150.6134 H   0  0  0  0  0  0  0  0  0  0  0  0
  143.4517  132.6678  149.8306 H   0  0  0  0  0  0  0  0  0  0  0  0
  142.2412  139.7671  153.0975 H   0  0  0  0  0  0  0  0  0  0  0  0
  140.3208  139.0230  155.0178 H   0  0  0  0  0  0  0  0  0  0  0  0
  139.2048  139.2632  152.1744 H   0  0  0  0  0  0  0  0  0  0  0  0
  139.2446  137.7971  153.1186 H   0  0  0  0  0  0  0  0  0  0  0  0
  137.0126  138.7917  153.2316 H   0  0  0  0  0  0  0  0  0  0  0  0
  137.7372  138.7852  154.8187 H   0  0  0  0  0  0  0  0  0  0  0  0
  137.6213  141.2063  152.9373 H   0  0  0  0  0  0  0  0  0  0  0  0
  136.5979  140.9582  154.3395 H   0  0  0  0  0  0  0  0  0  0  0  0
  141.1924  141.3347  154.6525 H   0  0  0  0  0  0  0  0  0  0  0  0
  140.3408  141.4210  153.1213 H   0  0  0  0  0  0  0  0  0  0  0  0
  1  2  2  0  0  0  0
  2  3  1  0  0  0  0
  2 12  1  0  0  0  0
  3  4  1  0  0  0  0
  3 19  1  0  0  0  0
  4 11  1  0  0  0  0
  4  5  2  0  0  0  0
  5  6  1  0  0  0  0
  6  7  2  0  0  0  0
  7  8  1  0  0  0  0
  7 11  1  0  0  0  0
  8 10  1  0  0  0  0
  8  9  1  0  0  0  0
  8 20  1  0  0  0  0
  9 10  1  0  0  0  0
  9 21  1  0  0  0  0
  9 22  1  0  0  0  0
 10 23  1  0  0  0  0
 10 24  1  0  0  0  0
 12 13  1  0  0  0  0
 12 25  1  0  0  0  0
 13 18  1  0  0  0  0
 13 14  1  0  0  0  0
 13 26  1  0  0  0  0
 14 15  1  0  0  0  0
 14 27  1  0  0  0  0
 14 28  1  0  0  0  0
 15 16  1  0  0  0  0
 15 29  1  0  0  0  0
 15 30  1  0  0  0  0
 16 17  1  0  0  0  0
 16 31  1  0  0  0  0
 16 32  1  0  0  0  0
 17 18  1  0  0  0  0
 18 33  1  0  0  0  0
 18 34  1  0  0  0  0
M  END
> <s_m_source_file>
AV-unprocessed.smi

> <i_m_source_file_index>
898

> <i_lp_mmshare_version>
43012

> <i_f3d_flags>
0

> <s_epik_input>
W0NIMl0xU1tDSDJdW0NIMl1bQ0gyXVtDQEhdMVtOSF1DKD1PKVtOSF1jMm5uYyhzMilbQ0hdM1tDSDJdW0NIMl0z

> <s_epik_cmdline>
J2VwaWtfcHl0aG9uJywgJy1waCcsICc3LjAnLCAnLXRuJywgJzgnLCAnLW1hJywgJzIwMCcsICctbWV0YWxfYmluZGluZycsICctaW1hZScsICc8aW5maWxlLm1hZT4nLCAnLW9tYWUnLCAnPG91dGZpbGUubWFlPic=

> <r_lp_tautomer_probability>
1

> <r_epik_Ionization_Penalty>
0.000291725

> <r_epik_Ionization_Penalty_Charging>
0

> <r_epik_Ionization_Penalty_Neutral>
0.000291725

> <r_epik_State_Penalty>
-0

> <r_epik_Charging_Adjusted_Penalty>
0

> <i_epik_Tot_Q>
0

> <i_epik_Tot_abs_Q>
0

> <r_epik_Metal_State_Penalty>
0.160962

> <b_epik_Metal_Only>
0

> <s_lp_Force_Field>
OPLS_2005

> <r_lp_Energy>
2.16534

> <b_lp_Chiralities_Consistent>
1

> <s_lp_Variant>
AV-unprocessed.smi:898-1

> <Gold.Version>
5.8.1

> <Gold.Id.Protein>
6NUR|6NUR_protein|mol2

> <Gold.PLP.Fitness>
37.4733

> <Gold.PLP.PLP>
-31.5322

> <Gold.PLP.part.hbond>
-3.6457

> <Gold.PLP.part.metal>
0.0000

> <Gold.PLP.part.buried>
-3.9173

> <Gold.PLP.part.nonpolar>
-24.0569

> <Gold.PLP.part.repulsive>
0.6251

> <Gold.PLP.ligand.clash>
0.0000

> <Gold.PLP.ligand.torsion>
0.0970

> <Gold.PLP.Chemscore.Hbond>
2.0000

> <Gold.PLP.Chemscore.CHOScore>
0.0000

> <Gold.PLP.Chemscore.Metal>
0.0000

> <Gold.Chemscore.Hbonds>
donor molecule, donor type, donor heavy atom, donor atom, acceptor molecule, acceptor atom, score
      L1  H     3    19       P1 10175  1.00
      L1  H    12    25       P1 10175  1.00

> <Gold.PLP.Chemscore.Internal.Correction>
0.1351

> <Gold.Rescore>
     Score         DG    S(hbond)    S(metal)    S(lipo)     H(rot)  DE(clash)    DE(int)     intcor
     15.62     -16.91       1.87        0.00      70.55       1.20       0.01       1.29       ----

> <Gold.Chemscore.Fitness>
15.6154

> <Gold.Chemscore.DG>
-16.9115

> <Gold.Chemscore.ZeroCoef>
-5.4800

> <Gold.Chemscore.Hbond>
1.8748

> <Gold.Chemscore.Metal>
0.0000

> <Gold.Chemscore.Lipo>
70.5492

> <Gold.Chemscore.Internal_Hbond>
0.0000

> <Gold.Chemscore.DEClash>
0.0110

> <Gold.Chemscore.DEInternal>
1.2851

> <Gold.Chemscore.Rot>
1.2050

> <Gold.Chemscore.Internal.Correction>
   9.000000E+99

> <Gold.Chemscore.Hbonds>
donor molecule, donor type, donor heavy atom, donor atom, acceptor molecule, acceptor atom, score
      L1  H     3    19       P1 10175  0.94
      L1  H    12    25       P1 10175  0.77

> <Gold.Chemscore.Hbond.Weighted>
-6.2620

> <Gold.Chemscore.Metal.Weighted>
-0.0000

> <Gold.Chemscore.Lipo.Weighted>
-8.2543

> <Gold.Chemscore.Internal_Hbond.Weighted>
0.0000

> <Gold.Chemscore.DEClash.Weighted>
0.0110

> <Gold.Chemscore.DEInternal.Weighted>
1.2851

> <Gold.Chemscore.Rot.Weighted>
3.0847

> <Gold.Chemscore.Internal.Correction.Weighted>
   9.000000E+99

> <Gold.Protein.RotatedTorsions>
[ 6907 6896 6895 6894 ] final  -81.23 input  -60.11 | X-H torsion
[ 7974 7965 7964 7962 ] final  -80.84 input  175.53 | X-H torsion
[ 8008 7997 7996 7995 ] final  -30.24 input   59.86 | X-H torsion
[ 10167 10162 10161 10158 ] final  159.76 input  -65.29 | X-H torsion
[ 10718 10713 10712 10709 ] final  157.37 input   66.30 | X-H torsion
[ 10763 10752 10751 10750 ] final -171.99 input  -60.55 | X-H torsion
[ 11005 11000 10999 10996 ] final   -4.91 input  -57.11 | X-H torsion

> <Gold.Protein.ActiveResidues>
 VAL166  LYS551  ARG553  GLY616  TRP617  ASP618  TYR619  PRO620  LYS621  CYS622 
 ASP623  PHE694  ASN695  SER759  ASP760  ASP761  ALA762  ILE779  LEU786  VAL792 
 PHE793  MET794  SER795  GLU796  ALA797  LYS798  CYS799  TRP800  GLU811  SER814 

> <Gold.Protein.RotatedAtoms>
  150.6915  134.3850  159.5050 H   0  0  0  0  0  0  0  0  0  0  0  0  # atno 6907 bound_to 6896
  152.1646  134.8881  160.0548 H   0  0  0  0  0  0  0  0  0  0  0  0  # atno 6908 bound_to 6896
  151.9930  133.3763  159.4189 H   0  0  0  0  0  0  0  0  0  0  0  0  # atno 6909 bound_to 6896
  145.5546  140.9491  143.1480 H   0  0  0  0  0  0  0  0  0  0  0  0  # atno 7974 bound_to 7965
  154.4258  140.1796  156.1376 H   0  0  0  0  0  0  0  0  0  0  0  0  # atno 8008 bound_to 7997
  156.0018  140.3359  155.6828 H   0  0  0  0  0  0  0  0  0  0  0  0  # atno 8009 bound_to 7997
  155.6232  140.0662  157.2662 H   0  0  0  0  0  0  0  0  0  0  0  0  # atno 8010 bound_to 7997
  139.4834  144.4699  151.8590 H   0  0  0  0  0  0  0  0  0  0  0  0  # atno 10167 bound_to 10162
  157.1924  131.0657  151.2071 H   0  0  0  0  0  0  0  0  0  0  0  0  # atno 10718 bound_to 10713
  154.6243  135.2879  155.0290 H   0  0  0  0  0  0  0  0  0  0  0  0  # atno 10763 bound_to 10752
  154.1473  135.6509  153.4959 H   0  0  0  0  0  0  0  0  0  0  0  0  # atno 10764 bound_to 10752
  153.0250  135.5347  154.7045 H   0  0  0  0  0  0  0  0  0  0  0  0  # atno 10765 bound_to 10752
  140.6854  133.9117  155.8583 H   0  0  0  0  0  0  0  0  0  0  0  0  # atno 11005 bound_to 11000
  144.7512  139.7188  143.7272 LP  0  0  0  0  0  0  0  0  0  0  0  0  # atno 17320 bound_to 7965
  146.1893  139.5125  142.9815 LP  0  0  0  0  0  0  0  0  0  0  0  0  # atno 17321 bound_to 7965
  140.4167  144.2297  150.5887 LP  0  0  0  0  0  0  0  0  0  0  0  0  # atno 17342 bound_to 10162
  140.4913  143.2346  151.8814 LP  0  0  0  0  0  0  0  0  0  0  0  0  # atno 17343 bound_to 10162
  157.3847  130.7250  149.6655 LP  0  0  0  0  0  0  0  0  0  0  0  0  # atno 17370 bound_to 10713
  155.9710  130.4163  150.4223 LP  0  0  0  0  0  0  0  0  0  0  0  0  # atno 17371 bound_to 10713
  141.0284  134.0791  157.4042 LP  0  0  0  0  0  0  0  0  0  0  0  0  # atno 17394 bound_to 11000
  139.8939  135.0133  156.6923 LP  0  0  0  0  0  0  0  0  0  0  0  0  # atno 17395 bound_to 11000

$$$$
