AV-unprocessed.smi:1998|AV-procd|sdf|8090|dock3
  -GOLD-   2272010303D 1   1.00000     0.00000
 Structure written by MMmdl.
 47 48  0  0  0  0  0  0  0  0  1 V2000
  153.9859  140.5057  160.8028 C   0  0  0  0  0  0  0  0  0  0  0  0
  153.2635  141.6656  160.1835 C   0  0  0  0  0  0  0  0  0  0  0  0
  153.1735  143.0021  160.6629 C   0  0  0  0  0  0  0  0  0  0  0  0
  152.3944  143.6406  159.7401 C   0  0  0  0  0  0  0  0  0  0  0  0
  151.9355  145.0611  159.6863 C   0  0  0  0  0  0  0  0  0  0  0  0
  152.0628  142.7036  158.7768 N   0  0  0  0  0  0  0  0  0  0  0  0
  151.2677  142.8718  157.5674 C   0  0  0  0  0  0  0  0  0  0  0  0
  150.6450  141.5438  157.1335 C   0  0  0  0  0  0  0  0  0  0  0  0
  149.7745  141.0141  157.8234 O   0  0  0  0  0  0  0  0  0  0  0  0
  151.0779  141.0437  155.9670 N   0  0  0  0  0  0  0  0  0  0  0  0
  150.4903  139.9231  155.2368 C   0  0  0  0  0  0  0  0  0  0  0  0
  151.3240  138.6164  155.4024 C   0  0  0  0  0  0  0  0  0  0  0  0
  150.8803  137.6396  154.2876 C   0  0  0  0  0  0  0  0  0  0  0  0
  152.8005  138.9918  155.1162 C   0  0  0  0  0  0  0  0  0  0  0  0
  151.1746  138.0470  156.7713 N   0  0  0  0  0  0  0  0  0  0  0  0
  151.8372  138.8123  157.8332 C   0  0  0  0  0  0  0  0  0  0  0  0
  151.7696  138.0918  159.1892 C   0  0  0  0  0  0  0  0  0  0  0  0
  150.4123  137.8343  159.5292 O   0  0  0  0  0  0  0  0  0  0  0  0
  149.7426  137.0522  158.5476 C   0  0  0  0  0  0  0  0  0  0  0  0
  149.7965  137.7662  157.1859 C   0  0  0  0  0  0  0  0  0  0  0  0
  152.5992  141.4936  159.0523 N   0  0  0  0  0  0  0  0  0  0  0  0
  154.5709  140.8226  161.6663 H   0  0  0  0  0  0  0  0  0  0  0  0
  154.6705  140.0403  160.0945 H   0  0  0  0  0  0  0  0  0  0  0  0
  153.2843  139.7419  161.1392 H   0  0  0  0  0  0  0  0  0  0  0  0
  153.6119  143.4270  161.5537 H   0  0  0  0  0  0  0  0  0  0  0  0
  152.3085  145.6231  160.5428 H   0  0  0  0  0  0  0  0  0  0  0  0
  150.8470  145.1188  159.6961 H   0  0  0  0  0  0  0  0  0  0  0  0
  152.2937  145.5542  158.7826 H   0  0  0  0  0  0  0  0  0  0  0  0
  150.4813  143.6075  157.7429 H   0  0  0  0  0  0  0  0  0  0  0  0
  151.9059  143.2666  156.7762 H   0  0  0  0  0  0  0  0  0  0  0  0
  151.7993  141.5593  155.4837 H   0  0  0  0  0  0  0  0  0  0  0  0
  149.4737  139.7857  155.6048 H   0  0  0  0  0  0  0  0  0  0  0  0
  150.3685  140.1715  154.1809 H   0  0  0  0  0  0  0  0  0  0  0  0
  151.0224  138.0830  153.3015 H   0  0  0  0  0  0  0  0  0  0  0  0
  149.8250  137.3789  154.3649 H   0  0  0  0  0  0  0  0  0  0  0  0
  151.4524  136.7121  154.3015 H   0  0  0  0  0  0  0  0  0  0  0  0
  152.8950  139.5861  154.2066 H   0  0  0  0  0  0  0  0  0  0  0  0
  153.4285  138.1128  154.9711 H   0  0  0  0  0  0  0  0  0  0  0  0
  153.2342  139.5720  155.9310 H   0  0  0  0  0  0  0  0  0  0  0  0
  152.8867  138.9801  157.5984 H   0  0  0  0  0  0  0  0  0  0  0  0
  151.3746  139.7942  157.9341 H   0  0  0  0  0  0  0  0  0  0  0  0
  152.3307  137.1577  159.1538 H   0  0  0  0  0  0  0  0  0  0  0  0
  152.2213  138.7067  159.9678 H   0  0  0  0  0  0  0  0  0  0  0  0
  150.2015  136.0647  158.4821 H   0  0  0  0  0  0  0  0  0  0  0  0
  148.7078  136.9038  158.8565 H   0  0  0  0  0  0  0  0  0  0  0  0
  149.2245  138.6922  157.2469 H   0  0  0  0  0  0  0  0  0  0  0  0
  149.2935  137.1291  156.4609 H   0  0  0  0  0  0  0  0  0  0  0  0
  1  2  1  0  0  0  0
  1 22  1  0  0  0  0
  1 23  1  0  0  0  0
  1 24  1  0  0  0  0
  2 21  2  0  0  0  0
  2  3  1  0  0  0  0
  3  4  2  0  0  0  0
  3 25  1  0  0  0  0
  4  5  1  0  0  0  0
  4  6  1  0  0  0  0
  5 26  1  0  0  0  0
  5 27  1  0  0  0  0
  5 28  1  0  0  0  0
  6  7  1  0  0  0  0
  6 21  1  0  0  0  0
  7  8  1  0  0  0  0
  7 29  1  0  0  0  0
  7 30  1  0  0  0  0
  8  9  2  0  0  0  0
  8 10  1  0  0  0  0
 10 11  1  0  0  0  0
 10 31  1  0  0  0  0
 11 12  1  0  0  0  0
 11 32  1  0  0  0  0
 11 33  1  0  0  0  0
 12 13  1  0  0  0  0
 12 14  1  0  0  0  0
 12 15  1  0  0  0  0
 13 34  1  0  0  0  0
 13 35  1  0  0  0  0
 13 36  1  0  0  0  0
 14 37  1  0  0  0  0
 14 38  1  0  0  0  0
 14 39  1  0  0  0  0
 15 20  1  0  0  0  0
 15 16  1  0  0  0  0
 16 17  1  0  0  0  0
 16 40  1  0  0  0  0
 16 41  1  0  0  0  0
 17 18  1  0  0  0  0
 17 42  1  0  0  0  0
 17 43  1  0  0  0  0
 18 19  1  0  0  0  0
 19 20  1  0  0  0  0
 19 44  1  0  0  0  0
 19 45  1  0  0  0  0
 20 46  1  0  0  0  0
 20 47  1  0  0  0  0
M  END
> <s_m_source_file>
AV-unprocessed.smi

> <i_m_source_file_index>
1998

> <i_lp_mmshare_version>
43012

> <i_f3d_flags>
0

> <s_epik_input>
W0NIM11jMVtjSF1jKFtDSDNdKW4objEpW0NIMl1DKD1PKVtOSF1bQ0gyXUMoW0NIM10pKFtDSDNdKU4yW0NIMl1bQ0gyXU9bQ0gyXVtDSDJdMg==

> <s_epik_cmdline>
J2VwaWtfcHl0aG9uJywgJy1waCcsICc3LjAnLCAnLXRuJywgJzgnLCAnLW1hJywgJzIwMCcsICctbWV0YWxfYmluZGluZycsICctaW1hZScsICc8aW5maWxlLm1hZT4nLCAnLW9tYWUnLCAnPG91dGZpbGUubWFlPic=

> <r_lp_tautomer_probability>
1

> <r_epik_Ionization_Penalty>
0.197271

> <r_epik_Ionization_Penalty_Charging>
0

> <r_epik_Ionization_Penalty_Neutral>
0.197271

> <r_epik_State_Penalty>
0.186684

> <r_epik_Charging_Adjusted_Penalty>
0.186684

> <i_epik_Tot_Q>
0

> <i_epik_Tot_abs_Q>
0

> <r_epik_Metal_State_Penalty>
0.186642

> <b_epik_Metal_Only>
0

> <s_lp_Force_Field>
OPLS_2005

> <r_lp_Energy>
37.8286

> <b_lp_Chiralities_Consistent>
1

> <s_lp_Variant>
AV-unprocessed.smi:1998-1

> <Gold.Version>
5.8.1

> <Gold.Id.Protein>
6NUR|6NUR_protein|mol2

> <Gold.PLP.Fitness>
41.4561

> <Gold.PLP.PLP>
-42.8393

> <Gold.PLP.part.hbond>
-1.0000

> <Gold.PLP.part.metal>
0.0000

> <Gold.PLP.part.buried>
-4.7856

> <Gold.PLP.part.nonpolar>
-38.1596

> <Gold.PLP.part.repulsive>
0.1859

> <Gold.PLP.ligand.clash>
0.0000

> <Gold.PLP.ligand.torsion>
0.7686

> <Gold.PLP.Chemscore.Hbond>
0.0000

> <Gold.PLP.Chemscore.CHOScore>
0.0000

> <Gold.PLP.Chemscore.Metal>
0.0000

> <Gold.PLP.Chemscore.Internal.Correction>
0.1540

> <Gold.Rescore>
     Score         DG    S(hbond)    S(metal)    S(lipo)     H(rot)  DE(clash)    DE(int)     intcor
     13.11     -14.13       0.00        0.00     110.36       1.67       0.00       1.01       ----

> <Gold.Chemscore.Fitness>
13.1117

> <Gold.Chemscore.DG>
-14.1256

> <Gold.Chemscore.ZeroCoef>
-5.4800

> <Gold.Chemscore.Hbond>
0.0000

> <Gold.Chemscore.Metal>
0.0000

> <Gold.Chemscore.Lipo>
110.3588

> <Gold.Chemscore.Internal_Hbond>
0.0000

> <Gold.Chemscore.DEClash>
0.0004

> <Gold.Chemscore.DEInternal>
1.0134

> <Gold.Chemscore.Rot>
1.6666

> <Gold.Chemscore.Internal.Correction>
   9.000000E+99

> <Gold.Chemscore.Hbond.Weighted>
-0.0002

> <Gold.Chemscore.Metal.Weighted>
-0.0000

> <Gold.Chemscore.Lipo.Weighted>
-12.9120

> <Gold.Chemscore.Internal_Hbond.Weighted>
0.0000

> <Gold.Chemscore.DEClash.Weighted>
0.0004

> <Gold.Chemscore.DEInternal.Weighted>
1.0134

> <Gold.Chemscore.Rot.Weighted>
4.2666

> <Gold.Chemscore.Internal.Correction.Weighted>
   9.000000E+99

> <Gold.Protein.RotatedTorsions>
[ 6907 6896 6895 6894 ] final  -51.64 input  -60.11 | X-H torsion
[ 7974 7965 7964 7962 ] final   49.26 input  175.53 | X-H torsion
[ 8008 7997 7996 7995 ] final   76.78 input   59.86 | X-H torsion
[ 10167 10162 10161 10158 ] final  130.13 input  -65.29 | X-H torsion
[ 10718 10713 10712 10709 ] final  -30.12 input   66.30 | X-H torsion
[ 10763 10752 10751 10750 ] final  -34.46 input  -60.55 | X-H torsion
[ 11005 11000 10999 10996 ] final -126.28 input  -57.11 | X-H torsion

> <Gold.Protein.ActiveResidues>
 VAL166  LYS551  ARG553  GLY616  TRP617  ASP618  TYR619  PRO620  LYS621  CYS622 
 ASP623  PHE694  ASN695  SER759  ASP760  ASP761  ALA762  ILE779  LEU786  VAL792 
 PHE793  MET794  SER795  GLU796  ALA797  LYS798  CYS799  TRP800  GLU811  SER814 

> <Gold.Protein.RotatedAtoms>
  150.8592  134.7940  159.7069 H   0  0  0  0  0  0  0  0  0  0  0  0  # atno 6907 bound_to 6896
  152.4634  134.5127  159.9768 H   0  0  0  0  0  0  0  0  0  0  0  0  # atno 6908 bound_to 6896
  151.5234  133.3424  159.2941 H   0  0  0  0  0  0  0  0  0  0  0  0  # atno 6909 bound_to 6896
  146.0125  139.4559  142.9947 H   0  0  0  0  0  0  0  0  0  0  0  0  # atno 7974 bound_to 7965
  155.8322  140.3465  155.5579 H   0  0  0  0  0  0  0  0  0  0  0  0  # atno 8008 bound_to 7997
  155.8230  140.0915  157.1857 H   0  0  0  0  0  0  0  0  0  0  0  0  # atno 8009 bound_to 7997
  154.4004  140.1426  156.3510 H   0  0  0  0  0  0  0  0  0  0  0  0  # atno 8010 bound_to 7997
  139.5444  144.6760  151.4520 H   0  0  0  0  0  0  0  0  0  0  0  0  # atno 10167 bound_to 10162
  156.4038  130.4395  149.7303 H   0  0  0  0  0  0  0  0  0  0  0  0  # atno 10718 bound_to 10713
  153.8470  135.6852  153.4796 H   0  0  0  0  0  0  0  0  0  0  0  0  # atno 10763 bound_to 10752
  153.1420  135.4653  154.9507 H   0  0  0  0  0  0  0  0  0  0  0  0  # atno 10764 bound_to 10752
  154.7819  135.3272  154.7918 H   0  0  0  0  0  0  0  0  0  0  0  0  # atno 10765 bound_to 10752
  140.9694  134.0827  157.3886 H   0  0  0  0  0  0  0  0  0  0  0  0  # atno 11005 bound_to 11000
  145.7319  141.0039  143.1347 LP  0  0  0  0  0  0  0  0  0  0  0  0  # atno 17320 bound_to 7965
  144.6958  139.8995  143.7457 LP  0  0  0  0  0  0  0  0  0  0  0  0  # atno 17321 bound_to 7965
  140.6687  143.8341  150.6973 LP  0  0  0  0  0  0  0  0  0  0  0  0  # atno 17342 bound_to 10162
  140.1759  143.4155  152.1968 LP  0  0  0  0  0  0  0  0  0  0  0  0  # atno 17343 bound_to 10162
  156.4309  130.7814  151.2834 LP  0  0  0  0  0  0  0  0  0  0  0  0  # atno 17370 bound_to 10713
  157.7505  131.0154  150.3504 LP  0  0  0  0  0  0  0  0  0  0  0  0  # atno 17371 bound_to 10713
  139.8906  135.0113  156.6747 LP  0  0  0  0  0  0  0  0  0  0  0  0  # atno 17394 bound_to 11000
  140.7352  133.9025  155.8239 LP  0  0  0  0  0  0  0  0  0  0  0  0  # atno 17395 bound_to 11000

$$$$
