AV-unprocessed.smi:997|AV-procd|sdf|4348|dock6
  -GOLD-   22720 2243D 1   1.00000     0.00000
 Structure written by MMmdl.
 33 35  0  0  0  0  0  0  0  0  2 V2000
  151.8102  137.2628  154.7706 C   0  0  0  0  0  0  0  0  0  0  0  0
  151.1942  138.6108  154.9959 C   0  0  0  0  0  0  0  0  0  0  0  0
  150.2004  138.9956  154.2277 N   0  0  0  0  0  0  0  0  0  0  0  0
  149.8145  140.2168  154.6687 N   0  0  0  0  0  0  0  0  0  0  0  0
  148.7205  140.8915  153.9942 C   0  0  0  0  0  0  0  0  0  0  0  0
  147.4339  140.8431  154.8286 C   0  0  0  0  0  0  0  0  0  0  0  0
  147.6585  141.4335  156.0905 O   0  0  0  0  0  0  0  0  0  0  0  0
  150.5654  140.6574  155.7428 C   0  0  0  0  0  0  0  0  0  0  0  0
  150.4229  141.8339  156.4169 N   0  0  0  0  0  0  0  0  0  0  0  0
  151.2838  142.0049  157.4407 C   0  0  0  0  0  0  0  0  0  0  0  0
  151.1282  143.2961  158.1827 C   0  0  0  0  0  0  0  0  0  0  0  0
  152.1583  144.3981  158.0677 C   0  0  0  0  0  0  0  0  0  0  0  0
  152.0206  143.6279  159.3571 C   0  0  0  0  0  0  0  0  0  0  0  0
  152.2792  141.0704  157.7920 C   0  0  0  0  0  0  0  0  0  0  0  0
  152.4158  139.8652  157.0614 C   0  0  0  0  0  0  0  0  0  0  0  0
  153.5097  138.9049  157.4478 C   0  0  0  0  0  0  0  0  0  0  0  0
  153.5827  137.7908  156.8888 O   0  0  0  0  0  0  0  0  0  0  0  0
  154.3436  139.2660  158.3084 O   0  5  0  0  0  0  0  0  0  0  0  0
  151.5113  139.6206  155.9844 C   0  0  0  0  0  0  0  0  0  0  0  0
  151.8764  136.6977  155.7004 H   0  0  0  0  0  0  0  0  0  0  0  0
  152.8125  137.3516  154.3519 H   0  0  0  0  0  0  0  0  0  0  0  0
  151.2238  136.6617  154.0746 H   0  0  0  0  0  0  0  0  0  0  0  0
  149.0082  141.9248  153.7939 H   0  0  0  0  0  0  0  0  0  0  0  0
  148.5651  140.4154  153.0252 H   0  0  0  0  0  0  0  0  0  0  0  0
  146.6282  141.3782  154.3247 H   0  0  0  0  0  0  0  0  0  0  0  0
  147.1048  139.8132  154.9706 H   0  0  0  0  0  0  0  0  0  0  0  0
  148.2855  142.1329  155.9873 H   0  0  0  0  0  0  0  0  0  0  0  0
  150.0815  143.5880  158.2431 H   0  0  0  0  0  0  0  0  0  0  0  0
  153.0493  144.2110  157.4711 H   0  0  0  0  0  0  0  0  0  0  0  0
  151.8038  145.4265  158.0700 H   0  0  0  0  0  0  0  0  0  0  0  0
  151.5766  144.1542  160.1994 H   0  0  0  0  0  0  0  0  0  0  0  0
  152.8145  142.9269  159.6075 H   0  0  0  0  0  0  0  0  0  0  0  0
  152.9449  141.2911  158.6142 H   0  0  0  0  0  0  0  0  0  0  0  0
  1  2  1  0  0  0  0
  1 20  1  0  0  0  0
  1 21  1  0  0  0  0
  1 22  1  0  0  0  0
  2 19  1  0  0  0  0
  2  3  2  0  0  0  0
  3  4  1  0  0  0  0
  4  5  1  0  0  0  0
  4  8  1  0  0  0  0
  5  6  1  0  0  0  0
  5 23  1  0  0  0  0
  5 24  1  0  0  0  0
  6  7  1  0  0  0  0
  6 25  1  0  0  0  0
  6 26  1  0  0  0  0
  7 27  1  0  0  0  0
  8 19  1  0  0  0  0
  8  9  2  0  0  0  0
  9 10  1  0  0  0  0
 10 11  1  0  0  0  0
 10 14  2  0  0  0  0
 11 13  1  0  0  0  0
 11 12  1  0  0  0  0
 11 28  1  0  0  0  0
 12 13  1  0  0  0  0
 12 29  1  0  0  0  0
 12 30  1  0  0  0  0
 13 31  1  0  0  0  0
 13 32  1  0  0  0  0
 14 15  1  0  0  0  0
 14 33  1  0  0  0  0
 15 16  1  0  0  0  0
 15 19  2  0  0  0  0
 16 17  2  0  0  0  0
 16 18  1  0  0  0  0
M  CHG  1  18  -1
M  END
> <s_m_source_file>
AV-unprocessed.smi

> <i_m_source_file_index>
997

> <i_lp_mmshare_version>
43012

> <i_f3d_flags>
0

> <s_epik_input>
W09IXVtDSDJdW0NIMl1uMW5jKFtDSDNdKWMoYzEyKWMoQyg9TylbT0hdKVtjSF1jKG4yKVtDSF0zW0NIMl1bQ0gyXTM=

> <s_epik_cmdline>
J2VwaWtfcHl0aG9uJywgJy1waCcsICc3LjAnLCAnLXRuJywgJzgnLCAnLW1hJywgJzIwMCcsICctbWV0YWxfYmluZGluZycsICctaW1hZScsICc8aW5maWxlLm1hZT4nLCAnLW9tYWUnLCAnPG91dGZpbGUubWFlPic=

> <r_epik_Ionization_Penalty>
0.00209497

> <r_epik_Ionization_Penalty_Charging>
0.0019185

> <r_epik_Ionization_Penalty_Neutral>
0.000176473

> <r_epik_State_Penalty>
0.00130684

> <r_epik_Charging_Adjusted_Penalty>
0.00322534

> <i_epik_Tot_Q>
-1

> <i_epik_Tot_abs_Q>
1

> <r_epik_Metal_State_Penalty>
-0

> <b_epik_Metal_Only>
0

> <s_lp_Force_Field>
OPLS_2005

> <r_lp_Energy>
10.3232

> <b_lp_Chiralities_Consistent>
1

> <s_lp_Variant>
AV-unprocessed.smi:997-1

> <Gold.Version>
5.8.1

> <Gold.Id.Protein>
6NUR|6NUR_protein|mol2

> <Gold.PLP.Fitness>
45.9341

> <Gold.PLP.PLP>
-37.4518

> <Gold.PLP.part.hbond>
-2.0000

> <Gold.PLP.part.metal>
0.0000

> <Gold.PLP.part.buried>
-3.6401

> <Gold.PLP.part.nonpolar>
-33.9008

> <Gold.PLP.part.repulsive>
2.6063

> <Gold.PLP.ligand.clash>
0.0000

> <Gold.PLP.ligand.torsion>
0.3165

> <Gold.PLP.Chemscore.Hbond>
2.9920

> <Gold.PLP.Chemscore.CHOScore>
0.0000

> <Gold.PLP.Chemscore.Metal>
0.0000

> <Gold.PLP.Chemscore.Internal.Correction>
0.1393

> <Gold.Rescore>
     Score         DG    S(hbond)    S(metal)    S(lipo)     H(rot)  DE(clash)    DE(int)     intcor
     12.50     -15.95       1.51        0.00      90.88       2.04       0.46       2.99       ----

> <Gold.Chemscore.Fitness>
12.4987

> <Gold.Chemscore.DG>
-15.9502

> <Gold.Chemscore.ZeroCoef>
-5.4800

> <Gold.Chemscore.Hbond>
1.5127

> <Gold.Chemscore.Metal>
0.0000

> <Gold.Chemscore.Lipo>
90.8791

> <Gold.Chemscore.Internal_Hbond>
0.0000

> <Gold.Chemscore.DEClash>
0.4578

> <Gold.Chemscore.DEInternal>
2.9937

> <Gold.Chemscore.Rot>
2.0372

> <Gold.Chemscore.Internal.Correction>
   9.000000E+99

> <Gold.Chemscore.Hbond.Weighted>
-5.0525

> <Gold.Chemscore.Metal.Weighted>
-0.0000

> <Gold.Chemscore.Lipo.Weighted>
-10.6329

> <Gold.Chemscore.Internal_Hbond.Weighted>
0.0000

> <Gold.Chemscore.DEClash.Weighted>
0.4578

> <Gold.Chemscore.DEInternal.Weighted>
2.9937

> <Gold.Chemscore.Rot.Weighted>
5.2152

> <Gold.Chemscore.Internal.Correction.Weighted>
   9.000000E+99

> <Gold.Protein.RotatedTorsions>
[ 6907 6896 6895 6894 ] final  140.44 input  -60.11 | X-H torsion
[ 7974 7965 7964 7962 ] final   65.36 input  175.53 | X-H torsion
[ 8008 7997 7996 7995 ] final   22.27 input   59.86 | X-H torsion
[ 10167 10162 10161 10158 ] final  -63.67 input  -65.29 | X-H torsion
[ 10718 10713 10712 10709 ] final  -26.81 input   66.30 | X-H torsion
[ 10763 10752 10751 10750 ] final   76.02 input  -60.55 | X-H torsion
[ 11005 11000 10999 10996 ] final -103.41 input  -57.11 | X-H torsion

> <Gold.Protein.ActiveResidues>
 VAL166  LYS551  ARG553  GLY616  TRP617  ASP618  TYR619  PRO620  LYS621  CYS622 
 ASP623  PHE694  ASN695  SER759  ASP760  ASP761  ALA762  ILE779  LEU786  VAL792 
 PHE793  MET794  SER795  GLU796  ALA797  LYS798  CYS799  TRP800  GLU811  SER814 

> <Gold.Protein.RotatedAtoms>
  152.2430  133.5151  159.5280 H   0  0  0  0  0  0  0  0  0  0  0  0  # atno 6907 bound_to 6896
  150.7070  134.1063  159.3993 H   0  0  0  0  0  0  0  0  0  0  0  0  # atno 6908 bound_to 6896
  151.8984  135.0388  160.0555 H   0  0  0  0  0  0  0  0  0  0  0  0  # atno 6909 bound_to 6896
  145.8393  139.3186  143.0941 H   0  0  0  0  0  0  0  0  0  0  0  0  # atno 7974 bound_to 7965
  154.9632  140.3080  155.5021 H   0  0  0  0  0  0  0  0  0  0  0  0  # atno 8008 bound_to 7997
  156.2975  140.2297  156.4657 H   0  0  0  0  0  0  0  0  0  0  0  0  # atno 8009 bound_to 7997
  154.7946  140.0438  157.1215 H   0  0  0  0  0  0  0  0  0  0  0  0  # atno 8010 bound_to 7997
  140.5855  143.2333  151.6253 H   0  0  0  0  0  0  0  0  0  0  0  0  # atno 10167 bound_to 10162
  156.4463  130.4474  149.7019 H   0  0  0  0  0  0  0  0  0  0  0  0  # atno 10718 bound_to 10713
  153.0696  135.4967  154.8275 H   0  0  0  0  0  0  0  0  0  0  0  0  # atno 10763 bound_to 10752
  154.7003  135.3000  154.9353 H   0  0  0  0  0  0  0  0  0  0  0  0  # atno 10764 bound_to 10752
  154.0079  135.6758  153.4816 H   0  0  0  0  0  0  0  0  0  0  0  0  # atno 10765 bound_to 10752
  141.1147  133.8638  157.1483 H   0  0  0  0  0  0  0  0  0  0  0  0  # atno 11005 bound_to 11000
  145.9483  140.8928  143.0272 LP  0  0  0  0  0  0  0  0  0  0  0  0  # atno 17320 bound_to 7965
  144.6734  140.1644  143.7419 LP  0  0  0  0  0  0  0  0  0  0  0  0  # atno 17321 bound_to 7965
  139.5195  144.3252  152.0875 LP  0  0  0  0  0  0  0  0  0  0  0  0  # atno 17342 bound_to 10162
  140.2408  144.4271  150.6260 LP  0  0  0  0  0  0  0  0  0  0  0  0  # atno 17343 bound_to 10162
  156.3864  130.7605  151.2602 LP  0  0  0  0  0  0  0  0  0  0  0  0  # atno 17370 bound_to 10713
  157.7504  131.0281  150.4033 LP  0  0  0  0  0  0  0  0  0  0  0  0  # atno 17371 bound_to 10713
  140.0061  135.0008  157.0295 LP  0  0  0  0  0  0  0  0  0  0  0  0  # atno 17394 bound_to 11000
  140.4680  134.1416  155.7199 LP  0  0  0  0  0  0  0  0  0  0  0  0  # atno 17395 bound_to 11000

$$$$
