AV-unprocessed.smi:2283|AV-procd|sdf|9200|dock9
  -GOLD-   2272012413D 1   1.00000     0.00000
 Structure written by MMmdl.
 37 38  0  0  0  0  0  0  0  0  1 V2000
  149.4152  137.9419  154.9259 C   0  0  0  0  0  0  0  0  0  0  0  0
  148.7839  139.2644  154.5248 C   0  0  0  0  0  0  0  0  0  0  0  0
  147.6552  139.2432  153.6769 C   0  0  0  0  0  0  0  0  0  0  0  0
  147.0270  140.4410  153.2904 C   0  0  0  0  0  0  0  0  0  0  0  0
  147.5223  141.6721  153.7537 C   0  0  0  0  0  0  0  0  0  0  0  0
  148.6478  141.7031  154.5973 C   0  0  0  0  0  0  0  0  0  0  0  0
  149.2959  140.5071  154.9850 C   0  0  0  0  0  0  0  0  0  0  0  0
  150.5120  140.5826  155.9082 C   0  0  1  0  0  0  0  0  0  0  0  0
  151.6365  139.9408  155.3387 O   0  0  0  0  0  0  0  0  0  0  0  0
  150.8762  142.0537  156.2127 C   0  0  0  0  0  0  0  0  0  0  0  0
  151.3481  142.2430  157.5960 N   0  0  0  0  0  0  0  0  0  0  0  0
  150.8184  143.3436  158.2906 C   0  0  0  0  0  0  0  0  0  0  0  0
  151.1546  143.6038  159.5114 N   0  0  0  0  0  0  0  0  0  0  0  0
  152.0674  142.7781  160.1736 C   0  0  0  0  0  0  0  0  0  0  0  0
  152.3905  143.1723  161.6039 C   0  0  0  0  0  0  0  0  0  0  0  0
  152.6181  141.6965  159.5577 C   0  0  0  0  0  0  0  0  0  0  0  0
  153.6166  140.7616  160.2290 C   0  0  0  0  0  0  0  0  0  0  0  0
  152.2460  141.3889  158.1670 C   0  0  0  0  0  0  0  0  0  0  0  0
  152.7086  140.4267  157.5514 O   0  0  0  0  0  0  0  0  0  0  0  0
  148.8213  137.0963  154.5777 H   0  0  0  0  0  0  0  0  0  0  0  0
  149.4927  137.8657  156.0103 H   0  0  0  0  0  0  0  0  0  0  0  0
  150.4125  137.8487  154.4954 H   0  0  0  0  0  0  0  0  0  0  0  0
  147.2614  138.3031  153.3191 H   0  0  0  0  0  0  0  0  0  0  0  0
  146.1631  140.4146  152.6426 H   0  0  0  0  0  0  0  0  0  0  0  0
  147.0385  142.5933  153.4638 H   0  0  0  0  0  0  0  0  0  0  0  0
  149.0105  142.6578  154.9494 H   0  0  0  0  0  0  0  0  0  0  0  0
  150.3005  140.0512  156.8349 H   0  0  0  0  0  0  0  0  0  0  0  0
  151.5316  139.0070  155.4395 H   0  0  0  0  0  0  0  0  0  0  0  0
  151.5919  142.4304  155.4796 H   0  0  0  0  0  0  0  0  0  0  0  0
  149.9914  142.6763  156.0639 H   0  0  0  0  0  0  0  0  0  0  0  0
  150.1078  143.9537  157.7306 H   0  0  0  0  0  0  0  0  0  0  0  0
  152.1216  142.3700  162.2915 H   0  0  0  0  0  0  0  0  0  0  0  0
  151.8424  144.0663  161.9037 H   0  0  0  0  0  0  0  0  0  0  0  0
  153.4552  143.3820  161.7108 H   0  0  0  0  0  0  0  0  0  0  0  0
  154.5557  140.7531  159.6747 H   0  0  0  0  0  0  0  0  0  0  0  0
  153.2245  139.7441  160.2466 H   0  0  0  0  0  0  0  0  0  0  0  0
  153.8446  141.0417  161.2559 H   0  0  0  0  0  0  0  0  0  0  0  0
  1  2  1  0  0  0  0
  1 20  1  0  0  0  0
  1 21  1  0  0  0  0
  1 22  1  0  0  0  0
  2  7  1  0  0  0  0
  2  3  2  0  0  0  0
  3  4  1  0  0  0  0
  3 23  1  0  0  0  0
  4  5  2  0  0  0  0
  4 24  1  0  0  0  0
  5  6  1  0  0  0  0
  5 25  1  0  0  0  0
  6  7  2  0  0  0  0
  6 26  1  0  0  0  0
  7  8  1  0  0  0  0
  8  9  1  0  0  0  0
  8 10  1  0  0  0  0
  8 27  1  0  0  0  0
  9 28  1  0  0  0  0
 10 11  1  0  0  0  0
 10 29  1  0  0  0  0
 10 30  1  0  0  0  0
 11 18  1  0  0  0  0
 11 12  1  0  0  0  0
 12 13  2  0  0  0  0
 12 31  1  0  0  0  0
 13 14  1  0  0  0  0
 14 15  1  0  0  0  0
 14 16  2  0  0  0  0
 15 32  1  0  0  0  0
 15 33  1  0  0  0  0
 15 34  1  0  0  0  0
 16 17  1  0  0  0  0
 16 18  1  0  0  0  0
 17 35  1  0  0  0  0
 17 36  1  0  0  0  0
 17 37  1  0  0  0  0
 18 19  2  0  0  0  0
M  END
> <s_m_source_file>
AV-unprocessed.smi

> <i_m_source_file_index>
2283

> <i_lp_mmshare_version>
43012

> <i_f3d_flags>
0

> <s_epik_input>
W0NIM11jMVtjSF1bY0hdW2NIXVtjSF1jMVtDQEhdKFtPSF0pW0NIMl1uMltjSF1uYyhbQ0gzXSljKFtDSDNdKWMyPU8=

> <s_epik_cmdline>
J2VwaWtfcHl0aG9uJywgJy1waCcsICc3LjAnLCAnLXRuJywgJzgnLCAnLW1hJywgJzIwMCcsICctbWV0YWxfYmluZGluZycsICctaW1hZScsICc8aW5maWxlLm1hZT4nLCAnLW9tYWUnLCAnPG91dGZpbGUubWFlPic=

> <r_lp_tautomer_probability>
1

> <r_epik_Ionization_Penalty>
5.07259e-05

> <r_epik_Ionization_Penalty_Charging>
7.56727e-08

> <r_epik_Ionization_Penalty_Neutral>
5.06502e-05

> <r_epik_State_Penalty>
-0

> <r_epik_Charging_Adjusted_Penalty>
7.56727e-08

> <i_epik_Tot_Q>
0

> <i_epik_Tot_abs_Q>
0

> <r_epik_Metal_State_Penalty>
-0

> <b_epik_Metal_Only>
0

> <s_lp_Force_Field>
OPLS_2005

> <r_lp_Energy>
21.1785

> <b_lp_Chiralities_Consistent>
1

> <s_lp_Variant>
AV-unprocessed.smi:2283-2

> <Gold.Version>
5.8.1

> <Gold.Id.Protein>
6NUR|6NUR_protein|mol2

> <Gold.PLP.Fitness>
46.8459

> <Gold.PLP.PLP>
-39.8520

> <Gold.PLP.part.hbond>
-2.0000

> <Gold.PLP.part.metal>
0.0000

> <Gold.PLP.part.buried>
-2.5028

> <Gold.PLP.part.nonpolar>
-34.1365

> <Gold.PLP.part.repulsive>
0.0456

> <Gold.PLP.ligand.clash>
0.0858

> <Gold.PLP.ligand.torsion>
0.6850

> <Gold.PLP.Chemscore.Hbond>
1.8142

> <Gold.PLP.Chemscore.CHOScore>
1.0000

> <Gold.PLP.Chemscore.Metal>
0.0000

> <Gold.Chemscore.Hbonds>
donor molecule, donor type, donor heavy atom, donor atom, acceptor molecule, acceptor atom, score
      P1  H  7989  7998       L1     9  0.90
      P1  H  7997  8010       L1    19  0.88
      L1  C    12    31       P1  8028  1.00

> <Gold.PLP.Chemscore.Internal.Correction>
0.0073

> <Gold.Rescore>
     Score         DG    S(hbond)    S(metal)    S(lipo)     H(rot)  DE(clash)    DE(int)     intcor
     12.80     -16.90       1.50        0.00      96.49       1.91       0.21       3.89       ----

> <Gold.Chemscore.Fitness>
12.7978

> <Gold.Chemscore.DG>
-16.8954

> <Gold.Chemscore.ZeroCoef>
-5.4800

> <Gold.Chemscore.Hbond>
1.4989

> <Gold.Chemscore.Metal>
0.0000

> <Gold.Chemscore.Lipo>
96.4857

> <Gold.Chemscore.Internal_Hbond>
0.0000

> <Gold.Chemscore.DEClash>
0.2123

> <Gold.Chemscore.DEInternal>
3.8853

> <Gold.Chemscore.Rot>
1.9061

> <Gold.Chemscore.Internal.Correction>
   9.000000E+99

> <Gold.Chemscore.Hbonds>
donor molecule, donor type, donor heavy atom, donor atom, acceptor molecule, acceptor atom, score
      P1  H  7989  7998       L1     9  0.18
      P1  H  7997  8010       L1    19  0.86

> <Gold.Chemscore.Hbond.Weighted>
-5.0063

> <Gold.Chemscore.Metal.Weighted>
-0.0000

> <Gold.Chemscore.Lipo.Weighted>
-11.2888

> <Gold.Chemscore.Internal_Hbond.Weighted>
0.0000

> <Gold.Chemscore.DEClash.Weighted>
0.2123

> <Gold.Chemscore.DEInternal.Weighted>
3.8853

> <Gold.Chemscore.Rot.Weighted>
4.8797

> <Gold.Chemscore.Internal.Correction.Weighted>
   9.000000E+99

> <Gold.Protein.RotatedTorsions>
[ 6907 6896 6895 6894 ] final   57.04 input  -60.11 | X-H torsion
[ 7974 7965 7964 7962 ] final   56.21 input  175.53 | X-H torsion
[ 8008 7997 7996 7995 ] final   51.95 input   59.86 | X-H torsion
[ 10167 10162 10161 10158 ] final  -45.12 input  -65.29 | X-H torsion
[ 10718 10713 10712 10709 ] final -169.12 input   66.30 | X-H torsion
[ 10763 10752 10751 10750 ] final -152.23 input  -60.55 | X-H torsion
[ 11005 11000 10999 10996 ] final  -49.48 input  -57.11 | X-H torsion

> <Gold.Protein.ActiveResidues>
 VAL166  LYS551  ARG553  GLY616  TRP617  ASP618  TYR619  PRO620  LYS621  CYS622 
 ASP623  PHE694  ASN695  SER759  ASP760  ASP761  ALA762  ILE779  LEU786  VAL792 
 PHE793  MET794  SER795  GLU796  ALA797  LYS798  CYS799  TRP800  GLU811  SER814 

> <Gold.Protein.RotatedAtoms>
  152.3693  134.6757  160.0181 H   0  0  0  0  0  0  0  0  0  0  0  0  # atno 6907 bound_to 6896
  151.7055  133.3306  159.3285 H   0  0  0  0  0  0  0  0  0  0  0  0  # atno 6908 bound_to 6896
  150.7662  134.6513  159.6334 H   0  0  0  0  0  0  0  0  0  0  0  0  # atno 6909 bound_to 6896
  145.9422  139.3898  143.0357 H   0  0  0  0  0  0  0  0  0  0  0  0  # atno 7974 bound_to 7965
  155.4437  140.3455  155.4293 H   0  0  0  0  0  0  0  0  0  0  0  0  # atno 8008 bound_to 7997
  156.1263  140.1501  156.9162 H   0  0  0  0  0  0  0  0  0  0  0  0  # atno 8009 bound_to 7997
  154.4860  140.0855  156.7468 H   0  0  0  0  0  0  0  0  0  0  0  0  # atno 8010 bound_to 7997
  140.6870  143.2895  151.3594 H   0  0  0  0  0  0  0  0  0  0  0  0  # atno 10167 bound_to 10162
  156.7068  130.9218  151.3085 H   0  0  0  0  0  0  0  0  0  0  0  0  # atno 10718 bound_to 10713
  154.8007  135.3241  154.7556 H   0  0  0  0  0  0  0  0  0  0  0  0  # atno 10763 bound_to 10752
  153.8225  135.6886  153.4829 H   0  0  0  0  0  0  0  0  0  0  0  0  # atno 10764 bound_to 10752
  153.1723  135.4618  154.9862 H   0  0  0  0  0  0  0  0  0  0  0  0  # atno 10765 bound_to 10752
  141.0762  133.6665  156.3592 H   0  0  0  0  0  0  0  0  0  0  0  0  # atno 11005 bound_to 11000
  145.8285  140.9643  143.0861 LP  0  0  0  0  0  0  0  0  0  0  0  0  # atno 17320 bound_to 7965
  144.6781  140.0132  143.7484 LP  0  0  0  0  0  0  0  0  0  0  0  0  # atno 17321 bound_to 7965
  139.6238  144.0855  152.2415 LP  0  0  0  0  0  0  0  0  0  0  0  0  # atno 17342 bound_to 10162
  140.0308  144.6082  150.7490 LP  0  0  0  0  0  0  0  0  0  0  0  0  # atno 17343 bound_to 10162
  157.6951  130.9274  150.0623 LP  0  0  0  0  0  0  0  0  0  0  0  0  # atno 17370 bound_to 10713
  156.1689  130.3646  149.9193 LP  0  0  0  0  0  0  0  0  0  0  0  0  # atno 17371 bound_to 10713
  140.5569  134.5973  157.5423 LP  0  0  0  0  0  0  0  0  0  0  0  0  # atno 17394 bound_to 11000
  139.9574  134.7511  156.0311 LP  0  0  0  0  0  0  0  0  0  0  0  0  # atno 17395 bound_to 11000

$$$$
