AV-unprocessed.smi:3029|AV-procd|sdf|11528|dock10
  -GOLD-   2272016473D 1   1.00000     0.00000
 Structure written by MMmdl.
 42 43  0  0  0  0  0  0  0  0  4 V2000
  153.8680  137.2822  161.5489 O   0  0  0  0  0  0  0  0  0  0  0  0
  154.3780  137.8119  162.5362 C   0  0  0  0  0  0  0  0  0  0  0  0
  154.4041  137.1560  163.8476 C   0  0  0  0  0  0  0  0  0  0  0  0
  154.9471  137.7528  164.9272 C   0  0  0  0  0  0  0  0  0  0  0  0
  155.5262  139.0784  164.8215 C   0  0  0  0  0  0  0  0  0  0  0  0
  156.0955  139.7364  165.9767 N   0  3  0  0  0  0  0  0  0  0  0  0
  156.1412  139.1313  167.0436 O   0  0  0  0  0  0  0  0  0  0  0  0
  156.5179  140.8813  165.8528 O   0  5  0  0  0  0  0  0  0  0  0  0
  155.5087  139.6750  163.6132 C   0  0  0  0  0  0  0  0  0  0  0  0
  154.9521  139.0516  162.4798 N   0  0  0  0  0  0  0  0  0  0  0  0
  154.9898  139.8033  161.2182 C   0  0  0  0  0  0  0  0  0  0  0  0
  153.7131  140.6366  161.0222 C   0  0  0  0  0  0  0  0  0  0  0  0
  153.7219  141.3084  159.7062 N   0  3  0  0  0  0  0  0  0  0  0  0
  152.5628  142.1903  159.4349 C   0  0  1  0  0  0  0  0  0  0  0  0
  152.9304  143.6537  159.7723 C   0  0  0  0  0  0  0  0  0  0  0  0
  151.7860  144.6252  159.4591 C   0  0  0  0  0  0  0  0  0  0  0  0
  151.3632  144.5089  157.9916 C   0  0  0  0  0  0  0  0  0  0  0  0
  150.9645  143.0664  157.6545 C   0  0  0  0  0  0  0  0  0  0  0  0
  152.0946  142.0536  157.9562 C   0  0  2  0  0  0  0  0  0  0  0  0
  151.6325  140.6201  157.5881 C   0  0  0  0  0  0  0  0  0  0  0  0
  152.5543  139.7243  157.9413 F   0  0  0  0  0  0  0  0  0  0  0  0
  150.4934  140.3333  158.2184 F   0  0  0  0  0  0  0  0  0  0  0  0
  151.4048  140.5057  156.2799 F   0  0  0  0  0  0  0  0  0  0  0  0
  153.9772  136.1688  163.9492 H   0  0  0  0  0  0  0  0  0  0  0  0
  154.9438  137.2295  165.8721 H   0  0  0  0  0  0  0  0  0  0  0  0
  155.9094  140.6622  163.4316 H   0  0  0  0  0  0  0  0  0  0  0  0
  155.8622  140.4585  161.1988 H   0  0  0  0  0  0  0  0  0  0  0  0
  155.1281  139.1242  160.3744 H   0  0  0  0  0  0  0  0  0  0  0  0
  152.8330  139.9954  161.0879 H   0  0  0  0  0  0  0  0  0  0  0  0
  153.6330  141.3770  161.8181 H   0  0  0  0  0  0  0  0  0  0  0  0
  154.5727  141.8437  159.6075 H   0  0  0  0  0  0  0  0  0  0  0  0
  151.7371  141.8802  160.0773 H   0  0  0  0  0  0  0  0  0  0  0  0
  153.1906  143.7520  160.8260 H   0  0  0  0  0  0  0  0  0  0  0  0
  153.8168  143.9498  159.2092 H   0  0  0  0  0  0  0  0  0  0  0  0
  150.9345  144.4132  160.1071 H   0  0  0  0  0  0  0  0  0  0  0  0
  152.0951  145.6478  159.6777 H   0  0  0  0  0  0  0  0  0  0  0  0
  150.5292  145.1822  157.7904 H   0  0  0  0  0  0  0  0  0  0  0  0
  152.1813  144.8271  157.3440 H   0  0  0  0  0  0  0  0  0  0  0  0
  150.0705  142.8004  158.2199 H   0  0  0  0  0  0  0  0  0  0  0  0
  150.6848  143.0160  156.6018 H   0  0  0  0  0  0  0  0  0  0  0  0
  152.9383  142.3045  157.3110 H   0  0  0  0  0  0  0  0  0  0  0  0
  153.7200  140.5813  159.0047 H   0  0  0  0  0  0  0  0  0  0  0  0
  1  2  2  0  0  0  0
  2 10  1  0  0  0  0
  2  3  1  0  0  0  0
  3  4  2  0  0  0  0
  3 24  1  0  0  0  0
  4  5  1  0  0  0  0
  4 25  1  0  0  0  0
  5  6  1  0  0  0  0
  5  9  2  0  0  0  0
  6  7  2  0  0  0  0
  6  8  1  0  0  0  0
  9 10  1  0  0  0  0
  9 26  1  0  0  0  0
 10 11  1  0  0  0  0
 11 12  1  0  0  0  0
 11 27  1  0  0  0  0
 11 28  1  0  0  0  0
 12 13  1  0  0  0  0
 12 29  1  0  0  0  0
 12 30  1  0  0  0  0
 13 14  1  0  0  0  0
 13 31  1  0  0  0  0
 13 42  1  0  0  0  0
 14 19  1  0  0  0  0
 14 15  1  0  0  0  0
 14 32  1  0  0  0  0
 15 16  1  0  0  0  0
 15 33  1  0  0  0  0
 15 34  1  0  0  0  0
 16 17  1  0  0  0  0
 16 35  1  0  0  0  0
 16 36  1  0  0  0  0
 17 18  1  0  0  0  0
 17 37  1  0  0  0  0
 17 38  1  0  0  0  0
 18 19  1  0  0  0  0
 18 39  1  0  0  0  0
 18 40  1  0  0  0  0
 19 20  1  0  0  0  0
 19 41  1  0  0  0  0
 20 21  1  0  0  0  0
 20 22  1  0  0  0  0
 20 23  1  0  0  0  0
M  CHG  1   6   1
M  CHG  1   8  -1
M  CHG  1  13   1
M  END
> <s_m_source_file>
AV-unprocessed.smi

> <i_m_source_file_index>
3029

> <i_lp_mmshare_version>
43012

> <i_f3d_flags>
0

> <s_epik_input>
Tz1jMVtjSF1bY0hdYyhbTitdKD1PKVtPLV0pW2NIXW4xW0NIMl1bQ0gyXVtOSF1bQ0BASF0yW0NIMl1bQ0gyXVtDSDJdW0NIMl1bQ0BIXTJDKEYpKEYpRg==

> <s_epik_cmdline>
J2VwaWtfcHl0aG9uJywgJy1waCcsICc3LjAnLCAnLXRuJywgJzgnLCAnLW1hJywgJzIwMCcsICctbWV0YWxfYmluZGluZycsICctaW1hZScsICc8aW5maWxlLm1hZT4nLCAnLW9tYWUnLCAnPG91dGZpbGUubWFlPic=

> <r_lp_tautomer_probability>
1

> <r_epik_Ionization_Penalty>
0.037386

> <r_epik_Ionization_Penalty_Charging>
0.037386

> <r_epik_Ionization_Penalty_Neutral>
0

> <r_epik_State_Penalty>
0.0312892

> <r_epik_Charging_Adjusted_Penalty>
0.0686752

> <i_epik_Tot_Q>
1

> <i_epik_Tot_abs_Q>
3

> <r_epik_Metal_State_Penalty>
0.0312892

> <b_epik_Metal_Only>
0

> <s_lp_Force_Field>
OPLS_2005

> <r_lp_Energy>
31.4453

> <b_lp_Chiralities_Consistent>
1

> <s_lp_Variant>
AV-unprocessed.smi:3029-4

> <Gold.Version>
5.8.1

> <Gold.Id.Protein>
6NUR|6NUR_protein|mol2

> <Gold.PLP.Fitness>
46.1635

> <Gold.PLP.PLP>
-48.0593

> <Gold.PLP.part.hbond>
-1.0000

> <Gold.PLP.part.metal>
0.0000

> <Gold.PLP.part.buried>
-6.8739

> <Gold.PLP.part.nonpolar>
-40.0435

> <Gold.PLP.part.repulsive>
0.1726

> <Gold.PLP.ligand.clash>
0.0000

> <Gold.PLP.ligand.torsion>
0.9778

> <Gold.PLP.Chemscore.Hbond>
0.0000

> <Gold.PLP.Chemscore.CHOScore>
0.0000

> <Gold.PLP.Chemscore.Metal>
0.0000

> <Gold.PLP.Chemscore.Internal.Correction>
0.0598

> <Gold.Rescore>
     Score         DG    S(hbond)    S(metal)    S(lipo)     H(rot)  DE(clash)    DE(int)     intcor
     11.54     -14.12       0.00        0.00     115.50       1.90       0.07       2.51       ----

> <Gold.Chemscore.Fitness>
11.5444

> <Gold.Chemscore.DG>
-14.1204

> <Gold.Chemscore.ZeroCoef>
-5.4800

> <Gold.Chemscore.Hbond>
0.0000

> <Gold.Chemscore.Metal>
0.0000

> <Gold.Chemscore.Lipo>
115.5038

> <Gold.Chemscore.Internal_Hbond>
0.0000

> <Gold.Chemscore.DEClash>
0.0694

> <Gold.Chemscore.DEInternal>
2.5066

> <Gold.Chemscore.Rot>
1.9037

> <Gold.Chemscore.Internal.Correction>
   9.000000E+99

> <Gold.Chemscore.Hbond.Weighted>
-0.0000

> <Gold.Chemscore.Metal.Weighted>
-0.0000

> <Gold.Chemscore.Lipo.Weighted>
-13.5139

> <Gold.Chemscore.Internal_Hbond.Weighted>
0.0000

> <Gold.Chemscore.DEClash.Weighted>
0.0694

> <Gold.Chemscore.DEInternal.Weighted>
2.5066

> <Gold.Chemscore.Rot.Weighted>
4.8736

> <Gold.Chemscore.Internal.Correction.Weighted>
   9.000000E+99

> <Gold.Protein.RotatedTorsions>
[ 6907 6896 6895 6894 ] final -135.33 input  -60.11 | X-H torsion
[ 7974 7965 7964 7962 ] final   -5.53 input  175.53 | X-H torsion
[ 8008 7997 7996 7995 ] final   55.27 input   59.86 | X-H torsion
[ 10167 10162 10161 10158 ] final  -36.93 input  -65.29 | X-H torsion
[ 10718 10713 10712 10709 ] final   92.54 input   66.30 | X-H torsion
[ 10763 10752 10751 10750 ] final  113.62 input  -60.55 | X-H torsion
[ 11005 11000 10999 10996 ] final  146.02 input  -57.11 | X-H torsion

> <Gold.Protein.ActiveResidues>
 VAL166  LYS551  ARG553  GLY616  TRP617  ASP618  TYR619  PRO620  LYS621  CYS622 
 ASP623  PHE694  ASN695  SER759  ASP760  ASP761  ALA762  ILE779  LEU786  VAL792 
 PHE793  MET794  SER795  GLU796  ALA797  LYS798  CYS799  TRP800  GLU811  SER814 

> <Gold.Protein.RotatedAtoms>
  150.9965  133.6097  159.2700 H   0  0  0  0  0  0  0  0  0  0  0  0  # atno 6907 bound_to 6896
  151.3299  135.0838  159.9345 H   0  0  0  0  0  0  0  0  0  0  0  0  # atno 6908 bound_to 6896
  152.5261  133.9597  159.7765 H   0  0  0  0  0  0  0  0  0  0  0  0  # atno 6909 bound_to 6896
  146.2351  140.2035  142.8334 H   0  0  0  0  0  0  0  0  0  0  0  0  # atno 7974 bound_to 7965
  155.4984  140.3473  155.4367 H   0  0  0  0  0  0  0  0  0  0  0  0  # atno 8008 bound_to 7997
  156.0930  140.1415  156.9595 H   0  0  0  0  0  0  0  0  0  0  0  0  # atno 8009 bound_to 7997
  154.4646  140.0922  156.6964 H   0  0  0  0  0  0  0  0  0  0  0  0  # atno 8010 bound_to 7997
  140.7131  143.3375  151.2429 H   0  0  0  0  0  0  0  0  0  0  0  0  # atno 10167 bound_to 10162
  157.6958  131.0447  150.3897 H   0  0  0  0  0  0  0  0  0  0  0  0  # atno 10718 bound_to 10713
  153.4951  135.3650  155.2512 H   0  0  0  0  0  0  0  0  0  0  0  0  # atno 10763 bound_to 10752
  154.8750  135.3986  154.3543 H   0  0  0  0  0  0  0  0  0  0  0  0  # atno 10764 bound_to 10752
  153.4169  135.7079  153.6386 H   0  0  0  0  0  0  0  0  0  0  0  0  # atno 10765 bound_to 10752
  140.0759  134.9125  157.1422 H   0  0  0  0  0  0  0  0  0  0  0  0  # atno 11005 bound_to 11000
  144.9763  140.8417  143.5424 LP  0  0  0  0  0  0  0  0  0  0  0  0  # atno 17320 bound_to 7965
  145.2022  139.2246  143.5187 LP  0  0  0  0  0  0  0  0  0  0  0  0  # atno 17321 bound_to 7965
  139.6874  143.9749  152.2841 LP  0  0  0  0  0  0  0  0  0  0  0  0  # atno 17342 bound_to 10162
  139.9400  144.6688  150.8276 LP  0  0  0  0  0  0  0  0  0  0  0  0  # atno 17343 bound_to 10162
  156.4302  130.3970  149.6765 LP  0  0  0  0  0  0  0  0  0  0  0  0  # atno 17370 bound_to 10713
  156.3985  130.7663  151.2669 LP  0  0  0  0  0  0  0  0  0  0  0  0  # atno 17371 bound_to 10713
  140.3558  134.2548  155.7193 LP  0  0  0  0  0  0  0  0  0  0  0  0  # atno 17394 bound_to 11000
  141.2029  133.7925  157.0366 LP  0  0  0  0  0  0  0  0  0  0  0  0  # atno 17395 bound_to 11000

$$$$
