AV-unprocessed.smi:3133|AV-procd|sdf|11940|dock4
  -GOLD-   2272017333D 1   1.00000     0.00000
 Structure written by MMmdl.
 32 33  0  0  0  0  0  0  0  0  1 V2000
  150.0250  141.2558  155.9903 C   0  0  0  0  0  0  0  0  0  0  0  0
  151.4415  140.6540  155.8900 C   0  0  1  0  0  0  0  0  0  0  0  0
  152.1324  140.5531  157.2583 C   0  0  0  0  0  0  0  0  0  0  0  0
  152.8496  139.5891  157.5289 O   0  0  0  0  0  0  0  0  0  0  0  0
  151.9109  141.5643  158.1129 N   0  0  0  0  0  0  0  0  0  0  0  0
  152.4775  141.6713  159.4523 C   0  0  0  0  0  0  0  0  0  0  0  0
  152.5475  143.1324  159.9265 C   0  0  1  0  0  0  0  0  0  0  0  0
  152.9676  144.1136  158.8362 C   0  0  0  0  0  0  0  0  0  0  0  0
  152.4519  145.4210  159.3947 C   0  0  0  0  0  0  0  0  0  0  0  0
  151.1486  144.9972  160.0717 C   0  0  0  0  0  0  0  0  0  0  0  0
  151.2631  143.5984  160.3274 O   0  0  0  0  0  0  0  0  0  0  0  0
  151.4484  139.3541  155.2295 N   0  0  0  0  0  0  0  0  0  0  0  0
  152.4769  138.5967  154.8413 C   0  0  0  0  0  0  0  0  0  0  0  0
  152.1215  137.4350  154.3105 N   0  0  0  0  0  0  0  0  0  0  0  0
  150.7641  137.5401  154.4212 C   0  0  0  0  0  0  0  0  0  0  0  0
  150.3086  138.6635  154.9750 N   0  0  0  0  0  0  0  0  0  0  0  0
  150.0517  142.2486  156.4409 H   0  0  0  0  0  0  0  0  0  0  0  0
  149.3568  140.6394  156.5931 H   0  0  0  0  0  0  0  0  0  0  0  0
  149.5764  141.3584  155.0020 H   0  0  0  0  0  0  0  0  0  0  0  0
  152.0323  141.3293  155.2685 H   0  0  0  0  0  0  0  0  0  0  0  0
  151.3034  142.3140  157.8159 H   0  0  0  0  0  0  0  0  0  0  0  0
  151.8865  141.0753  160.1498 H   0  0  0  0  0  0  0  0  0  0  0  0
  153.4756  141.2325  159.4396 H   0  0  0  0  0  0  0  0  0  0  0  0
  153.2279  143.2313  160.7742 H   0  0  0  0  0  0  0  0  0  0  0  0
  154.0434  144.1181  158.6577 H   0  0  0  0  0  0  0  0  0  0  0  0
  152.4638  143.8845  157.8960 H   0  0  0  0  0  0  0  0  0  0  0  0
  153.1510  145.8084  160.1374 H   0  0  0  0  0  0  0  0  0  0  0  0
  152.3070  146.1862  158.6319 H   0  0  0  0  0  0  0  0  0  0  0  0
  150.9718  145.5516  160.9936 H   0  0  0  0  0  0  0  0  0  0  0  0
  150.2973  145.1611  159.4105 H   0  0  0  0  0  0  0  0  0  0  0  0
  153.5076  138.8997  154.9535 H   0  0  0  0  0  0  0  0  0  0  0  0
  150.0917  136.7622  154.0900 H   0  0  0  0  0  0  0  0  0  0  0  0
  1  2  1  0  0  0  0
  1 17  1  0  0  0  0
  1 18  1  0  0  0  0
  1 19  1  0  0  0  0
  2  3  1  0  0  0  0
  2 12  1  0  0  0  0
  2 20  1  0  0  0  0
  3  4  2  0  0  0  0
  3  5  1  0  0  0  0
  5  6  1  0  0  0  0
  5 21  1  0  0  0  0
  6  7  1  0  0  0  0
  6 22  1  0  0  0  0
  6 23  1  0  0  0  0
  7 11  1  0  0  0  0
  7  8  1  0  0  0  0
  7 24  1  0  0  0  0
  8  9  1  0  0  0  0
  8 25  1  0  0  0  0
  8 26  1  0  0  0  0
  9 10  1  0  0  0  0
  9 27  1  0  0  0  0
  9 28  1  0  0  0  0
 10 11  1  0  0  0  0
 10 29  1  0  0  0  0
 10 30  1  0  0  0  0
 12 16  1  0  0  0  0
 12 13  1  0  0  0  0
 13 14  2  0  0  0  0
 13 31  1  0  0  0  0
 14 15  1  0  0  0  0
 15 16  2  0  0  0  0
 15 32  1  0  0  0  0
M  END
> <s_m_source_file>
AV-unprocessed.smi

> <i_m_source_file_index>
3133

> <i_lp_mmshare_version>
43012

> <i_f3d_flags>
0

> <s_epik_input>
bjFbY0hdbltjSF1uMVtDQEhdKFtDSDNdKUMoPU8pW05IXVtDSDJdW0NAQEhdMltDSDJdW0NIMl1bQ0gyXU8y

> <s_epik_cmdline>
J2VwaWtfcHl0aG9uJywgJy1waCcsICc3LjAnLCAnLXRuJywgJzgnLCAnLW1hJywgJzIwMCcsICctbWV0YWxfYmluZGluZycsICctaW1hZScsICc8aW5maWxlLm1hZT4nLCAnLW9tYWUnLCAnPG91dGZpbGUubWFlPic=

> <r_lp_tautomer_probability>
1

> <r_epik_Ionization_Penalty>
1.2027e-05

> <r_epik_Ionization_Penalty_Charging>
0

> <r_epik_Ionization_Penalty_Neutral>
1.2027e-05

> <r_epik_State_Penalty>
-0

> <r_epik_Charging_Adjusted_Penalty>
0

> <i_epik_Tot_Q>
0

> <i_epik_Tot_abs_Q>
0

> <r_epik_Metal_State_Penalty>
-0

> <b_epik_Metal_Only>
0

> <s_lp_Force_Field>
OPLS_2005

> <r_lp_Energy>
22.8462

> <b_lp_Chiralities_Consistent>
1

> <s_lp_Variant>
AV-unprocessed.smi:3133-4

> <Gold.Version>
5.8.1

> <Gold.Id.Protein>
6NUR|6NUR_protein|mol2

> <Gold.PLP.Fitness>
45.2671

> <Gold.PLP.PLP>
-38.5070

> <Gold.PLP.part.hbond>
-2.8574

> <Gold.PLP.part.metal>
0.0000

> <Gold.PLP.part.buried>
-4.9345

> <Gold.PLP.part.nonpolar>
-30.5523

> <Gold.PLP.part.repulsive>
0.4303

> <Gold.PLP.ligand.clash>
0.0000

> <Gold.PLP.ligand.torsion>
0.9724

> <Gold.PLP.Chemscore.Hbond>
1.8480

> <Gold.PLP.Chemscore.CHOScore>
1.0186

> <Gold.PLP.Chemscore.Metal>
0.0000

> <Gold.Chemscore.Hbonds>
donor molecule, donor type, donor heavy atom, donor atom, acceptor molecule, acceptor atom, score
      P1  H  7997  8009       L1     4  1.00
      P1  H 10752 10765       L1    14  0.86
      L1  C    15    32       P1  7948  1.00

> <Gold.PLP.Chemscore.Internal.Correction>
0.1052

> <Gold.Rescore>
     Score         DG    S(hbond)    S(metal)    S(lipo)     H(rot)  DE(clash)    DE(int)     intcor
     12.36     -14.78       1.91        0.00      74.30       2.26       0.10       2.32       ----

> <Gold.Chemscore.Fitness>
12.3629

> <Gold.Chemscore.DG>
-14.7826

> <Gold.Chemscore.ZeroCoef>
-5.4800

> <Gold.Chemscore.Hbond>
1.9115

> <Gold.Chemscore.Metal>
0.0000

> <Gold.Chemscore.Lipo>
74.2976

> <Gold.Chemscore.Internal_Hbond>
0.0000

> <Gold.Chemscore.DEClash>
0.1043

> <Gold.Chemscore.DEInternal>
2.3154

> <Gold.Chemscore.Rot>
2.2558

> <Gold.Chemscore.Internal.Correction>
   9.000000E+99

> <Gold.Chemscore.Hbonds>
donor molecule, donor type, donor heavy atom, donor atom, acceptor molecule, acceptor atom, score
      P1  H  7997  8009       L1     4  0.35
      P1  H 10752 10765       L1    14  0.83

> <Gold.Chemscore.Hbond.Weighted>
-6.3845

> <Gold.Chemscore.Metal.Weighted>
-0.0000

> <Gold.Chemscore.Lipo.Weighted>
-8.6928

> <Gold.Chemscore.Internal_Hbond.Weighted>
0.0000

> <Gold.Chemscore.DEClash.Weighted>
0.1043

> <Gold.Chemscore.DEInternal.Weighted>
2.3154

> <Gold.Chemscore.Rot.Weighted>
5.7747

> <Gold.Chemscore.Internal.Correction.Weighted>
   9.000000E+99

> <Gold.Protein.RotatedTorsions>
[ 6907 6896 6895 6894 ] final   20.52 input  -60.11 | X-H torsion
[ 7974 7965 7964 7962 ] final  -63.23 input  175.53 | X-H torsion
[ 8008 7997 7996 7995 ] final  171.66 input   59.86 | X-H torsion
[ 10167 10162 10161 10158 ] final   11.92 input  -65.29 | X-H torsion
[ 10718 10713 10712 10709 ] final -165.50 input   66.30 | X-H torsion
[ 10763 10752 10751 10750 ] final  154.97 input  -60.55 | X-H torsion
[ 11005 11000 10999 10996 ] final   56.58 input  -57.11 | X-H torsion

> <Gold.Protein.ActiveResidues>
 VAL166  LYS551  ARG553  GLY616  TRP617  ASP618  TYR619  PRO620  LYS621  CYS622 
 ASP623  PHE694  ASN695  SER759  ASP760  ASP761  ALA762  ILE779  LEU786  VAL792 
 PHE793  MET794  SER795  GLU796  ALA797  LYS798  CYS799  TRP800  GLU811  SER814 

> <Gold.Protein.RotatedAtoms>
  151.8977  135.0391  160.0503 H   0  0  0  0  0  0  0  0  0  0  0  0  # atno 6907 bound_to 6896
  152.2384  133.5110  159.5264 H   0  0  0  0  0  0  0  0  0  0  0  0  # atno 6908 bound_to 6896
  150.7046  134.1039  159.4018 H   0  0  0  0  0  0  0  0  0  0  0  0  # atno 6909 bound_to 6896
  145.7816  140.8759  143.0327 H   0  0  0  0  0  0  0  0  0  0  0  0  # atno 7974 bound_to 7965
  156.1250  140.1506  156.9150 H   0  0  0  0  0  0  0  0  0  0  0  0  # atno 8008 bound_to 7997
  154.4864  140.0864  156.7537 H   0  0  0  0  0  0  0  0  0  0  0  0  # atno 8009 bound_to 7997
  155.4360  140.3429  155.4287 H   0  0  0  0  0  0  0  0  0  0  0  0  # atno 8010 bound_to 7997
  140.6101  143.8426  150.7056 H   0  0  0  0  0  0  0  0  0  0  0  0  # atno 10167 bound_to 10162
  156.6543  130.9020  151.3018 H   0  0  0  0  0  0  0  0  0  0  0  0  # atno 10718 bound_to 10713
  154.1609  135.2810  155.3109 H   0  0  0  0  0  0  0  0  0  0  0  0  # atno 10763 bound_to 10752
  154.6147  135.5487  153.7514 H   0  0  0  0  0  0  0  0  0  0  0  0  # atno 10764 bound_to 10752
  153.0193  135.6424  154.1751 H   0  0  0  0  0  0  0  0  0  0  0  0  # atno 10765 bound_to 10752
  140.0518  134.5726  155.9255 H   0  0  0  0  0  0  0  0  0  0  0  0  # atno 11005 bound_to 11000
  144.6795  139.9996  143.7484 LP  0  0  0  0  0  0  0  0  0  0  0  0  # atno 17320 bound_to 7965
  146.0069  139.3137  143.0894 LP  0  0  0  0  0  0  0  0  0  0  0  0  # atno 17321 bound_to 7965
  140.1992  143.3973  152.1804 LP  0  0  0  0  0  0  0  0  0  0  0  0  # atno 17342 bound_to 10162
  139.5355  144.7204  151.4910 LP  0  0  0  0  0  0  0  0  0  0  0  0  # atno 17343 bound_to 10162
  157.7131  130.9464  150.1157 LP  0  0  0  0  0  0  0  0  0  0  0  0  # atno 17370 bound_to 10713
  156.2060  130.3663  149.8729 LP  0  0  0  0  0  0  0  0  0  0  0  0  # atno 17371 bound_to 10713
  141.1934  133.6578  156.5545 LP  0  0  0  0  0  0  0  0  0  0  0  0  # atno 17394 bound_to 11000
  140.3906  134.7444  157.4719 LP  0  0  0  0  0  0  0  0  0  0  0  0  # atno 17395 bound_to 11000

$$$$
