AV-unprocessed.smi:1982|AV-procd|sdf|8021|dock1
  -GOLD-   2272010213D 1   1.00000     0.00000
 Structure written by MMmdl.
 36 37  0  0  0  0  0  0  0  0  1 V2000
  151.8720  145.7050  159.9513 C   0  0  0  0  0  0  0  0  0  0  0  0
  152.3468  144.2605  159.7220 C   0  0  1  0  0  0  0  0  0  0  0  0
  152.3044  143.4312  161.0211 C   0  0  0  0  0  0  0  0  0  0  0  0
  152.8807  142.0231  160.8071 C   0  0  0  0  0  0  0  0  0  0  0  0
  152.1772  141.2953  159.6521 C   0  0  0  0  0  0  0  0  0  0  0  0
  152.2223  142.1266  158.3554 C   0  0  1  0  0  0  0  0  0  0  0  0
  151.5628  141.3938  157.2783 N   0  0  0  0  0  0  0  0  0  0  0  0
  151.9165  140.1789  156.8309 C   0  0  0  0  0  0  0  0  0  0  0  0
  152.8220  139.5078  157.3248 O   0  0  0  0  0  0  0  0  0  0  0  0
  151.1396  139.6474  155.6269 C   0  0  0  0  0  0  0  0  0  0  0  0
  151.1757  138.1973  155.5933 N   0  0  0  0  0  0  0  0  0  0  0  0
  151.3409  137.3479  154.5773 C   0  0  0  0  0  0  0  0  0  0  0  0
  151.2864  136.0877  154.9806 N   0  0  0  0  0  0  0  0  0  0  0  0
  151.0724  136.2022  156.3442 N   0  0  0  0  0  0  0  0  0  0  0  0
  151.0055  137.4518  156.7137 N   0  0  0  0  0  0  0  0  0  0  0  0
  151.6116  143.5413  158.5594 C   0  0  1  0  0  0  0  0  0  0  0  0
  150.0720  143.5243  158.7149 C   0  0  0  0  0  0  0  0  0  0  0  0
  150.8577  145.7411  160.3485 H   0  0  0  0  0  0  0  0  0  0  0  0
  151.8920  146.2780  159.0242 H   0  0  0  0  0  0  0  0  0  0  0  0
  152.5177  146.2160  160.6660 H   0  0  0  0  0  0  0  0  0  0  0  0
  153.3956  144.3333  159.4295 H   0  0  0  0  0  0  0  0  0  0  0  0
  152.8718  143.9368  161.8033 H   0  0  0  0  0  0  0  0  0  0  0  0
  151.2805  143.3583  161.3883 H   0  0  0  0  0  0  0  0  0  0  0  0
  153.9481  142.0959  160.5936 H   0  0  0  0  0  0  0  0  0  0  0  0
  152.7895  141.4407  161.7242 H   0  0  0  0  0  0  0  0  0  0  0  0
  152.6537  140.3276  159.4914 H   0  0  0  0  0  0  0  0  0  0  0  0
  151.1439  141.0836  159.9295 H   0  0  0  0  0  0  0  0  0  0  0  0
  153.2737  142.2445  158.0844 H   0  0  0  0  0  0  0  0  0  0  0  0
  150.8052  141.8675  156.8074 H   0  0  0  0  0  0  0  0  0  0  0  0
  150.0993  139.9712  155.6769 H   0  0  0  0  0  0  0  0  0  0  0  0
  151.5596  140.0460  154.7022 H   0  0  0  0  0  0  0  0  0  0  0  0
  151.4927  137.6502  153.5515 H   0  0  0  0  0  0  0  0  0  0  0  0
  151.8177  144.1137  157.6537 H   0  0  0  0  0  0  0  0  0  0  0  0
  149.7554  142.9881  159.6089 H   0  0  0  0  0  0  0  0  0  0  0  0
  149.5861  143.0520  157.8609 H   0  0  0  0  0  0  0  0  0  0  0  0
  149.6657  144.5333  158.7751 H   0  0  0  0  0  0  0  0  0  0  0  0
  1  2  1  0  0  0  0
  1 18  1  0  0  0  0
  1 19  1  0  0  0  0
  1 20  1  0  0  0  0
  2 16  1  0  0  0  0
  2  3  1  0  0  0  0
  2 21  1  0  0  0  0
  3  4  1  0  0  0  0
  3 22  1  0  0  0  0
  3 23  1  0  0  0  0
  4  5  1  0  0  0  0
  4 24  1  0  0  0  0
  4 25  1  0  0  0  0
  5  6  1  0  0  0  0
  5 26  1  0  0  0  0
  5 27  1  0  0  0  0
  6  7  1  0  0  0  0
  6 16  1  0  0  0  0
  6 28  1  0  0  0  0
  7  8  1  0  0  0  0
  7 29  1  0  0  0  0
  8  9  2  0  0  0  0
  8 10  1  0  0  0  0
 10 11  1  0  0  0  0
 10 30  1  0  0  0  0
 10 31  1  0  0  0  0
 11 15  1  0  0  0  0
 11 12  1  0  0  0  0
 12 13  2  0  0  0  0
 12 32  1  0  0  0  0
 13 14  1  0  0  0  0
 14 15  2  0  0  0  0
 16 17  1  0  0  0  0
 16 33  1  0  0  0  0
 17 34  1  0  0  0  0
 17 35  1  0  0  0  0
 17 36  1  0  0  0  0
M  END
> <s_m_source_file>
AV-unprocessed.smi

> <i_m_source_file_index>
1982

> <i_lp_mmshare_version>
43012

> <i_f3d_flags>
0

> <s_epik_input>
W0NIM11bQ0BASF0xW0NIMl1bQ0gyXVtDSDJdW0NASF0oW0NASF0xW0NIM10pW05IXUMoPU8pW0NIMl1uMltjSF1ubm4y

> <s_epik_cmdline>
J2VwaWtfcHl0aG9uJywgJy1waCcsICc3LjAnLCAnLXRuJywgJzgnLCAnLW1hJywgJzIwMCcsICctbWV0YWxfYmluZGluZycsICctaW1hZScsICc8aW5maWxlLm1hZT4nLCAnLW9tYWUnLCAnPG91dGZpbGUubWFlPic=

> <r_lp_tautomer_probability>
1

> <r_epik_Ionization_Penalty>
5.03816e-07

> <r_epik_Ionization_Penalty_Charging>
0

> <r_epik_Ionization_Penalty_Neutral>
5.03816e-07

> <r_epik_State_Penalty>
-0

> <r_epik_Charging_Adjusted_Penalty>
0

> <i_epik_Tot_Q>
0

> <i_epik_Tot_abs_Q>
0

> <r_epik_Metal_State_Penalty>
-0

> <b_epik_Metal_Only>
0

> <s_lp_Force_Field>
OPLS_2005

> <r_lp_Energy>
14.9892

> <b_lp_Chiralities_Consistent>
1

> <s_lp_Variant>
AV-unprocessed.smi:1982-2

> <Gold.Version>
5.8.1

> <Gold.Id.Protein>
6NUR|6NUR_protein|mol2

> <Gold.PLP.Fitness>
42.8242

> <Gold.PLP.PLP>
-36.3239

> <Gold.PLP.part.hbond>
-2.0000

> <Gold.PLP.part.metal>
0.0000

> <Gold.PLP.part.buried>
-4.1240

> <Gold.PLP.part.nonpolar>
-30.4636

> <Gold.PLP.part.repulsive>
0.2865

> <Gold.PLP.ligand.clash>
0.0000

> <Gold.PLP.ligand.torsion>
0.5969

> <Gold.PLP.Chemscore.Hbond>
2.0000

> <Gold.PLP.Chemscore.CHOScore>
0.5590

> <Gold.PLP.Chemscore.Metal>
0.0000

> <Gold.Chemscore.Hbonds>
donor molecule, donor type, donor heavy atom, donor atom, acceptor molecule, acceptor atom, score
      P1  H  7997  8008       L1     9  1.00
      P1  H 10752 10763       L1    13  0.69
      L1  C    12    32       P1  7949  0.57

> <Gold.PLP.Chemscore.Internal.Correction>
0.0171

> <Gold.Rescore>
     Score         DG    S(hbond)    S(metal)    S(lipo)     H(rot)  DE(clash)    DE(int)     intcor
     14.57     -17.12       1.84        0.00      88.59       1.91       0.07       2.47       ----

> <Gold.Chemscore.Fitness>
14.5733

> <Gold.Chemscore.DG>
-17.1176

> <Gold.Chemscore.ZeroCoef>
-5.4800

> <Gold.Chemscore.Hbond>
1.8418

> <Gold.Chemscore.Metal>
0.0000

> <Gold.Chemscore.Lipo>
88.5893

> <Gold.Chemscore.Internal_Hbond>
0.0000

> <Gold.Chemscore.DEClash>
0.0727

> <Gold.Chemscore.DEInternal>
2.4716

> <Gold.Chemscore.Rot>
1.9058

> <Gold.Chemscore.Internal.Correction>
   9.000000E+99

> <Gold.Chemscore.Hbonds>
donor molecule, donor type, donor heavy atom, donor atom, acceptor molecule, acceptor atom, score
      P1  H  7997  8008       L1     9  0.50
      P1  H 10752 10763       L1    13  0.07

> <Gold.Chemscore.Hbond.Weighted>
-6.1515

> <Gold.Chemscore.Metal.Weighted>
-0.0000

> <Gold.Chemscore.Lipo.Weighted>
-10.3649

> <Gold.Chemscore.Internal_Hbond.Weighted>
0.0000

> <Gold.Chemscore.DEClash.Weighted>
0.0727

> <Gold.Chemscore.DEInternal.Weighted>
2.4716

> <Gold.Chemscore.Rot.Weighted>
4.8788

> <Gold.Chemscore.Internal.Correction.Weighted>
   9.000000E+99

> <Gold.Protein.RotatedTorsions>
[ 6907 6896 6895 6894 ] final  143.34 input  -60.11 | X-H torsion
[ 7974 7965 7964 7962 ] final -111.65 input  175.53 | X-H torsion
[ 8008 7997 7996 7995 ] final  -52.21 input   59.86 | X-H torsion
[ 10167 10162 10161 10158 ] final   70.70 input  -65.29 | X-H torsion
[ 10718 10713 10712 10709 ] final  -24.43 input   66.30 | X-H torsion
[ 10763 10752 10751 10750 ] final   39.22 input  -60.55 | X-H torsion
[ 11005 11000 10999 10996 ] final   37.73 input  -57.11 | X-H torsion

> <Gold.Protein.ActiveResidues>
 VAL166  LYS551  ARG553  GLY616  TRP617  ASP618  TYR619  PRO620  LYS621  CYS622 
 ASP623  PHE694  ASN695  SER759  ASP760  ASP761  ALA762  ILE779  LEU786  VAL792 
 PHE793  MET794  SER795  GLU796  ALA797  LYS798  CYS799  TRP800  GLU811  SER814 

> <Gold.Protein.RotatedAtoms>
  152.2075  133.4886  159.5091 H   0  0  0  0  0  0  0  0  0  0  0  0  # atno 6907 bound_to 6896
  150.6983  134.1510  159.4149 H   0  0  0  0  0  0  0  0  0  0  0  0  # atno 6908 bound_to 6896
  151.9428  135.0205  160.0587 H   0  0  0  0  0  0  0  0  0  0  0  0  # atno 6909 bound_to 6896
  145.1535  140.8841  143.3632 H   0  0  0  0  0  0  0  0  0  0  0  0  # atno 7974 bound_to 7965
  154.4101  140.1229  156.4954 H   0  0  0  0  0  0  0  0  0  0  0  0  # atno 8008 bound_to 7997
  155.6948  140.3495  155.4889 H   0  0  0  0  0  0  0  0  0  0  0  0  # atno 8009 bound_to 7997
  155.9437  140.1092  157.1024 H   0  0  0  0  0  0  0  0  0  0  0  0  # atno 8010 bound_to 7997
  140.0541  144.5287  150.7341 H   0  0  0  0  0  0  0  0  0  0  0  0  # atno 10167 bound_to 10162
  156.4778  130.4538  149.6830 H   0  0  0  0  0  0  0  0  0  0  0  0  # atno 10718 bound_to 10713
  152.9974  135.6227  154.2430 H   0  0  0  0  0  0  0  0  0  0  0  0  # atno 10763 bound_to 10752
  154.2171  135.2797  155.2940 H   0  0  0  0  0  0  0  0  0  0  0  0  # atno 10764 bound_to 10752
  154.5559  135.5719  153.7022 H   0  0  0  0  0  0  0  0  0  0  0  0  # atno 10765 bound_to 10752
  140.2196  134.3656  155.8011 H   0  0  0  0  0  0  0  0  0  0  0  0  # atno 11005 bound_to 11000
  145.0405  139.3264  143.5979 LP  0  0  0  0  0  0  0  0  0  0  0  0  # atno 17320 bound_to 7965
  146.3491  139.9777  142.8699 LP  0  0  0  0  0  0  0  0  0  0  0  0  # atno 17321 bound_to 7965
  140.7203  143.2582  151.4301 LP  0  0  0  0  0  0  0  0  0  0  0  0  # atno 17342 bound_to 10162
  139.5934  144.1449  152.2115 LP  0  0  0  0  0  0  0  0  0  0  0  0  # atno 17343 bound_to 10162
  156.3552  130.7453  151.2418 LP  0  0  0  0  0  0  0  0  0  0  0  0  # atno 17370 bound_to 10713
  157.7486  131.0366  150.4415 LP  0  0  0  0  0  0  0  0  0  0  0  0  # atno 17371 bound_to 10713
  141.2223  133.7186  156.8554 LP  0  0  0  0  0  0  0  0  0  0  0  0  # atno 17394 bound_to 11000
  140.1863  134.8997  157.3008 LP  0  0  0  0  0  0  0  0  0  0  0  0  # atno 17395 bound_to 11000

$$$$
