AV-unprocessed.smi:3159|AV-procd|sdf|12050|dock6
  -GOLD-   2272017473D 1   1.00000     0.00000
 Structure written by MMmdl.
 35 36  0  0  0  0  0  0  0  0  1 V2000
  143.5198  132.3751  149.6383 C   0  0  0  0  0  0  0  0  0  0  0  0
  144.6151  133.0714  150.3906 C   0  0  0  0  0  0  0  0  0  0  0  0
  144.7233  134.4585  150.6985 C   0  0  0  0  0  0  0  0  0  0  0  0
  145.9040  134.5240  151.3871 C   0  0  0  0  0  0  0  0  0  0  0  0
  146.5147  135.6115  151.9295 N   0  0  0  0  0  0  0  0  0  0  0  0
  145.9838  136.5814  152.6946 C   0  0  0  0  0  0  0  0  0  0  0  0
  144.8071  136.6465  153.0505 O   0  0  0  0  0  0  0  0  0  0  0  0
  146.9089  137.4930  153.0286 N   0  0  0  0  0  0  0  0  0  0  0  0
  146.6730  138.6800  153.8451 C   0  0  0  0  0  0  0  0  0  0  0  0
  147.8881  139.6267  153.8472 C   0  0  1  0  0  0  0  0  0  0  0  0
  147.7816  140.8151  154.7836 C   0  0  0  0  0  0  0  0  0  0  0  0
  149.2402  141.2390  154.9291 C   0  0  0  0  0  0  0  0  0  0  0  0
  150.0120  140.0520  154.7686 O   0  0  0  0  0  0  0  0  0  0  0  0
  149.1746  138.9770  154.3547 C   0  0  0  0  0  0  0  0  0  0  0  0
  146.4410  133.2566  151.4697 N   0  0  0  0  0  0  0  0  0  0  0  0
  147.6680  132.7970  152.0916 C   0  0  0  0  0  0  0  0  0  0  0  0
  145.6397  132.3632  150.8511 N   0  0  0  0  0  0  0  0  0  0  0  0
  142.6789  133.0449  149.4571 H   0  0  0  0  0  0  0  0  0  0  0  0
  143.1443  131.5155  150.1939 H   0  0  0  0  0  0  0  0  0  0  0  0
  143.8747  132.0191  148.6708 H   0  0  0  0  0  0  0  0  0  0  0  0
  144.0378  135.2534  150.4463 H   0  0  0  0  0  0  0  0  0  0  0  0
  147.4989  135.6976  151.7233 H   0  0  0  0  0  0  0  0  0  0  0  0
  147.8507  137.3579  152.6910 H   0  0  0  0  0  0  0  0  0  0  0  0
  145.7743  139.2059  153.5178 H   0  0  0  0  0  0  0  0  0  0  0  0
  146.4735  138.3453  154.8633 H   0  0  0  0  0  0  0  0  0  0  0  0
  148.0635  139.9947  152.8346 H   0  0  0  0  0  0  0  0  0  0  0  0
  147.1465  141.6130  154.3977 H   0  0  0  0  0  0  0  0  0  0  0  0
  147.3857  140.5019  155.7509 H   0  0  0  0  0  0  0  0  0  0  0  0
  149.5141  141.9382  154.1383 H   0  0  0  0  0  0  0  0  0  0  0  0
  149.4396  141.7175  155.8882 H   0  0  0  0  0  0  0  0  0  0  0  0
  148.9732  138.3454  155.2212 H   0  0  0  0  0  0  0  0  0  0  0  0
  149.6610  138.3635  153.5962 H   0  0  0  0  0  0  0  0  0  0  0  0
  148.1887  133.6224  152.5767 H   0  0  0  0  0  0  0  0  0  0  0  0
  148.3228  132.3637  151.3350 H   0  0  0  0  0  0  0  0  0  0  0  0
  147.4381  132.0384  152.8404 H   0  0  0  0  0  0  0  0  0  0  0  0
  1  2  1  0  0  0  0
  1 18  1  0  0  0  0
  1 19  1  0  0  0  0
  1 20  1  0  0  0  0
  2 17  2  0  0  0  0
  2  3  1  0  0  0  0
  3  4  2  0  0  0  0
  3 21  1  0  0  0  0
  4  5  1  0  0  0  0
  4 15  1  0  0  0  0
  5  6  1  0  0  0  0
  5 22  1  0  0  0  0
  6  7  2  0  0  0  0
  6  8  1  0  0  0  0
  8  9  1  0  0  0  0
  8 23  1  0  0  0  0
  9 10  1  0  0  0  0
  9 24  1  0  0  0  0
  9 25  1  0  0  0  0
 10 14  1  0  0  0  0
 10 11  1  0  0  0  0
 10 26  1  0  0  0  0
 11 12  1  0  0  0  0
 11 27  1  0  0  0  0
 11 28  1  0  0  0  0
 12 13  1  0  0  0  0
 12 29  1  0  0  0  0
 12 30  1  0  0  0  0
 13 14  1  0  0  0  0
 14 31  1  0  0  0  0
 14 32  1  0  0  0  0
 15 16  1  0  0  0  0
 15 17  1  0  0  0  0
 16 33  1  0  0  0  0
 16 34  1  0  0  0  0
 16 35  1  0  0  0  0
M  END
> <s_m_source_file>
AV-unprocessed.smi

> <i_m_source_file_index>
3159

> <i_lp_mmshare_version>
43012

> <i_f3d_flags>
0

> <s_epik_input>
W0NIM11jMVtjSF1jKG4objEpW0NIM10pW05IXUMoPU8pW05IXVtDSDJdW0NAQEhdMltDSDJdW0NIMl1PW0NIMl0y

> <s_epik_cmdline>
J2VwaWtfcHl0aG9uJywgJy1waCcsICc3LjAnLCAnLXRuJywgJzgnLCAnLW1hJywgJzIwMCcsICctbWV0YWxfYmluZGluZycsICctaW1hZScsICc8aW5maWxlLm1hZT4nLCAnLW9tYWUnLCAnPG91dGZpbGUubWFlPic=

> <r_lp_tautomer_probability>
1

> <r_epik_Ionization_Penalty>
9.40319e-05

> <r_epik_Ionization_Penalty_Charging>
0

> <r_epik_Ionization_Penalty_Neutral>
9.40319e-05

> <r_epik_State_Penalty>
-0

> <r_epik_Charging_Adjusted_Penalty>
0

> <i_epik_Tot_Q>
0

> <i_epik_Tot_abs_Q>
0

> <r_epik_Metal_State_Penalty>
-0

> <b_epik_Metal_Only>
0

> <s_lp_Force_Field>
OPLS_2005

> <r_lp_Energy>
19.8906

> <b_lp_Chiralities_Consistent>
1

> <s_lp_Variant>
AV-unprocessed.smi:3159-2

> <Gold.Version>
5.8.1

> <Gold.Id.Protein>
6NUR|6NUR_protein|mol2

> <Gold.PLP.Fitness>
37.6096

> <Gold.PLP.PLP>
-30.0416

> <Gold.PLP.part.hbond>
-2.9298

> <Gold.PLP.part.metal>
0.0000

> <Gold.PLP.part.buried>
1.3420

> <Gold.PLP.part.nonpolar>
-28.1426

> <Gold.PLP.part.repulsive>
0.5218

> <Gold.PLP.ligand.clash>
0.0000

> <Gold.PLP.ligand.torsion>
0.4547

> <Gold.PLP.Chemscore.Hbond>
2.8240

> <Gold.PLP.Chemscore.CHOScore>
0.0000

> <Gold.PLP.Chemscore.Metal>
0.0000

> <Gold.Chemscore.Hbonds>
donor molecule, donor type, donor heavy atom, donor atom, acceptor molecule, acceptor atom, score
      L1  H     5    22       P1  7948  0.96
      L1  H     8    23       P1  7948  0.91
      P1  H  7989  7998       L1    13  0.50

> <Gold.PLP.Chemscore.Internal.Correction>
0.0053

> <Gold.Rescore>
     Score         DG    S(hbond)    S(metal)    S(lipo)     H(rot)  DE(clash)    DE(int)     intcor
     16.24     -17.00       2.16        0.00      64.13       1.25       0.35       0.42       ----

> <Gold.Chemscore.Fitness>
16.2363

> <Gold.Chemscore.DG>
-16.9986

> <Gold.Chemscore.ZeroCoef>
-5.4800

> <Gold.Chemscore.Hbond>
2.1587

> <Gold.Chemscore.Metal>
0.0000

> <Gold.Chemscore.Lipo>
64.1282

> <Gold.Chemscore.Internal_Hbond>
0.0000

> <Gold.Chemscore.DEClash>
0.3462

> <Gold.Chemscore.DEInternal>
0.4161

> <Gold.Chemscore.Rot>
1.2478

> <Gold.Chemscore.Internal.Correction>
   9.000000E+99

> <Gold.Chemscore.Hbonds>
donor molecule, donor type, donor heavy atom, donor atom, acceptor molecule, acceptor atom, score
      L1  H     5    22       P1  7948  0.91
      L1  H     8    23       P1  7948  0.88
      P1  H  7989  7998       L1    13  0.09

> <Gold.Chemscore.Hbond.Weighted>
-7.2101

> <Gold.Chemscore.Metal.Weighted>
-0.0000

> <Gold.Chemscore.Lipo.Weighted>
-7.5030

> <Gold.Chemscore.Internal_Hbond.Weighted>
0.0000

> <Gold.Chemscore.DEClash.Weighted>
0.3462

> <Gold.Chemscore.DEInternal.Weighted>
0.4161

> <Gold.Chemscore.Rot.Weighted>
3.1944

> <Gold.Chemscore.Internal.Correction.Weighted>
   9.000000E+99

> <Gold.Protein.RotatedTorsions>
[ 6907 6896 6895 6894 ] final  118.74 input  -60.11 | X-H torsion
[ 7974 7965 7964 7962 ] final -126.16 input  175.53 | X-H torsion
[ 8008 7997 7996 7995 ] final -162.31 input   59.86 | X-H torsion
[ 10167 10162 10161 10158 ] final   11.68 input  -65.29 | X-H torsion
[ 10718 10713 10712 10709 ] final  123.26 input   66.30 | X-H torsion
[ 10763 10752 10751 10750 ] final   40.05 input  -60.55 | X-H torsion
[ 11005 11000 10999 10996 ] final   68.77 input  -57.11 | X-H torsion

> <Gold.Protein.ActiveResidues>
 VAL166  LYS551  ARG553  GLY616  TRP617  ASP618  TYR619  PRO620  LYS621  CYS622 
 ASP623  PHE694  ASN695  SER759  ASP760  ASP761  ALA762  ILE779  LEU786  VAL792 
 PHE793  MET794  SER795  GLU796  ALA797  LYS798  CYS799  TRP800  GLU811  SER814 

> <Gold.Protein.RotatedAtoms>
  152.4522  133.7651  159.6767 H   0  0  0  0  0  0  0  0  0  0  0  0  # atno 6907 bound_to 6896
  150.8437  133.7886  159.3057 H   0  0  0  0  0  0  0  0  0  0  0  0  # atno 6908 bound_to 6896
  151.5503  135.1070  160.0000 H   0  0  0  0  0  0  0  0  0  0  0  0  # atno 6909 bound_to 6896
  144.9901  140.7724  143.4559 H   0  0  0  0  0  0  0  0  0  0  0  0  # atno 7974 bound_to 7965
  155.8049  140.0897  157.1936 H   0  0  0  0  0  0  0  0  0  0  0  0  # atno 8008 bound_to 7997
  154.3981  140.1465  156.3378 H   0  0  0  0  0  0  0  0  0  0  0  0  # atno 8009 bound_to 7997
  155.8424  140.3438  155.5643 H   0  0  0  0  0  0  0  0  0  0  0  0  # atno 8010 bound_to 7997
  140.6116  143.8395  150.7072 H   0  0  0  0  0  0  0  0  0  0  0  0  # atno 10167 bound_to 10162
  157.5679  131.1085  150.8421 H   0  0  0  0  0  0  0  0  0  0  0  0  # atno 10718 bound_to 10713
  152.9948  135.6202  154.2564 H   0  0  0  0  0  0  0  0  0  0  0  0  # atno 10763 bound_to 10752
  154.2301  135.2792  155.2894 H   0  0  0  0  0  0  0  0  0  0  0  0  # atno 10764 bound_to 10752
  154.5456  135.5748  153.6935 H   0  0  0  0  0  0  0  0  0  0  0  0  # atno 10765 bound_to 10752
  139.9692  134.6929  156.0482 H   0  0  0  0  0  0  0  0  0  0  0  0  # atno 11005 bound_to 11000
  145.2297  139.2120  143.5049 LP  0  0  0  0  0  0  0  0  0  0  0  0  # atno 17320 bound_to 7965
  146.3429  140.2172  142.8591 LP  0  0  0  0  0  0  0  0  0  0  0  0  # atno 17321 bound_to 7965
  140.1964  143.3994  152.1824 LP  0  0  0  0  0  0  0  0  0  0  0  0  # atno 17342 bound_to 10162
  139.5366  144.7215  151.4873 LP  0  0  0  0  0  0  0  0  0  0  0  0  # atno 17343 bound_to 10162
  156.8901  130.5209  149.5286 LP  0  0  0  0  0  0  0  0  0  0  0  0  # atno 17370 bound_to 10713
  156.0726  130.5755  150.9412 LP  0  0  0  0  0  0  0  0  0  0  0  0  # atno 17371 bound_to 10713
  141.1372  133.6572  156.3626 LP  0  0  0  0  0  0  0  0  0  0  0  0  # atno 17394 bound_to 11000
  140.5330  134.6194  157.5356 LP  0  0  0  0  0  0  0  0  0  0  0  0  # atno 17395 bound_to 11000

$$$$
