AV-unprocessed.smi:659|AV-procd|sdf|3238|dock2
  -GOLD-   22720 0183D 1   1.00000     0.00000
 Structure written by MMmdl.
 29 30  0  0  0  0  0  0  0  0  1 V2000
  151.7855  141.5412  156.8595 O   0  0  0  0  0  0  0  0  0  0  0  0
  150.9943  142.4636  156.6708 C   0  0  0  0  0  0  0  0  0  0  0  0
  149.9278  142.3090  155.8571 N   0  0  0  0  0  0  0  0  0  0  0  0
  149.4767  141.1942  155.0909 C   0  0  0  0  0  0  0  0  0  0  0  0
  148.1448  141.2920  154.6338 C   0  0  0  0  0  0  0  0  0  0  0  0
  147.6191  140.2361  153.8697 C   0  0  0  0  0  0  0  0  0  0  0  0
  148.4650  139.1438  153.6139 C   0  0  0  0  0  0  0  0  0  0  0  0
  149.7339  139.0882  154.0721 N   0  0  0  0  0  0  0  0  0  0  0  0
  150.2258  140.0979  154.7977 N   0  0  0  0  0  0  0  0  0  0  0  0
  151.1323  143.6666  157.2517 N   0  0  0  0  0  0  0  0  0  0  0  0
  152.1965  144.0468  158.1762 C   0  0  0  0  0  0  0  0  0  0  0  0
  152.4383  142.9323  159.2130 C   0  0  0  0  0  0  0  0  0  0  0  0
  152.4422  143.6170  160.5812 C   0  0  0  0  0  0  0  0  0  0  0  0
  151.5283  144.8249  160.4019 C   0  0  0  0  0  0  0  0  0  0  0  0
  151.8246  145.3074  158.9822 C   0  0  0  0  0  0  0  0  0  0  0  0
  149.3489  143.1317  155.7724 H   0  0  0  0  0  0  0  0  0  0  0  0
  147.5372  142.1562  154.8605 H   0  0  0  0  0  0  0  0  0  0  0  0
  146.6068  140.2622  153.4944 H   0  0  0  0  0  0  0  0  0  0  0  0
  148.1199  138.3012  153.0334 H   0  0  0  0  0  0  0  0  0  0  0  0
  150.4399  144.3715  157.0412 H   0  0  0  0  0  0  0  0  0  0  0  0
  153.1154  144.2296  157.6160 H   0  0  0  0  0  0  0  0  0  0  0  0
  151.6301  142.1993  159.1865 H   0  0  0  0  0  0  0  0  0  0  0  0
  153.3668  142.3917  159.0264 H   0  0  0  0  0  0  0  0  0  0  0  0
  152.1132  142.9558  161.3832 H   0  0  0  0  0  0  0  0  0  0  0  0
  153.4514  143.9548  160.8204 H   0  0  0  0  0  0  0  0  0  0  0  0
  150.4856  144.5121  160.4747 H   0  0  0  0  0  0  0  0  0  0  0  0
  151.6990  145.5972  161.1523 H   0  0  0  0  0  0  0  0  0  0  0  0
  152.6816  145.9816  159.0055 H   0  0  0  0  0  0  0  0  0  0  0  0
  150.9900  145.8677  158.5582 H   0  0  0  0  0  0  0  0  0  0  0  0
  1  2  2  0  0  0  0
  2  3  1  0  0  0  0
  2 10  1  0  0  0  0
  3  4  1  0  0  0  0
  3 16  1  0  0  0  0
  4  9  1  0  0  0  0
  4  5  2  0  0  0  0
  5  6  1  0  0  0  0
  5 17  1  0  0  0  0
  6  7  2  0  0  0  0
  6 18  1  0  0  0  0
  7  8  1  0  0  0  0
  7 19  1  0  0  0  0
  8  9  2  0  0  0  0
 10 11  1  0  0  0  0
 10 20  1  0  0  0  0
 11 15  1  0  0  0  0
 11 12  1  0  0  0  0
 11 21  1  0  0  0  0
 12 13  1  0  0  0  0
 12 22  1  0  0  0  0
 12 23  1  0  0  0  0
 13 14  1  0  0  0  0
 13 24  1  0  0  0  0
 13 25  1  0  0  0  0
 14 15  1  0  0  0  0
 14 26  1  0  0  0  0
 14 27  1  0  0  0  0
 15 28  1  0  0  0  0
 15 29  1  0  0  0  0
M  END
> <s_m_source_file>
AV-unprocessed.smi

> <i_m_source_file_index>
659

> <i_lp_mmshare_version>
43012

> <i_f3d_flags>
0

> <s_epik_input>
W0NIMl0xW0NIMl1bQ0gyXVtDSDJdW0NIXTFbTkhdQyg9TylbTkhdYzJbY0hdW2NIXVtjSF1ubjI=

> <s_epik_cmdline>
J2VwaWtfcHl0aG9uJywgJy1waCcsICc3LjAnLCAnLXRuJywgJzgnLCAnLW1hJywgJzIwMCcsICctbWV0YWxfYmluZGluZycsICctaW1hZScsICc8aW5maWxlLm1hZT4nLCAnLW9tYWUnLCAnPG91dGZpbGUubWFlPic=

> <r_lp_tautomer_probability>
1

> <r_epik_Ionization_Penalty>
0.00496132

> <r_epik_Ionization_Penalty_Charging>
0

> <r_epik_Ionization_Penalty_Neutral>
0.00496132

> <r_epik_State_Penalty>
-0

> <r_epik_Charging_Adjusted_Penalty>
0

> <i_epik_Tot_Q>
0

> <i_epik_Tot_abs_Q>
0

> <r_epik_Metal_State_Penalty>
-0

> <b_epik_Metal_Only>
0

> <s_lp_Force_Field>
OPLS_2005

> <r_lp_Energy>
27.086

> <b_lp_Chiralities_Consistent>
1

> <s_lp_Variant>
AV-unprocessed.smi:659-1

> <Gold.Version>
5.8.1

> <Gold.Id.Protein>
6NUR|6NUR_protein|mol2

> <Gold.PLP.Fitness>
43.3912

> <Gold.PLP.PLP>
-32.8281

> <Gold.PLP.part.hbond>
-3.0000

> <Gold.PLP.part.metal>
0.0000

> <Gold.PLP.part.buried>
-0.8561

> <Gold.PLP.part.nonpolar>
-30.5870

> <Gold.PLP.part.repulsive>
0.9904

> <Gold.PLP.ligand.clash>
0.0000

> <Gold.PLP.ligand.torsion>
0.2762

> <Gold.PLP.Chemscore.Hbond>
2.7043

> <Gold.PLP.Chemscore.CHOScore>
1.0000

> <Gold.PLP.Chemscore.Metal>
0.0000

> <Gold.Chemscore.Hbonds>
donor molecule, donor type, donor heavy atom, donor atom, acceptor molecule, acceptor atom, score
      L1  H     3    16       P1  8028  1.00
      L1  H    10    20       P1  8028  0.72
      P1  H  7989  7998       L1     9  0.93
      L1  C     7    19       P1  7948  1.00

> <Gold.PLP.Chemscore.Internal.Correction>
0.0026

> <Gold.Rescore>
     Score         DG    S(hbond)    S(metal)    S(lipo)     H(rot)  DE(clash)    DE(int)     intcor
     14.42     -18.61       1.89        0.00      80.18       1.00       1.40       2.79       ----

> <Gold.Chemscore.Fitness>
14.4210

> <Gold.Chemscore.DG>
-18.6118

> <Gold.Chemscore.ZeroCoef>
-5.4800

> <Gold.Chemscore.Hbond>
1.8894

> <Gold.Chemscore.Metal>
0.0000

> <Gold.Chemscore.Lipo>
80.1810

> <Gold.Chemscore.Internal_Hbond>
0.0000

> <Gold.Chemscore.DEClash>
1.4002

> <Gold.Chemscore.DEInternal>
2.7907

> <Gold.Chemscore.Rot>
1.0000

> <Gold.Chemscore.Internal.Correction>
   9.000000E+99

> <Gold.Chemscore.Hbonds>
donor molecule, donor type, donor heavy atom, donor atom, acceptor molecule, acceptor atom, score
      L1  H     3    16       P1  8028  1.00
      L1  H    10    20       P1  8028  0.61
      P1  H  7989  7998       L1     9  0.09

> <Gold.Chemscore.Hbond.Weighted>
-6.3107

> <Gold.Chemscore.Metal.Weighted>
-0.0000

> <Gold.Chemscore.Lipo.Weighted>
-9.3812

> <Gold.Chemscore.Internal_Hbond.Weighted>
0.0000

> <Gold.Chemscore.DEClash.Weighted>
1.4002

> <Gold.Chemscore.DEInternal.Weighted>
2.7907

> <Gold.Chemscore.Rot.Weighted>
2.5600

> <Gold.Chemscore.Internal.Correction.Weighted>
   9.000000E+99

> <Gold.Protein.RotatedTorsions>
[ 6907 6896 6895 6894 ] final  -22.08 input  -60.11 | X-H torsion
[ 7974 7965 7964 7962 ] final   73.21 input  175.53 | X-H torsion
[ 8008 7997 7996 7995 ] final -176.61 input   59.86 | X-H torsion
[ 10167 10162 10161 10158 ] final  171.90 input  -65.29 | X-H torsion
[ 10718 10713 10712 10709 ] final  -52.31 input   66.30 | X-H torsion
[ 10763 10752 10751 10750 ] final  -19.67 input  -60.55 | X-H torsion
[ 11005 11000 10999 10996 ] final  108.11 input  -57.11 | X-H torsion

> <Gold.Protein.ActiveResidues>
 VAL166  LYS551  ARG553  GLY616  TRP617  ASP618  TYR619  PRO620  LYS621  CYS622 
 ASP623  PHE694  ASN695  SER759  ASP760  ASP761  ALA762  ILE779  LEU786  VAL792 
 PHE793  MET794  SER795  GLU796  ALA797  LYS798  CYS799  TRP800  GLU811  SER814 

> <Gold.Protein.RotatedAtoms>
  151.2238  135.0529  159.8960 H   0  0  0  0  0  0  0  0  0  0  0  0  # atno 6907 bound_to 6896
  152.5412  134.0611  159.8162 H   0  0  0  0  0  0  0  0  0  0  0  0  # atno 6908 bound_to 6896
  151.0781  133.5364  159.2654 H   0  0  0  0  0  0  0  0  0  0  0  0  # atno 6909 bound_to 6896
  145.7438  139.2731  143.1471 H   0  0  0  0  0  0  0  0  0  0  0  0  # atno 7974 bound_to 7965
  155.9969  140.1212  157.0584 H   0  0  0  0  0  0  0  0  0  0  0  0  # atno 8008 bound_to 7997
  154.4229  140.1114  156.5712 H   0  0  0  0  0  0  0  0  0  0  0  0  # atno 8009 bound_to 7997
  155.6265  140.3472  155.4671 H   0  0  0  0  0  0  0  0  0  0  0  0  # atno 8010 bound_to 7997
  139.5060  144.3434  151.9995 H   0  0  0  0  0  0  0  0  0  0  0  0  # atno 10167 bound_to 10162
  156.1632  130.4149  149.9760 H   0  0  0  0  0  0  0  0  0  0  0  0  # atno 10718 bound_to 10713
  153.6084  135.6997  153.5356 H   0  0  0  0  0  0  0  0  0  0  0  0  # atno 10763 bound_to 10752
  153.3037  135.4121  155.1275 H   0  0  0  0  0  0  0  0  0  0  0  0  # atno 10764 bound_to 10752
  154.8568  135.3655  154.5622 H   0  0  0  0  0  0  0  0  0  0  0  0  # atno 10765 bound_to 10752
  139.8839  134.9421  156.5923 H   0  0  0  0  0  0  0  0  0  0  0  0  # atno 11005 bound_to 11000
  146.0423  140.8153  142.9823 LP  0  0  0  0  0  0  0  0  0  0  0  0  # atno 17320 bound_to 7965
  144.6865  140.2928  143.7275 LP  0  0  0  0  0  0  0  0  0  0  0  0  # atno 17321 bound_to 7965
  140.2871  144.3795  150.6100 LP  0  0  0  0  0  0  0  0  0  0  0  0  # atno 17342 bound_to 10162
  140.5974  143.2167  151.7137 LP  0  0  0  0  0  0  0  0  0  0  0  0  # atno 17343 bound_to 10162
  156.7583  130.9141  151.3640 LP  0  0  0  0  0  0  0  0  0  0  0  0  # atno 17370 bound_to 10713
  157.6748  130.9084  150.0125 LP  0  0  0  0  0  0  0  0  0  0  0  0  # atno 17371 bound_to 10713
  140.7946  133.8554  155.8675 LP  0  0  0  0  0  0  0  0  0  0  0  0  # atno 17394 bound_to 11000
  140.9647  134.1610  157.4626 LP  0  0  0  0  0  0  0  0  0  0  0  0  # atno 17395 bound_to 11000

$$$$
