AV-unprocessed.smi:1723|AV-procd|sdf|6948|dock2
  -GOLD-   22720 8153D 1   1.00000     0.00000
 Structure written by MMmdl.
 37 37  0  0  0  0  0  0  0  0  2 V2000
  146.4505  142.7688  154.1880 C   0  0  0  0  0  0  0  0  0  0  0  0
  147.5234  141.7481  154.5818 C   0  0  0  0  0  0  0  0  0  0  0  0
  148.0304  140.9347  153.3826 C   0  0  0  0  0  0  0  0  0  0  0  0
  148.7509  139.6483  153.8022 C   0  0  0  0  0  0  0  0  0  0  0  0
  149.9901  140.0013  154.3985 O   0  0  0  0  0  0  0  0  0  0  0  0
  150.6626  138.9356  155.0589 C   0  0  1  0  0  0  0  0  0  0  0  0
  151.4270  138.0472  154.0565 C   0  0  0  0  0  0  0  0  0  0  0  0
  151.6066  139.5632  156.0919 C   0  0  0  0  0  0  0  0  0  0  0  0
  152.8202  139.3754  156.0017 O   0  0  0  0  0  0  0  0  0  0  0  0
  151.0023  140.2870  157.0550 N   0  0  0  0  0  0  0  0  0  0  0  0
  151.5664  140.9925  158.1318 C   0  0  0  0  0  0  0  0  0  0  0  0
  151.2514  142.2728  158.4733 C   0  0  0  0  0  0  0  0  0  0  0  0
  151.8652  142.9513  159.6079 C   0  0  0  0  0  0  0  0  0  0  0  0
  151.6195  144.4098  159.9513 C   0  0  0  0  0  0  0  0  0  0  0  0
  152.1676  144.7248  161.1250 F   0  0  0  0  0  0  0  0  0  0  0  0
  152.1313  145.2134  159.0189 F   0  0  0  0  0  0  0  0  0  0  0  0
  150.3103  144.6438  160.0285 F   0  0  0  0  0  0  0  0  0  0  0  0
  152.7796  142.1511  160.2648 C   0  0  0  0  0  0  0  0  0  0  0  0
  153.1242  140.8693  160.0128 N   0  5  0  0  0  0  0  0  0  0  0  0
  152.5459  140.2454  158.9479 C   0  0  0  0  0  0  0  0  0  0  0  0
  152.8211  139.0810  158.6561 O   0  0  0  0  0  0  0  0  0  0  0  0
  146.1104  143.3302  155.0581 H   0  0  0  0  0  0  0  0  0  0  0  0
  145.5819  142.2777  153.7485 H   0  0  0  0  0  0  0  0  0  0  0  0
  146.8356  143.4836  153.4604 H   0  0  0  0  0  0  0  0  0  0  0  0
  148.3587  142.2690  155.0511 H   0  0  0  0  0  0  0  0  0  0  0  0
  147.1176  141.0735  155.3362 H   0  0  0  0  0  0  0  0  0  0  0  0
  147.1918  140.6813  152.7330 H   0  0  0  0  0  0  0  0  0  0  0  0
  148.7076  141.5479  152.7869 H   0  0  0  0  0  0  0  0  0  0  0  0
  148.1376  139.0927  154.5131 H   0  0  0  0  0  0  0  0  0  0  0  0
  148.9079  139.0124  152.9310 H   0  0  0  0  0  0  0  0  0  0  0  0
  149.9370  138.3207  155.5953 H   0  0  0  0  0  0  0  0  0  0  0  0
  152.0658  137.3299  154.5731 H   0  0  0  0  0  0  0  0  0  0  0  0
  152.0596  138.6427  153.3972 H   0  0  0  0  0  0  0  0  0  0  0  0
  150.7458  137.4710  153.4313 H   0  0  0  0  0  0  0  0  0  0  0  0
  149.9928  140.2986  157.0357 H   0  0  0  0  0  0  0  0  0  0  0  0
  150.5127  142.8276  157.9191 H   0  0  0  0  0  0  0  0  0  0  0  0
  153.3212  142.6131  161.1177 H   0  0  0  0  0  0  0  0  0  0  0  0
  1  2  1  0  0  0  0
  1 22  1  0  0  0  0
  1 23  1  0  0  0  0
  1 24  1  0  0  0  0
  2  3  1  0  0  0  0
  2 25  1  0  0  0  0
  2 26  1  0  0  0  0
  3  4  1  0  0  0  0
  3 27  1  0  0  0  0
  3 28  1  0  0  0  0
  4  5  1  0  0  0  0
  4 29  1  0  0  0  0
  4 30  1  0  0  0  0
  5  6  1  0  0  0  0
  6  7  1  0  0  0  0
  6  8  1  0  0  0  0
  6 31  1  0  0  0  0
  7 32  1  0  0  0  0
  7 33  1  0  0  0  0
  7 34  1  0  0  0  0
  8  9  2  0  0  0  0
  8 10  1  0  0  0  0
 10 11  1  0  0  0  0
 10 35  1  0  0  0  0
 11 20  1  0  0  0  0
 11 12  2  0  0  0  0
 12 13  1  0  0  0  0
 12 36  1  0  0  0  0
 13 14  1  0  0  0  0
 13 18  2  0  0  0  0
 14 15  1  0  0  0  0
 14 16  1  0  0  0  0
 14 17  1  0  0  0  0
 18 19  1  0  0  0  0
 18 37  1  0  0  0  0
 19 20  1  0  0  0  0
 20 21  2  0  0  0  0
M  CHG  1  19  -1
M  END
> <s_m_source_file>
AV-unprocessed.smi

> <i_m_source_file_index>
1723

> <i_lp_mmshare_version>
43012

> <i_f3d_flags>
0

> <s_epik_input>
W0NIM11bQ0gyXVtDSDJdW0NIMl1PW0NASF0oW0NIM10pQyg9TylbTkhdYzFbY0hdYyhDKEYpKEYpRilbY0hdW25IXWMxPU8=

> <s_epik_cmdline>
J2VwaWtfcHl0aG9uJywgJy1waCcsICc3LjAnLCAnLXRuJywgJzgnLCAnLW1hJywgJzIwMCcsICctbWV0YWxfYmluZGluZycsICctaW1hZScsICc8aW5maWxlLm1hZT4nLCAnLW9tYWUnLCAnPG91dGZpbGUubWFlPic=

> <r_lp_tautomer_probability>
0.999

> <r_epik_Ionization_Penalty>
2.64397

> <r_epik_Ionization_Penalty_Charging>
0.0618254

> <r_epik_Ionization_Penalty_Neutral>
2.58215

> <r_epik_State_Penalty>
2.58023

> <r_epik_Charging_Adjusted_Penalty>
2.64205

> <i_epik_Tot_Q>
-1

> <i_epik_Tot_abs_Q>
1

> <r_epik_Metal_State_Penalty>
0.429101

> <b_epik_Metal_Only>
1

> <s_lp_Force_Field>
OPLS_2005

> <r_lp_Energy>
21.9007

> <b_lp_Chiralities_Consistent>
1

> <s_lp_Variant>
AV-unprocessed.smi:1723-4

> <Gold.Version>
5.8.1

> <Gold.Id.Protein>
6NUR|6NUR_protein|mol2

> <Gold.PLP.Fitness>
50.9872

> <Gold.PLP.PLP>
-46.8808

> <Gold.PLP.part.hbond>
-2.0000

> <Gold.PLP.part.metal>
0.0000

> <Gold.PLP.part.buried>
-3.2913

> <Gold.PLP.part.nonpolar>
-41.4623

> <Gold.PLP.part.repulsive>
0.1704

> <Gold.PLP.ligand.clash>
0.0000

> <Gold.PLP.ligand.torsion>
1.1077

> <Gold.PLP.Chemscore.Hbond>
1.9913

> <Gold.PLP.Chemscore.CHOScore>
0.0000

> <Gold.PLP.Chemscore.Metal>
0.0000

> <Gold.Chemscore.Hbonds>
donor molecule, donor type, donor heavy atom, donor atom, acceptor molecule, acceptor atom, score
      P1  H  7989  7998       L1     5  0.88
      P1  H  7997  8008       L1     9  1.00

> <Gold.PLP.Chemscore.Internal.Correction>
0.3480

> <Gold.Rescore>
     Score         DG    S(hbond)    S(metal)    S(lipo)     H(rot)  DE(clash)    DE(int)     intcor
     10.00     -13.93       1.03        0.00      85.37       1.95       0.16       3.77       ----

> <Gold.Chemscore.Fitness>
9.9950

> <Gold.Chemscore.DG>
-13.9307

> <Gold.Chemscore.ZeroCoef>
-5.4800

> <Gold.Chemscore.Hbond>
1.0347

> <Gold.Chemscore.Metal>
0.0000

> <Gold.Chemscore.Lipo>
85.3730

> <Gold.Chemscore.Internal_Hbond>
0.0000

> <Gold.Chemscore.DEClash>
0.1640

> <Gold.Chemscore.DEInternal>
3.7717

> <Gold.Chemscore.Rot>
1.9507

> <Gold.Chemscore.Internal.Correction>
   9.000000E+99

> <Gold.Chemscore.Hbonds>
donor molecule, donor type, donor heavy atom, donor atom, acceptor molecule, acceptor atom, score
      P1  H  7989  7998       L1     5  0.18
      P1  H  7997  8008       L1     9  0.97

> <Gold.Chemscore.Hbond.Weighted>
-3.4560

> <Gold.Chemscore.Metal.Weighted>
-0.0000

> <Gold.Chemscore.Lipo.Weighted>
-9.9886

> <Gold.Chemscore.Internal_Hbond.Weighted>
0.0000

> <Gold.Chemscore.DEClash.Weighted>
0.1640

> <Gold.Chemscore.DEInternal.Weighted>
3.7717

> <Gold.Chemscore.Rot.Weighted>
4.9939

> <Gold.Chemscore.Internal.Correction.Weighted>
   9.000000E+99

> <Gold.Protein.RotatedTorsions>
[ 6907 6896 6895 6894 ] final  -98.14 input  -60.11 | X-H torsion
[ 7974 7965 7964 7962 ] final -128.42 input  175.53 | X-H torsion
[ 8008 7997 7996 7995 ] final  -57.02 input   59.86 | X-H torsion
[ 10167 10162 10161 10158 ] final -167.45 input  -65.29 | X-H torsion
[ 10718 10713 10712 10709 ] final  111.51 input   66.30 | X-H torsion
[ 10763 10752 10751 10750 ] final   68.38 input  -60.55 | X-H torsion
[ 11005 11000 10999 10996 ] final  159.56 input  -57.11 | X-H torsion

> <Gold.Protein.ActiveResidues>
 VAL166  LYS551  ARG553  GLY616  TRP617  ASP618  TYR619  PRO620  LYS621  CYS622 
 ASP623  PHE694  ASN695  SER759  ASP760  ASP761  ALA762  ILE779  LEU786  VAL792 
 PHE793  MET794  SER795  GLU796  ALA797  LYS798  CYS799  TRP800  GLU811  SER814 

> <Gold.Protein.RotatedAtoms>
  150.7037  134.1241  159.4045 H   0  0  0  0  0  0  0  0  0  0  0  0  # atno 6907 bound_to 6896
  151.9227  135.0289  160.0532 H   0  0  0  0  0  0  0  0  0  0  0  0  # atno 6908 bound_to 6896
  152.2243  133.4972  159.5216 H   0  0  0  0  0  0  0  0  0  0  0  0  # atno 6909 bound_to 6896
  144.9672  140.7508  143.4692 H   0  0  0  0  0  0  0  0  0  0  0  0  # atno 7974 bound_to 7965
  154.4252  140.1116  156.5731 H   0  0  0  0  0  0  0  0  0  0  0  0  # atno 8008 bound_to 7997
  155.6191  140.3495  155.4627 H   0  0  0  0  0  0  0  0  0  0  0  0  # atno 8009 bound_to 7997
  156.0038  140.1205  157.0510 H   0  0  0  0  0  0  0  0  0  0  0  0  # atno 8010 bound_to 7997
  139.6049  144.0934  152.1782 H   0  0  0  0  0  0  0  0  0  0  0  0  # atno 10167 bound_to 10162
  157.6441  131.0952  150.6759 H   0  0  0  0  0  0  0  0  0  0  0  0  # atno 10718 bound_to 10713
  153.0233  135.5249  154.7126 H   0  0  0  0  0  0  0  0  0  0  0  0  # atno 10763 bound_to 10752
  154.6204  135.2888  155.0335 H   0  0  0  0  0  0  0  0  0  0  0  0  # atno 10764 bound_to 10752
  154.1323  135.6591  153.4977 H   0  0  0  0  0  0  0  0  0  0  0  0  # atno 10765 bound_to 10752
  140.1974  134.8363  157.2980 H   0  0  0  0  0  0  0  0  0  0  0  0  # atno 11005 bound_to 11000
  145.2612  139.1992  143.4891 LP  0  0  0  0  0  0  0  0  0  0  0  0  # atno 17320 bound_to 7965
  146.3371  140.2542  142.8599 LP  0  0  0  0  0  0  0  0  0  0  0  0  # atno 17321 bound_to 7965
  140.0539  144.5911  150.7315 LP  0  0  0  0  0  0  0  0  0  0  0  0  # atno 17342 bound_to 10162
  140.7277  143.2654  151.4062 LP  0  0  0  0  0  0  0  0  0  0  0  0  # atno 17343 bound_to 10162
  156.7079  130.4643  149.5555 LP  0  0  0  0  0  0  0  0  0  0  0  0  # atno 17370 bound_to 10713
  156.1750  130.6462  151.0884 LP  0  0  0  0  0  0  0  0  0  0  0  0  # atno 17371 bound_to 10713
  140.2092  134.4159  155.7621 LP  0  0  0  0  0  0  0  0  0  0  0  0  # atno 17394 bound_to 11000
  141.2227  133.7110  156.8310 LP  0  0  0  0  0  0  0  0  0  0  0  0  # atno 17395 bound_to 11000

$$$$
