AV-unprocessed.smi:2061|AV-procd|sdf|8388|dock9
  -GOLD-   2272011 73D 1   1.00000     0.00000
 Structure written by MMmdl.
 45 46  0  0  0  0  0  0  0  0  3 V2000
  153.5323  142.0842  161.3428 C   0  0  0  0  0  0  0  0  0  0  0  0
  153.2143  141.3563  160.0818 C   0  0  0  0  0  0  0  0  0  0  0  0
  152.1827  141.4471  159.1904 C   0  0  0  0  0  0  0  0  0  0  0  0
  152.5062  140.4595  158.2223 C   0  0  0  0  0  0  0  0  0  0  0  0
  151.6626  140.2401  157.1012 N   0  0  0  0  0  0  0  0  0  0  0  0
  151.9950  139.8200  155.8670 C   0  0  0  0  0  0  0  0  0  0  0  0
  153.1698  139.5429  155.5966 O   0  0  0  0  0  0  0  0  0  0  0  0
  150.9197  139.7600  155.0331 N   0  5  0  0  0  0  0  0  0  0  0  0
  150.5046  138.5688  154.2895 C   0  0  0  0  0  0  0  0  0  0  0  0
  149.0097  138.2333  154.5534 C   0  0  2  0  0  0  0  0  0  0  0  0
  148.4588  138.7962  155.8876 C   0  0  0  0  0  0  0  0  0  0  0  0
  148.7667  136.7658  154.3932 N   0  3  1  0  0  0  0  0  0  0  0  0
  149.7693  135.8519  155.0076 C   0  0  0  0  0  0  0  0  0  0  0  0
  149.4742  134.3961  154.6045 C   0  0  1  0  0  0  0  0  0  0  0  0
  150.4426  133.4062  155.2604 C   0  0  0  0  0  0  0  0  0  0  0  0
  148.1528  134.0629  155.0176 O   0  0  0  0  0  0  0  0  0  0  0  0
  147.1620  134.8720  154.3924 C   0  0  1  0  0  0  0  0  0  0  0  0
  145.7836  134.3718  154.8377 C   0  0  0  0  0  0  0  0  0  0  0  0
  147.3945  136.3470  154.7715 C   0  0  0  0  0  0  0  0  0  0  0  0
  153.6352  139.8237  158.4992 N   0  0  0  0  0  0  0  0  0  0  0  0
  154.0939  140.3942  159.6923 O   0  0  0  0  0  0  0  0  0  0  0  0
  152.9754  143.0195  161.4027 H   0  0  0  0  0  0  0  0  0  0  0  0
  154.5950  142.3203  161.3975 H   0  0  0  0  0  0  0  0  0  0  0  0
  153.2742  141.4795  162.2122 H   0  0  0  0  0  0  0  0  0  0  0  0
  151.3339  142.1135  159.2264 H   0  0  0  0  0  0  0  0  0  0  0  0
  150.6832  140.4348  157.2480 H   0  0  0  0  0  0  0  0  0  0  0  0
  150.6521  138.7004  153.2162 H   0  0  0  0  0  0  0  0  0  0  0  0
  151.1137  137.7040  154.5537 H   0  0  0  0  0  0  0  0  0  0  0  0
  148.4471  138.7228  153.7571 H   0  0  0  0  0  0  0  0  0  0  0  0
  148.5038  139.8865  155.9162 H   0  0  0  0  0  0  0  0  0  0  0  0
  149.0026  138.4273  156.7591 H   0  0  0  0  0  0  0  0  0  0  0  0
  147.4107  138.5271  156.0182 H   0  0  0  0  0  0  0  0  0  0  0  0
  150.7766  136.1221  154.6896 H   0  0  0  0  0  0  0  0  0  0  0  0
  149.7403  135.9395  156.0946 H   0  0  0  0  0  0  0  0  0  0  0  0
  149.5515  134.2907  153.5209 H   0  0  0  0  0  0  0  0  0  0  0  0
  151.4727  133.6145  154.9701 H   0  0  0  0  0  0  0  0  0  0  0  0
  150.2144  132.3824  154.9628 H   0  0  0  0  0  0  0  0  0  0  0  0
  150.3839  133.4573  156.3480 H   0  0  0  0  0  0  0  0  0  0  0  0
  147.2384  134.7563  153.3097 H   0  0  0  0  0  0  0  0  0  0  0  0
  144.9867  134.9525  154.3725 H   0  0  0  0  0  0  0  0  0  0  0  0
  145.6659  134.4473  155.9191 H   0  0  0  0  0  0  0  0  0  0  0  0
  145.6389  133.3277  154.5592 H   0  0  0  0  0  0  0  0  0  0  0  0
  147.2488  136.4953  155.8427 H   0  0  0  0  0  0  0  0  0  0  0  0
  146.6601  136.9685  154.2575 H   0  0  0  0  0  0  0  0  0  0  0  0
  148.8218  136.6112  153.3965 H   0  0  0  0  0  0  0  0  0  0  0  0
  1  2  1  0  0  0  0
  1 22  1  0  0  0  0
  1 23  1  0  0  0  0
  1 24  1  0  0  0  0
  2 21  1  0  0  0  0
  2  3  2  0  0  0  0
  3  4  1  0  0  0  0
  3 25  1  0  0  0  0
  4  5  1  0  0  0  0
  4 20  2  0  0  0  0
  5  6  1  0  0  0  0
  5 26  1  0  0  0  0
  6  7  2  0  0  0  0
  6  8  1  0  0  0  0
  8  9  1  0  0  0  0
  9 10  1  0  0  0  0
  9 27  1  0  0  0  0
  9 28  1  0  0  0  0
 10 11  1  0  0  0  0
 10 12  1  0  0  0  0
 10 29  1  0  0  0  0
 11 30  1  0  0  0  0
 11 31  1  0  0  0  0
 11 32  1  0  0  0  0
 12 19  1  0  0  0  0
 12 13  1  0  0  0  0
 12 45  1  0  0  0  0
 13 14  1  0  0  0  0
 13 33  1  0  0  0  0
 13 34  1  0  0  0  0
 14 15  1  0  0  0  0
 14 16  1  0  0  0  0
 14 35  1  0  0  0  0
 15 36  1  0  0  0  0
 15 37  1  0  0  0  0
 15 38  1  0  0  0  0
 16 17  1  0  0  0  0
 17 18  1  0  0  0  0
 17 19  1  0  0  0  0
 17 39  1  0  0  0  0
 18 40  1  0  0  0  0
 18 41  1  0  0  0  0
 18 42  1  0  0  0  0
 19 43  1  0  0  0  0
 19 44  1  0  0  0  0
 20 21  1  0  0  0  0
M  CHG  1   8  -1
M  CHG  1  12   1
M  END
> <s_m_source_file>
AV-unprocessed.smi

> <i_m_source_file_index>
2061

> <i_lp_mmshare_version>
43012

> <i_f3d_flags>
0

> <s_epik_input>
W0NIM11jMVtjSF1jKG5vMSlbTkhdQyg9TylbTkhdW0NIMl1bQ0BIXShbQ0gzXSlOMltDSDJdW0NAQEhdKFtDSDNdKU9bQ0BASF0oW0NIM10pW0NIMl0y

> <s_epik_cmdline>
J2VwaWtfcHl0aG9uJywgJy1waCcsICc3LjAnLCAnLXRuJywgJzgnLCAnLW1hJywgJzIwMCcsICctbWV0YWxfYmluZGluZycsICctaW1hZScsICc8aW5maWxlLm1hZT4nLCAnLW9tYWUnLCAnPG91dGZpbGUubWFlPic=

> <r_epik_Ionization_Penalty>
6.8073

> <r_epik_Ionization_Penalty_Charging>
6.80729

> <r_epik_Ionization_Penalty_Neutral>
5.65391e-06

> <r_epik_State_Penalty>
7.47323

> <r_epik_Charging_Adjusted_Penalty>
14.2805

> <i_epik_Tot_Q>
0

> <i_epik_Tot_abs_Q>
2

> <r_epik_Metal_State_Penalty>
3.40035

> <b_epik_Metal_Only>
1

> <s_lp_Force_Field>
OPLS_2005

> <r_lp_Energy>
16.5553

> <b_lp_Chiralities_Consistent>
1

> <s_lp_Variant>
AV-unprocessed.smi:2061-29

> <Gold.Version>
5.8.1

> <Gold.Id.Protein>
6NUR|6NUR_protein|mol2

> <Gold.PLP.Fitness>
41.5174

> <Gold.PLP.PLP>
-30.8820

> <Gold.PLP.part.hbond>
-3.7956

> <Gold.PLP.part.metal>
0.0000

> <Gold.PLP.part.buried>
-4.0406

> <Gold.PLP.part.nonpolar>
-22.9504

> <Gold.PLP.part.repulsive>
0.2006

> <Gold.PLP.ligand.clash>
0.0000

> <Gold.PLP.ligand.torsion>
1.4093

> <Gold.PLP.Chemscore.Hbond>
4.4400

> <Gold.PLP.Chemscore.CHOScore>
0.0000

> <Gold.PLP.Chemscore.Metal>
0.0000

> <Gold.Chemscore.Hbonds>
donor molecule, donor type, donor heavy atom, donor atom, acceptor molecule, acceptor atom, score
      L1  H    12    45       P1  7948  2.00
      P1  H  7989  7998       L1     8  0.90
      P1  H  7997  8008       L1    20  0.82
      P1  H  7997  8009       L1     7  0.75

> <Gold.PLP.Chemscore.Internal.Correction>
0.1341

> <Gold.Rescore>
     Score         DG    S(hbond)    S(metal)    S(lipo)     H(rot)  DE(clash)    DE(int)     intcor
     13.50     -15.92       2.08        0.00      63.78       1.56       0.01       2.41       ----

> <Gold.Chemscore.Fitness>
13.5009

> <Gold.Chemscore.DG>
-15.9190

> <Gold.Chemscore.ZeroCoef>
-5.4800

> <Gold.Chemscore.Hbond>
2.0830

> <Gold.Chemscore.Metal>
0.0000

> <Gold.Chemscore.Lipo>
63.7817

> <Gold.Chemscore.Internal_Hbond>
0.0000

> <Gold.Chemscore.DEClash>
0.0121

> <Gold.Chemscore.DEInternal>
2.4059

> <Gold.Chemscore.Rot>
1.5550

> <Gold.Chemscore.Internal.Correction>
   9.000000E+99

> <Gold.Chemscore.Hbonds>
donor molecule, donor type, donor heavy atom, donor atom, acceptor molecule, acceptor atom, score
      L1  H    12    45       P1  7948  0.97
      P1  H  7989  7998       L1     8  0.04
      P1  H  7997  8008       L1    20  0.38
      P1  H  7997  8009       L1     7  0.73

> <Gold.Chemscore.Hbond.Weighted>
-6.9574

> <Gold.Chemscore.Metal.Weighted>
-0.0000

> <Gold.Chemscore.Lipo.Weighted>
-7.4625

> <Gold.Chemscore.Internal_Hbond.Weighted>
0.0000

> <Gold.Chemscore.DEClash.Weighted>
0.0121

> <Gold.Chemscore.DEInternal.Weighted>
2.4059

> <Gold.Chemscore.Rot.Weighted>
3.9809

> <Gold.Chemscore.Internal.Correction.Weighted>
   9.000000E+99

> <Gold.Protein.RotatedTorsions>
[ 6907 6896 6895 6894 ] final   71.39 input  -60.11 | X-H torsion
[ 7974 7965 7964 7962 ] final  -85.83 input  175.53 | X-H torsion
[ 8008 7997 7996 7995 ] final -118.30 input   59.86 | X-H torsion
[ 10167 10162 10161 10158 ] final   -3.00 input  -65.29 | X-H torsion
[ 10718 10713 10712 10709 ] final  128.99 input   66.30 | X-H torsion
[ 10763 10752 10751 10750 ] final  120.14 input  -60.55 | X-H torsion
[ 11005 11000 10999 10996 ] final  -39.74 input  -57.11 | X-H torsion

> <Gold.Protein.ActiveResidues>
 VAL166  LYS551  ARG553  GLY616  TRP617  ASP618  TYR619  PRO620  LYS621  CYS622 
 ASP623  PHE694  ASN695  SER759  ASP760  ASP761  ALA762  ILE779  LEU786  VAL792 
 PHE793  MET794  SER795  GLU796  ALA797  LYS798  CYS799  TRP800  GLU811  SER814 

> <Gold.Protein.RotatedAtoms>
  152.4807  134.4728  159.9640 H   0  0  0  0  0  0  0  0  0  0  0  0  # atno 6907 bound_to 6896
  151.4734  133.3557  159.2835 H   0  0  0  0  0  0  0  0  0  0  0  0  # atno 6908 bound_to 6896
  150.8877  134.8303  159.7332 H   0  0  0  0  0  0  0  0  0  0  0  0  # atno 6909 bound_to 6896
  145.4880  140.9554  143.1828 H   0  0  0  0  0  0  0  0  0  0  0  0  # atno 7974 bound_to 7965
  155.0975  140.0395  157.2687 H   0  0  0  0  0  0  0  0  0  0  0  0  # atno 8008 bound_to 7997
  154.6783  140.2627  155.6909 H   0  0  0  0  0  0  0  0  0  0  0  0  # atno 8009 bound_to 7997
  156.2685  140.2783  156.1318 H   0  0  0  0  0  0  0  0  0  0  0  0  # atno 8010 bound_to 7997
  140.6873  143.6591  150.8283 H   0  0  0  0  0  0  0  0  0  0  0  0  # atno 10167 bound_to 10162
  157.5195  131.1098  150.9175 H   0  0  0  0  0  0  0  0  0  0  0  0  # atno 10718 bound_to 10713
  153.5940  135.3460  155.2921 H   0  0  0  0  0  0  0  0  0  0  0  0  # atno 10763 bound_to 10752
  154.8648  135.4211  154.2485 H   0  0  0  0  0  0  0  0  0  0  0  0  # atno 10764 bound_to 10752
  153.3299  135.7043  153.7028 H   0  0  0  0  0  0  0  0  0  0  0  0  # atno 10765 bound_to 10752
  141.0124  133.6901  156.2227 H   0  0  0  0  0  0  0  0  0  0  0  0  # atno 11005 bound_to 11000
  144.7850  139.6445  143.7138 LP  0  0  0  0  0  0  0  0  0  0  0  0  # atno 17320 bound_to 7965
  146.2301  139.5798  142.9561 LP  0  0  0  0  0  0  0  0  0  0  0  0  # atno 17321 bound_to 7965
  140.0299  143.5454  152.2764 LP  0  0  0  0  0  0  0  0  0  0  0  0  # atno 17342 bound_to 10162
  139.6243  144.7634  151.2672 LP  0  0  0  0  0  0  0  0  0  0  0  0  # atno 17343 bound_to 10162
  156.9790  130.5520  149.5295 LP  0  0  0  0  0  0  0  0  0  0  0  0  # atno 17370 bound_to 10713
  156.0343  130.5432  150.8614 LP  0  0  0  0  0  0  0  0  0  0  0  0  # atno 17371 bound_to 10713
  140.6711  134.4866  157.5587 LP  0  0  0  0  0  0  0  0  0  0  0  0  # atno 17394 bound_to 11000
  139.9097  134.8371  156.1573 LP  0  0  0  0  0  0  0  0  0  0  0  0  # atno 17395 bound_to 11000

$$$$
