AV-unprocessed.smi:2821|AV-procd|sdf|10859|dock9
  -GOLD-   2272015303D 1   1.00000     0.00000
 Structure written by MMmdl.
 36 37  0  0  0  0  0  0  0  0  1 V2000
  154.4042  139.9457  161.0409 C   0  0  0  0  0  0  0  0  0  0  0  0
  153.4653  140.6835  160.0839 C   0  0  0  0  0  0  0  0  0  0  0  0
  153.3298  142.0316  160.5234 O   0  0  0  0  0  0  0  0  0  0  0  0
  152.5117  142.8746  159.8003 C   0  0  0  0  0  0  0  0  0  0  0  0
  152.3363  144.2090  160.2247 C   0  0  0  0  0  0  0  0  0  0  0  0
  151.5567  145.0788  159.5453 N   0  0  0  0  0  0  0  0  0  0  0  0
  150.9531  144.6081  158.4317 C   0  0  0  0  0  0  0  0  0  0  0  0
  151.1210  143.2762  157.9931 C   0  0  0  0  0  0  0  0  0  0  0  0
  150.4746  142.8524  156.8229 N   0  0  0  0  0  0  0  0  0  0  0  0
  150.4886  141.4537  156.3962 C   0  0  1  0  0  0  0  0  0  0  0  0
  149.8130  140.5817  157.4646 C   0  0  0  0  0  0  0  0  0  0  0  0
  149.8321  141.2453  155.0083 C   0  0  1  0  0  0  0  0  0  0  0  0
  149.7681  139.7920  154.5026 C   0  0  0  0  0  0  0  0  0  0  0  0
  148.2811  139.5024  154.4341 C   0  0  0  0  0  0  0  0  0  0  0  0
  147.6956  140.8854  154.1886 C   0  0  0  0  0  0  0  0  0  0  0  0
  148.4894  141.7241  155.0112 O   0  0  0  0  0  0  0  0  0  0  0  0
  151.8933  142.4071  158.6871 N   0  0  0  0  0  0  0  0  0  0  0  0
  154.5292  138.9059  160.7387 H   0  0  0  0  0  0  0  0  0  0  0  0
  154.0119  139.9540  162.0579 H   0  0  0  0  0  0  0  0  0  0  0  0
  155.3903  140.4104  161.0570 H   0  0  0  0  0  0  0  0  0  0  0  0
  153.8755  140.6506  159.0728 H   0  0  0  0  0  0  0  0  0  0  0  0
  152.4926  140.1888  160.0702 H   0  0  0  0  0  0  0  0  0  0  0  0
  152.8271  144.5813  161.1118 H   0  0  0  0  0  0  0  0  0  0  0  0
  150.3353  145.3046  157.8836 H   0  0  0  0  0  0  0  0  0  0  0  0
  150.2409  143.5486  156.1300 H   0  0  0  0  0  0  0  0  0  0  0  0
  151.5238  141.1161  156.3359 H   0  0  0  0  0  0  0  0  0  0  0  0
  149.8516  139.5267  157.1919 H   0  0  0  0  0  0  0  0  0  0  0  0
  148.7651  140.8510  157.6008 H   0  0  0  0  0  0  0  0  0  0  0  0
  150.3111  140.6876  158.4289 H   0  0  0  0  0  0  0  0  0  0  0  0
  150.3688  141.8451  154.2717 H   0  0  0  0  0  0  0  0  0  0  0  0
  150.2035  139.7319  153.5044 H   0  0  0  0  0  0  0  0  0  0  0  0
  150.2979  139.0782  155.1336 H   0  0  0  0  0  0  0  0  0  0  0  0
  148.0191  138.7828  153.6583 H   0  0  0  0  0  0  0  0  0  0  0  0
  147.9305  139.1165  155.3923 H   0  0  0  0  0  0  0  0  0  0  0  0
  147.8146  141.1798  153.1447 H   0  0  0  0  0  0  0  0  0  0  0  0
  146.6394  140.9508  154.4502 H   0  0  0  0  0  0  0  0  0  0  0  0
  1  2  1  0  0  0  0
  1 18  1  0  0  0  0
  1 19  1  0  0  0  0
  1 20  1  0  0  0  0
  2  3  1  0  0  0  0
  2 21  1  0  0  0  0
  2 22  1  0  0  0  0
  3  4  1  0  0  0  0
  4 17  1  0  0  0  0
  4  5  2  0  0  0  0
  5  6  1  0  0  0  0
  5 23  1  0  0  0  0
  6  7  2  0  0  0  0
  7  8  1  0  0  0  0
  7 24  1  0  0  0  0
  8  9  1  0  0  0  0
  8 17  2  0  0  0  0
  9 10  1  0  0  0  0
  9 25  1  0  0  0  0
 10 11  1  0  0  0  0
 10 12  1  0  0  0  0
 10 26  1  0  0  0  0
 11 27  1  0  0  0  0
 11 28  1  0  0  0  0
 11 29  1  0  0  0  0
 12 16  1  0  0  0  0
 12 13  1  0  0  0  0
 12 30  1  0  0  0  0
 13 14  1  0  0  0  0
 13 31  1  0  0  0  0
 13 32  1  0  0  0  0
 14 15  1  0  0  0  0
 14 33  1  0  0  0  0
 14 34  1  0  0  0  0
 15 16  1  0  0  0  0
 15 35  1  0  0  0  0
 15 36  1  0  0  0  0
M  END
> <s_m_source_file>
AV-unprocessed.smi

> <i_m_source_file_index>
2821

> <i_lp_mmshare_version>
43012

> <i_f3d_flags>
0

> <s_epik_input>
W0NIM11bQ0gyXU9jMVtjSF1uW2NIXWMobjEpW05IXVtDQEhdKFtDSDNdKVtDQEBIXTJbQ0gyXVtDSDJdW0NIMl1PMg==

> <s_epik_cmdline>
J2VwaWtfcHl0aG9uJywgJy1waCcsICc3LjAnLCAnLXRuJywgJzgnLCAnLW1hJywgJzIwMCcsICctbWV0YWxfYmluZGluZycsICctaW1hZScsICc8aW5maWxlLm1hZT4nLCAnLW9tYWUnLCAnPG91dGZpbGUubWFlPic=

> <r_lp_tautomer_probability>
1

> <r_epik_Ionization_Penalty>
4.69533e-05

> <r_epik_Ionization_Penalty_Charging>
0

> <r_epik_Ionization_Penalty_Neutral>
4.69533e-05

> <r_epik_State_Penalty>
-0

> <r_epik_Charging_Adjusted_Penalty>
0

> <i_epik_Tot_Q>
0

> <i_epik_Tot_abs_Q>
0

> <r_epik_Metal_State_Penalty>
-0

> <b_epik_Metal_Only>
0

> <s_lp_Force_Field>
OPLS_2005

> <r_lp_Energy>
30.0608

> <b_lp_Chiralities_Consistent>
1

> <s_lp_Variant>
AV-unprocessed.smi:2821-4

> <Gold.Version>
5.8.1

> <Gold.Id.Protein>
6NUR|6NUR_protein|mol2

> <Gold.PLP.Fitness>
39.2408

> <Gold.PLP.PLP>
-33.5323

> <Gold.PLP.part.hbond>
-1.0000

> <Gold.PLP.part.metal>
0.0000

> <Gold.PLP.part.buried>
-5.1582

> <Gold.PLP.part.nonpolar>
-27.4327

> <Gold.PLP.part.repulsive>
0.5149

> <Gold.PLP.ligand.clash>
0.0000

> <Gold.PLP.ligand.torsion>
0.0487

> <Gold.PLP.Chemscore.Hbond>
1.0000

> <Gold.PLP.Chemscore.CHOScore>
0.9220

> <Gold.PLP.Chemscore.Metal>
0.0000

> <Gold.Chemscore.Hbonds>
donor molecule, donor type, donor heavy atom, donor atom, acceptor molecule, acceptor atom, score
      L1  H     9    25       P1  8028  0.83
      L1  C     7    24       P1  8028  0.24
      L1  C     7    24       P1  8029  0.54

> <Gold.PLP.Chemscore.Internal.Correction>
0.0400

> <Gold.Rescore>
     Score         DG    S(hbond)    S(metal)    S(lipo)     H(rot)  DE(clash)    DE(int)     intcor
     13.69     -13.90       0.97        0.00      78.24       1.55       0.13       0.08       ----

> <Gold.Chemscore.Fitness>
13.6927

> <Gold.Chemscore.DG>
-13.8978

> <Gold.Chemscore.ZeroCoef>
-5.4800

> <Gold.Chemscore.Hbond>
0.9688

> <Gold.Chemscore.Metal>
0.0000

> <Gold.Chemscore.Lipo>
78.2354

> <Gold.Chemscore.Internal_Hbond>
0.0000

> <Gold.Chemscore.DEClash>
0.1276

> <Gold.Chemscore.DEInternal>
0.0775

> <Gold.Chemscore.Rot>
1.5514

> <Gold.Chemscore.Internal.Correction>
   9.000000E+99

> <Gold.Chemscore.Hbonds>
donor molecule, donor type, donor heavy atom, donor atom, acceptor molecule, acceptor atom, score
      L1  H     9    25       P1  8028  0.83

> <Gold.Chemscore.Hbond.Weighted>
-3.2358

> <Gold.Chemscore.Metal.Weighted>
-0.0000

> <Gold.Chemscore.Lipo.Weighted>
-9.1535

> <Gold.Chemscore.Internal_Hbond.Weighted>
0.0000

> <Gold.Chemscore.DEClash.Weighted>
0.1276

> <Gold.Chemscore.DEInternal.Weighted>
0.0775

> <Gold.Chemscore.Rot.Weighted>
3.9715

> <Gold.Chemscore.Internal.Correction.Weighted>
   9.000000E+99

> <Gold.Protein.RotatedTorsions>
[ 6907 6896 6895 6894 ] final -151.75 input  -60.11 | X-H torsion
[ 7974 7965 7964 7962 ] final   86.09 input  175.53 | X-H torsion
[ 8008 7997 7996 7995 ] final -156.21 input   59.86 | X-H torsion
[ 10167 10162 10161 10158 ] final  -51.04 input  -65.29 | X-H torsion
[ 10718 10713 10712 10709 ] final  -63.36 input   66.30 | X-H torsion
[ 10763 10752 10751 10750 ] final  173.38 input  -60.55 | X-H torsion
[ 11005 11000 10999 10996 ] final -164.68 input  -57.11 | X-H torsion

> <Gold.Protein.ActiveResidues>
 VAL166  LYS551  ARG553  GLY616  TRP617  ASP618  TYR619  PRO620  LYS621  CYS622 
 ASP623  PHE694  ASN695  SER759  ASP760  ASP761  ALA762  ILE779  LEU786  VAL792 
 PHE793  MET794  SER795  GLU796  ALA797  LYS798  CYS799  TRP800  GLU811  SER814 

> <Gold.Protein.RotatedAtoms>
  151.2177  133.4520  159.2599 H   0  0  0  0  0  0  0  0  0  0  0  0  # atno 6907 bound_to 6896
  151.0915  134.9919  159.8415 H   0  0  0  0  0  0  0  0  0  0  0  0  # atno 6908 bound_to 6896
  152.5435  134.2111  159.8803 H   0  0  0  0  0  0  0  0  0  0  0  0  # atno 6909 bound_to 6896
  145.5768  139.2320  143.2375 H   0  0  0  0  0  0  0  0  0  0  0  0  # atno 7974 bound_to 7965
  155.7137  140.0781  157.2360 H   0  0  0  0  0  0  0  0  0  0  0  0  # atno 8008 bound_to 7997
  154.4055  140.1625  156.2378 H   0  0  0  0  0  0  0  0  0  0  0  0  # atno 8009 bound_to 7997
  155.9260  140.3394  155.6213 H   0  0  0  0  0  0  0  0  0  0  0  0  # atno 8010 bound_to 7997
  140.6608  143.2634  151.4447 H   0  0  0  0  0  0  0  0  0  0  0  0  # atno 10167 bound_to 10162
  156.0796  130.4220  150.1266 H   0  0  0  0  0  0  0  0  0  0  0  0  # atno 10718 bound_to 10713
  154.4393  135.2761  155.1859 H   0  0  0  0  0  0  0  0  0  0  0  0  # atno 10763 bound_to 10752
  154.3732  135.6104  153.5755 H   0  0  0  0  0  0  0  0  0  0  0  0  # atno 10764 bound_to 10752
  152.9840  135.5862  154.4717 H   0  0  0  0  0  0  0  0  0  0  0  0  # atno 10765 bound_to 10752
  140.5842  134.5110  157.5183 H   0  0  0  0  0  0  0  0  0  0  0  0  # atno 11005 bound_to 11000
  146.1745  140.6595  142.9218 LP  0  0  0  0  0  0  0  0  0  0  0  0  # atno 17320 bound_to 7965
  144.7412  140.4947  143.6868 LP  0  0  0  0  0  0  0  0  0  0  0  0  # atno 17321 bound_to 7965
  139.5841  144.1643  152.2006 LP  0  0  0  0  0  0  0  0  0  0  0  0  # atno 17342 bound_to 10162
  140.0977  144.5566  150.7010 LP  0  0  0  0  0  0  0  0  0  0  0  0  # atno 17343 bound_to 10162
  156.9300  130.9710  151.3534 LP  0  0  0  0  0  0  0  0  0  0  0  0  # atno 17370 bound_to 10713
  157.5907  130.8442  149.8655 LP  0  0  0  0  0  0  0  0  0  0  0  0  # atno 17371 bound_to 10713
  139.9303  134.7976  156.0950 LP  0  0  0  0  0  0  0  0  0  0  0  0  # atno 17394 bound_to 11000
  141.0976  133.6689  156.2681 LP  0  0  0  0  0  0  0  0  0  0  0  0  # atno 17395 bound_to 11000

$$$$
