AV-unprocessed.smi:2068|AV-procd|sdf|8429|dock3
  -GOLD-   2272011123D 1   1.00000     0.00000
 Structure written by MMmdl.
 32 33  0  0  0  0  0  0  0  0  2 V2000
  146.4276  140.8446  153.0195 N   0  0  0  0  0  0  0  0  0  0  0  0
  147.4201  140.2316  153.6714 C   0  0  0  0  0  0  0  0  0  0  0  0
  147.3329  139.0659  154.0523 O   0  0  0  0  0  0  0  0  0  0  0  0
  148.6866  141.0455  153.9505 C   0  0  0  0  0  0  0  0  0  0  0  0
  149.7882  140.1595  154.4574 C   0  0  0  0  0  0  0  0  0  0  0  0
  150.1419  138.9240  153.9789 C   0  0  0  0  0  0  0  0  0  0  0  0
  151.4868  138.2544  154.8573 S   0  0  0  0  0  0  0  0  0  0  0  0
  151.5311  139.6992  155.8693 C   0  0  0  0  0  0  0  0  0  0  0  0
  152.3991  139.9094  156.8712 N   0  5  0  0  0  0  0  0  0  0  0  0
  151.9347  140.2577  158.0950 C   0  0  0  0  0  0  0  0  0  0  0  0
  152.0044  139.6265  159.1514 O   0  0  0  0  0  0  0  0  0  0  0  0
  151.2606  141.6396  158.0731 C   0  0  0  0  0  0  0  0  0  0  0  0
  152.1856  142.8061  158.4896 C   0  0  2  0  0  0  0  0  0  0  0  0
  152.2075  143.0648  159.9770 C   0  0  0  0  0  0  0  0  0  0  0  0
  151.9537  144.3353  160.2819 C   0  0  0  0  0  0  0  0  0  0  0  0
  151.7095  145.1819  159.0637 C   0  0  0  0  0  0  0  0  0  0  0  0
  151.7515  144.1710  157.8958 C   0  0  0  0  0  0  0  0  0  0  0  0
  150.5771  140.5745  155.5344 N   0  0  0  0  0  0  0  0  0  0  0  0
  145.5838  140.3381  152.7952 H   0  0  0  0  0  0  0  0  0  0  0  0
  146.5357  141.8079  152.7338 H   0  0  0  0  0  0  0  0  0  0  0  0
  148.9867  141.5570  153.0350 H   0  0  0  0  0  0  0  0  0  0  0  0
  148.4620  141.8261  154.6786 H   0  0  0  0  0  0  0  0  0  0  0  0
  149.6987  138.3723  153.1636 H   0  0  0  0  0  0  0  0  0  0  0  0
  150.8932  141.8131  157.0610 H   0  0  0  0  0  0  0  0  0  0  0  0
  150.3817  141.6374  158.7215 H   0  0  0  0  0  0  0  0  0  0  0  0
  153.2100  142.5928  158.1804 H   0  0  0  0  0  0  0  0  0  0  0  0
  152.4247  142.2876  160.6952 H   0  0  0  0  0  0  0  0  0  0  0  0
  151.9320  144.7434  161.2816 H   0  0  0  0  0  0  0  0  0  0  0  0
  150.7445  145.6851  159.1309 H   0  0  0  0  0  0  0  0  0  0  0  0
  152.4922  145.9357  158.9734 H   0  0  0  0  0  0  0  0  0  0  0  0
  152.4361  144.4973  157.1121 H   0  0  0  0  0  0  0  0  0  0  0  0
  150.7620  144.0986  157.4423 H   0  0  0  0  0  0  0  0  0  0  0  0
  1  2  1  0  0  0  0
  1 19  1  0  0  0  0
  1 20  1  0  0  0  0
  2  3  2  0  0  0  0
  2  4  1  0  0  0  0
  4  5  1  0  0  0  0
  4 21  1  0  0  0  0
  4 22  1  0  0  0  0
  5 18  1  0  0  0  0
  5  6  2  0  0  0  0
  6  7  1  0  0  0  0
  6 23  1  0  0  0  0
  7  8  1  0  0  0  0
  8  9  1  0  0  0  0
  8 18  2  0  0  0  0
  9 10  1  0  0  0  0
 10 11  2  0  0  0  0
 10 12  1  0  0  0  0
 12 13  1  0  0  0  0
 12 24  1  0  0  0  0
 12 25  1  0  0  0  0
 13 17  1  0  0  0  0
 13 14  1  0  0  0  0
 13 26  1  0  0  0  0
 14 15  2  0  0  0  0
 14 27  1  0  0  0  0
 15 16  1  0  0  0  0
 15 28  1  0  0  0  0
 16 17  1  0  0  0  0
 16 29  1  0  0  0  0
 16 30  1  0  0  0  0
 17 31  1  0  0  0  0
 17 32  1  0  0  0  0
M  CHG  1   9  -1
M  END
> <s_m_source_file>
AV-unprocessed.smi

> <i_m_source_file_index>
2068

> <i_lp_mmshare_version>
43012

> <i_f3d_flags>
0

> <s_epik_input>
W05IMl1DKD1PKVtDSDJdYzFbY0hdc2MobjEpW05IXUMoPU8pW0NIMl1bQ0BASF0yW0NIXT1bQ0hdW0NIMl1bQ0gyXTI=

> <s_epik_cmdline>
J2VwaWtfcHl0aG9uJywgJy1waCcsICc3LjAnLCAnLXRuJywgJzgnLCAnLW1hJywgJzIwMCcsICctbWV0YWxfYmluZGluZycsICctaW1hZScsICc8aW5maWxlLm1hZT4nLCAnLW9tYWUnLCAnPG91dGZpbGUubWFlPic=

> <r_lp_tautomer_probability>
1

> <r_epik_Ionization_Penalty>
4.99584

> <r_epik_Ionization_Penalty_Charging>
4.63763

> <r_epik_Ionization_Penalty_Neutral>
0.358213

> <r_epik_State_Penalty>
4.63739

> <r_epik_Charging_Adjusted_Penalty>
9.27502

> <i_epik_Tot_Q>
-1

> <i_epik_Tot_abs_Q>
1

> <r_epik_Metal_State_Penalty>
0.891949

> <b_epik_Metal_Only>
1

> <s_lp_Force_Field>
OPLS_2005

> <r_lp_Energy>
13.7628

> <b_lp_Chiralities_Consistent>
1

> <s_lp_Variant>
AV-unprocessed.smi:2068-3

> <Gold.Version>
5.8.1

> <Gold.Id.Protein>
6NUR|6NUR_protein|mol2

> <Gold.PLP.Fitness>
50.6474

> <Gold.PLP.PLP>
-42.0510

> <Gold.PLP.part.hbond>
-2.4025

> <Gold.PLP.part.metal>
0.0000

> <Gold.PLP.part.buried>
-2.7879

> <Gold.PLP.part.nonpolar>
-37.4690

> <Gold.PLP.part.repulsive>
0.2184

> <Gold.PLP.ligand.clash>
0.0000

> <Gold.PLP.ligand.torsion>
2.0555

> <Gold.PLP.Chemscore.Hbond>
3.0000

> <Gold.PLP.Chemscore.CHOScore>
1.1929

> <Gold.PLP.Chemscore.Metal>
0.0000

> <Gold.Chemscore.Hbonds>
donor molecule, donor type, donor heavy atom, donor atom, acceptor molecule, acceptor atom, score
      L1  H     1    19       P1 10175  0.90
      P1  H  7997  8008       L1     9  2.00
      L1  C     6    23       P1  7948  0.90
      L1  C     6    23       P1  7957  0.44

> <Gold.PLP.Chemscore.Internal.Correction>
0.1286

> <Gold.Rescore>
     Score         DG    S(hbond)    S(metal)    S(lipo)     H(rot)  DE(clash)    DE(int)     intcor
     12.82     -17.51       1.78        0.00      99.46       2.17       0.03       4.67       ----

> <Gold.Chemscore.Fitness>
12.8211

> <Gold.Chemscore.DG>
-17.5115

> <Gold.Chemscore.ZeroCoef>
-5.4800

> <Gold.Chemscore.Hbond>
1.7778

> <Gold.Chemscore.Metal>
0.0000

> <Gold.Chemscore.Lipo>
99.4559

> <Gold.Chemscore.Internal_Hbond>
0.0000

> <Gold.Chemscore.DEClash>
0.0251

> <Gold.Chemscore.DEInternal>
4.6653

> <Gold.Chemscore.Rot>
2.1650

> <Gold.Chemscore.Internal.Correction>
   9.000000E+99

> <Gold.Chemscore.Hbonds>
donor molecule, donor type, donor heavy atom, donor atom, acceptor molecule, acceptor atom, score
      L1  H     1    19       P1 10175  0.77
      P1  H  7997  8008       L1     9  0.91

> <Gold.Chemscore.Hbond.Weighted>
-5.9377

> <Gold.Chemscore.Metal.Weighted>
-0.0000

> <Gold.Chemscore.Lipo.Weighted>
-11.6363

> <Gold.Chemscore.Internal_Hbond.Weighted>
0.0000

> <Gold.Chemscore.DEClash.Weighted>
0.0251

> <Gold.Chemscore.DEInternal.Weighted>
4.6653

> <Gold.Chemscore.Rot.Weighted>
5.5425

> <Gold.Chemscore.Internal.Correction.Weighted>
   9.000000E+99

> <Gold.Protein.RotatedTorsions>
[ 6907 6896 6895 6894 ] final  132.71 input  -60.11 | X-H torsion
[ 7974 7965 7964 7962 ] final  162.29 input  175.53 | X-H torsion
[ 8008 7997 7996 7995 ] final  -54.71 input   59.86 | X-H torsion
[ 10167 10162 10161 10158 ] final  -51.28 input  -65.29 | X-H torsion
[ 10718 10713 10712 10709 ] final   42.07 input   66.30 | X-H torsion
[ 10763 10752 10751 10750 ] final -156.80 input  -60.55 | X-H torsion
[ 11005 11000 10999 10996 ] final  171.99 input  -57.11 | X-H torsion

> <Gold.Protein.ActiveResidues>
 VAL166  LYS551  ARG553  GLY616  TRP617  ASP618  TYR619  PRO620  LYS621  CYS622 
 ASP623  PHE694  ASN695  SER759  ASP760  ASP761  ALA762  ILE779  LEU786  VAL792 
 PHE793  MET794  SER795  GLU796  ALA797  LYS798  CYS799  TRP800  GLU811  SER814 

> <Gold.Protein.RotatedAtoms>
  152.3296  133.5943  159.5799 H   0  0  0  0  0  0  0  0  0  0  0  0  # atno 6907 bound_to 6896
  150.7415  133.9889  159.3609 H   0  0  0  0  0  0  0  0  0  0  0  0  # atno 6908 bound_to 6896
  151.7765  135.0773  160.0418 H   0  0  0  0  0  0  0  0  0  0  0  0  # atno 6909 bound_to 6896
  144.7643  139.8019  143.6321 H   0  0  0  0  0  0  0  0  0  0  0  0  # atno 7974 bound_to 7965
  154.4171  140.1170  156.5359 H   0  0  0  0  0  0  0  0  0  0  0  0  # atno 8008 bound_to 7997
  155.6558  140.3496  155.4745 H   0  0  0  0  0  0  0  0  0  0  0  0  # atno 8009 bound_to 7997
  155.9755  140.1150  157.0764 H   0  0  0  0  0  0  0  0  0  0  0  0  # atno 8010 bound_to 7997
  140.6596  143.2626  151.4480 H   0  0  0  0  0  0  0  0  0  0  0  0  # atno 10167 bound_to 10162
  157.4007  130.7858  149.7346 H   0  0  0  0  0  0  0  0  0  0  0  0  # atno 10718 bound_to 10713
  154.7685  135.3138  154.8238 H   0  0  0  0  0  0  0  0  0  0  0  0  # atno 10763 bound_to 10752
  153.8980  135.6818  153.4761 H   0  0  0  0  0  0  0  0  0  0  0  0  # atno 10764 bound_to 10752
  153.1294  135.4787  154.9259 H   0  0  0  0  0  0  0  0  0  0  0  0  # atno 10765 bound_to 10752
  140.3249  134.7406  157.4091 H   0  0  0  0  0  0  0  0  0  0  0  0  # atno 11005 bound_to 11000
  146.1737  139.4898  142.9911 LP  0  0  0  0  0  0  0  0  0  0  0  0  # atno 17320 bound_to 7965
  145.6518  141.0261  143.1756 LP  0  0  0  0  0  0  0  0  0  0  0  0  # atno 17321 bound_to 7965
  139.5827  144.1674  152.1989 LP  0  0  0  0  0  0  0  0  0  0  0  0  # atno 17342 bound_to 10162
  140.1004  144.5544  150.6993 LP  0  0  0  0  0  0  0  0  0  0  0  0  # atno 17343 bound_to 10162
  155.9822  130.4012  150.3428 LP  0  0  0  0  0  0  0  0  0  0  0  0  # atno 17370 bound_to 10713
  157.1555  131.0332  151.2865 LP  0  0  0  0  0  0  0  0  0  0  0  0  # atno 17371 bound_to 10713
  140.0910  134.5601  155.8444 LP  0  0  0  0  0  0  0  0  0  0  0  0  # atno 17394 bound_to 11000
  141.2078  133.6667  156.6327 LP  0  0  0  0  0  0  0  0  0  0  0  0  # atno 17395 bound_to 11000

$$$$
