AV-unprocessed.smi:1240|AV-procd|sdf|5205|dock3
  -GOLD-   22720 4293D 1   1.00000     0.00000
 Structure written by MMmdl.
 48 50  0  0  0  0  0  0  0  0  2 V2000
  145.9829  133.8717  154.3758 O   0  0  0  0  0  0  0  0  0  0  0  0
  146.7119  134.4618  153.5788 C   0  0  0  0  0  0  0  0  0  0  0  0
  147.6207  135.3757  153.9469 N   0  0  0  0  0  0  0  0  0  0  0  0
  147.8745  135.7987  155.3222 C   0  0  0  0  0  0  0  0  0  0  0  0
  149.3804  136.0830  155.6227 C   0  0  2  0  0  0  0  0  0  0  0  0
  149.5916  136.1316  157.1752 C   0  0  1  0  0  0  0  0  0  0  0  0
  149.0299  137.2899  157.9818 C   0  0  0  0  0  0  0  0  0  0  0  0
  149.1891  136.7737  159.4065 C   0  0  0  0  0  0  0  0  0  0  0  0
  148.9411  135.3744  159.3209 O   0  0  0  0  0  0  0  0  0  0  0  0
  149.0130  134.9489  157.9618 C   0  0  0  0  0  0  0  0  0  0  0  0
  149.9560  137.2500  154.9064 N   0  0  0  0  0  0  0  0  0  0  0  0
  149.1965  138.4798  155.1691 C   0  0  0  0  0  0  0  0  0  0  0  0
  149.7152  139.6701  154.3465 C   0  0  0  0  0  0  0  0  0  0  0  0
  151.0844  139.8936  154.6593 O   0  0  0  0  0  0  0  0  0  0  0  0
  151.8915  138.7483  154.4148 C   0  0  0  0  0  0  0  0  0  0  0  0
  151.3580  137.5476  155.2179 C   0  0  0  0  0  0  0  0  0  0  0  0
  146.6935  134.3015  152.2441 N   0  0  0  0  0  0  0  0  0  0  0  0
  145.8655  133.4446  151.4687 C   0  0  0  0  0  0  0  0  0  0  0  0
  144.5124  133.3171  151.8544 C   0  0  0  0  0  0  0  0  0  0  0  0
  143.6515  132.4869  151.1079 C   0  0  0  0  0  0  0  0  0  0  0  0
  144.1218  131.8299  150.0263 N   0  3  0  0  0  0  0  0  0  0  0  0
  145.4020  131.9321  149.6094 C   0  0  0  0  0  0  0  0  0  0  0  0
  146.3096  132.7473  150.3160 C   0  0  0  0  0  0  0  0  0  0  0  0
  148.1765  135.8157  153.2280 H   0  0  0  0  0  0  0  0  0  0  0  0
  147.2636  136.6847  155.5000 H   0  0  0  0  0  0  0  0  0  0  0  0
  147.4901  135.0251  155.9874 H   0  0  0  0  0  0  0  0  0  0  0  0
  149.9134  135.1999  155.2674 H   0  0  0  0  0  0  0  0  0  0  0  0
  150.6672  136.1437  157.3583 H   0  0  0  0  0  0  0  0  0  0  0  0
  149.5476  138.2340  157.8104 H   0  0  0  0  0  0  0  0  0  0  0  0
  147.9647  137.4258  157.7956 H   0  0  0  0  0  0  0  0  0  0  0  0
  150.2094  136.9302  159.7588 H   0  0  0  0  0  0  0  0  0  0  0  0
  148.5091  137.2592  160.1067 H   0  0  0  0  0  0  0  0  0  0  0  0
  148.0051  134.7114  157.6191 H   0  0  0  0  0  0  0  0  0  0  0  0
  149.6210  134.0483  157.8733 H   0  0  0  0  0  0  0  0  0  0  0  0
  148.1358  138.3585  154.9761 H   0  0  0  0  0  0  0  0  0  0  0  0
  149.2677  138.7305  156.2287 H   0  0  0  0  0  0  0  0  0  0  0  0
  149.5988  139.4834  153.2777 H   0  0  0  0  0  0  0  0  0  0  0  0
  149.1462  140.5701  154.5802 H   0  0  0  0  0  0  0  0  0  0  0  0
  151.8986  138.5236  153.3471 H   0  0  0  0  0  0  0  0  0  0  0  0
  152.9192  138.9702  154.7020 H   0  0  0  0  0  0  0  0  0  0  0  0
  151.4711  137.7450  156.2850 H   0  0  0  0  0  0  0  0  0  0  0  0
  151.9901  136.6925  154.9800 H   0  0  0  0  0  0  0  0  0  0  0  0
  147.2971  134.9153  151.7169 H   0  0  0  0  0  0  0  0  0  0  0  0
  144.1353  133.8441  152.7191 H   0  0  0  0  0  0  0  0  0  0  0  0
  142.6082  132.3313  151.3410 H   0  0  0  0  0  0  0  0  0  0  0  0
  145.6592  131.3671  148.7253 H   0  0  0  0  0  0  0  0  0  0  0  0
  147.3228  132.8296  149.9535 H   0  0  0  0  0  0  0  0  0  0  0  0
  143.4822  131.2349  149.4987 H   0  0  0  0  0  0  0  0  0  0  0  0
  1  2  2  0  0  0  0
  2  3  1  0  0  0  0
  2 17  1  0  0  0  0
  3  4  1  0  0  0  0
  3 24  1  0  0  0  0
  4  5  1  0  0  0  0
  4 25  1  0  0  0  0
  4 26  1  0  0  0  0
  5  6  1  0  0  0  0
  5 11  1  0  0  0  0
  5 27  1  0  0  0  0
  6 10  1  0  0  0  0
  6  7  1  0  0  0  0
  6 28  1  0  0  0  0
  7  8  1  0  0  0  0
  7 29  1  0  0  0  0
  7 30  1  0  0  0  0
  8  9  1  0  0  0  0
  8 31  1  0  0  0  0
  8 32  1  0  0  0  0
  9 10  1  0  0  0  0
 10 33  1  0  0  0  0
 10 34  1  0  0  0  0
 11 16  1  0  0  0  0
 11 12  1  0  0  0  0
 12 13  1  0  0  0  0
 12 35  1  0  0  0  0
 12 36  1  0  0  0  0
 13 14  1  0  0  0  0
 13 37  1  0  0  0  0
 13 38  1  0  0  0  0
 14 15  1  0  0  0  0
 15 16  1  0  0  0  0
 15 39  1  0  0  0  0
 15 40  1  0  0  0  0
 16 41  1  0  0  0  0
 16 42  1  0  0  0  0
 17 18  1  0  0  0  0
 17 43  1  0  0  0  0
 18 23  1  0  0  0  0
 18 19  2  0  0  0  0
 19 20  1  0  0  0  0
 19 44  1  0  0  0  0
 20 21  2  0  0  0  0
 20 45  1  0  0  0  0
 21 22  1  0  0  0  0
 21 48  1  0  0  0  0
 22 23  2  0  0  0  0
 22 46  1  0  0  0  0
 23 47  1  0  0  0  0
M  CHG  1  21   1
M  END
> <s_m_source_file>
AV-unprocessed.smi

> <i_m_source_file_index>
1240

> <i_lp_mmshare_version>
43012

> <i_f3d_flags>
0

> <s_epik_input>
W2NIXTFbY0hdbltjSF1bY0hdYzFbTkhdQyg9TylbTkhdW0NIMl1bQ0BIXShbQ0BASF0yW0NIMl1bQ0gyXU9bQ0gyXTIpTjNbQ0gyXVtDSDJdT1tDSDJdW0NIMl0z

> <s_epik_cmdline>
J2VwaWtfcHl0aG9uJywgJy1waCcsICc3LjAnLCAnLXRuJywgJzgnLCAnLW1hJywgJzIwMCcsICctbWV0YWxfYmluZGluZycsICctaW1hZScsICc8aW5maWxlLm1hZT4nLCAnLW9tYWUnLCAnPG91dGZpbGUubWFlPic=

> <r_epik_Ionization_Penalty>
1.15944

> <r_epik_Ionization_Penalty_Charging>
1.0344

> <r_epik_Ionization_Penalty_Neutral>
0.125034

> <r_epik_State_Penalty>
1.2199

> <r_epik_Charging_Adjusted_Penalty>
2.25431

> <i_epik_Tot_Q>
1

> <i_epik_Tot_abs_Q>
1

> <r_epik_Metal_State_Penalty>
1.3155

> <b_epik_Metal_Only>
0

> <s_lp_Force_Field>
OPLS_2005

> <r_lp_Energy>
67.1195

> <b_lp_Chiralities_Consistent>
1

> <s_lp_Variant>
AV-unprocessed.smi:1240-11

> <Gold.Version>
5.8.1

> <Gold.Id.Protein>
6NUR|6NUR_protein|mol2

> <Gold.PLP.Fitness>
42.8474

> <Gold.PLP.PLP>
-33.7067

> <Gold.PLP.part.hbond>
-4.0000

> <Gold.PLP.part.metal>
0.0000

> <Gold.PLP.part.buried>
-5.7554

> <Gold.PLP.part.nonpolar>
-23.5952

> <Gold.PLP.part.repulsive>
0.4459

> <Gold.PLP.ligand.clash>
0.0000

> <Gold.PLP.ligand.torsion>
0.6317

> <Gold.PLP.Chemscore.Hbond>
3.4060

> <Gold.PLP.Chemscore.CHOScore>
0.0000

> <Gold.PLP.Chemscore.Metal>
0.0000

> <Gold.Chemscore.Hbonds>
donor molecule, donor type, donor heavy atom, donor atom, acceptor molecule, acceptor atom, score
      L1  H     3    24       P1  7948  1.00
      L1  H    17    43       P1  7948  0.82
      P1  H  6896  6908       L1     9  0.50
      P1  H  7989  7998       L1    14  0.95

> <Gold.PLP.Chemscore.Internal.Correction>
0.1860

> <Gold.Rescore>
     Score         DG    S(hbond)    S(metal)    S(lipo)     H(rot)  DE(clash)    DE(int)     intcor
     15.11     -16.82       1.80        0.00      82.58       1.69       0.01       1.70       ----

> <Gold.Chemscore.Fitness>
15.1142

> <Gold.Chemscore.DG>
-16.8196

> <Gold.Chemscore.ZeroCoef>
-5.4800

> <Gold.Chemscore.Hbond>
1.7987

> <Gold.Chemscore.Metal>
0.0000

> <Gold.Chemscore.Lipo>
82.5771

> <Gold.Chemscore.Internal_Hbond>
0.0000

> <Gold.Chemscore.DEClash>
0.0056

> <Gold.Chemscore.DEInternal>
1.6999

> <Gold.Chemscore.Rot>
1.6912

> <Gold.Chemscore.Internal.Correction>
   9.000000E+99

> <Gold.Chemscore.Hbonds>
donor molecule, donor type, donor heavy atom, donor atom, acceptor molecule, acceptor atom, score
      L1  H     3    24       P1  7948  0.99
      L1  H    17    43       P1  7948  0.63
      P1  H  6896  6908       L1     9  0.01
      P1  H  7989  7998       L1    14  0.12

> <Gold.Chemscore.Hbond.Weighted>
-6.0075

> <Gold.Chemscore.Metal.Weighted>
-0.0000

> <Gold.Chemscore.Lipo.Weighted>
-9.6615

> <Gold.Chemscore.Internal_Hbond.Weighted>
0.0000

> <Gold.Chemscore.DEClash.Weighted>
0.0056

> <Gold.Chemscore.DEInternal.Weighted>
1.6999

> <Gold.Chemscore.Rot.Weighted>
4.3295

> <Gold.Chemscore.Internal.Correction.Weighted>
   9.000000E+99

> <Gold.Protein.RotatedTorsions>
[ 6907 6896 6895 6894 ] final  177.84 input  -60.11 | X-H torsion
[ 7974 7965 7964 7962 ] final   76.17 input  175.53 | X-H torsion
[ 8008 7997 7996 7995 ] final   40.65 input   59.86 | X-H torsion
[ 10167 10162 10161 10158 ] final  138.30 input  -65.29 | X-H torsion
[ 10718 10713 10712 10709 ] final  -30.90 input   66.30 | X-H torsion
[ 10763 10752 10751 10750 ] final  -81.48 input  -60.55 | X-H torsion
[ 11005 11000 10999 10996 ] final   44.29 input  -57.11 | X-H torsion

> <Gold.Protein.ActiveResidues>
 VAL166  LYS551  ARG553  GLY616  TRP617  ASP618  TYR619  PRO620  LYS621  CYS622 
 ASP623  PHE694  ASN695  SER759  ASP760  ASP761  ALA762  ILE779  LEU786  VAL792 
 PHE793  MET794  SER795  GLU796  ALA797  LYS798  CYS799  TRP800  GLU811  SER814 

> <Gold.Protein.RotatedAtoms>
  151.6975  133.3311  159.3257 H   0  0  0  0  0  0  0  0  0  0  0  0  # atno 6907 bound_to 6896
  150.7751  134.6645  159.6367 H   0  0  0  0  0  0  0  0  0  0  0  0  # atno 6908 bound_to 6896
  152.3790  134.6622  160.0201 H   0  0  0  0  0  0  0  0  0  0  0  0  # atno 6909 bound_to 6896
  145.7063  139.2599  143.1676 H   0  0  0  0  0  0  0  0  0  0  0  0  # atno 7974 bound_to 7965
  155.2566  140.3356  155.4277 H   0  0  0  0  0  0  0  0  0  0  0  0  # atno 8008 bound_to 7997
  156.2193  140.1802  156.7558 H   0  0  0  0  0  0  0  0  0  0  0  0  # atno 8009 bound_to 7997
  154.5800  140.0655  156.9075 H   0  0  0  0  0  0  0  0  0  0  0  0  # atno 8010 bound_to 7997
  139.5115  144.6361  151.5692 H   0  0  0  0  0  0  0  0  0  0  0  0  # atno 10167 bound_to 10162
  156.3940  130.4378  149.7373 H   0  0  0  0  0  0  0  0  0  0  0  0  # atno 10718 bound_to 10713
  154.5641  135.5625  153.7034 H   0  0  0  0  0  0  0  0  0  0  0  0  # atno 10763 bound_to 10752
  153.0027  135.6281  154.2204 H   0  0  0  0  0  0  0  0  0  0  0  0  # atno 10764 bound_to 10752
  154.2143  135.2872  155.2927 H   0  0  0  0  0  0  0  0  0  0  0  0  # atno 10765 bound_to 10752
  140.1565  134.4395  155.8346 H   0  0  0  0  0  0  0  0  0  0  0  0  # atno 11005 bound_to 11000
  146.0753  140.7824  142.9668 LP  0  0  0  0  0  0  0  0  0  0  0  0  # atno 17320 bound_to 7965
  144.6954  140.3404  143.7200 LP  0  0  0  0  0  0  0  0  0  0  0  0  # atno 17321 bound_to 7965
  140.6111  143.9435  150.6454 LP  0  0  0  0  0  0  0  0  0  0  0  0  # atno 17342 bound_to 10162
  140.2678  143.3478  152.1265 LP  0  0  0  0  0  0  0  0  0  0  0  0  # atno 17343 bound_to 10162
  156.4416  130.7863  151.2885 LP  0  0  0  0  0  0  0  0  0  0  0  0  # atno 17370 bound_to 10713
  157.7500  131.0123  150.3380 LP  0  0  0  0  0  0  0  0  0  0  0  0  # atno 17371 bound_to 10713
  141.2205  133.6895  156.7517 LP  0  0  0  0  0  0  0  0  0  0  0  0  # atno 17394 bound_to 11000
  140.2541  134.8518  157.3696 LP  0  0  0  0  0  0  0  0  0  0  0  0  # atno 17395 bound_to 11000

$$$$
