AV-unprocessed.smi:2414|AV-procd|sdf|9540|dock6
  -GOLD-   2272013173D 1   1.00000     0.00000
 Structure written by MMmdl.
 43 44  0  0  0  0  0  0  0  0  1 V2000
  152.5710  144.9518  161.0549 C   0  0  0  0  0  0  0  0  0  0  0  0
  152.0345  144.0044  160.0360 C   0  0  0  0  0  0  0  0  0  0  0  0
  150.9817  144.2087  159.1790 C   0  0  0  0  0  0  0  0  0  0  0  0
  150.7185  143.1237  158.3402 N   0  0  0  0  0  0  0  0  0  0  0  0
  151.5562  142.1033  158.5448 C   0  0  0  0  0  0  0  0  0  0  0  0
  151.4903  140.8088  157.7920 C   0  0  2  0  0  0  0  0  0  0  0  0
  150.3888  140.8208  156.7221 C   0  0  0  0  0  0  0  0  0  0  0  0
  151.4167  139.5778  158.7162 C   0  0  0  0  0  0  0  0  0  0  0  0
  150.0480  139.0976  158.8692 N   0  0  0  0  0  0  0  0  0  0  0  0
  149.7120  137.8136  159.0429 C   0  0  0  0  0  0  0  0  0  0  0  0
  150.5262  136.8923  159.1051 O   0  0  0  0  0  0  0  0  0  0  0  0
  148.3852  137.6588  159.1414 N   0  0  0  0  0  0  0  0  0  0  0  0
  147.6921  136.3919  159.3564 C   0  0  0  0  0  0  0  0  0  0  0  0
  146.6836  136.4830  160.5217 C   0  0  2  0  0  0  0  0  0  0  0  0
  145.5915  137.5423  160.2757 C   0  0  0  0  0  0  0  0  0  0  0  0
  147.3936  136.7223  161.8666 C   0  0  0  0  0  0  0  0  0  0  0  0
  146.6450  135.8201  162.8229 C   0  0  0  0  0  0  0  0  0  0  0  0
  146.3312  134.6349  161.9231 C   0  0  0  0  0  0  0  0  0  0  0  0
  146.0263  135.2205  160.6640 O   0  0  0  0  0  0  0  0  0  0  0  0
  152.7391  142.4250  159.8080 S   0  0  0  0  0  0  0  0  0  0  0  0
  151.7614  145.3989  161.6321 H   0  0  0  0  0  0  0  0  0  0  0  0
  153.1295  145.7566  160.5769 H   0  0  0  0  0  0  0  0  0  0  0  0
  153.2390  144.4451  161.7517 H   0  0  0  0  0  0  0  0  0  0  0  0
  150.3655  145.0921  159.0997 H   0  0  0  0  0  0  0  0  0  0  0  0
  152.4340  140.7277  157.2504 H   0  0  0  0  0  0  0  0  0  0  0  0
  150.5293  141.6463  156.0236 H   0  0  0  0  0  0  0  0  0  0  0  0
  149.4009  140.9282  157.1710 H   0  0  0  0  0  0  0  0  0  0  0  0
  150.3920  139.8957  156.1453 H   0  0  0  0  0  0  0  0  0  0  0  0
  152.0276  138.7724  158.3046 H   0  0  0  0  0  0  0  0  0  0  0  0
  151.8279  139.8193  159.6975 H   0  0  0  0  0  0  0  0  0  0  0  0
  149.3112  139.7866  158.8300 H   0  0  0  0  0  0  0  0  0  0  0  0
  147.8044  138.4822  159.0762 H   0  0  0  0  0  0  0  0  0  0  0  0
  147.1771  136.1299  158.4315 H   0  0  0  0  0  0  0  0  0  0  0  0
  148.4001  135.5857  159.5560 H   0  0  0  0  0  0  0  0  0  0  0  0
  146.0278  138.5330  160.1456 H   0  0  0  0  0  0  0  0  0  0  0  0
  144.8962  137.5946  161.1138 H   0  0  0  0  0  0  0  0  0  0  0  0
  145.0040  137.3196  159.3848 H   0  0  0  0  0  0  0  0  0  0  0  0
  148.4348  136.4004  161.8169 H   0  0  0  0  0  0  0  0  0  0  0  0
  147.3897  137.7672  162.1792 H   0  0  0  0  0  0  0  0  0  0  0  0
  147.2285  135.5466  163.7023 H   0  0  0  0  0  0  0  0  0  0  0  0
  145.7232  136.2990  163.1554 H   0  0  0  0  0  0  0  0  0  0  0  0
  147.2067  133.9932  161.8139 H   0  0  0  0  0  0  0  0  0  0  0  0
  145.5051  134.0284  162.2949 H   0  0  0  0  0  0  0  0  0  0  0  0
  1  2  1  0  0  0  0
  1 21  1  0  0  0  0
  1 22  1  0  0  0  0
  1 23  1  0  0  0  0
  2 20  1  0  0  0  0
  2  3  2  0  0  0  0
  3  4  1  0  0  0  0
  3 24  1  0  0  0  0
  4  5  2  0  0  0  0
  5  6  1  0  0  0  0
  5 20  1  0  0  0  0
  6  7  1  0  0  0  0
  6  8  1  0  0  0  0
  6 25  1  0  0  0  0
  7 26  1  0  0  0  0
  7 27  1  0  0  0  0
  7 28  1  0  0  0  0
  8  9  1  0  0  0  0
  8 29  1  0  0  0  0
  8 30  1  0  0  0  0
  9 10  1  0  0  0  0
  9 31  1  0  0  0  0
 10 11  2  0  0  0  0
 10 12  1  0  0  0  0
 12 13  1  0  0  0  0
 12 32  1  0  0  0  0
 13 14  1  0  0  0  0
 13 33  1  0  0  0  0
 13 34  1  0  0  0  0
 14 19  1  0  0  0  0
 14 15  1  0  0  0  0
 14 16  1  0  0  0  0
 15 35  1  0  0  0  0
 15 36  1  0  0  0  0
 15 37  1  0  0  0  0
 16 17  1  0  0  0  0
 16 38  1  0  0  0  0
 16 39  1  0  0  0  0
 17 18  1  0  0  0  0
 17 40  1  0  0  0  0
 17 41  1  0  0  0  0
 18 19  1  0  0  0  0
 18 42  1  0  0  0  0
 18 43  1  0  0  0  0
M  END
> <s_m_source_file>
AV-unprocessed.smi

> <i_m_source_file_index>
2414

> <i_lp_mmshare_version>
43012

> <i_f3d_flags>
0

> <s_epik_input>
W0NIM11jMVtjSF1uYyhzMSlbQ0BIXShbQ0gzXSlbQ0gyXVtOSF1DKD1PKVtOSF1bQ0gyXVtDQEBdMihbQ0gzXSlbQ0gyXVtDSDJdW0NIMl1PMg==

> <s_epik_cmdline>
J2VwaWtfcHl0aG9uJywgJy1waCcsICc3LjAnLCAnLXRuJywgJzgnLCAnLW1hJywgJzIwMCcsICctbWV0YWxfYmluZGluZycsICctaW1hZScsICc8aW5maWxlLm1hZT4nLCAnLW9tYWUnLCAnPG91dGZpbGUubWFlPic=

> <r_epik_Ionization_Penalty>
0.000646956

> <r_epik_Ionization_Penalty_Charging>
0

> <r_epik_Ionization_Penalty_Neutral>
0.000646956

> <r_epik_State_Penalty>
0.000375727

> <r_epik_Charging_Adjusted_Penalty>
0.000375727

> <i_epik_Tot_Q>
0

> <i_epik_Tot_abs_Q>
0

> <r_epik_Metal_State_Penalty>
-0

> <b_epik_Metal_Only>
0

> <s_lp_Force_Field>
OPLS_2005

> <r_lp_Energy>
9.0626

> <b_lp_Chiralities_Consistent>
1

> <s_lp_Variant>
AV-unprocessed.smi:2414-3

> <Gold.Version>
5.8.1

> <Gold.Id.Protein>
6NUR|6NUR_protein|mol2

> <Gold.PLP.Fitness>
44.6298

> <Gold.PLP.PLP>
-39.7935

> <Gold.PLP.part.hbond>
-1.0000

> <Gold.PLP.part.metal>
0.0000

> <Gold.PLP.part.buried>
-5.1615

> <Gold.PLP.part.nonpolar>
-35.5157

> <Gold.PLP.part.repulsive>
0.5344

> <Gold.PLP.ligand.clash>
0.0000

> <Gold.PLP.ligand.torsion>
0.7433

> <Gold.PLP.Chemscore.Hbond>
1.0000

> <Gold.PLP.Chemscore.CHOScore>
1.0693

> <Gold.PLP.Chemscore.Metal>
0.0000

> <Gold.Chemscore.Hbonds>
donor molecule, donor type, donor heavy atom, donor atom, acceptor molecule, acceptor atom, score
      P1  H  6896  6908       L1    11  0.88

> <Gold.PLP.Chemscore.Internal.Correction>
0.1152

> <Gold.Rescore>
     Score         DG    S(hbond)    S(metal)    S(lipo)     H(rot)  DE(clash)    DE(int)     intcor
     16.37     -17.38       0.99        0.00     109.49       1.65       0.12       0.89       ----

> <Gold.Chemscore.Fitness>
16.3735

> <Gold.Chemscore.DG>
-17.3830

> <Gold.Chemscore.ZeroCoef>
-5.4800

> <Gold.Chemscore.Hbond>
0.9947

> <Gold.Chemscore.Metal>
0.0000

> <Gold.Chemscore.Lipo>
109.4894

> <Gold.Chemscore.Internal_Hbond>
0.0000

> <Gold.Chemscore.DEClash>
0.1230

> <Gold.Chemscore.DEInternal>
0.8865

> <Gold.Chemscore.Rot>
1.6522

> <Gold.Chemscore.Internal.Correction>
   9.000000E+99

> <Gold.Chemscore.Hbonds>
donor molecule, donor type, donor heavy atom, donor atom, acceptor molecule, acceptor atom, score
      P1  H  6896  6908       L1    11  0.84

> <Gold.Chemscore.Hbond.Weighted>
-3.3223

> <Gold.Chemscore.Metal.Weighted>
-0.0000

> <Gold.Chemscore.Lipo.Weighted>
-12.8103

> <Gold.Chemscore.Internal_Hbond.Weighted>
0.0000

> <Gold.Chemscore.DEClash.Weighted>
0.1230

> <Gold.Chemscore.DEInternal.Weighted>
0.8865

> <Gold.Chemscore.Rot.Weighted>
4.2295

> <Gold.Chemscore.Internal.Correction.Weighted>
   9.000000E+99

> <Gold.Protein.RotatedTorsions>
[ 6907 6896 6895 6894 ] final -134.20 input  -60.11 | X-H torsion
[ 7974 7965 7964 7962 ] final  -51.71 input  175.53 | X-H torsion
[ 8008 7997 7996 7995 ] final -175.09 input   59.86 | X-H torsion
[ 10167 10162 10161 10158 ] final  107.67 input  -65.29 | X-H torsion
[ 10718 10713 10712 10709 ] final   67.51 input   66.30 | X-H torsion
[ 10763 10752 10751 10750 ] final  -92.06 input  -60.55 | X-H torsion
[ 11005 11000 10999 10996 ] final -179.07 input  -57.11 | X-H torsion

> <Gold.Protein.ActiveResidues>
 VAL166  LYS551  ARG553  GLY616  TRP617  ASP618  TYR619  PRO620  LYS621  CYS622 
 ASP623  PHE694  ASN695  SER759  ASP760  ASP761  ALA762  ILE779  LEU786  VAL792 
 PHE793  MET794  SER795  GLU796  ALA797  LYS798  CYS799  TRP800  GLU811  SER814 

> <Gold.Protein.RotatedAtoms>
  150.9831  133.6225  159.2719 H   0  0  0  0  0  0  0  0  0  0  0  0  # atno 6907 bound_to 6896
  151.3473  135.0876  159.9401 H   0  0  0  0  0  0  0  0  0  0  0  0  # atno 6908 bound_to 6896
  152.5222  133.9430  159.7690 H   0  0  0  0  0  0  0  0  0  0  0  0  # atno 6909 bound_to 6896
  145.9160  140.7874  142.9671 H   0  0  0  0  0  0  0  0  0  0  0  0  # atno 7974 bound_to 7965
  155.9782  140.1176  157.0750 H   0  0  0  0  0  0  0  0  0  0  0  0  # atno 8008 bound_to 7997
  154.4175  140.1150  156.5467 H   0  0  0  0  0  0  0  0  0  0  0  0  # atno 8009 bound_to 7997
  155.6506  140.3473  155.4749 H   0  0  0  0  0  0  0  0  0  0  0  0  # atno 8010 bound_to 7997
  139.6908  144.7108  151.1352 H   0  0  0  0  0  0  0  0  0  0  0  0  # atno 10167 bound_to 10162
  157.6235  130.9325  150.0253 H   0  0  0  0  0  0  0  0  0  0  0  0  # atno 10718 bound_to 10713
  154.6824  135.5245  153.8280 H   0  0  0  0  0  0  0  0  0  0  0  0  # atno 10763 bound_to 10752
  153.0574  135.6555  154.0555 H   0  0  0  0  0  0  0  0  0  0  0  0  # atno 10764 bound_to 10752
  154.0440  135.2975  155.3330 H   0  0  0  0  0  0  0  0  0  0  0  0  # atno 10765 bound_to 10752
  140.4227  134.6591  157.4672 H   0  0  0  0  0  0  0  0  0  0  0  0  # atno 11005 bound_to 11000
  144.6748  140.1901  143.7397 LP  0  0  0  0  0  0  0  0  0  0  0  0  # atno 17320 bound_to 7965
  145.8611  139.2223  143.1716 LP  0  0  0  0  0  0  0  0  0  0  0  0  # atno 17321 bound_to 7965
  140.7682  143.5562  150.9149 LP  0  0  0  0  0  0  0  0  0  0  0  0  # atno 17342 bound_to 10162
  139.9240  143.6572  152.3091 LP  0  0  0  0  0  0  0  0  0  0  0  0  # atno 17343 bound_to 10162
  156.1393  130.3642  149.9607 LP  0  0  0  0  0  0  0  0  0  0  0  0  # atno 17370 bound_to 10713
  156.7651  130.9165  151.3642 LP  0  0  0  0  0  0  0  0  0  0  0  0  # atno 17371 bound_to 10713
  140.0189  134.6578  155.9269 LP  0  0  0  0  0  0  0  0  0  0  0  0  # atno 17394 bound_to 11000
  141.1777  133.6542  156.4895 LP  0  0  0  0  0  0  0  0  0  0  0  0  # atno 17395 bound_to 11000

$$$$
