#       Name:                AV-unprocessed.smi:47
#       Creating user name   scv26
#       Creation time:       Thu Mar 26 16:30:46 2020


#       File generated by GOLD software.
#

@<TRIPOS>MOLECULE
AV-unprocessed.smi:47
    36    38     1
SMALL
NO_CHARGES


@<TRIPOS>ATOM
      1 ****        -4.4317  -0.2635   1.3711 O.3            1 S1                 0.0000
      2 ****        -3.2271   0.0281   0.6953 C.3            1 S1                 0.0000
      3 ****        -3.2622   1.3980   0.0176 C.3            1 S1                 0.0000
      4 ****        -2.2772   1.3149  -1.0765 N.4            1 S1                 1.0000
      5 ****        -2.0937  -0.1108  -1.4312 C.3            1 S1                 0.0000
      6 ****        -0.6216  -0.3504  -1.2520 C.2            1 S1                 0.0000
      7 ****         0.0825  -1.0702  -2.1318 N.pl3          1 S1                 0.0000
      8 ****         1.3701  -1.1408  -1.7315 N.2            1 S1                 0.0000
      9 ****         1.3385  -0.4383  -0.6007 C.2            1 S1                 0.0000
     10 ****         2.5524  -0.2289   0.2224 C.ar           1 S1                 0.0000
     11 ****         2.4812   0.4317   1.4732 C.ar           1 S1                 0.0000
     12 ****         3.6333   0.6346   2.2576 C.ar           1 S1                 0.0000
     13 ****         4.8836   0.1787   1.8040 C.ar           1 S1                 0.0000
     14 ****         4.9762  -0.4804   0.5656 C.ar           1 S1                 0.0000
     15 ****         3.8214  -0.6808  -0.2154 C.ar           1 S1                 0.0000
     16 ****         0.1277   0.0836  -0.2389 N.2            1 S1                 0.0000
     17 ****        -2.9773  -0.9234  -0.4735 C.3            1 S1                 0.0000
     18 ****        -2.3934  -0.0177   1.3975 H              1 S1                 0.0000
     19 ****        -2.3727  -0.2838  -2.4715 H              1 S1                 0.0000
     20 ****        -4.3584  -1.1185   1.7677 H              1 S1                 0.0000
     21 ****        -4.2433   1.5815  -0.4234 H              1 S1                 0.0000
     22 ****        -3.0394   2.2167   0.7021 H              1 S1                 0.0000
     23 ****        -2.5789   1.8564  -1.8736 H              1 S1                 0.0000
     24 ****         1.5350   0.7921   1.8488 H              1 S1                 0.0000
     25 ****         3.5567   1.1410   3.2086 H              1 S1                 0.0000
     26 ****         5.7682   0.3338   2.4039 H              1 S1                 0.0000
     27 ****         5.9342  -0.8325   0.2122 H              1 S1                 0.0000
     28 ****         3.9243  -1.1886  -1.1631 H              1 S1                 0.0000
     29 ****        -2.5395  -1.8772  -0.1768 H              1 S1                 0.0000
     30 ****        -3.9252  -1.1380  -0.9698 H              1 S1                 0.0000
     31 ****        -1.3905   1.6654  -0.7414 H              1 S1                 0.0000
     32 ****        -0.2545  -1.5113  -2.9760 H              1 S1                 0.0000
     33 ****        -5.1916  -0.2584   0.7211 LP             1 S1                 0.0000
     34 ****        -4.5944   0.4230   2.0797 LP             1 S1                 0.0000
     35 ****         2.1435  -1.5997  -2.1689 LP             1 S1                 0.0000
     36 ****        -0.1236   0.6334   0.5576 LP             1 S1                 0.0000
@<TRIPOS>BOND
    1    1    2 1     
    2    1   20 1     
    3    2   18 1     
    4    2   17 1     
    5    2    3 1     
    6    3    4 1     
    7    3   21 1     
    8    3   22 1     
    9    4    5 1     
   10    4   23 1     
   11    4   31 1     
   12    5   19 1     
   13    5    6 1     
   14    5   17 1     
   15    6   16 2     
   16    6    7 1     
   17    7    8 1     
   18    7   32 1     
   19    8    9 2     
   20    9   10 1     
   21    9   16 1     
   22   10   15 ar    
   23   10   11 ar    
   24   11   12 ar    
   25   11   24 1     
   26   12   13 ar    
   27   12   25 1     
   28   13   14 ar    
   29   13   26 1     
   30   14   15 ar    
   31   14   27 1     
   32   15   28 1     
   33   17   29 1     
   34   17   30 1     
   35    1   33 1     
   36    1   34 1     
   37    8   35 1     
   38   16   36 1     
@<TRIPOS>SUBSTRUCTURE
      1 S1             1
@<TRIPOS>SET
LONE_PAIRS      STATIC     ATOMS    <user>   **** ""
4 33 34 35 36
DONOR_HYDROGENS      STATIC     ATOMS    <user>   **** ""
4 20 23 31 32
ATOM$BLUE        STATIC     ATOMS    COLORGROUP SYSTEM
4 33 34 35 36
ATOM$RED        STATIC     ATOMS    COLORGROUP SYSTEM
4 20 23 31 32
