AV-unprocessed.smi:1602|AV-procd|sdf|6441|dock5
  -GOLD-   22720 7 93D 1   1.00000     0.00000
 Structure written by MMmdl.
 35 36  0  0  0  0  0  0  0  0  2 V2000
  151.9089  140.6536  158.9044 C   0  0  0  0  0  0  0  0  0  0  0  0
  151.2623  141.5297  157.8201 C   0  0  2  0  0  0  0  0  0  0  0  0
  150.3142  142.6162  158.4015 C   0  0  0  0  0  0  0  0  0  0  0  0
  150.9605  143.6454  159.2142 N   0  0  0  0  0  0  0  0  0  0  0  0
  150.8309  145.0192  159.1342 C   0  0  0  0  0  0  0  0  0  0  0  0
  151.6112  145.5641  160.1134 C   0  0  0  0  0  0  0  0  0  0  0  0
  152.1757  144.4320  160.7638 C   0  0  0  0  0  0  0  0  0  0  0  0
  151.7759  143.2880  160.2348 N   0  0  0  0  0  0  0  0  0  0  0  0
  150.5496  140.6684  156.8869 N   0  5  0  0  0  0  0  0  0  0  0  0
  151.3546  139.5524  156.0286 S   0  0  0  0  0  0  0  0  0  0  0  0
  151.0705  139.5762  154.5843 O   0  0  0  0  0  0  0  0  0  0  0  0
  152.7594  139.4226  156.4485 O   0  0  0  0  0  0  0  0  0  0  0  0
  150.5214  138.1593  156.6463 N   0  0  0  0  0  0  0  0  0  0  0  0
  150.3191  138.1006  158.1039 C   0  0  0  0  0  0  0  0  0  0  0  0
  149.3805  136.9463  158.4911 C   0  0  0  0  0  0  0  0  0  0  0  0
  149.8606  135.7217  157.9590 O   0  0  0  0  0  0  0  0  0  0  0  0
  149.8894  135.7546  156.5407 C   0  0  0  0  0  0  0  0  0  0  0  0
  150.8556  136.8466  156.0557 C   0  0  0  0  0  0  0  0  0  0  0  0
  152.4329  141.2659  159.6384 H   0  0  0  0  0  0  0  0  0  0  0  0
  152.6377  139.9681  158.4705 H   0  0  0  0  0  0  0  0  0  0  0  0
  151.1706  140.0531  159.4366 H   0  0  0  0  0  0  0  0  0  0  0  0
  152.0761  142.0509  157.3145 H   0  0  0  0  0  0  0  0  0  0  0  0
  149.8070  143.1211  157.5787 H   0  0  0  0  0  0  0  0  0  0  0  0
  149.5204  142.1554  158.9903 H   0  0  0  0  0  0  0  0  0  0  0  0
  150.2051  145.4878  158.3892 H   0  0  0  0  0  0  0  0  0  0  0  0
  151.7545  146.6111  160.3334 H   0  0  0  0  0  0  0  0  0  0  0  0
  152.8552  144.4066  161.6028 H   0  0  0  0  0  0  0  0  0  0  0  0
  151.2884  137.9771  158.5882 H   0  0  0  0  0  0  0  0  0  0  0  0
  149.9011  139.0426  158.4585 H   0  0  0  0  0  0  0  0  0  0  0  0
  149.3242  136.8604  159.5763 H   0  0  0  0  0  0  0  0  0  0  0  0
  148.3662  137.1375  158.1370 H   0  0  0  0  0  0  0  0  0  0  0  0
  150.2129  134.7812  156.1718 H   0  0  0  0  0  0  0  0  0  0  0  0
  148.8858  135.9234  156.1468 H   0  0  0  0  0  0  0  0  0  0  0  0
  150.8249  136.8965  154.9680 H   0  0  0  0  0  0  0  0  0  0  0  0
  151.8786  136.5877  156.3304 H   0  0  0  0  0  0  0  0  0  0  0  0
  1  2  1  0  0  0  0
  1 19  1  0  0  0  0
  1 20  1  0  0  0  0
  1 21  1  0  0  0  0
  2  3  1  0  0  0  0
  2  9  1  0  0  0  0
  2 22  1  0  0  0  0
  3  4  1  0  0  0  0
  3 23  1  0  0  0  0
  3 24  1  0  0  0  0
  4  8  1  0  0  0  0
  4  5  1  0  0  0  0
  5  6  2  0  0  0  0
  5 25  1  0  0  0  0
  6  7  1  0  0  0  0
  6 26  1  0  0  0  0
  7  8  2  0  0  0  0
  7 27  1  0  0  0  0
  9 10  1  0  0  0  0
 10 11  2  0  0  0  0
 10 12  2  0  0  0  0
 10 13  1  0  0  0  0
 13 18  1  0  0  0  0
 13 14  1  0  0  0  0
 14 15  1  0  0  0  0
 14 28  1  0  0  0  0
 14 29  1  0  0  0  0
 15 16  1  0  0  0  0
 15 30  1  0  0  0  0
 15 31  1  0  0  0  0
 16 17  1  0  0  0  0
 17 18  1  0  0  0  0
 17 32  1  0  0  0  0
 17 33  1  0  0  0  0
 18 34  1  0  0  0  0
 18 35  1  0  0  0  0
M  CHG  1   9  -1
M  END
> <s_m_source_file>
AV-unprocessed.smi

> <i_m_source_file_index>
1602

> <i_lp_mmshare_version>
43012

> <i_f3d_flags>
0

> <s_epik_input>
bjFbY0hdW2NIXVtjSF1uMVtDSDJdW0NAQEhdKFtDSDNdKVtOSF1TKD1PKSg9TylOMltDSDJdW0NIMl1PW0NIMl1bQ0gyXTI=

> <s_epik_cmdline>
J2VwaWtfcHl0aG9uJywgJy1waCcsICc3LjAnLCAnLXRuJywgJzgnLCAnLW1hJywgJzIwMCcsICctbWV0YWxfYmluZGluZycsICctaW1hZScsICc8aW5maWxlLm1hZT4nLCAnLW9tYWUnLCAnPG91dGZpbGUubWFlPic=

> <r_lp_tautomer_probability>
1

> <r_epik_Ionization_Penalty>
1.03144

> <r_epik_Ionization_Penalty_Charging>
1.03142

> <r_epik_Ionization_Penalty_Neutral>
2.21579e-05

> <r_epik_State_Penalty>
1.0826

> <r_epik_Charging_Adjusted_Penalty>
2.11402

> <i_epik_Tot_Q>
-1

> <i_epik_Tot_abs_Q>
1

> <r_epik_Metal_State_Penalty>
0.386234

> <b_epik_Metal_Only>
0

> <s_lp_Force_Field>
OPLS_2005

> <r_lp_Energy>
6.71123

> <b_lp_Chiralities_Consistent>
1

> <s_lp_Variant>
AV-unprocessed.smi:1602-3

> <Gold.Version>
5.8.1

> <Gold.Id.Protein>
6NUR|6NUR_protein|mol2

> <Gold.PLP.Fitness>
42.6517

> <Gold.PLP.PLP>
-31.2956

> <Gold.PLP.part.hbond>
-3.0000

> <Gold.PLP.part.metal>
0.0000

> <Gold.PLP.part.buried>
-7.6482

> <Gold.PLP.part.nonpolar>
-21.4189

> <Gold.PLP.part.repulsive>
0.1586

> <Gold.PLP.ligand.clash>
0.0000

> <Gold.PLP.ligand.torsion>
0.9425

> <Gold.PLP.Chemscore.Hbond>
2.8960

> <Gold.PLP.Chemscore.CHOScore>
0.9968

> <Gold.PLP.Chemscore.Metal>
0.0000

> <Gold.Chemscore.Hbonds>
donor molecule, donor type, donor heavy atom, donor atom, acceptor molecule, acceptor atom, score
      P1  H  6896  6908       L1    16  0.76
      P1  H  7989  7998       L1    11  1.00
      P1  H  7997  8008       L1    12  1.00
      L1  C     5    25       P1  8029  0.87

> <Gold.PLP.Chemscore.Internal.Correction>
1.5629

> <Gold.Rescore>
     Score         DG    S(hbond)    S(metal)    S(lipo)     H(rot)  DE(clash)    DE(int)     intcor
     15.40     -18.98       2.91        0.00      68.72       1.67       0.02       3.56       ----

> <Gold.Chemscore.Fitness>
15.3969

> <Gold.Chemscore.DG>
-18.9807

> <Gold.Chemscore.ZeroCoef>
-5.4800

> <Gold.Chemscore.Hbond>
2.9140

> <Gold.Chemscore.Metal>
0.0000

> <Gold.Chemscore.Lipo>
68.7187

> <Gold.Chemscore.Internal_Hbond>
0.0000

> <Gold.Chemscore.DEClash>
0.0224

> <Gold.Chemscore.DEInternal>
3.5615

> <Gold.Chemscore.Rot>
1.6688

> <Gold.Chemscore.Internal.Correction>
   9.000000E+99

> <Gold.Chemscore.Hbonds>
donor molecule, donor type, donor heavy atom, donor atom, acceptor molecule, acceptor atom, score
      P1  H  6896  6908       L1    16  0.47
      P1  H  7989  7998       L1    11  1.00
      P1  H  7997  8008       L1    12  1.00

> <Gold.Chemscore.Hbond.Weighted>
-9.7329

> <Gold.Chemscore.Metal.Weighted>
-0.0000

> <Gold.Chemscore.Lipo.Weighted>
-8.0401

> <Gold.Chemscore.Internal_Hbond.Weighted>
0.0000

> <Gold.Chemscore.DEClash.Weighted>
0.0224

> <Gold.Chemscore.DEInternal.Weighted>
3.5615

> <Gold.Chemscore.Rot.Weighted>
4.2722

> <Gold.Chemscore.Internal.Correction.Weighted>
   9.000000E+99

> <Gold.Protein.RotatedTorsions>
[ 6907 6896 6895 6894 ] final  171.58 input  -60.11 | X-H torsion
[ 7974 7965 7964 7962 ] final  132.34 input  175.53 | X-H torsion
[ 8008 7997 7996 7995 ] final  -45.06 input   59.86 | X-H torsion
[ 10167 10162 10161 10158 ] final  160.37 input  -65.29 | X-H torsion
[ 10718 10713 10712 10709 ] final  136.11 input   66.30 | X-H torsion
[ 10763 10752 10751 10750 ] final  164.56 input  -60.55 | X-H torsion
[ 11005 11000 10999 10996 ] final   -7.58 input  -57.11 | X-H torsion

> <Gold.Protein.ActiveResidues>
 VAL166  LYS551  ARG553  GLY616  TRP617  ASP618  TYR619  PRO620  LYS621  CYS622 
 ASP623  PHE694  ASN695  SER759  ASP760  ASP761  ALA762  ILE779  LEU786  VAL792 
 PHE793  MET794  SER795  GLU796  ALA797  LYS798  CYS799  TRP800  GLU811  SER814 

> <Gold.Protein.RotatedAtoms>
  151.7980  133.3366  159.3518 H   0  0  0  0  0  0  0  0  0  0  0  0  # atno 6907 bound_to 6896
  150.7368  134.5780  159.5933 H   0  0  0  0  0  0  0  0  0  0  0  0  # atno 6908 bound_to 6896
  152.3163  134.7437  160.0376 H   0  0  0  0  0  0  0  0  0  0  0  0  # atno 6909 bound_to 6896
  144.9979  139.4341  143.5307 H   0  0  0  0  0  0  0  0  0  0  0  0  # atno 7974 bound_to 7965
  154.3999  140.1406  156.3785 H   0  0  0  0  0  0  0  0  0  0  0  0  # atno 8008 bound_to 7997
  155.8026  140.3475  155.5390 H   0  0  0  0  0  0  0  0  0  0  0  0  # atno 8009 bound_to 7997
  155.8468  140.0935  157.1690 H   0  0  0  0  0  0  0  0  0  0  0  0  # atno 8010 bound_to 7997
  139.4839  144.4641  151.8665 H   0  0  0  0  0  0  0  0  0  0  0  0  # atno 10167 bound_to 10162
  157.4501  131.1065  151.0043 H   0  0  0  0  0  0  0  0  0  0  0  0  # atno 10718 bound_to 10713
  154.3107  135.2757  155.2567 H   0  0  0  0  0  0  0  0  0  0  0  0  # atno 10763 bound_to 10752
  154.4963  135.5820  153.6501 H   0  0  0  0  0  0  0  0  0  0  0  0  # atno 10764 bound_to 10752
  152.9888  135.6147  154.3284 H   0  0  0  0  0  0  0  0  0  0  0  0  # atno 10765 bound_to 10752
  140.7142  133.8883  155.8773 H   0  0  0  0  0  0  0  0  0  0  0  0  # atno 11005 bound_to 11000
  146.3446  139.9350  142.8748 LP  0  0  0  0  0  0  0  0  0  0  0  0  # atno 17320 bound_to 7965
  145.2194  140.9929  143.4054 LP  0  0  0  0  0  0  0  0  0  0  0  0  # atno 17321 bound_to 7965
  140.4105  144.2375  150.5889 LP  0  0  0  0  0  0  0  0  0  0  0  0  # atno 17342 bound_to 10162
  140.4971  143.2329  151.8734 LP  0  0  0  0  0  0  0  0  0  0  0  0  # atno 17343 bound_to 10162
  157.0876  130.5929  149.5433 LP  0  0  0  0  0  0  0  0  0  0  0  0  # atno 17370 bound_to 10713
  155.9983  130.5057  150.7568 LP  0  0  0  0  0  0  0  0  0  0  0  0  # atno 17371 bound_to 10713
  141.0058  134.1088  157.4271 LP  0  0  0  0  0  0  0  0  0  0  0  0  # atno 17394 bound_to 11000
  139.8864  135.0081  156.6495 LP  0  0  0  0  0  0  0  0  0  0  0  0  # atno 17395 bound_to 11000

$$$$
