#       Name:                AV-unprocessed.smi:2079
#       Creating user name   scv26
#       Creation time:       Fri Mar 27 11:18:53 2020


#       File generated by GOLD software.
#

@<TRIPOS>MOLECULE
AV-unprocessed.smi:2079
    47    48     1
SMALL
NO_CHARGES


@<TRIPOS>ATOM
      1 ****        -5.6943   3.2314  -1.0968 C.3            1 S1                 0.0000
      2 ****        -4.2698   2.8251  -0.9297 C.2            1 S1                 0.0000
      3 ****        -3.3036   2.4471  -1.8187 C.2            1 S1                 0.0000
      4 ****        -2.1791   2.2023  -0.9864 C.2            1 S1                 0.0000
      5 ****        -0.9452   1.7752  -1.5437 N.am           1 S1                 0.0000
      6 ****         0.2222   1.5365  -0.9196 C.2            1 S1                 0.0000
      7 ****         0.3308   1.7225   0.2983 O.2            1 S1                 0.0000
      8 ****         1.1798   1.0780  -1.7723 N.pl3          1 S1                -1.0000
      9 ****         2.5642   0.7737  -1.4013 C.3            1 S1                 0.0000
     10 ****         2.7087  -0.7016  -0.9644 C.3            1 S1                 0.0000
     11 ****         1.9687  -0.9962   0.2995 N.4            1 S1                 1.0000
     12 ****         2.8816  -0.9639   1.4796 C.3            1 S1                 0.0000
     13 ****         2.1232  -1.1098   2.8034 C.3            1 S1                 0.0000
     14 ****         1.3303  -2.4157   2.8105 C.3            1 S1                 0.0000
     15 ****         0.3809  -2.4320   1.6105 C.3            1 S1                 0.0000
     16 ****         1.1160  -2.2303   0.2649 C.3            1 S1                 0.0000
     17 ****         0.0482  -2.1983  -0.8513 C.3            1 S1                 0.0000
     18 ****        -2.4381   2.4072   0.2967 N.2            1 S1                 0.0000
     19 ****        -3.7782   2.8095   0.3392 O.3            1 S1                 0.0000
     20 ****        -6.2492   2.4732  -1.6493 H              1 S1                 0.0000
     21 ****        -5.7649   4.1701  -1.6464 H              1 S1                 0.0000
     22 ****        -6.1811   3.3684  -0.1309 H              1 S1                 0.0000
     23 ****        -3.3884   2.3627  -2.8918 H              1 S1                 0.0000
     24 ****        -0.9477   1.6229  -2.5414 H              1 S1                 0.0000
     25 ****         3.2330   0.9471  -2.2440 H              1 S1                 0.0000
     26 ****         2.9346   1.4213  -0.6056 H              1 S1                 0.0000
     27 ****         2.4034  -1.3471  -1.7847 H              1 S1                 0.0000
     28 ****         3.7671  -0.9297  -0.8300 H              1 S1                 0.0000
     29 ****         3.6202  -1.7621   1.3885 H              1 S1                 0.0000
     30 ****         3.4355  -0.0244   1.4936 H              1 S1                 0.0000
     31 ****         2.8237  -1.0935   3.6389 H              1 S1                 0.0000
     32 ****         1.4509  -0.2617   2.9419 H              1 S1                 0.0000
     33 ****         2.0090  -3.2682   2.7630 H              1 S1                 0.0000
     34 ****         0.7670  -2.5109   3.7393 H              1 S1                 0.0000
     35 ****        -0.1673  -3.3749   1.5987 H              1 S1                 0.0000
     36 ****        -0.3659  -1.6468   1.7394 H              1 S1                 0.0000
     37 ****         1.7730  -3.0849   0.0955 H              1 S1                 0.0000
     38 ****        -0.5969  -3.0752  -0.7913 H              1 S1                 0.0000
     39 ****         0.4679  -2.2003  -1.8553 H              1 S1                 0.0000
     40 ****        -0.5929  -1.3212  -0.7604 H              1 S1                 0.0000
     41 ****         1.3247  -0.2249   0.4125 H              1 S1                 0.0000
     42 ****        -0.4523   2.0524   0.8255 LP             1 S1                 0.0000
     43 ****         1.2016   1.5430   0.7559 LP             1 S1                 0.0000
     44 ****         0.9174   0.9379  -2.7270 LP             1 S1                 0.0000
     45 ****        -1.8115   2.2980   1.0683 LP             1 S1                 0.0000
     46 ****        -4.3048   2.1672   0.8962 LP             1 S1                 0.0000
     47 ****        -3.8422   3.7251   0.7361 LP             1 S1                 0.0000
@<TRIPOS>BOND
    1    1    2 1     
    2    1   20 1     
    3    1   21 1     
    4    1   22 1     
    5    2   19 1     
    6    2    3 2     
    7    3    4 1     
    8    3   23 1     
    9    4    5 1     
   10    4   18 2     
   11    5    6 am    
   12    5   24 1     
   13    6    7 2     
   14    6    8 1     
   15    8    9 1     
   16    9   10 1     
   17    9   25 1     
   18    9   26 1     
   19   10   11 1     
   20   10   27 1     
   21   10   28 1     
   22   11   16 1     
   23   11   12 1     
   24   11   41 1     
   25   12   13 1     
   26   12   29 1     
   27   12   30 1     
   28   13   14 1     
   29   13   31 1     
   30   13   32 1     
   31   14   15 1     
   32   14   33 1     
   33   14   34 1     
   34   15   16 1     
   35   15   35 1     
   36   15   36 1     
   37   16   17 1     
   38   16   37 1     
   39   17   38 1     
   40   17   39 1     
   41   17   40 1     
   42   18   19 1     
   43    7   42 1     
   44    7   43 1     
   45    8   44 1     
   46   18   45 1     
   47   19   46 1     
   48   19   47 1     
@<TRIPOS>SUBSTRUCTURE
      1 S1             1
@<TRIPOS>SET
LONE_PAIRS      STATIC     ATOMS    <user>   **** ""
6 42 43 44 45 46 47
DONOR_HYDROGENS      STATIC     ATOMS    <user>   **** ""
2 24 41
ATOM$BLUE        STATIC     ATOMS    COLORGROUP SYSTEM
6 42 43 44 45 46 47
ATOM$RED        STATIC     ATOMS    COLORGROUP SYSTEM
2 24 41
