#       Name:                AV-unprocessed.smi:1403
#       Creating user name   scv26
#       Creation time:       Fri Mar 27 05:32:47 2020


#       File generated by GOLD software.
#

@<TRIPOS>MOLECULE
AV-unprocessed.smi:1403
    44    45     1
SMALL
NO_CHARGES


@<TRIPOS>ATOM
      1 ****        -2.1224  -1.4652  -1.8989 C.3            1 S1                 0.0000
      2 ****        -1.5933  -0.8423  -0.5958 C.3            1 S1                 0.0000
      3 ****        -0.1332  -0.8761  -0.5986 N.am           1 S1                 0.0000
      4 ****         0.6685   0.0865  -1.0792 C.2            1 S1                 0.0000
      5 ****         0.2476   1.1128  -1.6145 O.2            1 S1                 0.0000
      6 ****         2.1775  -0.1653  -0.9585 C.3            1 S1                 0.0000
      7 ****         2.9405   1.0718  -0.7400 N.am           1 S1                 0.0000
      8 ****         3.5747   1.7030  -1.8007 C.2            1 S1                 0.0000
      9 ****         4.2829   2.8498  -1.6701 C.2            1 S1                 0.0000
     10 ****         4.4147   3.4924  -0.3668 C.2            1 S1                 0.0000
     11 ****         5.0363   4.5295  -0.1469 O.2            1 S1                 0.0000
     12 ****         3.7608   2.8284   0.6744 N.am           1 S1                 0.0000
     13 ****         3.0274   1.6479   0.5462 C.2            1 S1                 0.0000
     14 ****         2.4853   1.1469   1.5307 O.2            1 S1                 0.0000
     15 ****        -2.1131  -1.5702   0.6592 C.3            1 S1                 0.0000
     16 ****        -3.6346  -1.5444   0.8268 C.3            1 S1                 0.0000
     17 ****        -3.7864  -1.6735   2.3246 C.3            1 S1                 0.0000
     18 ****        -2.6283  -0.8162   2.8206 C.3            1 S1                 0.0000
     19 ****        -1.6040  -0.9479   1.8395 O.3            1 S1                 0.0000
     20 ****         3.8218   3.2374   1.5954 H              1 S1                 0.0000
     21 ****        -3.2100  -1.4158  -1.9503 H              1 S1                 0.0000
     22 ****        -1.8322  -2.5129  -1.9846 H              1 S1                 0.0000
     23 ****        -1.7344  -0.9398  -2.7722 H              1 S1                 0.0000
     24 ****        -1.9288   0.1952  -0.5458 H              1 S1                 0.0000
     25 ****         0.3012  -1.6850  -0.1785 H              1 S1                 0.0000
     26 ****         2.3795  -0.8779  -0.1558 H              1 S1                 0.0000
     27 ****         2.5099  -0.6605  -1.8720 H              1 S1                 0.0000
     28 ****         3.5005   1.2648  -2.7858 H              1 S1                 0.0000
     29 ****         4.7533   3.2948  -2.5350 H              1 S1                 0.0000
     30 ****        -1.7730  -2.6072   0.6638 H              1 S1                 0.0000
     31 ****        -4.0443  -0.5894   0.4944 H              1 S1                 0.0000
     32 ****        -4.1372  -2.3415   0.2779 H              1 S1                 0.0000
     33 ****        -4.7559  -1.3347   2.6906 H              1 S1                 0.0000
     34 ****        -3.6465  -2.7117   2.6286 H              1 S1                 0.0000
     35 ****        -2.9254   0.2320   2.8709 H              1 S1                 0.0000
     36 ****        -2.2778  -1.1170   3.8081 H              1 S1                 0.0000
     37 ****        -0.7371   1.2603  -1.7081 LP             1 S1                 0.0000
     38 ****         0.8905   1.7986  -1.9557 LP             1 S1                 0.0000
     39 ****         5.5030   5.0010  -0.8952 LP             1 S1                 0.0000
     40 ****         5.0753   4.9020   0.7803 LP             1 S1                 0.0000
     41 ****         1.9599   0.3013   1.4360 LP             1 S1                 0.0000
     42 ****         2.5701   1.5854   2.4254 LP             1 S1                 0.0000
     43 ****        -1.2533  -0.0407   1.6071 LP             1 S1                 0.0000
     44 ****        -0.8628  -1.5065   2.2116 LP             1 S1                 0.0000
@<TRIPOS>BOND
    1    1    2 1     
    2    1   21 1     
    3    1   22 1     
    4    1   23 1     
    5    2    3 1     
    6    2   15 1     
    7    2   24 1     
    8    3    4 am    
    9    3   25 1     
   10    4    5 2     
   11    4    6 1     
   12    6    7 1     
   13    6   26 1     
   14    6   27 1     
   15    7   13 1     
   16    7    8 1     
   17    8    9 2     
   18    8   28 1     
   19    9   10 1     
   20    9   29 1     
   21   10   11 2     
   22   10   12 1     
   23   12   20 1     
   24   12   13 1     
   25   13   14 2     
   26   15   19 1     
   27   15   16 1     
   28   15   30 1     
   29   16   17 1     
   30   16   31 1     
   31   16   32 1     
   32   17   18 1     
   33   17   33 1     
   34   17   34 1     
   35   18   19 1     
   36   18   35 1     
   37   18   36 1     
   38    5   37 1     
   39    5   38 1     
   40   11   39 1     
   41   11   40 1     
   42   14   41 1     
   43   14   42 1     
   44   19   43 1     
   45   19   44 1     
@<TRIPOS>SUBSTRUCTURE
      1 S1             1
@<TRIPOS>SET
LONE_PAIRS      STATIC     ATOMS    <user>   **** ""
8 37 38 39 40 41 42 43 44
DONOR_HYDROGENS      STATIC     ATOMS    <user>   **** ""
2 25 20
ATOM$BLUE        STATIC     ATOMS    COLORGROUP SYSTEM
8 37 38 39 40 41 42 43 44
ATOM$RED        STATIC     ATOMS    COLORGROUP SYSTEM
2 25 20
