AV-unprocessed.smi:40|AV-procd|sdf|368|dock9
  -GOLD-   2262016213D 1   1.00000     0.00000
 Structure written by MMmdl.
 47 48  0  0  0  0  0  0  0  0  1 V2000
  152.1117  143.4943  158.8411 C   0  0  0  0  0  0  0  0  0  0  0  0
  151.1999  143.2281  157.6359 C   0  0  0  0  0  0  0  0  0  0  0  0
  150.9310  141.7361  157.3795 C   0  0  0  0  0  0  0  0  0  0  0  0
  150.2855  141.4490  156.0120 C   0  0  0  0  0  0  0  0  0  0  0  0
  150.3994  139.9775  155.5915 C   0  0  0  0  0  0  0  0  0  0  0  0
  149.1033  139.4376  155.3941 O   0  0  0  0  0  0  0  0  0  0  0  0
  148.9501  138.1917  154.9114 C   0  0  0  0  0  0  0  0  0  0  0  0
  149.8785  137.4021  154.7403 O   0  0  0  0  0  0  0  0  0  0  0  0
  147.5621  137.9095  154.5808 N   0  0  0  0  0  0  0  0  0  0  0  0
  147.0093  136.7790  154.0752 C   0  0  0  0  0  0  0  0  0  0  0  0
  147.1804  135.5867  154.6253 N   0  0  0  0  0  0  0  0  0  0  0  0
  146.6483  134.4289  154.1257 C   0  0  0  0  0  0  0  0  0  0  0  0
  146.8497  133.3506  154.6831 O   0  0  0  0  0  0  0  0  0  0  0  0
  145.8723  134.5251  152.9475 N   0  0  0  0  0  0  0  0  0  0  0  0
  145.2807  133.2553  152.3703 C   0  0  1  0  0  0  0  0  0  0  0  0
  144.4133  133.5803  151.3209 O   0  0  0  0  0  0  0  0  0  0  0  0
  144.9393  133.1069  150.0848 C   0  0  2  0  0  0  0  0  0  0  0  0
  143.7987  132.8433  149.0953 C   0  0  0  0  0  0  0  0  0  0  0  0
  145.7161  131.8580  150.4944 C   0  0  1  0  0  0  0  0  0  0  0  0
  146.6588  131.4504  149.5208 O   0  0  0  0  0  0  0  0  0  0  0  0
  146.3489  132.2838  151.8149 C   0  0  1  0  0  0  0  0  0  0  0  0
  147.6232  132.8833  151.6295 O   0  0  0  0  0  0  0  0  0  0  0  0
  145.6983  135.7607  152.3411 C   0  0  0  0  0  0  0  0  0  0  0  0
  146.2368  136.8871  152.8556 C   0  0  0  0  0  0  0  0  0  0  0  0
  146.0564  138.0729  152.2486 F   0  0  0  0  0  0  0  0  0  0  0  0
  144.6722  132.8161  153.1624 H   0  0  0  0  0  0  0  0  0  0  0  0
  145.6219  133.8560  149.6810 H   0  0  0  0  0  0  0  0  0  0  0  0
  145.0203  131.0386  150.6808 H   0  0  0  0  0  0  0  0  0  0  0  0
  146.4633  131.4395  152.4955 H   0  0  0  0  0  0  0  0  0  0  0  0
  152.3162  144.5604  158.9416 H   0  0  0  0  0  0  0  0  0  0  0  0
  153.0683  142.9829  158.7312 H   0  0  0  0  0  0  0  0  0  0  0  0
  151.6554  143.1599  159.7723 H   0  0  0  0  0  0  0  0  0  0  0  0
  150.2555  143.7590  157.7614 H   0  0  0  0  0  0  0  0  0  0  0  0
  151.6693  143.6546  156.7489 H   0  0  0  0  0  0  0  0  0  0  0  0
  151.8812  141.2038  157.4400 H   0  0  0  0  0  0  0  0  0  0  0  0
  150.3077  141.3318  158.1780 H   0  0  0  0  0  0  0  0  0  0  0  0
  149.2294  141.7154  156.0426 H   0  0  0  0  0  0  0  0  0  0  0  0
  150.7394  142.0813  155.2480 H   0  0  0  0  0  0  0  0  0  0  0  0
  150.9844  139.8879  154.6753 H   0  0  0  0  0  0  0  0  0  0  0  0
  150.9160  139.4114  156.3677 H   0  0  0  0  0  0  0  0  0  0  0  0
  146.9276  138.6629  154.8029 H   0  0  0  0  0  0  0  0  0  0  0  0
  144.1817  132.4550  148.1514 H   0  0  0  0  0  0  0  0  0  0  0  0
  143.2515  133.7613  148.8808 H   0  0  0  0  0  0  0  0  0  0  0  0
  143.0892  132.1170  149.4930 H   0  0  0  0  0  0  0  0  0  0  0  0
  147.5201  131.4754  149.9092 H   0  0  0  0  0  0  0  0  0  0  0  0
  148.0964  132.3827  150.9829 H   0  0  0  0  0  0  0  0  0  0  0  0
  145.1255  135.8487  151.4307 H   0  0  0  0  0  0  0  0  0  0  0  0
  1  2  1  0  0  0  0
  1 30  1  0  0  0  0
  1 31  1  0  0  0  0
  1 32  1  0  0  0  0
  2  3  1  0  0  0  0
  2 33  1  0  0  0  0
  2 34  1  0  0  0  0
  3  4  1  0  0  0  0
  3 35  1  0  0  0  0
  3 36  1  0  0  0  0
  4  5  1  0  0  0  0
  4 37  1  0  0  0  0
  4 38  1  0  0  0  0
  5  6  1  0  0  0  0
  5 39  1  0  0  0  0
  5 40  1  0  0  0  0
  6  7  1  0  0  0  0
  7  8  2  0  0  0  0
  7  9  1  0  0  0  0
  9 10  1  0  0  0  0
  9 41  1  0  0  0  0
 10 24  1  0  0  0  0
 10 11  2  0  0  0  0
 11 12  1  0  0  0  0
 12 13  2  0  0  0  0
 12 14  1  0  0  0  0
 14 15  1  0  0  0  0
 14 23  1  0  0  0  0
 15 26  1  0  0  0  0
 15 21  1  0  0  0  0
 15 16  1  0  0  0  0
 16 17  1  0  0  0  0
 17 27  1  0  0  0  0
 17 18  1  0  0  0  0
 17 19  1  0  0  0  0
 18 42  1  0  0  0  0
 18 43  1  0  0  0  0
 18 44  1  0  0  0  0
 19 28  1  0  0  0  0
 19 20  1  0  0  0  0
 19 21  1  0  0  0  0
 20 45  1  0  0  0  0
 21 29  1  0  0  0  0
 21 22  1  0  0  0  0
 22 46  1  0  0  0  0
 23 24  2  0  0  0  0
 23 47  1  0  0  0  0
 24 25  1  0  0  0  0
M  END
> <s_m_source_file>
AV-unprocessed.smi

> <i_m_source_file_index>
40

> <i_lp_mmshare_version>
43012

> <i_f3d_flags>
0

> <s_epik_input>
W0NIM11bQ0gyXVtDSDJdW0NIMl1bQ0gyXU9DKD1PKVtOSF1jMW5jKD1PKW4oW2NIXWMxRilbQ0BASF0yT1tDQEhdKFtDSDNdKVtDQEBIXShbT0hdKVtDQEhdMltPSF0=

> <s_epik_cmdline>
J2VwaWtfcHl0aG9uJywgJy1waCcsICc3LjAnLCAnLXRuJywgJzgnLCAnLW1hJywgJzIwMCcsICctbWV0YWxfYmluZGluZycsICctaW1hZScsICc8aW5maWxlLm1hZT4nLCAnLW9tYWUnLCAnPG91dGZpbGUubWFlPic=

> <r_lp_tautomer_probability>
1

> <r_epik_Ionization_Penalty>
2.29506e-06

> <r_epik_Ionization_Penalty_Charging>
8.26867e-09

> <r_epik_Ionization_Penalty_Neutral>
2.2868e-06

> <r_epik_State_Penalty>
-0

> <r_epik_Charging_Adjusted_Penalty>
8.26867e-09

> <i_epik_Tot_Q>
0

> <i_epik_Tot_abs_Q>
0

> <r_epik_Metal_State_Penalty>
-0

> <b_epik_Metal_Only>
0

> <s_epik_Chemistry_Notes>
This compound has an ester and may undergo hydrolysis at high or low pH. This compound contains an acetal/aminal-like group ( X-CH(R)-Y where X, Y are N, S, or O) that may be acid/base labile, releasing an aldehyde.

> <s_lp_Force_Field>
OPLS_2005

> <r_lp_Energy>
42.3286

> <b_lp_Chiralities_Consistent>
1

> <s_lp_Variant>
AV-unprocessed.smi:40-2

> <Gold.Version>
5.8.1

> <Gold.Id.Protein>
6NUR|6NUR_protein|mol2

> <Gold.PLP.Fitness>
38.2791

> <Gold.PLP.PLP>
-34.5714

> <Gold.PLP.part.hbond>
-1.6603

> <Gold.PLP.part.metal>
0.0000

> <Gold.PLP.part.buried>
-1.1010

> <Gold.PLP.part.nonpolar>
-33.4910

> <Gold.PLP.part.repulsive>
0.5231

> <Gold.PLP.ligand.clash>
0.0000

> <Gold.PLP.ligand.torsion>
1.1906

> <Gold.PLP.Chemscore.Hbond>
2.0000

> <Gold.PLP.Chemscore.CHOScore>
0.0000

> <Gold.PLP.Chemscore.Metal>
0.0000

> <Gold.Chemscore.Hbonds>
donor molecule, donor type, donor heavy atom, donor atom, acceptor molecule, acceptor atom, score
      L1  H    20    45       P1 10747  1.00
      L1  H    22    46       P1 10747  1.00

> <Gold.PLP.Chemscore.Internal.Correction>
0.0889

> <Gold.Rescore>
     Score         DG    S(hbond)    S(metal)    S(lipo)     H(rot)  DE(clash)    DE(int)     intcor
     10.70     -12.74       1.90        0.00      88.53       3.70       0.77       1.27       ----

> <Gold.Chemscore.Fitness>
10.6999

> <Gold.Chemscore.DG>
-12.7360

> <Gold.Chemscore.ZeroCoef>
-5.4800

> <Gold.Chemscore.Hbond>
1.9038

> <Gold.Chemscore.Metal>
0.0000

> <Gold.Chemscore.Lipo>
88.5332

> <Gold.Chemscore.Internal_Hbond>
0.0000

> <Gold.Chemscore.DEClash>
0.7661

> <Gold.Chemscore.DEInternal>
1.2700

> <Gold.Chemscore.Rot>
3.6957

> <Gold.Chemscore.Internal.Correction>
   9.000000E+99

> <Gold.Chemscore.Hbonds>
donor molecule, donor type, donor heavy atom, donor atom, acceptor molecule, acceptor atom, score
      L1  H    20    45       P1 10747  0.96
      L1  H    22    46       P1 10747  0.99

> <Gold.Chemscore.Hbond.Weighted>
-6.3586

> <Gold.Chemscore.Metal.Weighted>
-0.0000

> <Gold.Chemscore.Lipo.Weighted>
-10.3584

> <Gold.Chemscore.Internal_Hbond.Weighted>
0.0000

> <Gold.Chemscore.DEClash.Weighted>
0.7661

> <Gold.Chemscore.DEInternal.Weighted>
1.2700

> <Gold.Chemscore.Rot.Weighted>
9.4610

> <Gold.Chemscore.Internal.Correction.Weighted>
   9.000000E+99

> <Gold.Protein.RotatedTorsions>
[ 6907 6896 6895 6894 ] final  102.06 input  -60.11 | X-H torsion
[ 7974 7965 7964 7962 ] final  -54.93 input  175.53 | X-H torsion
[ 8008 7997 7996 7995 ] final  -51.89 input   59.86 | X-H torsion
[ 10167 10162 10161 10158 ] final  115.77 input  -65.29 | X-H torsion
[ 10718 10713 10712 10709 ] final  -21.19 input   66.30 | X-H torsion
[ 10763 10752 10751 10750 ] final   -9.21 input  -60.55 | X-H torsion
[ 11005 11000 10999 10996 ] final  131.46 input  -57.11 | X-H torsion

> <Gold.Protein.ActiveResidues>
 VAL166  LYS551  ARG553  GLY616  TRP617  ASP618  TYR619  PRO620  LYS621  CYS622 
 ASP623  PHE694  ASN695  SER759  ASP760  ASP761  ALA762  ILE779  LEU786  VAL792 
 PHE793  MET794  SER795  GLU796  ALA797  LYS798  CYS799  TRP800  GLU811  SER814 

> <Gold.Protein.RotatedAtoms>
  152.5333  134.0032  159.7904 H   0  0  0  0  0  0  0  0  0  0  0  0  # atno 6907 bound_to 6896
  151.0247  133.5836  159.2674 H   0  0  0  0  0  0  0  0  0  0  0  0  # atno 6908 bound_to 6896
  151.2863  135.0736  159.9241 H   0  0  0  0  0  0  0  0  0  0  0  0  # atno 6909 bound_to 6896
  145.8800  140.8152  142.9845 H   0  0  0  0  0  0  0  0  0  0  0  0  # atno 7974 bound_to 7965
  154.4093  140.1237  156.4902 H   0  0  0  0  0  0  0  0  0  0  0  0  # atno 8008 bound_to 7997
  155.6997  140.3495  155.4908 H   0  0  0  0  0  0  0  0  0  0  0  0  # atno 8009 bound_to 7997
  155.9396  140.1084  157.1057 H   0  0  0  0  0  0  0  0  0  0  0  0  # atno 8010 bound_to 7997
  139.6294  144.7113  151.2464 H   0  0  0  0  0  0  0  0  0  0  0  0  # atno 10167 bound_to 10162
  156.5216  130.4633  149.6594 H   0  0  0  0  0  0  0  0  0  0  0  0  # atno 10718 bound_to 10713
  153.4515  135.7015  153.6106 H   0  0  0  0  0  0  0  0  0  0  0  0  # atno 10763 bound_to 10752
  153.4438  135.3774  155.2244 H   0  0  0  0  0  0  0  0  0  0  0  0  # atno 10764 bound_to 10752
  154.8728  135.3980  154.3928 H   0  0  0  0  0  0  0  0  0  0  0  0  # atno 10765 bound_to 10752
  139.9731  134.9571  156.9441 H   0  0  0  0  0  0  0  0  0  0  0  0  # atno 11005 bound_to 11000
  144.6727  140.1369  143.7440 LP  0  0  0  0  0  0  0  0  0  0  0  0  # atno 17320 bound_to 7965
  145.9035  139.2444  143.1479 LP  0  0  0  0  0  0  0  0  0  0  0  0  # atno 17321 bound_to 7965
  140.7430  143.6508  150.8250 LP  0  0  0  0  0  0  0  0  0  0  0  0  # atno 17342 bound_to 10162
  140.0131  143.5622  152.2831 LP  0  0  0  0  0  0  0  0  0  0  0  0  # atno 17343 bound_to 10162
  156.3144  130.7246  151.2146 LP  0  0  0  0  0  0  0  0  0  0  0  0  # atno 17370 bound_to 10713
  157.7436  131.0472  150.4934 LP  0  0  0  0  0  0  0  0  0  0  0  0  # atno 17371 bound_to 10713
  140.5251  134.0869  155.7301 LP  0  0  0  0  0  0  0  0  0  0  0  0  # atno 17394 bound_to 11000
  141.1410  133.9138  157.2325 LP  0  0  0  0  0  0  0  0  0  0  0  0  # atno 17395 bound_to 11000

$$$$
