#       Name:                AV-unprocessed.smi:53
#       Creating user name   scv26
#       Creation time:       Thu Mar 26 16:38:59 2020


#       File generated by GOLD software.
#

@<TRIPOS>MOLECULE
AV-unprocessed.smi:53
    41    42     1
SMALL
NO_CHARGES


@<TRIPOS>ATOM
      1 ****        -5.0405  -0.5014   0.1574 N.pl3          1 S1                 0.0000
      2 ****        -3.7032  -0.5928   0.1757 C.2            1 S1                 0.0000
      3 ****        -2.8996   0.5369   0.5852 C.2            1 S1                 0.0000
      4 ****        -1.5587   0.3684   0.5781 C.2            1 S1                 0.0000
      5 ****        -0.9656  -0.8287   0.1972 N.am           1 S1                 0.0000
      6 ****         0.5410  -1.0224   0.1912 C.3            1 S1                 0.0000
      7 ****         1.1482  -0.0460   0.9869 O.3            1 S1                 0.0000
      8 ****         1.8219   0.9060   0.1691 C.3            1 S1                 0.0000
      9 ****         2.9162   1.6446   0.9591 C.3            1 S1                 0.0000
     10 ****         2.3505   2.7107   1.6909 O.3            1 S1                 0.0000
     11 ****         2.3149   0.0563  -1.0082 C.3            1 S1                 0.0000
     12 ****         3.5026  -0.6410  -0.6763 O.3            1 S1                 0.0000
     13 ****         1.1654  -0.9191  -1.2233 C.3            1 S1                 0.0000
     14 ****         0.2834  -0.4008  -2.2048 O.3            1 S1                 0.0000
     15 ****        -1.7807  -1.9159  -0.2003 C.2            1 S1                 0.0000
     16 ****        -1.2961  -2.9891  -0.5578 O.2            1 S1                 0.0000
     17 ****        -3.1367  -1.7276  -0.1858 N.2            1 S1                 0.0000
     18 ****         0.7178  -1.9864   0.6723 H              1 S1                 0.0000
     19 ****         1.0948   1.6220  -0.2184 H              1 S1                 0.0000
     20 ****         2.5199   0.6652  -1.8900 H              1 S1                 0.0000
     21 ****         1.5053  -1.9027  -1.5506 H              1 S1                 0.0000
     22 ****        -5.5989  -1.2924  -0.1296 H              1 S1                 0.0000
     23 ****        -5.4883   0.3616   0.4309 H              1 S1                 0.0000
     24 ****        -3.3192   1.4856   0.8885 H              1 S1                 0.0000
     25 ****        -0.9553   1.2096   0.8831 H              1 S1                 0.0000
     26 ****         3.4495   0.9688   1.6284 H              1 S1                 0.0000
     27 ****         3.6491   2.0734   0.2749 H              1 S1                 0.0000
     28 ****         3.0400   3.1471   2.1677 H              1 S1                 0.0000
     29 ****         4.1909  -0.0106  -0.5297 H              1 S1                 0.0000
     30 ****        -0.4670  -0.9733  -2.2602 H              1 S1                 0.0000
     31 ****         1.8083  -0.4819   1.5985 LP             1 S1                 0.0000
     32 ****         0.4489   0.4202   1.5289 LP             1 S1                 0.0000
     33 ****         1.6697   2.3560   2.3317 LP             1 S1                 0.0000
     34 ****         1.9137   3.3557   1.0638 LP             1 S1                 0.0000
     35 ****         3.7573  -1.2494  -1.4279 LP             1 S1                 0.0000
     36 ****         3.3565  -1.1795   0.1535 LP             1 S1                 0.0000
     37 ****         0.7466  -0.3635  -3.0903 LP             1 S1                 0.0000
     38 ****        -0.0109   0.5186  -1.9437 LP             1 S1                 0.0000
     39 ****        -0.3035  -3.1093  -0.5725 LP             1 S1                 0.0000
     40 ****        -1.8950  -3.7409  -0.8337 LP             1 S1                 0.0000
     41 ****        -3.7258  -2.4868  -0.4626 LP             1 S1                 0.0000
@<TRIPOS>BOND
    1    1    2 1     
    2    1   22 1     
    3    1   23 1     
    4    2   17 2     
    5    2    3 1     
    6    3    4 2     
    7    3   24 1     
    8    4    5 1     
    9    4   25 1     
   10    5    6 1     
   11    5   15 am    
   12    6   18 1     
   13    6   13 1     
   14    6    7 1     
   15    7    8 1     
   16    8   19 1     
   17    8    9 1     
   18    8   11 1     
   19    9   10 1     
   20    9   26 1     
   21    9   27 1     
   22   10   28 1     
   23   11   20 1     
   24   11   12 1     
   25   11   13 1     
   26   12   29 1     
   27   13   21 1     
   28   13   14 1     
   29   14   30 1     
   30   15   16 2     
   31   15   17 1     
   32    7   31 1     
   33    7   32 1     
   34   10   33 1     
   35   10   34 1     
   36   12   35 1     
   37   12   36 1     
   38   14   37 1     
   39   14   38 1     
   40   16   39 1     
   41   16   40 1     
   42   17   41 1     
@<TRIPOS>SUBSTRUCTURE
      1 S1             1
@<TRIPOS>SET
LONE_PAIRS      STATIC     ATOMS    <user>   **** ""
11 31 32 33 34 35 36 37 38 39 40 41
DONOR_HYDROGENS      STATIC     ATOMS    <user>   **** ""
5 22 23 28 29 30
ATOM$BLUE        STATIC     ATOMS    COLORGROUP SYSTEM
11 31 32 33 34 35 36 37 38 39 40 41
ATOM$RED        STATIC     ATOMS    COLORGROUP SYSTEM
5 22 23 28 29 30
