AV-unprocessed.smi:9|AV-procd|sdf|51|dock6
  -GOLD-   2262015173D 1   1.00000     0.00000
 Structure written by MMmdl.
 35 37  0  0  0  0  0  0  0  0  1 V2000
  148.2765  136.6599  161.4867 O   0  0  0  0  0  0  0  0  0  0  0  0
  148.5021  136.1857  160.3755 C   0  0  0  0  0  0  0  0  0  0  0  0
  148.0637  134.9672  159.9755 N   0  0  0  0  0  0  0  0  0  0  0  0
  148.3289  134.4241  158.6921 C   0  0  0  0  0  0  0  0  0  0  0  0
  147.7078  133.0445  158.5407 C   0  0  0  0  0  0  0  0  0  0  0  0
  147.0805  132.6731  159.6578 F   0  0  0  0  0  0  0  0  0  0  0  0
  146.8195  133.0388  157.5463 F   0  0  0  0  0  0  0  0  0  0  0  0
  148.6476  132.1377  158.2721 F   0  0  0  0  0  0  0  0  0  0  0  0
  149.0127  135.0036  157.7389 N   0  0  0  0  0  0  0  0  0  0  0  0
  149.4643  136.2497  158.1252 C   0  0  0  0  0  0  0  0  0  0  0  0
  149.2835  136.8854  159.3259 C   0  0  0  0  0  0  0  0  0  0  0  0
  149.9001  138.1305  159.3363 N   0  0  0  0  0  0  0  0  0  0  0  0
  150.4332  138.1926  158.1178 C   0  0  0  0  0  0  0  0  0  0  0  0
  150.2092  137.1192  157.3350 N   0  0  0  0  0  0  0  0  0  0  0  0
  150.6682  136.9193  155.9672 C   0  0  0  0  0  0  0  0  0  0  0  0
  150.3210  138.0809  155.0004 C   0  0  1  0  0  0  0  0  0  0  0  0
  150.7840  137.7137  153.7139 O   0  0  0  0  0  0  0  0  0  0  0  0
  148.8010  138.3502  154.9368 C   0  0  0  0  0  0  0  0  0  0  0  0
  148.4850  139.6541  154.1973 C   0  0  0  0  0  0  0  0  0  0  0  0
  149.3067  140.8071  154.7841 C   0  0  0  0  0  0  0  0  0  0  0  0
  150.6887  140.4991  154.6675 O   0  0  0  0  0  0  0  0  0  0  0  0
  151.0916  139.3562  155.4182 C   0  0  0  0  0  0  0  0  0  0  0  0
  147.5217  134.4215  160.6296 H   0  0  0  0  0  0  0  0  0  0  0  0
  150.9994  139.0487  157.7808 H   0  0  0  0  0  0  0  0  0  0  0  0
  151.7492  136.7761  155.9980 H   0  0  0  0  0  0  0  0  0  0  0  0
  150.2530  135.9803  155.5982 H   0  0  0  0  0  0  0  0  0  0  0  0
  150.0512  137.3826  153.2175 H   0  0  0  0  0  0  0  0  0  0  0  0
  148.2744  137.5209  154.4632 H   0  0  0  0  0  0  0  0  0  0  0  0
  148.4081  138.4240  155.9518 H   0  0  0  0  0  0  0  0  0  0  0  0
  148.7115  139.5457  153.1361 H   0  0  0  0  0  0  0  0  0  0  0  0
  147.4198  139.8759  154.2681 H   0  0  0  0  0  0  0  0  0  0  0  0
  149.1037  141.7281  154.2375 H   0  0  0  0  0  0  0  0  0  0  0  0
  149.0442  140.9891  155.8275 H   0  0  0  0  0  0  0  0  0  0  0  0
  150.9257  139.5663  156.4761 H   0  0  0  0  0  0  0  0  0  0  0  0
  152.1667  139.2149  155.2985 H   0  0  0  0  0  0  0  0  0  0  0  0
  1  2  2  0  0  0  0
  2 11  1  0  0  0  0
  2  3  1  0  0  0  0
  3 23  1  0  0  0  0
  3  4  1  0  0  0  0
  4  5  1  0  0  0  0
  4  9  2  0  0  0  0
  5  6  1  0  0  0  0
  5  7  1  0  0  0  0
  5  8  1  0  0  0  0
  9 10  1  0  0  0  0
 10 14  1  0  0  0  0
 10 11  2  0  0  0  0
 11 12  1  0  0  0  0
 12 13  2  0  0  0  0
 13 14  1  0  0  0  0
 13 24  1  0  0  0  0
 14 15  1  0  0  0  0
 15 16  1  0  0  0  0
 15 25  1  0  0  0  0
 15 26  1  0  0  0  0
 16 22  1  0  0  0  0
 16 17  1  0  0  0  0
 16 18  1  0  0  0  0
 17 27  1  0  0  0  0
 18 19  1  0  0  0  0
 18 28  1  0  0  0  0
 18 29  1  0  0  0  0
 19 20  1  0  0  0  0
 19 30  1  0  0  0  0
 19 31  1  0  0  0  0
 20 21  1  0  0  0  0
 20 32  1  0  0  0  0
 20 33  1  0  0  0  0
 21 22  1  0  0  0  0
 22 34  1  0  0  0  0
 22 35  1  0  0  0  0
M  END
> <s_m_source_file>
AV-unprocessed.smi

> <i_m_source_file_index>
9

> <i_lp_mmshare_version>
43012

> <i_f3d_flags>
0

> <s_epik_input>
RkMoRikoRiljKG4xKVtuSF1jKD1PKWMoYzEyKW5bY0hdbjJbQ0gyXVtDQEBdMyhbT0hdKVtDSDJdW0NIMl1bQ0gyXU9bQ0gyXTM=

> <s_epik_cmdline>
J2VwaWtfcHl0aG9uJywgJy1waCcsICc3LjAnLCAnLXRuJywgJzgnLCAnLW1hJywgJzIwMCcsICctbWV0YWxfYmluZGluZycsICctaW1hZScsICc8aW5maWxlLm1hZT4nLCAnLW9tYWUnLCAnPG91dGZpbGUubWFlPic=

> <r_lp_tautomer_probability>
0.85571

> <r_epik_Ionization_Penalty>
0.770127

> <r_epik_Ionization_Penalty_Charging>
0.770101

> <r_epik_Ionization_Penalty_Neutral>
2.64604e-05

> <r_epik_State_Penalty>
2.30539

> <r_epik_Charging_Adjusted_Penalty>
3.07549

> <i_epik_Tot_Q>
0

> <i_epik_Tot_abs_Q>
0

> <r_epik_Metal_State_Penalty>
2.4903

> <b_epik_Metal_Only>
0

> <s_lp_Force_Field>
OPLS_2005

> <r_lp_Energy>
27.1686

> <b_lp_Chiralities_Consistent>
1

> <s_lp_Variant>
AV-unprocessed.smi:9-3

> <Gold.Version>
5.8.1

> <Gold.Id.Protein>
6NUR|6NUR_protein|mol2

> <Gold.PLP.Fitness>
34.1289

> <Gold.PLP.PLP>
-25.2829

> <Gold.PLP.part.hbond>
-4.8481

> <Gold.PLP.part.metal>
0.0000

> <Gold.PLP.part.buried>
-4.2047

> <Gold.PLP.part.nonpolar>
-17.1097

> <Gold.PLP.part.repulsive>
0.1774

> <Gold.PLP.ligand.clash>
0.0000

> <Gold.PLP.ligand.torsion>
0.0812

> <Gold.PLP.Chemscore.Hbond>
3.0000

> <Gold.PLP.Chemscore.CHOScore>
0.0000

> <Gold.PLP.Chemscore.Metal>
0.0000

> <Gold.Chemscore.Hbonds>
donor molecule, donor type, donor heavy atom, donor atom, acceptor molecule, acceptor atom, score
      L1  H    17    27       P1  7948  0.93
      P1  H  6931  6943       L1     1  1.00
      P1  H  7989  7998       L1    21  1.00

> <Gold.PLP.Chemscore.Internal.Correction>
0.0085

> <Gold.Rescore>
     Score         DG    S(hbond)    S(metal)    S(lipo)     H(rot)  DE(clash)    DE(int)     intcor
     12.42     -12.57       2.50        0.00      35.91       2.14       0.02       0.13       ----

> <Gold.Chemscore.Fitness>
12.4222

> <Gold.Chemscore.DG>
-12.5746

> <Gold.Chemscore.ZeroCoef>
-5.4800

> <Gold.Chemscore.Hbond>
2.5044

> <Gold.Chemscore.Metal>
0.0000

> <Gold.Chemscore.Lipo>
35.9092

> <Gold.Chemscore.Internal_Hbond>
0.0000

> <Gold.Chemscore.DEClash>
0.0208

> <Gold.Chemscore.DEInternal>
0.1316

> <Gold.Chemscore.Rot>
2.1373

> <Gold.Chemscore.Internal.Correction>
   9.000000E+99

> <Gold.Chemscore.Hbonds>
donor molecule, donor type, donor heavy atom, donor atom, acceptor molecule, acceptor atom, score
      L1  H    17    27       P1  7948  0.20
      P1  H  6931  6943       L1     1  0.96
      P1  H  7989  7998       L1    21  0.83

> <Gold.Chemscore.Hbond.Weighted>
-8.3646

> <Gold.Chemscore.Metal.Weighted>
-0.0000

> <Gold.Chemscore.Lipo.Weighted>
-4.2014

> <Gold.Chemscore.Internal_Hbond.Weighted>
0.0000

> <Gold.Chemscore.DEClash.Weighted>
0.0208

> <Gold.Chemscore.DEInternal.Weighted>
0.1316

> <Gold.Chemscore.Rot.Weighted>
5.4714

> <Gold.Chemscore.Internal.Correction.Weighted>
   9.000000E+99

> <Gold.Protein.RotatedTorsions>
[ 6907 6896 6895 6894 ] final  130.94 input  -60.11 | X-H torsion
[ 7974 7965 7964 7962 ] final  127.73 input  175.53 | X-H torsion
[ 8008 7997 7996 7995 ] final   33.05 input   59.86 | X-H torsion
[ 10167 10162 10161 10158 ] final   84.95 input  -65.29 | X-H torsion
[ 10718 10713 10712 10709 ] final  173.07 input   66.30 | X-H torsion
[ 10763 10752 10751 10750 ] final -117.60 input  -60.55 | X-H torsion
[ 11005 11000 10999 10996 ] final  -86.67 input  -57.11 | X-H torsion

> <Gold.Protein.ActiveResidues>
 VAL166  LYS551  ARG553  GLY616  TRP617  ASP618  TYR619  PRO620  LYS621  CYS622 
 ASP623  PHE694  ASN695  SER759  ASP760  ASP761  ALA762  ILE779  LEU786  VAL792 
 PHE793  MET794  SER795  GLU796  ALA797  LYS798  CYS799  TRP800  GLU811  SER814 

> <Gold.Protein.RotatedAtoms>
  152.3476  133.6141  159.5921 H   0  0  0  0  0  0  0  0  0  0  0  0  # atno 6907 bound_to 6896
  150.7517  133.9625  159.3529 H   0  0  0  0  0  0  0  0  0  0  0  0  # atno 6908 bound_to 6896
  151.7481  135.0840  160.0377 H   0  0  0  0  0  0  0  0  0  0  0  0  # atno 6909 bound_to 6896
  145.0473  139.3912  143.5072 H   0  0  0  0  0  0  0  0  0  0  0  0  # atno 7974 bound_to 7965
  155.1324  140.3258  155.4471 H   0  0  0  0  0  0  0  0  0  0  0  0  # atno 8008 bound_to 7997
  156.2630  140.2008  156.6392 H   0  0  0  0  0  0  0  0  0  0  0  0  # atno 8009 bound_to 7997
  154.6603  140.0548  157.0041 H   0  0  0  0  0  0  0  0  0  0  0  0  # atno 8010 bound_to 7997
  139.9027  144.6320  150.8620 H   0  0  0  0  0  0  0  0  0  0  0  0  # atno 10167 bound_to 10162
  156.9696  131.0086  151.2908 H   0  0  0  0  0  0  0  0  0  0  0  0  # atno 10718 bound_to 10713
  154.8560  135.4304  154.2006 H   0  0  0  0  0  0  0  0  0  0  0  0  # atno 10763 bound_to 10752
  153.3054  135.6972  153.7171 H   0  0  0  0  0  0  0  0  0  0  0  0  # atno 10764 bound_to 10752
  153.6284  135.3489  155.3008 H   0  0  0  0  0  0  0  0  0  0  0  0  # atno 10765 bound_to 10752
  141.1627  133.7468  156.9195 H   0  0  0  0  0  0  0  0  0  0  0  0  # atno 11005 bound_to 11000
  146.3515  140.0105  142.8667 LP  0  0  0  0  0  0  0  0  0  0  0  0  # atno 17320 bound_to 7965
  145.1572  140.9654  143.4398 LP  0  0  0  0  0  0  0  0  0  0  0  0  # atno 17321 bound_to 7965
  140.7703  143.3424  151.2180 LP  0  0  0  0  0  0  0  0  0  0  0  0  # atno 17342 bound_to 10162
  139.7011  143.9531  152.2906 LP  0  0  0  0  0  0  0  0  0  0  0  0  # atno 17343 bound_to 10162
  157.5601  130.8240  149.8255 LP  0  0  0  0  0  0  0  0  0  0  0  0  # atno 17370 bound_to 10713
  156.0288  130.3771  150.1746 LP  0  0  0  0  0  0  0  0  0  0  0  0  # atno 17371 bound_to 10713
  140.1461  134.9261  157.2531 LP  0  0  0  0  0  0  0  0  0  0  0  0  # atno 17394 bound_to 11000
  140.2778  134.3385  155.7352 LP  0  0  0  0  0  0  0  0  0  0  0  0  # atno 17395 bound_to 11000

$$$$
