AV-unprocessed.smi:711|AV-procd|sdf|3466|dock7
  -GOLD-   22720 0453D 1   1.00000     0.00000
 Structure written by MMmdl.
 28 29  0  0  0  0  0  0  0  0  2 V2000
  146.6503  138.3660  155.4044 O   0  0  0  0  0  0  0  0  0  0  0  0
  147.8344  138.6271  155.6123 C   0  0  0  0  0  0  0  0  0  0  0  0
  148.8304  137.7074  155.4523 N   0  5  0  0  0  0  0  0  0  0  0  0
  150.1525  137.9774  155.6809 C   0  0  0  0  0  0  0  0  0  0  0  0
  151.0292  137.1253  155.5374 O   0  0  0  0  0  0  0  0  0  0  0  0
  150.5067  139.2329  156.0897 N   0  0  0  0  0  0  0  0  0  0  0  0
  151.8955  139.6221  156.3826 C   0  0  0  0  0  0  0  0  0  0  0  0
  152.1442  139.8336  157.8930 C   0  0  2  0  0  0  0  0  0  0  0  0
  151.1826  139.0861  158.6106 O   0  0  0  0  0  0  0  0  0  0  0  0
  152.1559  141.3038  158.2972 C   0  0  0  0  0  0  0  0  0  0  0  0
  151.0388  142.1237  158.0215 C   0  0  0  0  0  0  0  0  0  0  0  0
  151.0530  143.4879  158.3693 C   0  0  0  0  0  0  0  0  0  0  0  0
  152.1853  144.0432  158.9942 C   0  0  0  0  0  0  0  0  0  0  0  0
  152.1993  145.3553  159.3289 F   0  0  0  0  0  0  0  0  0  0  0  0
  153.3031  143.2335  159.2700 C   0  0  0  0  0  0  0  0  0  0  0  0
  153.2915  141.8685  158.9229 C   0  0  0  0  0  0  0  0  0  0  0  0
  154.3811  141.1077  159.1871 F   0  0  0  0  0  0  0  0  0  0  0  0
  149.5195  140.2168  156.2664 C   0  0  0  0  0  0  0  0  0  0  0  0
  148.2137  139.9691  156.0487 C   0  0  0  0  0  0  0  0  0  0  0  0
  147.0226  141.1987  156.2818 Cl  0  0  0  0  0  0  0  0  0  0  0  0
  152.6038  138.8911  155.9892 H   0  0  0  0  0  0  0  0  0  0  0  0
  152.1198  140.5440  155.8435 H   0  0  0  0  0  0  0  0  0  0  0  0
  153.1089  139.3955  158.1498 H   0  0  0  0  0  0  0  0  0  0  0  0
  150.4736  139.6635  158.8486 H   0  0  0  0  0  0  0  0  0  0  0  0
  150.1699  141.7098  157.5312 H   0  0  0  0  0  0  0  0  0  0  0  0
  150.1966  144.1090  158.1521 H   0  0  0  0  0  0  0  0  0  0  0  0
  154.1737  143.6608  159.7452 H   0  0  0  0  0  0  0  0  0  0  0  0
  149.8895  141.1773  156.5944 H   0  0  0  0  0  0  0  0  0  0  0  0
  1  2  2  0  0  0  0
  2 19  1  0  0  0  0
  2  3  1  0  0  0  0
  3  4  1  0  0  0  0
  4  5  2  0  0  0  0
  4  6  1  0  0  0  0
  6  7  1  0  0  0  0
  6 18  1  0  0  0  0
  7  8  1  0  0  0  0
  7 21  1  0  0  0  0
  7 22  1  0  0  0  0
  8  9  1  0  0  0  0
  8 10  1  0  0  0  0
  8 23  1  0  0  0  0
  9 24  1  0  0  0  0
 10 16  1  0  0  0  0
 10 11  2  0  0  0  0
 11 12  1  0  0  0  0
 11 25  1  0  0  0  0
 12 13  2  0  0  0  0
 12 26  1  0  0  0  0
 13 14  1  0  0  0  0
 13 15  1  0  0  0  0
 15 16  2  0  0  0  0
 15 27  1  0  0  0  0
 16 17  1  0  0  0  0
 18 19  2  0  0  0  0
 18 28  1  0  0  0  0
 19 20  1  0  0  0  0
M  CHG  1   3  -1
M  END
> <s_m_source_file>
AV-unprocessed.smi

> <i_m_source_file_index>
711

> <i_lp_mmshare_version>
43012

> <i_f3d_flags>
0

> <s_epik_input>
Tz1jMVtuSF1jKD1PKW4oW2NIXWMxQ2wpW0NIMl1bQ0BIXShbT0hdKWMyW2NIXVtjSF1jKEYpW2NIXWMyRg==

> <s_epik_cmdline>
J2VwaWtfcHl0aG9uJywgJy1waCcsICc3LjAnLCAnLXRuJywgJzgnLCAnLW1hJywgJzIwMCcsICctbWV0YWxfYmluZGluZycsICctaW1hZScsICc8aW5maWxlLm1hZT4nLCAnLW9tYWUnLCAnPG91dGZpbGUubWFlPic=

> <r_epik_Ionization_Penalty>
1.7979

> <r_epik_Ionization_Penalty_Charging>
3.23819e-08

> <r_epik_Ionization_Penalty_Neutral>
1.7979

> <r_epik_State_Penalty>
1.91135

> <r_epik_Charging_Adjusted_Penalty>
1.91135

> <i_epik_Tot_Q>
-1

> <i_epik_Tot_abs_Q>
1

> <r_epik_Metal_State_Penalty>
0.014155

> <b_epik_Metal_Only>
0

> <s_lp_Force_Field>
OPLS_2005

> <r_lp_Energy>
19.2938

> <b_lp_Chiralities_Consistent>
1

> <s_lp_Variant>
AV-unprocessed.smi:711-3

> <Gold.Version>
5.8.1

> <Gold.Id.Protein>
6NUR|6NUR_protein|mol2

> <Gold.PLP.Fitness>
44.8271

> <Gold.PLP.PLP>
-43.2181

> <Gold.PLP.part.hbond>
-1.0000

> <Gold.PLP.part.metal>
0.0000

> <Gold.PLP.part.buried>
-3.0417

> <Gold.PLP.part.nonpolar>
-41.5639

> <Gold.PLP.part.repulsive>
1.0987

> <Gold.PLP.ligand.clash>
0.0000

> <Gold.PLP.ligand.torsion>
0.6802

> <Gold.PLP.Chemscore.Hbond>
0.9833

> <Gold.PLP.Chemscore.CHOScore>
0.0000

> <Gold.PLP.Chemscore.Metal>
0.0000

> <Gold.PLP.Chemscore.Internal.Correction>
0.0194

> <Gold.Rescore>
     Score         DG    S(hbond)    S(metal)    S(lipo)     H(rot)  DE(clash)    DE(int)     intcor
     11.94     -13.18       0.88        0.00      91.43       2.32       0.28       0.96       ----

> <Gold.Chemscore.Fitness>
11.9399

> <Gold.Chemscore.DG>
-13.1773

> <Gold.Chemscore.ZeroCoef>
-5.4800

> <Gold.Chemscore.Hbond>
0.8774

> <Gold.Chemscore.Metal>
0.0000

> <Gold.Chemscore.Lipo>
91.4266

> <Gold.Chemscore.Internal_Hbond>
0.0000

> <Gold.Chemscore.DEClash>
0.2775

> <Gold.Chemscore.DEInternal>
0.9599

> <Gold.Chemscore.Rot>
2.3164

> <Gold.Chemscore.Internal.Correction>
   9.000000E+99

> <Gold.Chemscore.Hbond.Weighted>
-2.9305

> <Gold.Chemscore.Metal.Weighted>
-0.0000

> <Gold.Chemscore.Lipo.Weighted>
-10.6969

> <Gold.Chemscore.Internal_Hbond.Weighted>
0.0000

> <Gold.Chemscore.DEClash.Weighted>
0.2775

> <Gold.Chemscore.DEInternal.Weighted>
0.9599

> <Gold.Chemscore.Rot.Weighted>
5.9301

> <Gold.Chemscore.Internal.Correction.Weighted>
   9.000000E+99

> <Gold.Protein.RotatedTorsions>
[ 6907 6896 6895 6894 ] final  170.47 input  -60.11 | X-H torsion
[ 7974 7965 7964 7962 ] final   25.07 input  175.53 | X-H torsion
[ 8008 7997 7996 7995 ] final -172.05 input   59.86 | X-H torsion
[ 10167 10162 10161 10158 ] final  -52.70 input  -65.29 | X-H torsion
[ 10718 10713 10712 10709 ] final  -56.01 input   66.30 | X-H torsion
[ 10763 10752 10751 10750 ] final -176.22 input  -60.55 | X-H torsion
[ 11005 11000 10999 10996 ] final  117.20 input  -57.11 | X-H torsion

> <Gold.Protein.ActiveResidues>
 VAL166  LYS551  ARG553  GLY616  TRP617  ASP618  TYR619  PRO620  LYS621  CYS622 
 ASP623  PHE694  ASN695  SER759  ASP760  ASP761  ALA762  ILE779  LEU786  VAL792 
 PHE793  MET794  SER795  GLU796  ALA797  LYS798  CYS799  TRP800  GLU811  SER814 

> <Gold.Protein.RotatedAtoms>
  151.8156  133.3387  159.3568 H   0  0  0  0  0  0  0  0  0  0  0  0  # atno 6907 bound_to 6896
  150.7311  134.5622  159.5857 H   0  0  0  0  0  0  0  0  0  0  0  0  # atno 6908 bound_to 6896
  152.3043  134.7574  160.0402 H   0  0  0  0  0  0  0  0  0  0  0  0  # atno 6909 bound_to 6896
  146.1906  139.7516  142.8834 H   0  0  0  0  0  0  0  0  0  0  0  0  # atno 7974 bound_to 7965
  155.9396  140.1106  157.1067 H   0  0  0  0  0  0  0  0  0  0  0  0  # atno 8008 bound_to 7997
  154.4086  140.1222  156.4975 H   0  0  0  0  0  0  0  0  0  0  0  0  # atno 8009 bound_to 7997
  155.6979  140.3472  155.4923 H   0  0  0  0  0  0  0  0  0  0  0  0  # atno 8010 bound_to 7997
  140.6524  143.2575  151.4685 H   0  0  0  0  0  0  0  0  0  0  0  0  # atno 10167 bound_to 10162
  156.1322  130.4159  150.0248 H   0  0  0  0  0  0  0  0  0  0  0  0  # atno 10718 bound_to 10713
  154.5749  135.2831  155.0790 H   0  0  0  0  0  0  0  0  0  0  0  0  # atno 10763 bound_to 10752
  154.2149  135.6401  153.5130 H   0  0  0  0  0  0  0  0  0  0  0  0  # atno 10764 bound_to 10752
  153.0069  135.5500  154.6384 H   0  0  0  0  0  0  0  0  0  0  0  0  # atno 10765 bound_to 10752
  139.9066  134.9607  156.7314 H   0  0  0  0  0  0  0  0  0  0  0  0  # atno 11005 bound_to 11000
  145.3803  141.0357  143.3181 LP  0  0  0  0  0  0  0  0  0  0  0  0  # atno 17320 bound_to 7965
  144.8480  139.5366  143.6869 LP  0  0  0  0  0  0  0  0  0  0  0  0  # atno 17321 bound_to 7965
  139.5741  144.1861  152.1878 LP  0  0  0  0  0  0  0  0  0  0  0  0  # atno 17342 bound_to 10162
  140.1166  144.5410  150.6890 LP  0  0  0  0  0  0  0  0  0  0  0  0  # atno 17343 bound_to 10162
  156.8157  130.9340  151.3643 LP  0  0  0  0  0  0  0  0  0  0  0  0  # atno 17370 bound_to 10713
  157.6499  130.8875  149.9612 LP  0  0  0  0  0  0  0  0  0  0  0  0  # atno 17371 bound_to 10713
  140.6922  133.9380  155.7973 LP  0  0  0  0  0  0  0  0  0  0  0  0  # atno 17394 bound_to 11000
  141.0433  134.0590  157.3875 LP  0  0  0  0  0  0  0  0  0  0  0  0  # atno 17395 bound_to 11000

$$$$
