#       Name:                AV-unprocessed.smi:1702
#       Creating user name   scv26
#       Creation time:       Fri Mar 27 08:03:14 2020


#       File generated by GOLD software.
#

@<TRIPOS>MOLECULE
AV-unprocessed.smi:1702
    47    49     1
SMALL
NO_CHARGES


@<TRIPOS>ATOM
      1 ****        -4.4378   2.6732  -1.4620 C.3            1 S1                 0.0000
      2 ****        -3.3949   3.1164  -0.4204 C.3            1 S1                 0.0000
      3 ****        -1.9471   2.8907  -0.8925 C.3            1 S1                 0.0000
      4 ****        -1.5498   1.4037  -0.8641 C.3            1 S1                 0.0000
      5 ****        -1.7558   0.8177   0.4872 N.4            1 S1                 1.0000
      6 ****        -1.2694  -0.5820   0.6021 C.3            1 S1                 0.0000
      7 ****         0.2602  -0.6655   0.7767 C.3            1 S1                 0.0000
      8 ****         0.6133  -0.0647   2.0082 O.3            1 S1                 0.0000
      9 ****         0.7590  -2.1242   0.7649 C.3            1 S1                 0.0000
     10 ****         2.2135  -2.2332   0.9446 N.pl3          1 S1                 0.0000
     11 ****         2.9411  -2.4923   2.0658 C.2            1 S1                 0.0000
     12 ****         4.2564  -2.4890   1.7125 N.pl3          1 S1                 1.0000
     13 ****         4.3719  -2.2245   0.3460 C.ar           1 S1                 0.0000
     14 ****         5.4928  -2.1189  -0.4713 C.ar           1 S1                 0.0000
     15 ****         5.2612  -1.8366  -1.8337 C.ar           1 S1                 0.0000
     16 ****         6.3172  -1.7216  -2.6732 F              1 S1                 0.0000
     17 ****         3.9532  -1.6717  -2.3369 C.ar           1 S1                 0.0000
     18 ****         3.7747  -1.4017  -3.6516 F              1 S1                 0.0000
     19 ****         2.8240  -1.7816  -1.4983 C.ar           1 S1                 0.0000
     20 ****         3.0629  -2.0596  -0.1534 C.ar           1 S1                 0.0000
     21 ****        -3.1638   0.9642   0.9382 C.3            1 S1                 0.0000
     22 ****        -3.5962   2.4415   0.9483 C.3            1 S1                 0.0000
     23 ****        -4.3836   1.6053  -1.6721 H              1 S1                 0.0000
     24 ****        -4.2959   3.2014  -2.4053 H              1 S1                 0.0000
     25 ****        -5.4493   2.8892  -1.1170 H              1 S1                 0.0000
     26 ****        -3.5336   4.1896  -0.2824 H              1 S1                 0.0000
     27 ****        -1.8088   3.2975  -1.8951 H              1 S1                 0.0000
     28 ****        -1.2693   3.4490  -0.2450 H              1 S1                 0.0000
     29 ****        -2.1270   0.8422  -1.5997 H              1 S1                 0.0000
     30 ****        -0.5048   1.3163  -1.1590 H              1 S1                 0.0000
     31 ****        -1.7402  -1.0698   1.4574 H              1 S1                 0.0000
     32 ****        -1.5869  -1.1450  -0.2769 H              1 S1                 0.0000
     33 ****         0.7627  -0.1193  -0.0207 H              1 S1                 0.0000
     34 ****         0.2205  -0.5599   2.7114 H              1 S1                 0.0000
     35 ****         0.2873  -2.6937   1.5671 H              1 S1                 0.0000
     36 ****         0.4881  -2.6231  -0.1665 H              1 S1                 0.0000
     37 ****         2.5477  -2.6666   3.0572 H              1 S1                 0.0000
     38 ****         6.4958  -2.2446  -0.0907 H              1 S1                 0.0000
     39 ****         1.8280  -1.6540  -1.8947 H              1 S1                 0.0000
     40 ****        -3.8189   0.3756   0.2946 H              1 S1                 0.0000
     41 ****        -3.2694   0.5608   1.9460 H              1 S1                 0.0000
     42 ****        -3.0109   2.9751   1.6987 H              1 S1                 0.0000
     43 ****        -4.6370   2.5260   1.2627 H              1 S1                 0.0000
     44 ****        -1.1997   1.3615   1.1321 H              1 S1                 0.0000
     45 ****         5.0173  -2.6553   2.3593 H              1 S1                 0.0000
     46 ****         0.2776   0.8770   2.0316 LP             1 S1                 0.0000
     47 ****         1.6081  -0.0665   2.1104 LP             1 S1                 0.0000
@<TRIPOS>BOND
    1    1    2 1     
    2    1   23 1     
    3    1   24 1     
    4    1   25 1     
    5    2   22 1     
    6    2    3 1     
    7    2   26 1     
    8    3    4 1     
    9    3   27 1     
   10    3   28 1     
   11    4    5 1     
   12    4   29 1     
   13    4   30 1     
   14    5    6 1     
   15    5   21 1     
   16    5   44 1     
   17    6    7 1     
   18    6   31 1     
   19    6   32 1     
   20    7    8 1     
   21    7    9 1     
   22    7   33 1     
   23    8   34 1     
   24    9   10 1     
   25    9   35 1     
   26    9   36 1     
   27   10   20 1     
   28   10   11 1     
   29   11   12 2     
   30   11   37 1     
   31   12   13 1     
   32   12   45 1     
   33   13   20 ar    
   34   13   14 ar    
   35   14   15 ar    
   36   14   38 1     
   37   15   16 1     
   38   15   17 ar    
   39   17   18 1     
   40   17   19 ar    
   41   19   20 ar    
   42   19   39 1     
   43   21   22 1     
   44   21   40 1     
   45   21   41 1     
   46   22   42 1     
   47   22   43 1     
   48    8   46 1     
   49    8   47 1     
@<TRIPOS>SUBSTRUCTURE
      1 S1             1
@<TRIPOS>SET
LONE_PAIRS      STATIC     ATOMS    <user>   **** ""
2 46 47
DONOR_HYDROGENS      STATIC     ATOMS    <user>   **** ""
3 44 34 45
ATOM$BLUE        STATIC     ATOMS    COLORGROUP SYSTEM
2 46 47
ATOM$RED        STATIC     ATOMS    COLORGROUP SYSTEM
3 44 34 45
