AV-unprocessed.smi:2934|AV-procd|sdf|11254|dock9
  -GOLD-   2272016143D 1   1.00000     0.00000
 Structure written by MMmdl.
 43 44  0  0  0  0  0  0  0  0  1 V2000
  149.7931  141.7135  157.4029 C   0  0  0  0  0  0  0  0  0  0  0  0
  150.9879  140.8665  157.4885 N   0  0  0  0  0  0  0  0  0  0  0  0
  151.0932  139.8144  156.6320 C   0  0  0  0  0  0  0  0  0  0  0  0
  152.1586  139.2359  156.4078 O   0  0  0  0  0  0  0  0  0  0  0  0
  149.9380  139.4178  156.0662 N   0  0  0  0  0  0  0  0  0  0  0  0
  149.7857  138.2943  155.1493 C   0  0  0  0  0  0  0  0  0  0  0  0
  150.5904  137.0675  155.6215 C   0  0  0  0  0  0  0  0  0  0  0  0
  149.8116  136.1755  156.5929 C   0  0  0  0  0  0  0  0  0  0  0  0
  150.0456  136.2074  157.8014 O   0  0  0  0  0  0  0  0  0  0  0  0
  148.8831  135.3769  156.0444 N   0  0  0  0  0  0  0  0  0  0  0  0
  148.0418  134.4349  156.7783 C   0  0  0  0  0  0  0  0  0  0  0  0
  148.8281  133.7398  157.9079 C   0  0  0  0  0  0  0  0  0  0  0  0
  149.0642  132.3064  157.4331 C   0  0  0  0  0  0  0  0  0  0  0  0
  147.8430  131.9952  156.5740 C   0  0  0  0  0  0  0  0  0  0  0  0
  147.5417  133.3098  155.8510 C   0  0  0  0  0  0  0  0  0  0  0  0
  151.9517  141.1870  158.4952 C   0  0  0  0  0  0  0  0  0  0  0  0
  152.2169  142.5589  158.7254 C   0  0  0  0  0  0  0  0  0  0  0  0
  153.1444  142.9277  159.7186 C   0  0  0  0  0  0  0  0  0  0  0  0
  153.7803  141.9170  160.4610 C   0  0  0  0  0  0  0  0  0  0  0  0
  153.4550  140.5784  160.1747 C   0  0  0  0  0  0  0  0  0  0  0  0
  152.5665  140.2210  159.2235 N   0  0  0  0  0  0  0  0  0  0  0  0
  149.7520  142.4488  158.2074 H   0  0  0  0  0  0  0  0  0  0  0  0
  148.8819  141.1172  157.4751 H   0  0  0  0  0  0  0  0  0  0  0  0
  149.7747  142.2546  156.4559 H   0  0  0  0  0  0  0  0  0  0  0  0
  149.1019  139.9382  156.2903 H   0  0  0  0  0  0  0  0  0  0  0  0
  148.7231  138.0525  155.1004 H   0  0  0  0  0  0  0  0  0  0  0  0
  150.0845  138.5910  154.1422 H   0  0  0  0  0  0  0  0  0  0  0  0
  150.8965  136.4643  154.7662 H   0  0  0  0  0  0  0  0  0  0  0  0
  151.5057  137.4018  156.1126 H   0  0  0  0  0  0  0  0  0  0  0  0
  148.7542  135.4181  155.0438 H   0  0  0  0  0  0  0  0  0  0  0  0
  147.1857  134.9639  157.2016 H   0  0  0  0  0  0  0  0  0  0  0  0
  149.7606  134.2440  158.1657 H   0  0  0  0  0  0  0  0  0  0  0  0
  148.2161  133.7219  158.8106 H   0  0  0  0  0  0  0  0  0  0  0  0
  149.9655  132.2654  156.8198 H   0  0  0  0  0  0  0  0  0  0  0  0
  149.1889  131.6048  158.2585 H   0  0  0  0  0  0  0  0  0  0  0  0
  148.0129  131.1666  155.8859 H   0  0  0  0  0  0  0  0  0  0  0  0
  147.0026  131.7280  157.2162 H   0  0  0  0  0  0  0  0  0  0  0  0
  146.4807  133.4098  155.6195 H   0  0  0  0  0  0  0  0  0  0  0  0
  148.0792  133.3238  154.9012 H   0  0  0  0  0  0  0  0  0  0  0  0
  151.7216  143.3235  158.1446 H   0  0  0  0  0  0  0  0  0  0  0  0
  153.3634  143.9684  159.9068 H   0  0  0  0  0  0  0  0  0  0  0  0
  154.4972  142.1610  161.2310 H   0  0  0  0  0  0  0  0  0  0  0  0
  153.9198  139.7726  160.7234 H   0  0  0  0  0  0  0  0  0  0  0  0
  1  2  1  0  0  0  0
  1 22  1  0  0  0  0
  1 23  1  0  0  0  0
  1 24  1  0  0  0  0
  2  3  1  0  0  0  0
  2 16  1  0  0  0  0
  3  4  2  0  0  0  0
  3  5  1  0  0  0  0
  5  6  1  0  0  0  0
  5 25  1  0  0  0  0
  6  7  1  0  0  0  0
  6 26  1  0  0  0  0
  6 27  1  0  0  0  0
  7  8  1  0  0  0  0
  7 28  1  0  0  0  0
  7 29  1  0  0  0  0
  8  9  2  0  0  0  0
  8 10  1  0  0  0  0
 10 11  1  0  0  0  0
 10 30  1  0  0  0  0
 11 15  1  0  0  0  0
 11 12  1  0  0  0  0
 11 31  1  0  0  0  0
 12 13  1  0  0  0  0
 12 32  1  0  0  0  0
 12 33  1  0  0  0  0
 13 14  1  0  0  0  0
 13 34  1  0  0  0  0
 13 35  1  0  0  0  0
 14 15  1  0  0  0  0
 14 36  1  0  0  0  0
 14 37  1  0  0  0  0
 15 38  1  0  0  0  0
 15 39  1  0  0  0  0
 16 21  1  0  0  0  0
 16 17  2  0  0  0  0
 17 18  1  0  0  0  0
 17 40  1  0  0  0  0
 18 19  2  0  0  0  0
 18 41  1  0  0  0  0
 19 20  1  0  0  0  0
 19 42  1  0  0  0  0
 20 21  2  0  0  0  0
 20 43  1  0  0  0  0
M  END
> <s_m_source_file>
AV-unprocessed.smi

> <i_m_source_file_index>
2934

> <i_lp_mmshare_version>
43012

> <i_f3d_flags>
0

> <s_epik_input>
bjFbY0hdW2NIXVtjSF1bY0hdYzFOKFtDSDNdKUMoPU8pW05IXVtDSDJdW0NIMl1DKD1PKVtOSF1bQ0hdMltDSDJdW0NIMl1bQ0gyXVtDSDJdMg==

> <s_epik_cmdline>
J2VwaWtfcHl0aG9uJywgJy1waCcsICc3LjAnLCAnLXRuJywgJzgnLCAnLW1hJywgJzIwMCcsICctbWV0YWxfYmluZGluZycsICctaW1hZScsICc8aW5maWxlLm1hZT4nLCAnLW9tYWUnLCAnPG91dGZpbGUubWFlPic=

> <r_epik_Ionization_Penalty>
0.404648

> <r_epik_Ionization_Penalty_Charging>
0

> <r_epik_Ionization_Penalty_Neutral>
0.404648

> <r_epik_State_Penalty>
0.40421

> <r_epik_Charging_Adjusted_Penalty>
0.40421

> <i_epik_Tot_Q>
0

> <i_epik_Tot_abs_Q>
0

> <r_epik_Metal_State_Penalty>
0.238116

> <b_epik_Metal_Only>
0

> <s_lp_Force_Field>
OPLS_2005

> <r_lp_Energy>
32.7735

> <b_lp_Chiralities_Consistent>
1

> <s_lp_Variant>
AV-unprocessed.smi:2934-1

> <Gold.Version>
5.8.1

> <Gold.Id.Protein>
6NUR|6NUR_protein|mol2

> <Gold.PLP.Fitness>
41.7995

> <Gold.PLP.PLP>
-42.0338

> <Gold.PLP.part.hbond>
-2.0000

> <Gold.PLP.part.metal>
0.0000

> <Gold.PLP.part.buried>
-4.7556

> <Gold.PLP.part.nonpolar>
-35.6175

> <Gold.PLP.part.repulsive>
0.1214

> <Gold.PLP.ligand.clash>
3.2044

> <Gold.PLP.ligand.torsion>
1.5815

> <Gold.PLP.Chemscore.Hbond>
2.0000

> <Gold.PLP.Chemscore.CHOScore>
0.0000

> <Gold.PLP.Chemscore.Metal>
0.0000

> <Gold.Chemscore.Hbonds>
donor molecule, donor type, donor heavy atom, donor atom, acceptor molecule, acceptor atom, score
      P1  H  7997  8009       L1     4  0.21

> <Gold.PLP.Chemscore.Internal.Correction>
0.1332

> <Gold.Rescore>
     Score         DG    S(hbond)    S(metal)    S(lipo)     H(rot)  DE(clash)    DE(int)     intcor
     14.02     -17.47       1.90        0.00      85.79       1.72       0.03       3.43       ----

> <Gold.Chemscore.Fitness>
14.0172

> <Gold.Chemscore.DG>
-17.4695

> <Gold.Chemscore.ZeroCoef>
-5.4800

> <Gold.Chemscore.Hbond>
1.9042

> <Gold.Chemscore.Metal>
0.0000

> <Gold.Chemscore.Lipo>
85.7935

> <Gold.Chemscore.Internal_Hbond>
0.0000

> <Gold.Chemscore.DEClash>
0.0270

> <Gold.Chemscore.DEInternal>
3.4253

> <Gold.Chemscore.Rot>
1.7220

> <Gold.Chemscore.Internal.Correction>
   9.000000E+99

> <Gold.Chemscore.Hbonds>
donor molecule, donor type, donor heavy atom, donor atom, acceptor molecule, acceptor atom, score
      P1  H  7997  8009       L1     4  0.23

> <Gold.Chemscore.Hbond.Weighted>
-6.3599

> <Gold.Chemscore.Metal.Weighted>
-0.0000

> <Gold.Chemscore.Lipo.Weighted>
-10.0378

> <Gold.Chemscore.Internal_Hbond.Weighted>
0.0000

> <Gold.Chemscore.DEClash.Weighted>
0.0270

> <Gold.Chemscore.DEInternal.Weighted>
3.4253

> <Gold.Chemscore.Rot.Weighted>
4.4083

> <Gold.Chemscore.Internal.Correction.Weighted>
   9.000000E+99

> <Gold.Protein.RotatedTorsions>
[ 6907 6896 6895 6894 ] final  -99.04 input  -60.11 | X-H torsion
[ 7974 7965 7964 7962 ] final  125.37 input  175.53 | X-H torsion
[ 8008 7997 7996 7995 ] final -166.93 input   59.86 | X-H torsion
[ 10167 10162 10161 10158 ] final   -8.16 input  -65.29 | X-H torsion
[ 10718 10713 10712 10709 ] final  -99.22 input   66.30 | X-H torsion
[ 10763 10752 10751 10750 ] final -154.74 input  -60.55 | X-H torsion
[ 11005 11000 10999 10996 ] final  174.06 input  -57.11 | X-H torsion

> <Gold.Protein.ActiveResidues>
 VAL166  LYS551  ARG553  GLY616  TRP617  ASP618  TYR619  PRO620  LYS621  CYS622 
 ASP623  PHE694  ASN695  SER759  ASP760  ASP761  ALA762  ILE779  LEU786  VAL792 
 PHE793  MET794  SER795  GLU796  ALA797  LYS798  CYS799  TRP800  GLU811  SER814 

> <Gold.Protein.RotatedAtoms>
  150.7066  134.1101  159.3996 H   0  0  0  0  0  0  0  0  0  0  0  0  # atno 6907 bound_to 6896
  151.9088  135.0345  160.0522 H   0  0  0  0  0  0  0  0  0  0  0  0  # atno 6908 bound_to 6896
  152.2353  133.5056  159.5275 H   0  0  0  0  0  0  0  0  0  0  0  0  # atno 6909 bound_to 6896
  145.0738  139.3709  143.4944 H   0  0  0  0  0  0  0  0  0  0  0  0  # atno 7974 bound_to 7965
  155.8706  140.0993  157.1552 H   0  0  0  0  0  0  0  0  0  0  0  0  # atno 8008 bound_to 7997
  154.3997  140.1347  156.4137 H   0  0  0  0  0  0  0  0  0  0  0  0  # atno 8009 bound_to 7997
  155.7754  140.3460  155.5271 H   0  0  0  0  0  0  0  0  0  0  0  0  # atno 8010 bound_to 7997
  140.7051  143.5999  150.8808 H   0  0  0  0  0  0  0  0  0  0  0  0  # atno 10167 bound_to 10162
  156.0128  130.5272  150.6637 H   0  0  0  0  0  0  0  0  0  0  0  0  # atno 10718 bound_to 10713
  154.7837  135.3183  154.7933 H   0  0  0  0  0  0  0  0  0  0  0  0  # atno 10763 bound_to 10752
  153.8638  135.6851  153.4784 H   0  0  0  0  0  0  0  0  0  0  0  0  # atno 10764 bound_to 10752
  153.1482  135.4710  154.9535 H   0  0  0  0  0  0  0  0  0  0  0  0  # atno 10765 bound_to 10752
  140.3473  134.7225  157.4243 H   0  0  0  0  0  0  0  0  0  0  0  0  # atno 11005 bound_to 11000
  146.3529  140.0495  142.8637 LP  0  0  0  0  0  0  0  0  0  0  0  0  # atno 17320 bound_to 7965
  145.1261  140.9490  143.4572 LP  0  0  0  0  0  0  0  0  0  0  0  0  # atno 17321 bound_to 7965
  139.9724  143.6042  152.2969 LP  0  0  0  0  0  0  0  0  0  0  0  0  # atno 17342 bound_to 10162
  139.6634  144.7662  151.1920 LP  0  0  0  0  0  0  0  0  0  0  0  0  # atno 17343 bound_to 10162
  157.4374  131.0857  151.0978 LP  0  0  0  0  0  0  0  0  0  0  0  0  # atno 17370 bound_to 10713
  157.1532  130.6193  149.5588 LP  0  0  0  0  0  0  0  0  0  0  0  0  # atno 17371 bound_to 10713
  140.0732  134.5833  155.8619 LP  0  0  0  0  0  0  0  0  0  0  0  0  # atno 17394 bound_to 11000
  141.2022  133.6623  156.5993 LP  0  0  0  0  0  0  0  0  0  0  0  0  # atno 17395 bound_to 11000

$$$$
