AV-unprocessed.smi:1381|AV-procd|sdf|5608|dock5
  -GOLD-   22720 5213D 1   1.00000     0.00000
 Structure written by MMmdl.
 43 44  0  0  0  0  0  0  0  0  2 V2000
  153.1804  137.9586  157.1332 C   0  0  0  0  0  0  0  0  0  0  0  0
  152.2456  138.5836  156.1552 C   0  0  0  0  0  0  0  0  0  0  0  0
  151.2402  138.0813  155.3782 C   0  0  0  0  0  0  0  0  0  0  0  0
  150.7665  139.2336  154.6854 C   0  0  0  0  0  0  0  0  0  0  0  0
  149.7121  139.2708  153.7366 N   0  0  0  0  0  0  0  0  0  0  0  0
  148.4744  138.7586  153.8419 C   0  0  0  0  0  0  0  0  0  0  0  0
  148.0334  138.1491  154.8161 O   0  0  0  0  0  0  0  0  0  0  0  0
  147.7529  138.9981  152.7370 N   0  0  0  0  0  0  0  0  0  0  0  0
  146.3739  138.5704  152.5305 C   0  0  0  0  0  0  0  0  0  0  0  0
  146.2874  137.3952  151.5377 C   0  0  0  0  0  0  0  0  0  0  0  0
  144.9000  136.8794  151.3924 N   0  3  1  0  0  0  0  0  0  0  0  0
  144.8149  135.6119  150.6265 C   0  0  0  0  0  0  0  0  0  0  0  0
  145.2405  134.4061  151.4892 C   0  0  2  0  0  0  0  0  0  0  0  0
  145.0774  133.0778  150.7426 C   0  0  0  0  0  0  0  0  0  0  0  0
  144.4233  134.3621  152.6544 O   0  0  0  0  0  0  0  0  0  0  0  0
  144.5606  135.5200  153.4715 C   0  0  2  0  0  0  0  0  0  0  0  0
  143.6955  135.3263  154.7218 C   0  0  0  0  0  0  0  0  0  0  0  0
  144.1387  136.7663  152.6630 C   0  0  0  0  0  0  0  0  0  0  0  0
  151.4252  140.3301  155.0117 N   0  0  0  0  0  0  0  0  0  0  0  0
  152.3761  139.9226  155.9547 O   0  0  0  0  0  0  0  0  0  0  0  0
  152.8522  136.9533  157.3976 H   0  0  0  0  0  0  0  0  0  0  0  0
  153.2347  138.5476  158.0489 H   0  0  0  0  0  0  0  0  0  0  0  0
  154.1847  137.8882  156.7153 H   0  0  0  0  0  0  0  0  0  0  0  0
  150.9128  137.0541  155.3267 H   0  0  0  0  0  0  0  0  0  0  0  0
  149.9281  139.7501  152.8750 H   0  0  0  0  0  0  0  0  0  0  0  0
  148.1918  139.5051  151.9821 H   0  0  0  0  0  0  0  0  0  0  0  0
  145.9765  138.2867  153.5041 H   0  0  0  0  0  0  0  0  0  0  0  0
  145.7713  139.4109  152.1820 H   0  0  0  0  0  0  0  0  0  0  0  0
  146.6320  137.7456  150.5640 H   0  0  0  0  0  0  0  0  0  0  0  0
  146.9692  136.5967  151.8299 H   0  0  0  0  0  0  0  0  0  0  0  0
  143.7819  135.4800  150.3012 H   0  0  0  0  0  0  0  0  0  0  0  0
  145.4138  135.6732  149.7168 H   0  0  0  0  0  0  0  0  0  0  0  0
  146.2860  134.5067  151.7853 H   0  0  0  0  0  0  0  0  0  0  0  0
  145.6921  133.0554  149.8422 H   0  0  0  0  0  0  0  0  0  0  0  0
  144.0410  132.9156  150.4450 H   0  0  0  0  0  0  0  0  0  0  0  0
  145.3784  132.2389  151.3703 H   0  0  0  0  0  0  0  0  0  0  0  0
  145.5995  135.6106  153.7909 H   0  0  0  0  0  0  0  0  0  0  0  0
  143.7704  136.1859  155.3883 H   0  0  0  0  0  0  0  0  0  0  0  0
  144.0110  134.4451  155.2812 H   0  0  0  0  0  0  0  0  0  0  0  0
  142.6449  135.1958  154.4603 H   0  0  0  0  0  0  0  0  0  0  0  0
  144.2407  137.6687  153.2645 H   0  0  0  0  0  0  0  0  0  0  0  0
  143.0795  136.6904  152.4123 H   0  0  0  0  0  0  0  0  0  0  0  0
  144.4230  137.5701  150.8301 H   0  0  0  0  0  0  0  0  0  0  0  0
  1  2  1  0  0  0  0
  1 21  1  0  0  0  0
  1 22  1  0  0  0  0
  1 23  1  0  0  0  0
  2 20  1  0  0  0  0
  2  3  2  0  0  0  0
  3  4  1  0  0  0  0
  3 24  1  0  0  0  0
  4  5  1  0  0  0  0
  4 19  2  0  0  0  0
  5  6  1  0  0  0  0
  5 25  1  0  0  0  0
  6  7  2  0  0  0  0
  6  8  1  0  0  0  0
  8  9  1  0  0  0  0
  8 26  1  0  0  0  0
  9 10  1  0  0  0  0
  9 27  1  0  0  0  0
  9 28  1  0  0  0  0
 10 11  1  0  0  0  0
 10 29  1  0  0  0  0
 10 30  1  0  0  0  0
 11 18  1  0  0  0  0
 11 12  1  0  0  0  0
 11 43  1  0  0  0  0
 12 13  1  0  0  0  0
 12 31  1  0  0  0  0
 12 32  1  0  0  0  0
 13 14  1  0  0  0  0
 13 15  1  0  0  0  0
 13 33  1  0  0  0  0
 14 34  1  0  0  0  0
 14 35  1  0  0  0  0
 14 36  1  0  0  0  0
 15 16  1  0  0  0  0
 16 17  1  0  0  0  0
 16 18  1  0  0  0  0
 16 37  1  0  0  0  0
 17 38  1  0  0  0  0
 17 39  1  0  0  0  0
 17 40  1  0  0  0  0
 18 41  1  0  0  0  0
 18 42  1  0  0  0  0
 19 20  1  0  0  0  0
M  CHG  1  11   1
M  END
> <s_m_source_file>
AV-unprocessed.smi

> <i_m_source_file_index>
1381

> <i_lp_mmshare_version>
43012

> <i_f3d_flags>
0

> <s_epik_input>
W0NIM11jMVtjSF1jKG5vMSlbTkhdQyg9TylbTkhdW0NIMl1bQ0gyXU4yW0NIMl1bQ0BASF0oW0NIM10pT1tDQEBIXShbQ0gzXSlbQ0gyXTI=

> <s_epik_cmdline>
J2VwaWtfcHl0aG9uJywgJy1waCcsICc3LjAnLCAnLXRuJywgJzgnLCAnLW1hJywgJzIwMCcsICctbWV0YWxfYmluZGluZycsICctaW1hZScsICc8aW5maWxlLm1hZT4nLCAnLW9tYWUnLCAnPG91dGZpbGUubWFlPic=

> <r_epik_Ionization_Penalty>
0.707076

> <r_epik_Ionization_Penalty_Charging>
0.707039

> <r_epik_Ionization_Penalty_Neutral>
3.6548e-05

> <r_epik_State_Penalty>
0.730276

> <r_epik_Charging_Adjusted_Penalty>
1.43732

> <i_epik_Tot_Q>
1

> <i_epik_Tot_abs_Q>
1

> <r_epik_Metal_State_Penalty>
0.743132

> <b_epik_Metal_Only>
0

> <s_lp_Force_Field>
OPLS_2005

> <r_lp_Energy>
17.699

> <b_lp_Chiralities_Consistent>
1

> <s_lp_Variant>
AV-unprocessed.smi:1381-7

> <Gold.Version>
5.8.1

> <Gold.Id.Protein>
6NUR|6NUR_protein|mol2

> <Gold.PLP.Fitness>
44.0282

> <Gold.PLP.PLP>
-30.2503

> <Gold.PLP.part.hbond>
-6.0000

> <Gold.PLP.part.metal>
0.0000

> <Gold.PLP.part.buried>
-1.2635

> <Gold.PLP.part.nonpolar>
-24.0249

> <Gold.PLP.part.repulsive>
0.4786

> <Gold.PLP.ligand.clash>
0.0000

> <Gold.PLP.ligand.torsion>
0.6203

> <Gold.PLP.Chemscore.Hbond>
5.0000

> <Gold.PLP.Chemscore.CHOScore>
0.0000

> <Gold.PLP.Chemscore.Metal>
0.0000

> <Gold.Chemscore.Hbonds>
donor molecule, donor type, donor heavy atom, donor atom, acceptor molecule, acceptor atom, score
      L1  H     5    25       P1  7957  1.00
      L1  H     8    26       P1  7957  1.00
      L1  H    11    43       P1 10171  1.00
      P1  H  7989  7998       L1    19  0.85
      P1  H  7997  8009       L1    20  0.95

> <Gold.PLP.Chemscore.Internal.Correction>
0.0186

> <Gold.Rescore>
     Score         DG    S(hbond)    S(metal)    S(lipo)     H(rot)  DE(clash)    DE(int)     intcor
     21.85     -23.54       4.58        0.00      58.74       1.61       1.22       0.47       ----

> <Gold.Chemscore.Fitness>
21.8473

> <Gold.Chemscore.DG>
-23.5375

> <Gold.Chemscore.ZeroCoef>
-5.4800

> <Gold.Chemscore.Hbond>
4.5815

> <Gold.Chemscore.Metal>
0.0000

> <Gold.Chemscore.Lipo>
58.7361

> <Gold.Chemscore.Internal_Hbond>
0.0000

> <Gold.Chemscore.DEClash>
1.2229

> <Gold.Chemscore.DEInternal>
0.4673

> <Gold.Chemscore.Rot>
1.6081

> <Gold.Chemscore.Internal.Correction>
   9.000000E+99

> <Gold.Chemscore.Hbonds>
donor molecule, donor type, donor heavy atom, donor atom, acceptor molecule, acceptor atom, score
      L1  H     5    25       P1  7957  0.95
      L1  H     8    26       P1  7957  0.96
      L1  H    11    43       P1 10171  0.94
      P1  H  7989  7998       L1    19  0.14
      P1  H  7997  8009       L1    20  0.20

> <Gold.Chemscore.Hbond.Weighted>
-15.3021

> <Gold.Chemscore.Metal.Weighted>
-0.0000

> <Gold.Chemscore.Lipo.Weighted>
-6.8721

> <Gold.Chemscore.Internal_Hbond.Weighted>
0.0000

> <Gold.Chemscore.DEClash.Weighted>
1.2229

> <Gold.Chemscore.DEInternal.Weighted>
0.4673

> <Gold.Chemscore.Rot.Weighted>
4.1167

> <Gold.Chemscore.Internal.Correction.Weighted>
   9.000000E+99

> <Gold.Protein.RotatedTorsions>
[ 6907 6896 6895 6894 ] final  -37.41 input  -60.11 | X-H torsion
[ 7974 7965 7964 7962 ] final  -55.86 input  175.53 | X-H torsion
[ 8008 7997 7996 7995 ] final -165.78 input   59.86 | X-H torsion
[ 10167 10162 10161 10158 ] final   71.75 input  -65.29 | X-H torsion
[ 10718 10713 10712 10709 ] final -107.85 input   66.30 | X-H torsion
[ 10763 10752 10751 10750 ] final   65.79 input  -60.55 | X-H torsion
[ 11005 11000 10999 10996 ] final   51.59 input  -57.11 | X-H torsion

> <Gold.Protein.ActiveResidues>
 VAL166  LYS551  ARG553  GLY616  TRP617  ASP618  TYR619  PRO620  LYS621  CYS622 
 ASP623  PHE694  ASN695  SER759  ASP760  ASP761  ALA762  ILE779  LEU786  VAL792 
 PHE793  MET794  SER795  GLU796  ALA797  LYS798  CYS799  TRP800  GLU811  SER814 

> <Gold.Protein.RotatedAtoms>
  151.0150  134.9426  159.8028 H   0  0  0  0  0  0  0  0  0  0  0  0  # atno 6907 bound_to 6896
  152.5312  134.2978  159.9077 H   0  0  0  0  0  0  0  0  0  0  0  0  # atno 6908 bound_to 6896
  151.2984  133.4091  159.2672 H   0  0  0  0  0  0  0  0  0  0  0  0  # atno 6909 bound_to 6896
  145.8693  140.8228  142.9896 H   0  0  0  0  0  0  0  0  0  0  0  0  # atno 7974 bound_to 7965
  155.8547  140.0968  157.1652 H   0  0  0  0  0  0  0  0  0  0  0  0  # atno 8008 bound_to 7997
  154.3987  140.1376  156.3949 H   0  0  0  0  0  0  0  0  0  0  0  0  # atno 8009 bound_to 7997
  155.7923  140.3455  155.5358 H   0  0  0  0  0  0  0  0  0  0  0  0  # atno 8010 bound_to 7997
  140.0427  144.5376  150.7422 H   0  0  0  0  0  0  0  0  0  0  0  0  # atno 10167 bound_to 10162
  156.0457  130.5683  150.7879 H   0  0  0  0  0  0  0  0  0  0  0  0  # atno 10718 bound_to 10713
  153.0111  135.5344  154.6722 H   0  0  0  0  0  0  0  0  0  0  0  0  # atno 10763 bound_to 10752
  154.5904  135.2858  155.0644 H   0  0  0  0  0  0  0  0  0  0  0  0  # atno 10764 bound_to 10752
  154.1739  135.6527  153.5069 H   0  0  0  0  0  0  0  0  0  0  0  0  # atno 10765 bound_to 10752
  140.0920  134.5196  155.8843 H   0  0  0  0  0  0  0  0  0  0  0  0  # atno 11005 bound_to 11000
  144.6726  140.1214  143.7449 LP  0  0  0  0  0  0  0  0  0  0  0  0  # atno 17320 bound_to 7965
  145.9156  139.2514  143.1412 LP  0  0  0  0  0  0  0  0  0  0  0  0  # atno 17321 bound_to 7965
  140.7253  143.2629  151.4143 LP  0  0  0  0  0  0  0  0  0  0  0  0  # atno 17342 bound_to 10162
  139.6003  144.1309  152.2191 LP  0  0  0  0  0  0  0  0  0  0  0  0  # atno 17343 bound_to 10162
  157.5328  131.0937  150.9932 LP  0  0  0  0  0  0  0  0  0  0  0  0  # atno 17370 bound_to 10713
  157.0234  130.5683  149.5334 LP  0  0  0  0  0  0  0  0  0  0  0  0  # atno 17371 bound_to 10713
  141.2081  133.6670  156.6346 LP  0  0  0  0  0  0  0  0  0  0  0  0  # atno 17394 bound_to 11000
  140.3339  134.7905  157.4347 LP  0  0  0  0  0  0  0  0  0  0  0  0  # atno 17395 bound_to 11000

$$$$
