AV-unprocessed.smi:36|AV-procd|sdf|290|dock6
  -GOLD-   2262016 73D 1   1.00000     0.00000
 Structure written by MMmdl.
 64 67  0  0  0  0  0  0  0  0  1 V2000
  155.5663  130.4641  167.3355 C   0  0  0  0  0  0  0  0  0  0  0  0
  157.0757  130.5890  167.6008 C   0  0  0  0  0  0  0  0  0  0  0  0
  157.3336  130.6980  169.1129 C   0  0  0  0  0  0  0  0  0  0  0  0
  157.8092  129.3601  167.0383 C   0  0  0  0  0  0  0  0  0  0  0  0
  157.7450  132.1582  166.7404 Si  0  0  0  0  0  0  0  0  0  0  0  0
  156.8427  133.7130  167.3573 C   0  0  0  0  0  0  0  0  0  0  0  0
  159.6158  132.3484  167.0125 C   0  0  0  0  0  0  0  0  0  0  0  0
  157.4648  131.9992  165.0802 O   0  0  0  0  0  0  0  0  0  0  0  0
  157.6585  133.0466  164.1535 C   0  0  0  0  0  0  0  0  0  0  0  0
  156.3849  133.9020  164.0985 C   0  0  1  0  0  0  0  0  0  0  0  0
  156.2404  134.5337  162.8263 O   0  0  0  0  0  0  0  0  0  0  0  0
  154.8936  134.5915  162.4623 C   0  0  2  0  0  0  0  0  0  0  0  0
  154.5381  136.0076  162.1418 N   0  0  0  0  0  0  0  0  0  0  0  0
  154.5359  137.0400  163.0056 C   0  0  0  0  0  0  0  0  0  0  0  0
  154.1851  138.2152  162.4908 N   0  0  0  0  0  0  0  0  0  0  0  0
  153.9311  137.9002  161.1600 C   0  0  0  0  0  0  0  0  0  0  0  0
  153.4982  138.7648  160.0410 C   0  0  0  0  0  0  0  0  0  0  0  0
  153.3300  140.0290  160.2865 N   0  0  0  0  0  0  0  0  0  0  0  0
  152.9230  140.8882  159.2741 C   0  0  0  0  0  0  0  0  0  0  0  0
  152.8820  140.6854  158.0574 O   0  0  0  0  0  0  0  0  0  0  0  0
  152.5372  142.2436  159.7708 C   0  0  0  0  0  0  0  0  0  0  0  0
  152.2129  143.2664  158.8543 C   0  0  0  0  0  0  0  0  0  0  0  0
  151.8548  144.5462  159.3214 C   0  0  0  0  0  0  0  0  0  0  0  0
  151.8223  144.8077  160.7051 C   0  0  0  0  0  0  0  0  0  0  0  0
  152.1493  143.7899  161.6223 C   0  0  0  0  0  0  0  0  0  0  0  0
  152.5071  142.5095  161.1566 C   0  0  0  0  0  0  0  0  0  0  0  0
  153.3554  137.9994  158.8764 N   0  0  0  0  0  0  0  0  0  0  0  0
  153.5967  136.6218  158.7625 C   0  0  0  0  0  0  0  0  0  0  0  0
  153.9894  135.8495  159.7399 N   0  0  0  0  0  0  0  0  0  0  0  0
  154.1364  136.5573  160.9250 C   0  0  0  0  0  0  0  0  0  0  0  0
  154.0708  134.0717  163.6428 C   0  0  0  0  0  0  0  0  0  0  0  0
  155.0642  133.1525  164.3222 C   0  0  1  0  0  0  0  0  0  0  0  0
  155.0654  131.8742  163.7140 O   0  0  0  0  0  0  0  0  0  0  0  0
  155.1514  129.5788  167.8185 H   0  0  0  0  0  0  0  0  0  0  0  0
  155.3556  130.3848  166.2687 H   0  0  0  0  0  0  0  0  0  0  0  0
  155.0228  131.3297  167.7148 H   0  0  0  0  0  0  0  0  0  0  0  0
  156.8223  131.5596  169.5429 H   0  0  0  0  0  0  0  0  0  0  0  0
  158.3975  130.8071  169.3258 H   0  0  0  0  0  0  0  0  0  0  0  0
  156.9813  129.8109  169.6404 H   0  0  0  0  0  0  0  0  0  0  0  0
  157.4688  128.4412  167.5169 H   0  0  0  0  0  0  0  0  0  0  0  0
  158.8857  129.4349  167.1962 H   0  0  0  0  0  0  0  0  0  0  0  0
  157.6412  129.2529  165.9664 H   0  0  0  0  0  0  0  0  0  0  0  0
  156.9501  133.8378  168.4344 H   0  0  0  0  0  0  0  0  0  0  0  0
  155.7760  133.6696  167.1386 H   0  0  0  0  0  0  0  0  0  0  0  0
  157.2329  134.6155  166.8874 H   0  0  0  0  0  0  0  0  0  0  0  0
  159.8615  132.4245  168.0714 H   0  0  0  0  0  0  0  0  0  0  0  0
  160.0000  133.2443  166.5254 H   0  0  0  0  0  0  0  0  0  0  0  0
  160.1677  131.4993  166.6100 H   0  0  0  0  0  0  0  0  0  0  0  0
  158.5240  133.6483  164.4318 H   0  0  0  0  0  0  0  0  0  0  0  0
  157.8616  132.6078  163.1761 H   0  0  0  0  0  0  0  0  0  0  0  0
  156.4520  134.6890  164.8510 H   0  0  0  0  0  0  0  0  0  0  0  0
  154.7319  134.0301  161.5410 H   0  0  0  0  0  0  0  0  0  0  0  0
  154.8045  136.9271  164.0458 H   0  0  0  0  0  0  0  0  0  0  0  0
  152.2366  143.0738  157.7910 H   0  0  0  0  0  0  0  0  0  0  0  0
  151.6059  145.3276  158.6184 H   0  0  0  0  0  0  0  0  0  0  0  0
  151.5483  145.7894  161.0626 H   0  0  0  0  0  0  0  0  0  0  0  0
  152.1270  143.9918  162.6831 H   0  0  0  0  0  0  0  0  0  0  0  0
  152.7589  141.7344  161.8662 H   0  0  0  0  0  0  0  0  0  0  0  0
  153.4281  136.2230  157.7611 H   0  0  0  0  0  0  0  0  0  0  0  0
  153.8098  134.8960  164.3080 H   0  0  0  0  0  0  0  0  0  0  0  0
  153.1546  133.5835  163.3089 H   0  0  0  0  0  0  0  0  0  0  0  0
  154.8438  133.0291  165.3829 H   0  0  0  0  0  0  0  0  0  0  0  0
  155.8405  131.8000  163.1784 H   0  0  0  0  0  0  0  0  0  0  0  0
  153.0572  138.4853  158.0428 H   0  0  0  0  0  0  0  0  0  0  0  0
  1  2  1  0  0  0  0
  1 34  1  0  0  0  0
  1 35  1  0  0  0  0
  1 36  1  0  0  0  0
  2  3  1  0  0  0  0
  2  4  1  0  0  0  0
  2  5  1  0  0  0  0
  3 37  1  0  0  0  0
  3 38  1  0  0  0  0
  3 39  1  0  0  0  0
  4 40  1  0  0  0  0
  4 41  1  0  0  0  0
  4 42  1  0  0  0  0
  5  6  1  0  0  0  0
  5  7  1  0  0  0  0
  5  8  1  0  0  0  0
  6 43  1  0  0  0  0
  6 44  1  0  0  0  0
  6 45  1  0  0  0  0
  7 46  1  0  0  0  0
  7 47  1  0  0  0  0
  7 48  1  0  0  0  0
  8  9  1  0  0  0  0
  9 10  1  0  0  0  0
  9 49  1  0  0  0  0
  9 50  1  0  0  0  0
 10 32  1  0  0  0  0
 10 11  1  0  0  0  0
 10 51  1  0  0  0  0
 11 12  1  0  0  0  0
 12 13  1  0  0  0  0
 12 31  1  0  0  0  0
 12 52  1  0  0  0  0
 13 30  1  0  0  0  0
 13 14  1  0  0  0  0
 14 15  2  0  0  0  0
 14 53  1  0  0  0  0
 15 16  1  0  0  0  0
 16 30  2  0  0  0  0
 16 17  1  0  0  0  0
 17 18  2  0  0  0  0
 17 27  1  0  0  0  0
 18 19  1  0  0  0  0
 19 20  2  0  0  0  0
 19 21  1  0  0  0  0
 21 26  1  0  0  0  0
 21 22  2  0  0  0  0
 22 23  1  0  0  0  0
 22 54  1  0  0  0  0
 23 24  2  0  0  0  0
 23 55  1  0  0  0  0
 24 25  1  0  0  0  0
 24 56  1  0  0  0  0
 25 26  2  0  0  0  0
 25 57  1  0  0  0  0
 26 58  1  0  0  0  0
 27 28  1  0  0  0  0
 27 64  1  0  0  0  0
 28 29  2  0  0  0  0
 28 59  1  0  0  0  0
 29 30  1  0  0  0  0
 31 32  1  0  0  0  0
 31 60  1  0  0  0  0
 31 61  1  0  0  0  0
 32 33  1  0  0  0  0
 32 62  1  0  0  0  0
 33 63  1  0  0  0  0
M  END
> <s_m_source_file>
AV-unprocessed.smi

> <i_m_source_file_index>
36

> <i_lp_mmshare_version>
43012

> <i_f3d_flags>
0

> <s_epik_input>
W0NIM11DKFtDSDNdKShbQ0gzXSlbU2ldKFtDSDNdKShbQ0gzXSlPW0NIMl1bQ0BASF0xT1tDQEhdKFtDSDJdW0NASF0xW09IXSluKFtjSF1uMiljKGMyMyluW2NIXW5jM1tOSF1DKD1PKWM0W2NIXVtjSF1bY0hdW2NIXVtjSF00

> <s_epik_cmdline>
J2VwaWtfcHl0aG9uJywgJy1waCcsICc3LjAnLCAnLXRuJywgJzgnLCAnLW1hJywgJzIwMCcsICctbWV0YWxfYmluZGluZycsICctaW1hZScsICc8aW5maWxlLm1hZT4nLCAnLW9tYWUnLCAnPG91dGZpbGUubWFlPic=

> <r_epik_Ionization_Penalty>
0.0850405

> <r_epik_Ionization_Penalty_Charging>
0.0850403

> <r_epik_Ionization_Penalty_Neutral>
1.47497e-07

> <r_epik_State_Penalty>
2.6133

> <r_epik_Charging_Adjusted_Penalty>
2.69834

> <i_epik_Tot_Q>
0

> <i_epik_Tot_abs_Q>
0

> <r_epik_Metal_State_Penalty>
2.92945

> <b_epik_Metal_Only>
0

> <s_epik_Chemistry_Notes>
This compound contains an acetal/aminal-like group ( X-CH(R)-Y where X, Y are N, S, or O) that may be acid/base labile, releasing an aldehyde.

> <s_lp_Force_Field>
OPLS_2005

> <r_lp_Energy>
50.4083

> <b_lp_Chiralities_Consistent>
1

> <s_lp_Variant>
AV-unprocessed.smi:36-12

> <Gold.Version>
5.8.1

> <Gold.Id.Protein>
6NUR|6NUR_protein|mol2

> <Gold.PLP.Fitness>
52.4423

> <Gold.PLP.PLP>
-48.2596

> <Gold.PLP.part.hbond>
-2.0000

> <Gold.PLP.part.metal>
0.0000

> <Gold.PLP.part.buried>
-3.7260

> <Gold.PLP.part.nonpolar>
-42.3882

> <Gold.PLP.part.repulsive>
0.0872

> <Gold.PLP.ligand.clash>
0.0000

> <Gold.PLP.ligand.torsion>
0.6388

> <Gold.PLP.Chemscore.Hbond>
1.7840

> <Gold.PLP.Chemscore.CHOScore>
0.0000

> <Gold.PLP.Chemscore.Metal>
0.0000

> <Gold.Chemscore.Hbonds>
donor molecule, donor type, donor heavy atom, donor atom, acceptor molecule, acceptor atom, score
      P1  H  6896  6908       L1    29  1.00
      P1  H  7997  8010       L1    20  0.64

> <Gold.PLP.Chemscore.Internal.Correction>
0.1085

> <Gold.Rescore>
     Score         DG    S(hbond)    S(metal)    S(lipo)     H(rot)  DE(clash)    DE(int)     intcor
     13.46     -15.48       1.11        0.00     112.92       2.70       0.05       1.97       ----

> <Gold.Chemscore.Fitness>
13.4632

> <Gold.Chemscore.DG>
-15.4784

> <Gold.Chemscore.ZeroCoef>
-5.4800

> <Gold.Chemscore.Hbond>
1.1105

> <Gold.Chemscore.Metal>
0.0000

> <Gold.Chemscore.Lipo>
112.9224

> <Gold.Chemscore.Internal_Hbond>
0.0000

> <Gold.Chemscore.DEClash>
0.0456

> <Gold.Chemscore.DEInternal>
1.9696

> <Gold.Chemscore.Rot>
2.7041

> <Gold.Chemscore.Internal.Correction>
   9.000000E+99

> <Gold.Chemscore.Hbonds>
donor molecule, donor type, donor heavy atom, donor atom, acceptor molecule, acceptor atom, score
      P1  H  6896  6908       L1    29  0.22
      P1  H  7997  8010       L1    20  0.62

> <Gold.Chemscore.Hbond.Weighted>
-3.7090

> <Gold.Chemscore.Metal.Weighted>
-0.0000

> <Gold.Chemscore.Lipo.Weighted>
-13.2119

> <Gold.Chemscore.Internal_Hbond.Weighted>
0.0000

> <Gold.Chemscore.DEClash.Weighted>
0.0456

> <Gold.Chemscore.DEInternal.Weighted>
1.9696

> <Gold.Chemscore.Rot.Weighted>
6.9225

> <Gold.Chemscore.Internal.Correction.Weighted>
   9.000000E+99

> <Gold.Protein.RotatedTorsions>
[ 6907 6896 6895 6894 ] final  -58.51 input  -60.11 | X-H torsion
[ 7974 7965 7964 7962 ] final  -40.19 input  175.53 | X-H torsion
[ 8008 7997 7996 7995 ] final   40.72 input   59.86 | X-H torsion
[ 10167 10162 10161 10158 ] final  -35.20 input  -65.29 | X-H torsion
[ 10718 10713 10712 10709 ] final -144.25 input   66.30 | X-H torsion
[ 10763 10752 10751 10750 ] final  -14.16 input  -60.55 | X-H torsion
[ 11005 11000 10999 10996 ] final -112.20 input  -57.11 | X-H torsion

> <Gold.Protein.ActiveResidues>
 VAL166  LYS551  ARG553  GLY616  TRP617  ASP618  TYR619  PRO620  LYS621  CYS622 
 ASP623  PHE694  ASN695  SER759  ASP760  ASP761  ALA762  ILE779  LEU786  VAL792 
 PHE793  MET794  SER795  GLU796  ALA797  LYS798  CYS799  TRP800  GLU811  SER814 

> <Gold.Protein.RotatedAtoms>
  150.8001  134.7089  159.6592 H   0  0  0  0  0  0  0  0  0  0  0  0  # atno 6907 bound_to 6896
  152.4118  134.6108  160.0035 H   0  0  0  0  0  0  0  0  0  0  0  0  # atno 6908 bound_to 6896
  151.6349  133.3292  159.3153 H   0  0  0  0  0  0  0  0  0  0  0  0  # atno 6909 bound_to 6896
  146.0327  140.6711  142.9125 H   0  0  0  0  0  0  0  0  0  0  0  0  # atno 7974 bound_to 7965
  155.2578  140.3357  155.4276 H   0  0  0  0  0  0  0  0  0  0  0  0  # atno 8008 bound_to 7997
  156.2188  140.1800  156.7570 H   0  0  0  0  0  0  0  0  0  0  0  0  # atno 8009 bound_to 7997
  154.5793  140.0656  156.9065 H   0  0  0  0  0  0  0  0  0  0  0  0  # atno 8010 bound_to 7997
  140.7170  143.3494  151.2188 H   0  0  0  0  0  0  0  0  0  0  0  0  # atno 10167 bound_to 10162
  156.3678  130.7772  151.1949 H   0  0  0  0  0  0  0  0  0  0  0  0  # atno 10718 bound_to 10713
  153.5241  135.7015  153.5716 H   0  0  0  0  0  0  0  0  0  0  0  0  # atno 10763 bound_to 10752
  153.3752  135.3934  155.1817 H   0  0  0  0  0  0  0  0  0  0  0  0  # atno 10764 bound_to 10752
  154.8691  135.3822  154.4732 H   0  0  0  0  0  0  0  0  0  0  0  0  # atno 10765 bound_to 10752
  141.0689  133.9412  157.2523 H   0  0  0  0  0  0  0  0  0  0  0  0  # atno 11005 bound_to 11000
  144.7037  140.3765  143.7135 LP  0  0  0  0  0  0  0  0  0  0  0  0  # atno 17320 bound_to 7965
  145.7014  139.1662  143.2590 LP  0  0  0  0  0  0  0  0  0  0  0  0  # atno 17321 bound_to 7965
  139.7021  143.9516  152.2910 LP  0  0  0  0  0  0  0  0  0  0  0  0  # atno 17342 bound_to 10162
  139.9212  144.6798  150.8459 LP  0  0  0  0  0  0  0  0  0  0  0  0  # atno 17343 bound_to 10162
  157.7481  131.0381  150.4487 LP  0  0  0  0  0  0  0  0  0  0  0  0  # atno 17370 bound_to 10713
  156.4709  130.4052  149.6519 LP  0  0  0  0  0  0  0  0  0  0  0  0  # atno 17371 bound_to 10713
  139.9504  135.0176  156.8977 LP  0  0  0  0  0  0  0  0  0  0  0  0  # atno 17394 bound_to 11000
  140.5714  134.0439  155.7432 LP  0  0  0  0  0  0  0  0  0  0  0  0  # atno 17395 bound_to 11000

$$$$
