#       Name:                AV-unprocessed.smi:806
#       Creating user name   scv26
#       Creation time:       Fri Mar 27 01:23:38 2020


#       File generated by GOLD software.
#

@<TRIPOS>MOLECULE
AV-unprocessed.smi:806
    49    50     1
SMALL
NO_CHARGES


@<TRIPOS>ATOM
      1 ****         1.2094  -2.6133   0.9737 C.3            1 S1                 0.0000
      2 ****         0.3019  -1.4953   0.6514 N.am           1 S1                 0.0000
      3 ****         0.7738  -0.2373   0.4120 C.2            1 S1                 0.0000
      4 ****         0.0293   0.7009   0.1226 O.2            1 S1                 0.0000
      5 ****         2.2855   0.0522   0.5034 C.3            1 S1                 0.0000
      6 ****         2.6253   1.4716   0.2607 N.4            1 S1                 1.0000
      7 ****         2.7375   1.8529  -1.1641 C.3            1 S1                 0.0000
      8 ****         2.8399   3.3784  -1.3235 C.3            1 S1                 0.0000
      9 ****         1.6544   4.0598  -0.8341 N.pl3          1 S1                 0.0000
     10 ****         1.5406   4.9263   0.2329 C.2            1 S1                 0.0000
     11 ****         0.2305   5.3024   0.3125 C.2            1 S1                 0.0000
     12 ****        -0.3860   4.6130  -0.7687 C.2            1 S1                 0.0000
     13 ****         0.4699   3.8729  -1.4547 N.2            1 S1                 0.0000
     14 ****        -1.1626  -1.8053   0.5709 C.3            1 S1                 0.0000
     15 ****        -1.9444  -0.8273   1.3610 C.1            1 S1                 0.0000
     16 ****        -2.5554  -0.0634   1.9802 N.1            1 S1                 0.0000
     17 ****        -1.6075  -1.7714  -0.9192 C.3            1 S1                 0.0000
     18 ****        -3.0993  -2.0997  -1.1099 C.3            1 S1                 0.0000
     19 ****        -3.4519  -3.4654  -0.5065 C.3            1 S1                 0.0000
     20 ****        -3.0319  -3.5440   0.9669 C.3            1 S1                 0.0000
     21 ****        -1.5368  -3.2140   1.1294 C.3            1 S1                 0.0000
     22 ****         2.2704  -2.3772   1.0023 H              1 S1                 0.0000
     23 ****         1.1080  -3.4034   0.2297 H              1 S1                 0.0000
     24 ****         0.9785  -3.0271   1.9550 H              1 S1                 0.0000
     25 ****         2.6199  -0.1857   1.5136 H              1 S1                 0.0000
     26 ****         2.8442  -0.5766  -0.1912 H              1 S1                 0.0000
     27 ****         1.9091   2.0391   0.6923 H              1 S1                 0.0000
     28 ****         3.6199   1.3743  -1.5898 H              1 S1                 0.0000
     29 ****         1.8793   1.4790  -1.7239 H              1 S1                 0.0000
     30 ****         3.7118   3.7597  -0.7906 H              1 S1                 0.0000
     31 ****         2.9747   3.6383  -2.3744 H              1 S1                 0.0000
     32 ****         2.3893   5.1966   0.8441 H              1 S1                 0.0000
     33 ****        -0.2195   5.9704   1.0320 H              1 S1                 0.0000
     34 ****        -1.4219   4.6285  -1.0739 H              1 S1                 0.0000
     35 ****        -1.4177  -0.7956  -1.3649 H              1 S1                 0.0000
     36 ****        -1.0104  -2.4823  -1.4922 H              1 S1                 0.0000
     37 ****        -3.7126  -1.3244  -0.6495 H              1 S1                 0.0000
     38 ****        -3.3458  -2.0923  -2.1720 H              1 S1                 0.0000
     39 ****        -4.5227  -3.6496  -0.6001 H              1 S1                 0.0000
     40 ****        -2.9521  -4.2535  -1.0711 H              1 S1                 0.0000
     41 ****        -3.6393  -2.8609   1.5616 H              1 S1                 0.0000
     42 ****        -3.2331  -4.5435   1.3534 H              1 S1                 0.0000
     43 ****        -0.9814  -4.0013   0.6203 H              1 S1                 0.0000
     44 ****        -1.2810  -3.2804   2.1876 H              1 S1                 0.0000
     45 ****         3.5092   1.6725   0.7057 H              1 S1                 0.0000
     46 ****        -0.9576   0.5540   0.0563 LP             1 S1                 0.0000
     47 ****         0.4120   1.6093  -0.0460 LP             1 S1                 0.0000
     48 ****         0.2816   3.3026  -2.2542 LP             1 S1                 0.0000
     49 ****        -3.0831   0.5965   2.5150 LP             1 S1                 0.0000
@<TRIPOS>BOND
    1    1    2 1     
    2    1   22 1     
    3    1   23 1     
    4    1   24 1     
    5    2    3 am    
    6    2   14 1     
    7    3    4 2     
    8    3    5 1     
    9    5    6 1     
   10    5   25 1     
   11    5   26 1     
   12    6    7 1     
   13    6   27 1     
   14    6   45 1     
   15    7    8 1     
   16    7   28 1     
   17    7   29 1     
   18    8    9 1     
   19    8   30 1     
   20    8   31 1     
   21    9   13 1     
   22    9   10 1     
   23   10   11 2     
   24   10   32 1     
   25   11   12 1     
   26   11   33 1     
   27   12   13 2     
   28   12   34 1     
   29   14   21 1     
   30   14   15 1     
   31   14   17 1     
   32   15   16 3     
   33   17   18 1     
   34   17   35 1     
   35   17   36 1     
   36   18   19 1     
   37   18   37 1     
   38   18   38 1     
   39   19   20 1     
   40   19   39 1     
   41   19   40 1     
   42   20   21 1     
   43   20   41 1     
   44   20   42 1     
   45   21   43 1     
   46   21   44 1     
   47    4   46 1     
   48    4   47 1     
   49   13   48 1     
   50   16   49 1     
@<TRIPOS>SUBSTRUCTURE
      1 S1             1
@<TRIPOS>SET
LONE_PAIRS      STATIC     ATOMS    <user>   **** ""
4 46 47 48 49
DONOR_HYDROGENS      STATIC     ATOMS    <user>   **** ""
2 27 45
ATOM$BLUE        STATIC     ATOMS    COLORGROUP SYSTEM
4 46 47 48 49
ATOM$RED        STATIC     ATOMS    COLORGROUP SYSTEM
2 27 45
