AV-unprocessed.smi:681|AV-procd|sdf|3325|dock10
  -GOLD-   22720 0293D 1   1.00000     0.00000
 Structure written by MMmdl.
 41 42  0  0  0  0  0  0  0  0  1 V2000
  145.8043  139.9329  158.3511 C   0  0  0  0  0  0  0  0  0  0  0  0
  146.2299  140.6705  157.1283 C   0  0  0  0  0  0  0  0  0  0  0  0
  145.4457  141.6030  156.5133 N   0  0  0  0  0  0  0  0  0  0  0  0
  146.2400  141.9523  155.5070 C   0  0  0  0  0  0  0  0  0  0  0  0
  145.8886  142.9692  154.4707 C   0  0  0  0  0  0  0  0  0  0  0  0
  147.4059  141.2896  155.5098 N   0  0  0  0  0  0  0  0  0  0  0  0
  148.5417  141.3491  154.6034 C   0  0  0  0  0  0  0  0  0  0  0  0
  149.8605  141.4113  155.3750 C   0  0  0  0  0  0  0  0  0  0  0  0
  150.7182  140.5466  155.1976 O   0  0  0  0  0  0  0  0  0  0  0  0
  150.0063  142.4358  156.2295 N   0  0  0  0  0  0  0  0  0  0  0  0
  151.1731  142.6635  157.0726 C   0  0  0  0  0  0  0  0  0  0  0  0
  151.4416  141.4602  157.9926 C   0  0  0  0  0  0  0  0  0  0  0  0
  152.3241  141.8121  159.1787 C   0  0  0  0  0  0  0  0  0  0  0  0
  152.0978  142.9031  159.9363 C   0  0  0  0  0  0  0  0  0  0  0  0
  152.9350  143.2940  161.1417 C   0  0  0  0  0  0  0  0  0  0  0  0
  153.8470  142.1508  161.6168 C   0  0  0  0  0  0  0  0  0  0  0  0
  154.5212  141.4506  160.4305 C   0  0  0  0  0  0  0  0  0  0  0  0
  153.4798  140.8589  159.4638 C   0  0  0  0  0  0  0  0  0  0  0  0
  147.4160  140.4449  156.5689 N   0  0  0  0  0  0  0  0  0  0  0  0
  144.8358  140.2911  158.7014 H   0  0  0  0  0  0  0  0  0  0  0  0
  146.5327  140.0726  159.1502 H   0  0  0  0  0  0  0  0  0  0  0  0
  145.7208  138.8671  158.1376 H   0  0  0  0  0  0  0  0  0  0  0  0
  144.9297  143.4340  154.7024 H   0  0  0  0  0  0  0  0  0  0  0  0
  145.8169  142.4970  153.4910 H   0  0  0  0  0  0  0  0  0  0  0  0
  146.6494  143.7489  154.4329 H   0  0  0  0  0  0  0  0  0  0  0  0
  148.5285  140.4722  153.9552 H   0  0  0  0  0  0  0  0  0  0  0  0
  148.4455  142.2225  153.9563 H   0  0  0  0  0  0  0  0  0  0  0  0
  149.2457  143.0951  156.3135 H   0  0  0  0  0  0  0  0  0  0  0  0
  152.0480  142.8767  156.4556 H   0  0  0  0  0  0  0  0  0  0  0  0
  150.9848  143.5594  157.6645 H   0  0  0  0  0  0  0  0  0  0  0  0
  150.5000  141.0546  158.3646 H   0  0  0  0  0  0  0  0  0  0  0  0
  151.9137  140.6601  157.4205 H   0  0  0  0  0  0  0  0  0  0  0  0
  151.2810  143.5668  159.6926 H   0  0  0  0  0  0  0  0  0  0  0  0
  153.5326  144.1641  160.8685 H   0  0  0  0  0  0  0  0  0  0  0  0
  152.2752  143.6034  161.9527 H   0  0  0  0  0  0  0  0  0  0  0  0
  154.5966  142.5348  162.3095 H   0  0  0  0  0  0  0  0  0  0  0  0
  153.2567  141.4215  162.1734 H   0  0  0  0  0  0  0  0  0  0  0  0
  155.1451  142.1700  159.8983 H   0  0  0  0  0  0  0  0  0  0  0  0
  155.1897  140.6647  160.7835 H   0  0  0  0  0  0  0  0  0  0  0  0
  153.0687  139.9415  159.8857 H   0  0  0  0  0  0  0  0  0  0  0  0
  153.9675  140.5855  158.5275 H   0  0  0  0  0  0  0  0  0  0  0  0
  1  2  1  0  0  0  0
  1 20  1  0  0  0  0
  1 21  1  0  0  0  0
  1 22  1  0  0  0  0
  2 19  2  0  0  0  0
  2  3  1  0  0  0  0
  3  4  2  0  0  0  0
  4  5  1  0  0  0  0
  4  6  1  0  0  0  0
  5 23  1  0  0  0  0
  5 24  1  0  0  0  0
  5 25  1  0  0  0  0
  6  7  1  0  0  0  0
  6 19  1  0  0  0  0
  7  8  1  0  0  0  0
  7 26  1  0  0  0  0
  7 27  1  0  0  0  0
  8  9  2  0  0  0  0
  8 10  1  0  0  0  0
 10 11  1  0  0  0  0
 10 28  1  0  0  0  0
 11 12  1  0  0  0  0
 11 29  1  0  0  0  0
 11 30  1  0  0  0  0
 12 13  1  0  0  0  0
 12 31  1  0  0  0  0
 12 32  1  0  0  0  0
 13 18  1  0  0  0  0
 13 14  2  0  0  0  0
 14 15  1  0  0  0  0
 14 33  1  0  0  0  0
 15 16  1  0  0  0  0
 15 34  1  0  0  0  0
 15 35  1  0  0  0  0
 16 17  1  0  0  0  0
 16 36  1  0  0  0  0
 16 37  1  0  0  0  0
 17 18  1  0  0  0  0
 17 38  1  0  0  0  0
 17 39  1  0  0  0  0
 18 40  1  0  0  0  0
 18 41  1  0  0  0  0
M  END
> <s_m_source_file>
AV-unprocessed.smi

> <i_m_source_file_index>
681

> <i_lp_mmshare_version>
43012

> <i_f3d_flags>
0

> <s_epik_input>
W0NIM11jMW5jKFtDSDNdKW4objEpW0NIMl1DKD1PKVtOSF1bQ0gyXVtDSDJdQzI9W0NIXVtDSDJdW0NIMl1bQ0gyXVtDSDJdMg==

> <s_epik_cmdline>
J2VwaWtfcHl0aG9uJywgJy1waCcsICc3LjAnLCAnLXRuJywgJzgnLCAnLW1hJywgJzIwMCcsICctbWV0YWxfYmluZGluZycsICctaW1hZScsICc8aW5maWxlLm1hZT4nLCAnLW9tYWUnLCAnPG91dGZpbGUubWFlPic=

> <r_lp_tautomer_probability>
1

> <r_epik_Ionization_Penalty>
0.000426663

> <r_epik_Ionization_Penalty_Charging>
0

> <r_epik_Ionization_Penalty_Neutral>
0.000426663

> <r_epik_State_Penalty>
0.000262586

> <r_epik_Charging_Adjusted_Penalty>
0.000262586

> <i_epik_Tot_Q>
0

> <i_epik_Tot_abs_Q>
0

> <r_epik_Metal_State_Penalty>
-0

> <b_epik_Metal_Only>
0

> <s_lp_Force_Field>
OPLS_2005

> <r_lp_Energy>
6.45034

> <b_lp_Chiralities_Consistent>
1

> <s_lp_Variant>
AV-unprocessed.smi:681-1

> <Gold.Version>
5.8.1

> <Gold.Id.Protein>
6NUR|6NUR_protein|mol2

> <Gold.PLP.Fitness>
46.0753

> <Gold.PLP.PLP>
-40.9953

> <Gold.PLP.part.hbond>
-1.8490

> <Gold.PLP.part.metal>
0.0000

> <Gold.PLP.part.buried>
-5.6148

> <Gold.PLP.part.nonpolar>
-33.3876

> <Gold.PLP.part.repulsive>
0.3141

> <Gold.PLP.ligand.clash>
0.0000

> <Gold.PLP.ligand.torsion>
0.4112

> <Gold.PLP.Chemscore.Hbond>
1.9600

> <Gold.PLP.Chemscore.CHOScore>
0.0000

> <Gold.PLP.Chemscore.Metal>
0.0000

> <Gold.Chemscore.Hbonds>
donor molecule, donor type, donor heavy atom, donor atom, acceptor molecule, acceptor atom, score
      L1  H    10    28       P1  8028  0.72
      P1  H  7989  7998       L1     9  0.98

> <Gold.PLP.Chemscore.Internal.Correction>
0.0224

> <Gold.Rescore>
     Score         DG    S(hbond)    S(metal)    S(lipo)     H(rot)  DE(clash)    DE(int)     intcor
     13.92     -15.92       1.41        0.00      89.96       1.87       0.05       1.95       ----

> <Gold.Chemscore.Fitness>
13.9187

> <Gold.Chemscore.DG>
-15.9218

> <Gold.Chemscore.ZeroCoef>
-5.4800

> <Gold.Chemscore.Hbond>
1.4120

> <Gold.Chemscore.Metal>
0.0000

> <Gold.Chemscore.Lipo>
89.9641

> <Gold.Chemscore.Internal_Hbond>
0.0000

> <Gold.Chemscore.DEClash>
0.0494

> <Gold.Chemscore.DEInternal>
1.9536

> <Gold.Chemscore.Rot>
1.8750

> <Gold.Chemscore.Internal.Correction>
   9.000000E+99

> <Gold.Chemscore.Hbonds>
donor molecule, donor type, donor heavy atom, donor atom, acceptor molecule, acceptor atom, score
      L1  H    10    28       P1  8028  0.72
      P1  H  7989  7998       L1     9  0.65

> <Gold.Chemscore.Hbond.Weighted>
-4.7159

> <Gold.Chemscore.Metal.Weighted>
-0.0000

> <Gold.Chemscore.Lipo.Weighted>
-10.5258

> <Gold.Chemscore.Internal_Hbond.Weighted>
0.0000

> <Gold.Chemscore.DEClash.Weighted>
0.0494

> <Gold.Chemscore.DEInternal.Weighted>
1.9536

> <Gold.Chemscore.Rot.Weighted>
4.7999

> <Gold.Chemscore.Internal.Correction.Weighted>
   9.000000E+99

> <Gold.Protein.RotatedTorsions>
[ 6907 6896 6895 6894 ] final -144.62 input  -60.11 | X-H torsion
[ 7974 7965 7964 7962 ] final    0.49 input  175.53 | X-H torsion
[ 8008 7997 7996 7995 ] final  164.69 input   59.86 | X-H torsion
[ 10167 10162 10161 10158 ] final   46.55 input  -65.29 | X-H torsion
[ 10718 10713 10712 10709 ] final  126.49 input   66.30 | X-H torsion
[ 10763 10752 10751 10750 ] final -168.34 input  -60.55 | X-H torsion
[ 11005 11000 10999 10996 ] final  -55.66 input  -57.11 | X-H torsion

> <Gold.Protein.ActiveResidues>
 VAL166  LYS551  ARG553  GLY616  TRP617  ASP618  TYR619  PRO620  LYS621  CYS622 
 ASP623  PHE694  ASN695  SER759  ASP760  ASP761  ALA762  ILE779  LEU786  VAL792 
 PHE793  MET794  SER795  GLU796  ALA797  LYS798  CYS799  TRP800  GLU811  SER814 

> <Gold.Protein.RotatedAtoms>
  151.1166  133.5134  159.2603 H   0  0  0  0  0  0  0  0  0  0  0  0  # atno 6907 bound_to 6896
  151.1908  135.0401  159.8842 H   0  0  0  0  0  0  0  0  0  0  0  0  # atno 6908 bound_to 6896
  152.5453  134.1006  159.8369 H   0  0  0  0  0  0  0  0  0  0  0  0  # atno 6909 bound_to 6896
  146.2434  140.1130  142.8343 H   0  0  0  0  0  0  0  0  0  0  0  0  # atno 7974 bound_to 7965
  156.1860  140.1690  156.8184 H   0  0  0  0  0  0  0  0  0  0  0  0  # atno 8008 bound_to 7997
  154.5415  140.0736  156.8550 H   0  0  0  0  0  0  0  0  0  0  0  0  # atno 8009 bound_to 7997
  155.3206  140.3373  155.4243 H   0  0  0  0  0  0  0  0  0  0  0  0  # atno 8010 bound_to 7997
  140.3127  144.2800  150.6197 H   0  0  0  0  0  0  0  0  0  0  0  0  # atno 10167 bound_to 10162
  157.5414  131.1097  150.8852 H   0  0  0  0  0  0  0  0  0  0  0  0  # atno 10718 bound_to 10713
  154.6638  135.2929  154.9832 H   0  0  0  0  0  0  0  0  0  0  0  0  # atno 10763 bound_to 10752
  154.0882  135.6594  153.4852 H   0  0  0  0  0  0  0  0  0  0  0  0  # atno 10764 bound_to 10752
  153.0445  135.5213  154.7602 H   0  0  0  0  0  0  0  0  0  0  0  0  # atno 10765 bound_to 10752
  141.1084  133.6612  156.4503 H   0  0  0  0  0  0  0  0  0  0  0  0  # atno 11005 bound_to 11000
  145.0471  140.8990  143.5018 LP  0  0  0  0  0  0  0  0  0  0  0  0  # atno 17320 bound_to 7965
  145.1221  139.2687  143.5583 LP  0  0  0  0  0  0  0  0  0  0  0  0  # atno 17321 bound_to 7965
  140.5553  143.2200  151.7857 LP  0  0  0  0  0  0  0  0  0  0  0  0  # atno 17342 bound_to 10162
  139.4890  144.4421  151.9752 LP  0  0  0  0  0  0  0  0  0  0  0  0  # atno 17343 bound_to 10162
  156.9404  130.5382  149.5280 LP  0  0  0  0  0  0  0  0  0  0  0  0  # atno 17370 bound_to 10713
  156.0500  130.5571  150.8967 LP  0  0  0  0  0  0  0  0  0  0  0  0  # atno 17371 bound_to 10713
  140.4841  134.6637  157.5183 LP  0  0  0  0  0  0  0  0  0  0  0  0  # atno 17394 bound_to 11000
  139.9965  134.6902  155.9600 LP  0  0  0  0  0  0  0  0  0  0  0  0  # atno 17395 bound_to 11000

$$$$
