AV-unprocessed.smi:528|AV-procd|sdf|2835|dock5
  -GOLD-   2262023323D 1   1.00000     0.00000
 Structure written by MMmdl.
 45 47  0  0  0  0  0  0  0  0  1 V2000
  150.4006  141.0821  156.8978 C   0  0  0  0  0  0  0  0  0  0  0  0
  151.5574  141.4276  157.8511 C   0  0  2  0  0  0  0  0  0  0  0  0
  151.9916  140.2011  158.5180 N   0  0  0  0  0  0  0  0  0  0  0  0
  152.7761  139.2504  157.9873 C   0  0  0  0  0  0  0  0  0  0  0  0
  153.2497  139.3171  156.8521 O   0  0  0  0  0  0  0  0  0  0  0  0
  153.0742  138.0493  158.8968 C   0  0  0  0  0  0  0  0  0  0  0  0
  154.3547  138.1592  159.6158 N   0  0  0  0  0  0  0  0  0  0  0  0
  154.3385  137.8944  160.9995 C   0  0  0  0  0  0  0  0  0  0  0  0
  155.4424  137.9476  161.7692 C   0  0  0  0  0  0  0  0  0  0  0  0
  155.3828  137.7151  163.2709 C   0  0  0  0  0  0  0  0  0  0  0  0
  154.1847  137.2606  163.6387 F   0  0  0  0  0  0  0  0  0  0  0  0
  156.3031  136.8316  163.6592 F   0  0  0  0  0  0  0  0  0  0  0  0
  155.6083  138.8592  163.9154 F   0  0  0  0  0  0  0  0  0  0  0  0
  156.6734  138.3303  161.1058 C   0  0  0  0  0  0  0  0  0  0  0  0
  156.7041  138.5995  159.7859 C   0  0  0  0  0  0  0  0  0  0  0  0
  155.4984  138.5173  158.9583 C   0  0  0  0  0  0  0  0  0  0  0  0
  155.5149  138.7560  157.7505 O   0  0  0  0  0  0  0  0  0  0  0  0
  151.1577  142.4893  158.9051 C   0  0  2  0  0  0  0  0  0  0  0  0
  150.4571  143.7315  158.3014 C   0  0  0  0  0  0  0  0  0  0  0  0
  151.2951  144.9070  158.8339 C   0  0  1  0  0  0  0  0  0  0  0  0
  151.0723  145.0547  160.3498 C   0  0  0  0  0  0  0  0  0  0  0  0
  151.8290  143.8411  160.9208 C   0  0  0  0  0  0  0  0  0  0  0  0
  152.3517  143.1382  159.6531 C   0  0  2  0  0  0  0  0  0  0  0  0
  152.7033  144.3314  158.7709 C   0  0  0  0  0  0  0  0  0  0  0  0
  150.0729  141.9517  156.3288 H   0  0  0  0  0  0  0  0  0  0  0  0
  149.5376  140.6989  157.4436 H   0  0  0  0  0  0  0  0  0  0  0  0
  150.7012  140.3213  156.1766 H   0  0  0  0  0  0  0  0  0  0  0  0
  152.3764  141.8305  157.2532 H   0  0  0  0  0  0  0  0  0  0  0  0
  151.6569  140.0590  159.4601 H   0  0  0  0  0  0  0  0  0  0  0  0
  152.2476  137.9427  159.6003 H   0  0  0  0  0  0  0  0  0  0  0  0
  153.0598  137.1350  158.3005 H   0  0  0  0  0  0  0  0  0  0  0  0
  153.3642  137.6527  161.3991 H   0  0  0  0  0  0  0  0  0  0  0  0
  157.5881  138.3996  161.6759 H   0  0  0  0  0  0  0  0  0  0  0  0
  157.6395  138.8811  159.3249 H   0  0  0  0  0  0  0  0  0  0  0  0
  150.4964  142.0111  159.6298 H   0  0  0  0  0  0  0  0  0  0  0  0
  150.4917  143.7222  157.2112 H   0  0  0  0  0  0  0  0  0  0  0  0
  149.4097  143.8008  158.5970 H   0  0  0  0  0  0  0  0  0  0  0  0
  151.1504  145.8336  158.2779 H   0  0  0  0  0  0  0  0  0  0  0  0
  151.5046  145.9855  160.7196 H   0  0  0  0  0  0  0  0  0  0  0  0
  150.0140  145.0481  160.6130 H   0  0  0  0  0  0  0  0  0  0  0  0
  152.6577  144.1701  161.5491 H   0  0  0  0  0  0  0  0  0  0  0  0
  151.1904  143.1957  161.5250 H   0  0  0  0  0  0  0  0  0  0  0  0
  153.1830  142.4637  159.8578 H   0  0  0  0  0  0  0  0  0  0  0  0
  153.0147  144.0541  157.7626 H   0  0  0  0  0  0  0  0  0  0  0  0
  153.4580  144.9864  159.2096 H   0  0  0  0  0  0  0  0  0  0  0  0
  1  2  1  0  0  0  0
  1 25  1  0  0  0  0
  1 26  1  0  0  0  0
  1 27  1  0  0  0  0
  2  3  1  0  0  0  0
  2 18  1  0  0  0  0
  2 28  1  0  0  0  0
  3  4  1  0  0  0  0
  3 29  1  0  0  0  0
  4  5  2  0  0  0  0
  4  6  1  0  0  0  0
  6  7  1  0  0  0  0
  6 30  1  0  0  0  0
  6 31  1  0  0  0  0
  7 16  1  0  0  0  0
  7  8  1  0  0  0  0
  8  9  2  0  0  0  0
  8 32  1  0  0  0  0
  9 10  1  0  0  0  0
  9 14  1  0  0  0  0
 10 11  1  0  0  0  0
 10 12  1  0  0  0  0
 10 13  1  0  0  0  0
 14 15  2  0  0  0  0
 14 33  1  0  0  0  0
 15 16  1  0  0  0  0
 15 34  1  0  0  0  0
 16 17  2  0  0  0  0
 18 23  1  0  0  0  0
 18 19  1  0  0  0  0
 18 35  1  0  0  0  0
 19 20  1  0  0  0  0
 19 36  1  0  0  0  0
 19 37  1  0  0  0  0
 20 24  1  0  0  0  0
 20 21  1  0  0  0  0
 20 38  1  0  0  0  0
 21 22  1  0  0  0  0
 21 39  1  0  0  0  0
 21 40  1  0  0  0  0
 22 23  1  0  0  0  0
 22 41  1  0  0  0  0
 22 42  1  0  0  0  0
 23 24  1  0  0  0  0
 23 43  1  0  0  0  0
 24 44  1  0  0  0  0
 24 45  1  0  0  0  0
M  END
> <s_m_source_file>
AV-unprocessed.smi

> <i_m_source_file_index>
528

> <i_lp_mmshare_version>
43012

> <i_f3d_flags>
0

> <s_epik_input>
W0NIMl0xW0NIMl1bQ0BASF0oW0NIMl0yKVtDQEBIXShbQ0gyXVtDQEhdMTIpW0NASF0oW0NIM10pW05IXUMoPU8pW0NIMl1uM1tjSF1jKEMoRikoRilGKVtjSF1bY0hdYzM9Tw==

> <s_epik_cmdline>
J2VwaWtfcHl0aG9uJywgJy1waCcsICc3LjAnLCAnLXRuJywgJzgnLCAnLW1hJywgJzIwMCcsICctbWV0YWxfYmluZGluZycsICctaW1hZScsICc8aW5maWxlLm1hZT4nLCAnLW9tYWUnLCAnPG91dGZpbGUubWFlPic=

> <r_lp_tautomer_probability>
1

> <r_epik_Ionization_Penalty>
4.09479e-08

> <r_epik_Ionization_Penalty_Charging>
1.9321e-08

> <r_epik_Ionization_Penalty_Neutral>
2.16269e-08

> <r_epik_State_Penalty>
-0

> <r_epik_Charging_Adjusted_Penalty>
1.9321e-08

> <i_epik_Tot_Q>
0

> <i_epik_Tot_abs_Q>
0

> <r_epik_Metal_State_Penalty>
-0

> <b_epik_Metal_Only>
0

> <s_lp_Force_Field>
OPLS_2005

> <r_lp_Energy>
63.0094

> <b_lp_Chiralities_Consistent>
1

> <s_lp_Variant>
AV-unprocessed.smi:528-5

> <Gold.Version>
5.8.1

> <Gold.Id.Protein>
6NUR|6NUR_protein|mol2

> <Gold.PLP.Fitness>
48.1392

> <Gold.PLP.PLP>
-47.2273

> <Gold.PLP.part.hbond>
-2.0000

> <Gold.PLP.part.metal>
0.0000

> <Gold.PLP.part.buried>
-6.3412

> <Gold.PLP.part.nonpolar>
-38.5250

> <Gold.PLP.part.repulsive>
0.1193

> <Gold.PLP.ligand.clash>
1.1328

> <Gold.PLP.ligand.torsion>
1.0956

> <Gold.PLP.Chemscore.Hbond>
1.3806

> <Gold.PLP.Chemscore.CHOScore>
0.0000

> <Gold.PLP.Chemscore.Metal>
0.0000

> <Gold.Chemscore.Hbonds>
donor molecule, donor type, donor heavy atom, donor atom, acceptor molecule, acceptor atom, score
      P1  H  7997  8008       L1     5  0.80
      P1  H  7997  8010       L1    17  0.35

> <Gold.PLP.Chemscore.Internal.Correction>
0.0939

> <Gold.Rescore>
     Score         DG    S(hbond)    S(metal)    S(lipo)     H(rot)  DE(clash)    DE(int)     intcor
     15.84     -20.24       1.43        0.00     122.88       1.71       0.08       4.32       ----

> <Gold.Chemscore.Fitness>
15.8358

> <Gold.Chemscore.DG>
-20.2357

> <Gold.Chemscore.ZeroCoef>
-5.4800

> <Gold.Chemscore.Hbond>
1.4258

> <Gold.Chemscore.Metal>
0.0000

> <Gold.Chemscore.Lipo>
122.8834

> <Gold.Chemscore.Internal_Hbond>
0.0000

> <Gold.Chemscore.DEClash>
0.0800

> <Gold.Chemscore.DEInternal>
4.3199

> <Gold.Chemscore.Rot>
1.7125

> <Gold.Chemscore.Internal.Correction>
   9.000000E+99

> <Gold.Chemscore.Hbonds>
donor molecule, donor type, donor heavy atom, donor atom, acceptor molecule, acceptor atom, score
      P1  H  7997  8008       L1     5  0.76
      P1  H  7997  8010       L1    17  0.35

> <Gold.Chemscore.Hbond.Weighted>
-4.7623

> <Gold.Chemscore.Metal.Weighted>
-0.0000

> <Gold.Chemscore.Lipo.Weighted>
-14.3774

> <Gold.Chemscore.Internal_Hbond.Weighted>
0.0000

> <Gold.Chemscore.DEClash.Weighted>
0.0800

> <Gold.Chemscore.DEInternal.Weighted>
4.3199

> <Gold.Chemscore.Rot.Weighted>
4.3840

> <Gold.Chemscore.Internal.Correction.Weighted>
   9.000000E+99

> <Gold.Protein.RotatedTorsions>
[ 6907 6896 6895 6894 ] final  -53.50 input  -60.11 | X-H torsion
[ 7974 7965 7964 7962 ] final -159.94 input  175.53 | X-H torsion
[ 8008 7997 7996 7995 ] final  -39.63 input   59.86 | X-H torsion
[ 10167 10162 10161 10158 ] final -174.70 input  -65.29 | X-H torsion
[ 10718 10713 10712 10709 ] final    7.99 input   66.30 | X-H torsion
[ 10763 10752 10751 10750 ] final  -62.38 input  -60.55 | X-H torsion
[ 11005 11000 10999 10996 ] final  109.42 input  -57.11 | X-H torsion

> <Gold.Protein.ActiveResidues>
 VAL166  LYS551  ARG553  GLY616  TRP617  ASP618  TYR619  PRO620  LYS621  CYS622 
 ASP623  PHE694  ASN695  SER759  ASP760  ASP761  ALA762  ILE779  LEU786  VAL792 
 PHE793  MET794  SER795  GLU796  ALA797  LYS798  CYS799  TRP800  GLU811  SER814 

> <Gold.Protein.RotatedAtoms>
  150.8421  134.7717  159.6940 H   0  0  0  0  0  0  0  0  0  0  0  0  # atno 6907 bound_to 6896
  152.4506  134.5398  159.9845 H   0  0  0  0  0  0  0  0  0  0  0  0  # atno 6908 bound_to 6896
  151.5535  133.3376  159.2993 H   0  0  0  0  0  0  0  0  0  0  0  0  # atno 6909 bound_to 6896
  144.7446  140.3613  143.6095 H   0  0  0  0  0  0  0  0  0  0  0  0  # atno 7974 bound_to 7965
  154.4021  140.1546  156.2894 H   0  0  0  0  0  0  0  0  0  0  0  0  # atno 8008 bound_to 7997
  155.8798  140.3444  155.5858 H   0  0  0  0  0  0  0  0  0  0  0  0  # atno 8009 bound_to 7997
  155.7680  140.0826  157.2113 H   0  0  0  0  0  0  0  0  0  0  0  0  # atno 8010 bound_to 7997
  139.5620  144.1847  152.1253 H   0  0  0  0  0  0  0  0  0  0  0  0  # atno 10167 bound_to 10162
  156.9450  130.5875  149.5654 H   0  0  0  0  0  0  0  0  0  0  0  0  # atno 10718 bound_to 10713
  154.2989  135.6238  153.5416 H   0  0  0  0  0  0  0  0  0  0  0  0  # atno 10763 bound_to 10752
  152.9843  135.5673  154.5306 H   0  0  0  0  0  0  0  0  0  0  0  0  # atno 10764 bound_to 10752
  154.4932  135.2868  155.1456 H   0  0  0  0  0  0  0  0  0  0  0  0  # atno 10765 bound_to 10752
  139.8862  134.9458  156.6123 H   0  0  0  0  0  0  0  0  0  0  0  0  # atno 11005 bound_to 11000
  145.7175  139.1701  143.2504 LP  0  0  0  0  0  0  0  0  0  0  0  0  # atno 17320 bound_to 7965
  146.1302  140.7196  142.9416 LP  0  0  0  0  0  0  0  0  0  0  0  0  # atno 17321 bound_to 7965
  140.1362  144.5243  150.6772 LP  0  0  0  0  0  0  0  0  0  0  0  0  # atno 17342 bound_to 10162
  140.6901  143.2371  151.5155 LP  0  0  0  0  0  0  0  0  0  0  0  0  # atno 17343 bound_to 10162
  156.0387  130.5472  150.8719 LP  0  0  0  0  0  0  0  0  0  0  0  0  # atno 17370 bound_to 10713
  157.5760  131.0946  150.9345 LP  0  0  0  0  0  0  0  0  0  0  0  0  # atno 17371 bound_to 10713
  140.7802  133.8666  155.8561 LP  0  0  0  0  0  0  0  0  0  0  0  0  # atno 17394 bound_to 11000
  140.9767  134.1460  157.4530 LP  0  0  0  0  0  0  0  0  0  0  0  0  # atno 17395 bound_to 11000

$$$$
