AV-unprocessed.smi:1403|AV-procd|sdf|5697|dock7
  -GOLD-   22720 5323D 1   1.00000     0.00000
 Structure written by MMmdl.
 36 37  0  0  0  0  0  0  0  0  1 V2000
  153.4000  140.7101  160.0358 C   0  0  0  0  0  0  0  0  0  0  0  0
  152.1979  141.3882  159.3566 C   0  0  2  0  0  0  0  0  0  0  0  0
  152.2661  141.1674  157.9145 N   0  0  0  0  0  0  0  0  0  0  0  0
  151.8804  140.0516  157.2770 C   0  0  0  0  0  0  0  0  0  0  0  0
  151.4485  139.0553  157.8583 O   0  0  0  0  0  0  0  0  0  0  0  0
  152.0327  140.0563  155.7500 C   0  0  0  0  0  0  0  0  0  0  0  0
  150.7475  139.9005  155.0540 N   0  0  0  0  0  0  0  0  0  0  0  0
  149.7641  140.8729  155.1681 C   0  0  0  0  0  0  0  0  0  0  0  0
  148.5644  140.7965  154.5448 C   0  0  0  0  0  0  0  0  0  0  0  0
  148.2427  139.6519  153.6991 C   0  0  0  0  0  0  0  0  0  0  0  0
  147.1842  139.4909  153.0958 O   0  0  0  0  0  0  0  0  0  0  0  0
  149.2583  138.6965  153.6077 N   0  0  0  0  0  0  0  0  0  0  0  0
  150.4976  138.7703  154.2454 C   0  0  0  0  0  0  0  0  0  0  0  0
  151.3255  137.8727  154.0933 O   0  0  0  0  0  0  0  0  0  0  0  0
  152.1415  142.9032  159.6336 C   0  0  2  0  0  0  0  0  0  0  0  0
  150.8337  143.5796  159.2142 C   0  0  0  0  0  0  0  0  0  0  0  0
  151.2844  144.9985  158.9560 C   0  0  0  0  0  0  0  0  0  0  0  0
  152.6424  144.7701  158.3035 C   0  0  0  0  0  0  0  0  0  0  0  0
  153.1579  143.5805  158.8936 O   0  0  0  0  0  0  0  0  0  0  0  0
  149.0823  137.8868  153.0310 H   0  0  0  0  0  0  0  0  0  0  0  0
  153.3568  140.8172  161.1196 H   0  0  0  0  0  0  0  0  0  0  0  0
  154.3427  141.1402  159.6960 H   0  0  0  0  0  0  0  0  0  0  0  0
  153.4239  139.6418  159.8183 H   0  0  0  0  0  0  0  0  0  0  0  0
  151.2815  140.9409  159.7458 H   0  0  0  0  0  0  0  0  0  0  0  0
  152.6106  141.9344  157.3554 H   0  0  0  0  0  0  0  0  0  0  0  0
  152.5290  140.9723  155.4218 H   0  0  0  0  0  0  0  0  0  0  0  0
  152.7129  139.2481  155.4774 H   0  0  0  0  0  0  0  0  0  0  0  0
  149.9602  141.7410  155.7812 H   0  0  0  0  0  0  0  0  0  0  0  0
  147.8393  141.5875  154.6715 H   0  0  0  0  0  0  0  0  0  0  0  0
  152.3204  143.1017  160.6918 H   0  0  0  0  0  0  0  0  0  0  0  0
  150.4491  143.1401  158.2926 H   0  0  0  0  0  0  0  0  0  0  0  0
  150.0559  143.5121  159.9756 H   0  0  0  0  0  0  0  0  0  0  0  0
  150.5965  145.5614  158.3247 H   0  0  0  0  0  0  0  0  0  0  0  0
  151.4026  145.5330  159.8995 H   0  0  0  0  0  0  0  0  0  0  0  0
  152.5261  144.6016  157.2323 H   0  0  0  0  0  0  0  0  0  0  0  0
  153.3206  145.6122  158.4426 H   0  0  0  0  0  0  0  0  0  0  0  0
  1  2  1  0  0  0  0
  1 21  1  0  0  0  0
  1 22  1  0  0  0  0
  1 23  1  0  0  0  0
  2  3  1  0  0  0  0
  2 15  1  0  0  0  0
  2 24  1  0  0  0  0
  3  4  1  0  0  0  0
  3 25  1  0  0  0  0
  4  5  2  0  0  0  0
  4  6  1  0  0  0  0
  6  7  1  0  0  0  0
  6 26  1  0  0  0  0
  6 27  1  0  0  0  0
  7 13  1  0  0  0  0
  7  8  1  0  0  0  0
  8  9  2  0  0  0  0
  8 28  1  0  0  0  0
  9 10  1  0  0  0  0
  9 29  1  0  0  0  0
 10 11  2  0  0  0  0
 10 12  1  0  0  0  0
 12 20  1  0  0  0  0
 12 13  1  0  0  0  0
 13 14  2  0  0  0  0
 15 19  1  0  0  0  0
 15 16  1  0  0  0  0
 15 30  1  0  0  0  0
 16 17  1  0  0  0  0
 16 31  1  0  0  0  0
 16 32  1  0  0  0  0
 17 18  1  0  0  0  0
 17 33  1  0  0  0  0
 17 34  1  0  0  0  0
 18 19  1  0  0  0  0
 18 35  1  0  0  0  0
 18 36  1  0  0  0  0
M  END
> <s_m_source_file>
AV-unprocessed.smi

> <i_m_source_file_index>
1403

> <i_lp_mmshare_version>
43012

> <i_f3d_flags>
0

> <s_epik_input>
TzFbQ0gyXVtDSDJdW0NIMl1bQ0BIXTFbQ0BIXShbQ0gzXSlbTkhdQyg9TylbQ0gyXW4yW2NIXVtjSF1jKD1PKVtuSF1jMj1P

> <s_epik_cmdline>
J2VwaWtfcHl0aG9uJywgJy1waCcsICc3LjAnLCAnLXRuJywgJzgnLCAnLW1hJywgJzIwMCcsICctbWV0YWxfYmluZGluZycsICctaW1hZScsICc8aW5maWxlLm1hZT4nLCAnLW9tYWUnLCAnPG91dGZpbGUubWFlPic=

> <r_lp_tautomer_probability>
0.999537

> <r_epik_Ionization_Penalty>
0.00331407

> <r_epik_Ionization_Penalty_Charging>
0.00331405

> <r_epik_Ionization_Penalty_Neutral>
2.30132e-08

> <r_epik_State_Penalty>
0.00234266

> <r_epik_Charging_Adjusted_Penalty>
0.00565671

> <i_epik_Tot_Q>
0

> <i_epik_Tot_abs_Q>
0

> <r_epik_Metal_State_Penalty>
0.365604

> <b_epik_Metal_Only>
0

> <s_lp_Force_Field>
OPLS_2005

> <r_lp_Energy>
18.7727

> <b_lp_Chiralities_Consistent>
1

> <s_lp_Variant>
AV-unprocessed.smi:1403-1

> <Gold.Version>
5.8.1

> <Gold.Id.Protein>
6NUR|6NUR_protein|mol2

> <Gold.PLP.Fitness>
41.5253

> <Gold.PLP.PLP>
-39.4695

> <Gold.PLP.part.hbond>
-2.0000

> <Gold.PLP.part.metal>
0.0000

> <Gold.PLP.part.buried>
-3.3809

> <Gold.PLP.part.nonpolar>
-35.0044

> <Gold.PLP.part.repulsive>
0.7337

> <Gold.PLP.ligand.clash>
0.0000

> <Gold.PLP.ligand.torsion>
0.4657

> <Gold.PLP.Chemscore.Hbond>
0.9913

> <Gold.PLP.Chemscore.CHOScore>
0.0000

> <Gold.PLP.Chemscore.Metal>
0.0000

> <Gold.Chemscore.Hbonds>
donor molecule, donor type, donor heavy atom, donor atom, acceptor molecule, acceptor atom, score
      L1  H    12    20       P1  7948  1.00

> <Gold.PLP.Chemscore.Internal.Correction>
0.0135

> <Gold.Rescore>
     Score         DG    S(hbond)    S(metal)    S(lipo)     H(rot)  DE(clash)    DE(int)     intcor
     15.22     -15.78       1.55        0.00      88.52       2.04       0.12       0.44       ----

> <Gold.Chemscore.Fitness>
15.2177

> <Gold.Chemscore.DG>
-15.7761

> <Gold.Chemscore.ZeroCoef>
-5.4800

> <Gold.Chemscore.Hbond>
1.5450

> <Gold.Chemscore.Metal>
0.0000

> <Gold.Chemscore.Lipo>
88.5196

> <Gold.Chemscore.Internal_Hbond>
0.0000

> <Gold.Chemscore.DEClash>
0.1196

> <Gold.Chemscore.DEInternal>
0.4388

> <Gold.Chemscore.Rot>
2.0395

> <Gold.Chemscore.Internal.Correction>
   9.000000E+99

> <Gold.Chemscore.Hbonds>
donor molecule, donor type, donor heavy atom, donor atom, acceptor molecule, acceptor atom, score
      L1  H    12    20       P1  7948  0.96

> <Gold.Chemscore.Hbond.Weighted>
-5.1604

> <Gold.Chemscore.Metal.Weighted>
-0.0000

> <Gold.Chemscore.Lipo.Weighted>
-10.3568

> <Gold.Chemscore.Internal_Hbond.Weighted>
0.0000

> <Gold.Chemscore.DEClash.Weighted>
0.1196

> <Gold.Chemscore.DEInternal.Weighted>
0.4388

> <Gold.Chemscore.Rot.Weighted>
5.2211

> <Gold.Chemscore.Internal.Correction.Weighted>
   9.000000E+99

> <Gold.Protein.RotatedTorsions>
[ 6907 6896 6895 6894 ] final  -58.56 input  -60.11 | X-H torsion
[ 7974 7965 7964 7962 ] final   97.05 input  175.53 | X-H torsion
[ 8008 7997 7996 7995 ] final -102.42 input   59.86 | X-H torsion
[ 10167 10162 10161 10158 ] final -114.46 input  -65.29 | X-H torsion
[ 10718 10713 10712 10709 ] final  -46.62 input   66.30 | X-H torsion
[ 10763 10752 10751 10750 ] final  172.11 input  -60.55 | X-H torsion
[ 11005 11000 10999 10996 ] final  112.66 input  -57.11 | X-H torsion

> <Gold.Protein.ActiveResidues>
 VAL166  LYS551  ARG553  GLY616  TRP617  ASP618  TYR619  PRO620  LYS621  CYS622 
 ASP623  PHE694  ASN695  SER759  ASP760  ASP761  ALA762  ILE779  LEU786  VAL792 
 PHE793  MET794  SER795  GLU796  ALA797  LYS798  CYS799  TRP800  GLU811  SER814 

> <Gold.Protein.RotatedAtoms>
  150.7997  134.7083  159.6588 H   0  0  0  0  0  0  0  0  0  0  0  0  # atno 6907 bound_to 6896
  152.4113  134.6115  160.0037 H   0  0  0  0  0  0  0  0  0  0  0  0  # atno 6908 bound_to 6896
  151.6358  133.3292  159.3155 H   0  0  0  0  0  0  0  0  0  0  0  0  # atno 6909 bound_to 6896
  145.4307  139.2311  143.3146 H   0  0  0  0  0  0  0  0  0  0  0  0  # atno 7974 bound_to 7965
  154.8564  140.0428  157.1637 H   0  0  0  0  0  0  0  0  0  0  0  0  # atno 8008 bound_to 7997
  154.8887  140.2983  155.5362 H   0  0  0  0  0  0  0  0  0  0  0  0  # atno 8009 bound_to 7997
  156.2997  140.2397  156.3900 H   0  0  0  0  0  0  0  0  0  0  0  0  # atno 8010 bound_to 7997
  140.1008  143.4615  152.1813 H   0  0  0  0  0  0  0  0  0  0  0  0  # atno 10167 bound_to 10162
  156.2165  130.4163  149.9048 H   0  0  0  0  0  0  0  0  0  0  0  0  # atno 10718 bound_to 10713
  154.4214  135.2758  155.1973 H   0  0  0  0  0  0  0  0  0  0  0  0  # atno 10763 bound_to 10752
  154.3917  135.6064  153.5850 H   0  0  0  0  0  0  0  0  0  0  0  0  # atno 10764 bound_to 10752
  152.9833  135.5905  154.4511 H   0  0  0  0  0  0  0  0  0  0  0  0  # atno 10765 bound_to 10752
  139.8933  134.9534  156.6620 H   0  0  0  0  0  0  0  0  0  0  0  0  # atno 11005 bound_to 11000
  146.2609  140.5043  142.8854 LP  0  0  0  0  0  0  0  0  0  0  0  0  # atno 17320 bound_to 7965
  144.8185  140.6509  143.6368 LP  0  0  0  0  0  0  0  0  0  0  0  0  # atno 17321 bound_to 7965
  139.5672  144.7442  151.3988 LP  0  0  0  0  0  0  0  0  0  0  0  0  # atno 17342 bound_to 10162
  140.6979  143.7704  150.7356 LP  0  0  0  0  0  0  0  0  0  0  0  0  # atno 17343 bound_to 10162
  156.6709  130.8819  151.3562 LP  0  0  0  0  0  0  0  0  0  0  0  0  # atno 17370 bound_to 10713
  157.7065  130.9391  150.0949 LP  0  0  0  0  0  0  0  0  0  0  0  0  # atno 17371 bound_to 10713
  140.7439  133.8954  155.8298 LP  0  0  0  0  0  0  0  0  0  0  0  0  # atno 17394 bound_to 11000
  141.0055  134.1092  157.4274 LP  0  0  0  0  0  0  0  0  0  0  0  0  # atno 17395 bound_to 11000

$$$$
