AV-unprocessed.smi:703|AV-procd|sdf|3428|dock7
  -GOLD-   22720 0413D 1   1.00000     0.00000
 Structure written by MMmdl.
 38 39  0  0  0  0  0  0  0  0  2 V2000
  151.2596  144.5954  158.4781 C   0  0  0  0  0  0  0  0  0  0  0  0
  151.5677  143.2485  157.8102 C   0  0  0  0  0  0  0  0  0  0  0  0
  150.3927  142.6934  157.0981 N   0  3  1  0  0  0  0  0  0  0  0  0
  150.6986  141.6308  156.1174 C   0  0  0  0  0  0  0  0  0  0  0  0
  149.4155  140.8071  155.9784 C   0  0  2  0  0  0  0  0  0  0  0  0
  148.4720  141.3930  154.9149 C   0  0  0  0  0  0  0  0  0  0  0  0
  148.8113  140.8665  157.3878 C   0  0  1  0  0  0  0  0  0  0  0  0
  149.2736  139.7198  158.1768 N   0  0  0  0  0  0  0  0  0  0  0  0
  148.3524  138.2620  158.1135 S   0  0  0  0  0  0  0  0  0  0  0  0
  147.0398  138.5342  158.7196 O   0  0  0  0  0  0  0  0  0  0  0  0
  148.4328  137.7522  156.7366 O   0  0  0  0  0  0  0  0  0  0  0  0
  149.2942  137.1407  159.2311 C   0  0  0  0  0  0  0  0  0  0  0  0
  148.3559  136.5286  160.2307 C   0  0  0  0  0  0  0  0  0  0  0  0
  148.0722  135.1522  160.4486 C   0  0  0  0  0  0  0  0  0  0  0  0
  147.1626  135.1720  161.4664 C   0  0  0  0  0  0  0  0  0  0  0  0
  146.9006  136.4483  161.8446 O   0  0  0  0  0  0  0  0  0  0  0  0
  147.6661  137.3077  161.0483 N   0  0  0  0  0  0  0  0  0  0  0  0
  149.3243  142.1878  157.9905 C   0  0  0  0  0  0  0  0  0  0  0  0
  152.1225  144.9511  159.0415 H   0  0  0  0  0  0  0  0  0  0  0  0
  150.4239  144.5089  159.1732 H   0  0  0  0  0  0  0  0  0  0  0  0
  151.0103  145.3621  157.7442 H   0  0  0  0  0  0  0  0  0  0  0  0
  152.4084  143.3482  157.1219 H   0  0  0  0  0  0  0  0  0  0  0  0
  151.8749  142.5399  158.5806 H   0  0  0  0  0  0  0  0  0  0  0  0
  151.0443  142.0427  155.1686 H   0  0  0  0  0  0  0  0  0  0  0  0
  151.4927  140.9933  156.5097 H   0  0  0  0  0  0  0  0  0  0  0  0
  149.6513  139.7825  155.6861 H   0  0  0  0  0  0  0  0  0  0  0  0
  148.1970  142.4232  155.1438 H   0  0  0  0  0  0  0  0  0  0  0  0
  147.5519  140.8118  154.8472 H   0  0  0  0  0  0  0  0  0  0  0  0
  148.9382  141.3840  153.9291 H   0  0  0  0  0  0  0  0  0  0  0  0
  147.7210  140.8414  157.3505 H   0  0  0  0  0  0  0  0  0  0  0  0
  150.2600  139.5300  157.9993 H   0  0  0  0  0  0  0  0  0  0  0  0
  149.7856  136.3792  158.6249 H   0  0  0  0  0  0  0  0  0  0  0  0
  150.0691  137.7220  159.7300 H   0  0  0  0  0  0  0  0  0  0  0  0
  148.4753  134.2878  159.9426 H   0  0  0  0  0  0  0  0  0  0  0  0
  146.6343  134.3993  162.0050 H   0  0  0  0  0  0  0  0  0  0  0  0
  149.6870  142.0521  159.0109 H   0  0  0  0  0  0  0  0  0  0  0  0
  148.5269  142.9305  158.0301 H   0  0  0  0  0  0  0  0  0  0  0  0
  149.9746  143.4498  156.5751 H   0  0  0  0  0  0  0  0  0  0  0  0
  1  2  1  0  0  0  0
  1 19  1  0  0  0  0
  1 20  1  0  0  0  0
  1 21  1  0  0  0  0
  2  3  1  0  0  0  0
  2 22  1  0  0  0  0
  2 23  1  0  0  0  0
  3 18  1  0  0  0  0
  3  4  1  0  0  0  0
  3 38  1  0  0  0  0
  4  5  1  0  0  0  0
  4 24  1  0  0  0  0
  4 25  1  0  0  0  0
  5  6  1  0  0  0  0
  5  7  1  0  0  0  0
  5 26  1  0  0  0  0
  6 27  1  0  0  0  0
  6 28  1  0  0  0  0
  6 29  1  0  0  0  0
  7  8  1  0  0  0  0
  7 18  1  0  0  0  0
  7 30  1  0  0  0  0
  8  9  1  0  0  0  0
  8 31  1  0  0  0  0
  9 10  2  0  0  0  0
  9 11  2  0  0  0  0
  9 12  1  0  0  0  0
 12 13  1  0  0  0  0
 12 32  1  0  0  0  0
 12 33  1  0  0  0  0
 13 17  2  0  0  0  0
 13 14  1  0  0  0  0
 14 15  2  0  0  0  0
 14 34  1  0  0  0  0
 15 16  1  0  0  0  0
 15 35  1  0  0  0  0
 16 17  1  0  0  0  0
 18 36  1  0  0  0  0
 18 37  1  0  0  0  0
M  CHG  1   3   1
M  END
> <s_m_source_file>
AV-unprocessed.smi

> <i_m_source_file_index>
703

> <i_lp_mmshare_version>
43012

> <i_f3d_flags>
0

> <s_epik_input>
W0NIM11bQ0gyXU4xW0NIMl1bQ0BASF0oW0NIM10pW0NASF0oW0NIMl0xKVtOSF1TKD1PKSg9TylbQ0gyXWMyW2NIXVtjSF1vbjI=

> <s_epik_cmdline>
J2VwaWtfcHl0aG9uJywgJy1waCcsICc3LjAnLCAnLXRuJywgJzgnLCAnLW1hJywgJzIwMCcsICctbWV0YWxfYmluZGluZycsICctaW1hZScsICc8aW5maWxlLm1hZT4nLCAnLW9tYWUnLCAnPG91dGZpbGUubWFlPic=

> <r_epik_Ionization_Penalty>
0.00324529

> <r_epik_Ionization_Penalty_Charging>
0.0019384

> <r_epik_Ionization_Penalty_Neutral>
0.00130689

> <r_epik_State_Penalty>
0.00218682

> <r_epik_Charging_Adjusted_Penalty>
0.00412522

> <i_epik_Tot_Q>
1

> <i_epik_Tot_abs_Q>
1

> <r_epik_Metal_State_Penalty>
0.310831

> <b_epik_Metal_Only>
0

> <s_lp_Force_Field>
OPLS_2005

> <r_lp_Energy>
19.6453

> <b_lp_Chiralities_Consistent>
1

> <s_lp_Variant>
AV-unprocessed.smi:703-3

> <Gold.Version>
5.8.1

> <Gold.Id.Protein>
6NUR|6NUR_protein|mol2

> <Gold.PLP.Fitness>
39.6158

> <Gold.PLP.PLP>
-29.2361

> <Gold.PLP.part.hbond>
-4.0000

> <Gold.PLP.part.metal>
0.0000

> <Gold.PLP.part.buried>
-5.5307

> <Gold.PLP.part.nonpolar>
-20.5467

> <Gold.PLP.part.repulsive>
0.0145

> <Gold.PLP.ligand.clash>
0.0000

> <Gold.PLP.ligand.torsion>
0.5826

> <Gold.PLP.Chemscore.Hbond>
3.7920

> <Gold.PLP.Chemscore.CHOScore>
0.0000

> <Gold.PLP.Chemscore.Metal>
0.0000

> <Gold.Chemscore.Hbonds>
donor molecule, donor type, donor heavy atom, donor atom, acceptor molecule, acceptor atom, score
      L1  H     3    38       P1  8028  2.00
      P1  H  6931  6943       L1    17  0.85
      P1  H  6934  6947       L1    17  0.88

> <Gold.PLP.Chemscore.Internal.Correction>
0.1690

> <Gold.Rescore>
     Score         DG    S(hbond)    S(metal)    S(lipo)     H(rot)  DE(clash)    DE(int)     intcor
     15.04     -16.96       2.55        0.00      67.70       1.94       0.01       1.91       ----

> <Gold.Chemscore.Fitness>
15.0396

> <Gold.Chemscore.DG>
-16.9561

> <Gold.Chemscore.ZeroCoef>
-5.4800

> <Gold.Chemscore.Hbond>
2.5514

> <Gold.Chemscore.Metal>
0.0000

> <Gold.Chemscore.Lipo>
67.6992

> <Gold.Chemscore.Internal_Hbond>
0.0000

> <Gold.Chemscore.DEClash>
0.0073

> <Gold.Chemscore.DEInternal>
1.9092

> <Gold.Chemscore.Rot>
1.9400

> <Gold.Chemscore.Internal.Correction>
   9.000000E+99

> <Gold.Chemscore.Hbonds>
donor molecule, donor type, donor heavy atom, donor atom, acceptor molecule, acceptor atom, score
      L1  H     3    38       P1  8028  1.00
      P1  H  6931  6943       L1    17  0.27
      P1  H  6934  6947       L1    17  0.84

> <Gold.Chemscore.Hbond.Weighted>
-8.5218

> <Gold.Chemscore.Metal.Weighted>
-0.0000

> <Gold.Chemscore.Lipo.Weighted>
-7.9208

> <Gold.Chemscore.Internal_Hbond.Weighted>
0.0000

> <Gold.Chemscore.DEClash.Weighted>
0.0073

> <Gold.Chemscore.DEInternal.Weighted>
1.9092

> <Gold.Chemscore.Rot.Weighted>
4.9665

> <Gold.Chemscore.Internal.Correction.Weighted>
   9.000000E+99

> <Gold.Protein.RotatedTorsions>
[ 6907 6896 6895 6894 ] final  -15.78 input  -60.11 | X-H torsion
[ 7974 7965 7964 7962 ] final  -55.50 input  175.53 | X-H torsion
[ 8008 7997 7996 7995 ] final  -85.53 input   59.86 | X-H torsion
[ 10167 10162 10161 10158 ] final -113.46 input  -65.29 | X-H torsion
[ 10718 10713 10712 10709 ] final   -7.37 input   66.30 | X-H torsion
[ 10763 10752 10751 10750 ] final  -73.33 input  -60.55 | X-H torsion
[ 11005 11000 10999 10996 ] final  -31.20 input  -57.11 | X-H torsion

> <Gold.Protein.ActiveResidues>
 VAL166  LYS551  ARG553  GLY616  TRP617  ASP618  TYR619  PRO620  LYS621  CYS622 
 ASP623  PHE694  ASN695  SER759  ASP760  ASP761  ALA762  ILE779  LEU786  VAL792 
 PHE793  MET794  SER795  GLU796  ALA797  LYS798  CYS799  TRP800  GLU811  SER814 

> <Gold.Protein.RotatedAtoms>
  151.3188  135.0813  159.9297 H   0  0  0  0  0  0  0  0  0  0  0  0  # atno 6907 bound_to 6896
  152.5261  133.9661  159.7750 H   0  0  0  0  0  0  0  0  0  0  0  0  # atno 6908 bound_to 6896
  150.9978  133.6034  159.2729 H   0  0  0  0  0  0  0  0  0  0  0  0  # atno 6909 bound_to 6896
  145.8735  140.8198  142.9876 H   0  0  0  0  0  0  0  0  0  0  0  0  # atno 7974 bound_to 7965
  154.6418  140.0590  156.9854 H   0  0  0  0  0  0  0  0  0  0  0  0  # atno 8008 bound_to 7997
  155.1505  140.3273  155.4414 H   0  0  0  0  0  0  0  0  0  0  0  0  # atno 8009 bound_to 7997
  156.2534  140.1948  156.6617 H   0  0  0  0  0  0  0  0  0  0  0  0  # atno 8010 bound_to 7997
  140.1116  143.4523  152.1749 H   0  0  0  0  0  0  0  0  0  0  0  0  # atno 10167 bound_to 10162
  156.7182  130.5142  149.5875 H   0  0  0  0  0  0  0  0  0  0  0  0  # atno 10718 bound_to 10713
  154.4580  135.5900  153.6236 H   0  0  0  0  0  0  0  0  0  0  0  0  # atno 10763 bound_to 10752
  152.9820  135.6037  154.3521 H   0  0  0  0  0  0  0  0  0  0  0  0  # atno 10764 bound_to 10752
  154.3390  135.2842  155.2411 H   0  0  0  0  0  0  0  0  0  0  0  0  # atno 10765 bound_to 10752
  140.9448  133.7257  156.1130 H   0  0  0  0  0  0  0  0  0  0  0  0  # atno 11005 bound_to 11000
  144.6726  140.1275  143.7446 LP  0  0  0  0  0  0  0  0  0  0  0  0  # atno 17320 bound_to 7965
  145.9109  139.2486  143.1438 LP  0  0  0  0  0  0  0  0  0  0  0  0  # atno 17321 bound_to 7965
  139.5616  144.7409  151.4138 LP  0  0  0  0  0  0  0  0  0  0  0  0  # atno 17342 bound_to 10162
  140.6922  143.7833  150.7273 LP  0  0  0  0  0  0  0  0  0  0  0  0  # atno 17343 bound_to 10162
  156.1613  130.6376  151.0722 LP  0  0  0  0  0  0  0  0  0  0  0  0  # atno 17370 bound_to 10713
  157.6909  131.0810  150.7111 LP  0  0  0  0  0  0  0  0  0  0  0  0  # atno 17371 bound_to 10713
  140.7684  134.3860  157.5512 LP  0  0  0  0  0  0  0  0  0  0  0  0  # atno 17394 bound_to 11000
  139.8830  134.9006  156.2793 LP  0  0  0  0  0  0  0  0  0  0  0  0  # atno 17395 bound_to 11000

$$$$
