AV-unprocessed.smi:2067|AV-procd|sdf|8425|dock5
  -GOLD-   2272011123D 1   1.00000     0.00000
 Structure written by MMmdl.
 47 48  0  0  0  0  0  0  0  0  1 V2000
  152.8094  138.1835  158.4642 C   0  0  0  0  0  0  0  0  0  0  0  0
  152.4361  138.9228  157.1711 C   0  0  2  0  0  0  0  0  0  0  0  0
  151.3278  139.9695  157.4006 C   0  0  0  0  0  0  0  0  0  0  0  0
  151.0070  140.7363  156.1072 C   0  0  0  0  0  0  0  0  0  0  0  0
  150.6375  139.7786  154.9634 C   0  0  0  0  0  0  0  0  0  0  0  0
  151.7339  138.7224  154.7395 C   0  0  0  0  0  0  0  0  0  0  0  0
  152.0508  137.9487  156.0362 C   0  0  2  0  0  0  0  0  0  0  0  0
  150.9024  137.2079  156.4335 O   0  0  0  0  0  0  0  0  0  0  0  0
  150.2884  136.4702  155.3879 C   0  0  0  0  0  0  0  0  0  0  0  0
  150.5724  134.9818  155.6068 C   0  0  0  0  0  0  0  0  0  0  0  0
  149.7615  134.1478  154.7331 N   0  0  0  0  0  0  0  0  0  0  0  0
  149.7794  132.7572  154.6821 C   0  0  0  0  0  0  0  0  0  0  0  0
  150.5928  132.0241  155.4945 C   0  0  0  0  0  0  0  0  0  0  0  0
  151.4447  132.6054  156.4847 C   0  0  0  0  0  0  0  0  0  0  0  0
  152.1433  133.0580  157.2898 N   0  0  0  0  0  0  0  0  0  0  0  0
  150.6324  130.5632  155.4445 C   0  0  0  0  0  0  0  0  0  0  0  0
  151.3516  129.8786  156.1752 O   0  0  0  0  0  0  0  0  0  0  0  0
  149.7700  129.9855  154.4875 N   0  0  0  0  0  0  0  0  0  0  0  0
  149.7331  128.5430  154.3488 C   0  0  0  0  0  0  0  0  0  0  0  0
  148.9071  130.7190  153.6509 C   0  0  0  0  0  0  0  0  0  0  0  0
  148.1627  130.1488  152.8464 O   0  0  0  0  0  0  0  0  0  0  0  0
  148.9239  132.1290  153.7728 N   0  0  0  0  0  0  0  0  0  0  0  0
  148.0059  132.8178  152.8903 C   0  0  0  0  0  0  0  0  0  0  0  0
  151.9637  137.6228  158.8586 H   0  0  0  0  0  0  0  0  0  0  0  0
  153.1339  138.8818  159.2361 H   0  0  0  0  0  0  0  0  0  0  0  0
  153.6238  137.4791  158.2930 H   0  0  0  0  0  0  0  0  0  0  0  0
  153.3294  139.4604  156.8494 H   0  0  0  0  0  0  0  0  0  0  0  0
  150.4252  139.4810  157.7709 H   0  0  0  0  0  0  0  0  0  0  0  0
  151.6344  140.6739  158.1746 H   0  0  0  0  0  0  0  0  0  0  0  0
  150.1906  141.4371  156.2834 H   0  0  0  0  0  0  0  0  0  0  0  0
  151.8703  141.3355  155.8151 H   0  0  0  0  0  0  0  0  0  0  0  0
  149.6929  139.2837  155.1931 H   0  0  0  0  0  0  0  0  0  0  0  0
  150.4730  140.3433  154.0454 H   0  0  0  0  0  0  0  0  0  0  0  0
  151.4322  138.0385  153.9465 H   0  0  0  0  0  0  0  0  0  0  0  0
  152.6399  139.2150  154.3845 H   0  0  0  0  0  0  0  0  0  0  0  0
  152.8911  137.2732  155.8633 H   0  0  0  0  0  0  0  0  0  0  0  0
  149.2096  136.6280  155.3914 H   0  0  0  0  0  0  0  0  0  0  0  0
  150.6640  136.8040  154.4196 H   0  0  0  0  0  0  0  0  0  0  0  0
  151.6331  134.7964  155.4387 H   0  0  0  0  0  0  0  0  0  0  0  0
  150.3571  134.7093  156.6401 H   0  0  0  0  0  0  0  0  0  0  0  0
  149.5746  134.5931  153.8460 H   0  0  0  0  0  0  0  0  0  0  0  0
  149.8780  128.3082  153.2928 H   0  0  0  0  0  0  0  0  0  0  0  0
  148.7538  128.2133  154.6996 H   0  0  0  0  0  0  0  0  0  0  0  0
  150.5243  128.0666  154.9267 H   0  0  0  0  0  0  0  0  0  0  0  0
  148.3065  132.5903  151.8661 H   0  0  0  0  0  0  0  0  0  0  0  0
  148.0423  133.8915  153.0597 H   0  0  0  0  0  0  0  0  0  0  0  0
  147.0013  132.4495  153.1070 H   0  0  0  0  0  0  0  0  0  0  0  0
  1  2  1  0  0  0  0
  1 24  1  0  0  0  0
  1 25  1  0  0  0  0
  1 26  1  0  0  0  0
  2  7  1  0  0  0  0
  2  3  1  0  0  0  0
  2 27  1  0  0  0  0
  3  4  1  0  0  0  0
  3 28  1  0  0  0  0
  3 29  1  0  0  0  0
  4  5  1  0  0  0  0
  4 30  1  0  0  0  0
  4 31  1  0  0  0  0
  5  6  1  0  0  0  0
  5 32  1  0  0  0  0
  5 33  1  0  0  0  0
  6  7  1  0  0  0  0
  6 34  1  0  0  0  0
  6 35  1  0  0  0  0
  7  8  1  0  0  0  0
  7 36  1  0  0  0  0
  8  9  1  0  0  0  0
  9 10  1  0  0  0  0
  9 37  1  0  0  0  0
  9 38  1  0  0  0  0
 10 11  1  0  0  0  0
 10 39  1  0  0  0  0
 10 40  1  0  0  0  0
 11 12  1  0  0  0  0
 11 41  1  0  0  0  0
 12 22  1  0  0  0  0
 12 13  2  0  0  0  0
 13 14  1  0  0  0  0
 13 16  1  0  0  0  0
 14 15  3  0  0  0  0
 16 17  2  0  0  0  0
 16 18  1  0  0  0  0
 18 19  1  0  0  0  0
 18 20  1  0  0  0  0
 19 42  1  0  0  0  0
 19 43  1  0  0  0  0
 19 44  1  0  0  0  0
 20 21  2  0  0  0  0
 20 22  1  0  0  0  0
 22 23  1  0  0  0  0
 23 45  1  0  0  0  0
 23 46  1  0  0  0  0
 23 47  1  0  0  0  0
M  END
> <s_m_source_file>
AV-unprocessed.smi

> <i_m_source_file_index>
2067

> <i_lp_mmshare_version>
43012

> <i_f3d_flags>
0

> <s_epik_input>
W0NIM11bQ0BASF0xW0NIMl1bQ0gyXVtDSDJdW0NIMl1bQ0BIXTFPW0NIMl1bQ0gyXVtOSF1jMmMoQyNOKWMoPU8pbihbQ0gzXSljKD1PKW4yW0NIM10=

> <s_epik_cmdline>
J2VwaWtfcHl0aG9uJywgJy1waCcsICc3LjAnLCAnLXRuJywgJzgnLCAnLW1hJywgJzIwMCcsICctbWV0YWxfYmluZGluZycsICctaW1hZScsICc8aW5maWxlLm1hZT4nLCAnLW9tYWUnLCAnPG91dGZpbGUubWFlPic=

> <r_epik_Ionization_Penalty>
0.00056529

> <r_epik_Ionization_Penalty_Charging>
3.94678e-10

> <r_epik_Ionization_Penalty_Neutral>
0.000565289

> <r_epik_State_Penalty>
0.000354611

> <r_epik_Charging_Adjusted_Penalty>
0.000354611

> <i_epik_Tot_Q>
0

> <i_epik_Tot_abs_Q>
0

> <r_epik_Metal_State_Penalty>
-0

> <b_epik_Metal_Only>
0

> <s_lp_Force_Field>
OPLS_2005

> <r_lp_Energy>
32.9241

> <b_lp_Chiralities_Consistent>
1

> <s_lp_Variant>
AV-unprocessed.smi:2067-3

> <Gold.Version>
5.8.1

> <Gold.Id.Protein>
6NUR|6NUR_protein|mol2

> <Gold.PLP.Fitness>
38.3271

> <Gold.PLP.PLP>
-37.1204

> <Gold.PLP.part.hbond>
-1.0000

> <Gold.PLP.part.metal>
0.0000

> <Gold.PLP.part.buried>
-4.0364

> <Gold.PLP.part.nonpolar>
-34.2418

> <Gold.PLP.part.repulsive>
2.0268

> <Gold.PLP.ligand.clash>
10.1185

> <Gold.PLP.ligand.torsion>
0.4450

> <Gold.PLP.Chemscore.Hbond>
0.6978

> <Gold.PLP.Chemscore.CHOScore>
0.0000

> <Gold.PLP.Chemscore.Metal>
0.0000

> <Gold.Chemscore.Hbonds>
donor molecule, donor type, donor heavy atom, donor atom, acceptor molecule, acceptor atom, score
      P1  H  6896  6909       L1    15  0.63

> <Gold.PLP.Chemscore.Internal.Correction>
10.1216

> <Gold.Rescore>
     Score         DG    S(hbond)    S(metal)    S(lipo)     H(rot)  DE(clash)    DE(int)     intcor
      8.51     -11.65       0.90        0.00      65.47       1.76       0.03       3.11       ----

> <Gold.Chemscore.Fitness>
8.5114

> <Gold.Chemscore.DG>
-11.6481

> <Gold.Chemscore.ZeroCoef>
-5.4800

> <Gold.Chemscore.Hbond>
0.9011

> <Gold.Chemscore.Metal>
0.0000

> <Gold.Chemscore.Lipo>
65.4678

> <Gold.Chemscore.Internal_Hbond>
0.0000

> <Gold.Chemscore.DEClash>
0.0272

> <Gold.Chemscore.DEInternal>
3.1096

> <Gold.Chemscore.Rot>
1.7583

> <Gold.Chemscore.Internal.Correction>
   9.000000E+99

> <Gold.Chemscore.Hbonds>
donor molecule, donor type, donor heavy atom, donor atom, acceptor molecule, acceptor atom, score
      P1  H  6896  6909       L1    15  0.62

> <Gold.Chemscore.Hbond.Weighted>
-3.0096

> <Gold.Chemscore.Metal.Weighted>
-0.0000

> <Gold.Chemscore.Lipo.Weighted>
-7.6597

> <Gold.Chemscore.Internal_Hbond.Weighted>
0.0000

> <Gold.Chemscore.DEClash.Weighted>
0.0272

> <Gold.Chemscore.DEInternal.Weighted>
3.1096

> <Gold.Chemscore.Rot.Weighted>
4.5012

> <Gold.Chemscore.Internal.Correction.Weighted>
   9.000000E+99

> <Gold.Protein.RotatedTorsions>
[ 6907 6896 6895 6894 ] final  -75.98 input  -60.11 | X-H torsion
[ 7974 7965 7964 7962 ] final -120.96 input  175.53 | X-H torsion
[ 8008 7997 7996 7995 ] final -159.32 input   59.86 | X-H torsion
[ 10167 10162 10161 10158 ] final   21.35 input  -65.29 | X-H torsion
[ 10718 10713 10712 10709 ] final -166.96 input   66.30 | X-H torsion
[ 10763 10752 10751 10750 ] final -138.47 input  -60.55 | X-H torsion
[ 11005 11000 10999 10996 ] final -119.28 input  -57.11 | X-H torsion

> <Gold.Protein.ActiveResidues>
 VAL166  LYS551  ARG553  GLY616  TRP617  ASP618  TYR619  PRO620  LYS621  CYS622 
 ASP623  PHE694  ASN695  SER759  ASP760  ASP761  ALA762  ILE779  LEU786  VAL792 
 PHE793  MET794  SER795  GLU796  ALA797  LYS798  CYS799  TRP800  GLU811  SER814 

> <Gold.Protein.RotatedAtoms>
  150.7041  134.4639  159.5393 H   0  0  0  0  0  0  0  0  0  0  0  0  # atno 6907 bound_to 6896
  152.2309  134.8320  160.0483 H   0  0  0  0  0  0  0  0  0  0  0  0  # atno 6908 bound_to 6896
  151.9137  133.3532  159.3909 H   0  0  0  0  0  0  0  0  0  0  0  0  # atno 6909 bound_to 6896
  145.0456  140.8179  143.4240 H   0  0  0  0  0  0  0  0  0  0  0  0  # atno 7974 bound_to 7965
  155.7607  140.0839  157.2156 H   0  0  0  0  0  0  0  0  0  0  0  0  # atno 8008 bound_to 7997
  154.4004  140.1543  156.2886 H   0  0  0  0  0  0  0  0  0  0  0  0  # atno 8009 bound_to 7997
  155.8842  140.3419  155.5912 H   0  0  0  0  0  0  0  0  0  0  0  0  # atno 8010 bound_to 7997
  140.5433  143.9639  150.6532 H   0  0  0  0  0  0  0  0  0  0  0  0  # atno 10167 bound_to 10162
  156.6754  130.9101  151.3050 H   0  0  0  0  0  0  0  0  0  0  0  0  # atno 10718 bound_to 10713
  154.8636  135.3611  154.5390 H   0  0  0  0  0  0  0  0  0  0  0  0  # atno 10763 bound_to 10752
  153.6012  135.7012  153.5388 H   0  0  0  0  0  0  0  0  0  0  0  0  # atno 10764 bound_to 10752
  153.3289  135.4130  155.1440 H   0  0  0  0  0  0  0  0  0  0  0  0  # atno 10765 bound_to 10752
  141.0226  134.0101  157.3260 H   0  0  0  0  0  0  0  0  0  0  0  0  # atno 11005 bound_to 11000
  145.1592  139.2469  143.5400 LP  0  0  0  0  0  0  0  0  0  0  0  0  # atno 17320 bound_to 7965
  146.3513  140.1314  142.8597 LP  0  0  0  0  0  0  0  0  0  0  0  0  # atno 17321 bound_to 7965
  140.3045  143.3238  152.0939 LP  0  0  0  0  0  0  0  0  0  0  0  0  # atno 17342 bound_to 10162
  139.4997  144.6676  151.6320 LP  0  0  0  0  0  0  0  0  0  0  0  0  # atno 17343 bound_to 10162
  157.7062  130.9388  150.0940 LP  0  0  0  0  0  0  0  0  0  0  0  0  # atno 17370 bound_to 10713
  156.1907  130.3654  149.8914 LP  0  0  0  0  0  0  0  0  0  0  0  0  # atno 17371 bound_to 10713
  139.9156  135.0196  156.7867 LP  0  0  0  0  0  0  0  0  0  0  0  0  # atno 17394 bound_to 11000
  140.6546  133.9700  155.7773 LP  0  0  0  0  0  0  0  0  0  0  0  0  # atno 17395 bound_to 11000

$$$$
