AV-unprocessed.smi:3061|AV-procd|sdf|11680|dock7
  -GOLD-   2272017 83D 1   1.00000     0.00000
 Structure written by MMmdl.
 35 36  0  0  0  0  0  0  0  0  1 V2000
  150.0890  141.7167  156.2290 C   0  0  0  0  0  0  0  0  0  0  0  0
  150.9512  140.7423  157.0454 C   0  0  1  0  0  0  0  0  0  0  0  0
  152.0637  140.1117  156.1860 C   0  0  0  0  0  0  0  0  0  0  0  0
  151.5941  138.9571  155.4412 N   0  0  0  0  0  0  0  0  0  0  0  0
  151.7630  137.6535  155.6668 C   0  0  0  0  0  0  0  0  0  0  0  0
  151.1962  136.8748  154.7557 N   0  0  0  0  0  0  0  0  0  0  0  0
  150.6580  137.8309  153.9414 C   0  0  0  0  0  0  0  0  0  0  0  0
  150.8662  139.0956  154.3079 N   0  0  0  0  0  0  0  0  0  0  0  0
  151.5363  141.4380  158.1896 N   0  0  0  0  0  0  0  0  0  0  0  0
  152.3732  140.8969  159.0875 C   0  0  0  0  0  0  0  0  0  0  0  0
  152.7207  139.7157  159.0635 O   0  0  0  0  0  0  0  0  0  0  0  0
  152.9013  141.8383  160.1810 C   0  0  2  0  0  0  0  0  0  0  0  0
  152.1818  141.6016  161.5250 C   0  0  0  0  0  0  0  0  0  0  0  0
  151.3905  142.8793  161.7490 C   0  0  0  0  0  0  0  0  0  0  0  0
  150.6103  143.0261  162.6885 O   0  0  0  0  0  0  0  0  0  0  0  0
  151.6575  143.7802  160.7996 N   0  0  0  0  0  0  0  0  0  0  0  0
  151.0712  145.1095  160.6975 C   0  0  0  0  0  0  0  0  0  0  0  0
  152.6554  143.3260  159.8467 C   0  0  0  0  0  0  0  0  0  0  0  0
  149.6272  141.2130  155.3796 H   0  0  0  0  0  0  0  0  0  0  0  0
  150.6836  142.5450  155.8424 H   0  0  0  0  0  0  0  0  0  0  0  0
  149.2863  142.1368  156.8359 H   0  0  0  0  0  0  0  0  0  0  0  0
  150.3056  139.9363  157.4001 H   0  0  0  0  0  0  0  0  0  0  0  0
  152.4403  140.8409  155.4675 H   0  0  0  0  0  0  0  0  0  0  0  0
  152.9130  139.8178  156.8053 H   0  0  0  0  0  0  0  0  0  0  0  0
  152.3151  137.2669  156.5110 H   0  0  0  0  0  0  0  0  0  0  0  0
  150.0954  137.5875  153.0522 H   0  0  0  0  0  0  0  0  0  0  0  0
  151.3089  142.4170  158.2878 H   0  0  0  0  0  0  0  0  0  0  0  0
  153.9724  141.6701  160.3069 H   0  0  0  0  0  0  0  0  0  0  0  0
  151.5160  140.7368  161.5212 H   0  0  0  0  0  0  0  0  0  0  0  0
  152.8979  141.4706  162.3368 H   0  0  0  0  0  0  0  0  0  0  0  0
  149.9952  145.0396  160.5330 H   0  0  0  0  0  0  0  0  0  0  0  0
  151.5054  145.6675  159.8673 H   0  0  0  0  0  0  0  0  0  0  0  0
  151.2441  145.6770  161.6130 H   0  0  0  0  0  0  0  0  0  0  0  0
  153.5689  143.9080  159.9752 H   0  0  0  0  0  0  0  0  0  0  0  0
  152.3061  143.4834  158.8247 H   0  0  0  0  0  0  0  0  0  0  0  0
  1  2  1  0  0  0  0
  1 19  1  0  0  0  0
  1 20  1  0  0  0  0
  1 21  1  0  0  0  0
  2  3  1  0  0  0  0
  2  9  1  0  0  0  0
  2 22  1  0  0  0  0
  3  4  1  0  0  0  0
  3 23  1  0  0  0  0
  3 24  1  0  0  0  0
  4  8  1  0  0  0  0
  4  5  1  0  0  0  0
  5  6  2  0  0  0  0
  5 25  1  0  0  0  0
  6  7  1  0  0  0  0
  7  8  2  0  0  0  0
  7 26  1  0  0  0  0
  9 10  1  0  0  0  0
  9 27  1  0  0  0  0
 10 11  2  0  0  0  0
 10 12  1  0  0  0  0
 12 18  1  0  0  0  0
 12 13  1  0  0  0  0
 12 28  1  0  0  0  0
 13 14  1  0  0  0  0
 13 29  1  0  0  0  0
 13 30  1  0  0  0  0
 14 15  2  0  0  0  0
 14 16  1  0  0  0  0
 16 17  1  0  0  0  0
 16 18  1  0  0  0  0
 17 31  1  0  0  0  0
 17 32  1  0  0  0  0
 17 33  1  0  0  0  0
 18 34  1  0  0  0  0
 18 35  1  0  0  0  0
M  END
> <s_m_source_file>
AV-unprocessed.smi

> <i_m_source_file_index>
3061

> <i_lp_mmshare_version>
43012

> <i_f3d_flags>
0

> <s_epik_input>
bjFbY0hdbltjSF1uMVtDSDJdW0NAQEhdKFtDSDNdKVtOSF1DKD1PKVtDQEBIXTJbQ0gyXUMoPU8pTihbQ0gzXSlbQ0gyXTI=

> <s_epik_cmdline>
J2VwaWtfcHl0aG9uJywgJy1waCcsICc3LjAnLCAnLXRuJywgJzgnLCAnLW1hJywgJzIwMCcsICctbWV0YWxfYmluZGluZycsICctaW1hZScsICc8aW5maWxlLm1hZT4nLCAnLW9tYWUnLCAnPG91dGZpbGUubWFlPic=

> <r_lp_tautomer_probability>
1

> <r_epik_Ionization_Penalty>
4.97611e-05

> <r_epik_Ionization_Penalty_Charging>
0

> <r_epik_Ionization_Penalty_Neutral>
4.97611e-05

> <r_epik_State_Penalty>
-0

> <r_epik_Charging_Adjusted_Penalty>
0

> <i_epik_Tot_Q>
0

> <i_epik_Tot_abs_Q>
0

> <r_epik_Metal_State_Penalty>
-0

> <b_epik_Metal_Only>
0

> <s_lp_Force_Field>
OPLS_2005

> <r_lp_Energy>
12.6192

> <b_lp_Chiralities_Consistent>
1

> <s_lp_Variant>
AV-unprocessed.smi:3061-2

> <Gold.Version>
5.8.1

> <Gold.Id.Protein>
6NUR|6NUR_protein|mol2

> <Gold.PLP.Fitness>
42.7053

> <Gold.PLP.PLP>
-34.2186

> <Gold.PLP.part.hbond>
-3.3684

> <Gold.PLP.part.metal>
0.0000

> <Gold.PLP.part.buried>
-0.4901

> <Gold.PLP.part.nonpolar>
-33.9992

> <Gold.PLP.part.repulsive>
4.5326

> <Gold.PLP.ligand.clash>
0.0000

> <Gold.PLP.ligand.torsion>
0.9425

> <Gold.PLP.Chemscore.Hbond>
2.4512

> <Gold.PLP.Chemscore.CHOScore>
1.0000

> <Gold.PLP.Chemscore.Metal>
0.0000

> <Gold.Chemscore.Hbonds>
donor molecule, donor type, donor heavy atom, donor atom, acceptor molecule, acceptor atom, score
      P1  H  6933  6945       L1    15  0.17
      P1  H  7989  7998       L1     8  0.86
      P1  H 10752 10765       L1     6  0.48
      L1  C     7    26       P1  7948  0.89
      L1  C     7    26       P1  7949  0.01

> <Gold.PLP.Chemscore.Internal.Correction>
0.0183

> <Gold.Rescore>
     Score         DG    S(hbond)    S(metal)    S(lipo)     H(rot)  DE(clash)    DE(int)     intcor
      8.23     -12.47       1.62        0.00      66.51       2.42       2.72       1.51       ----

> <Gold.Chemscore.Fitness>
8.2294

> <Gold.Chemscore.DG>
-12.4682

> <Gold.Chemscore.ZeroCoef>
-5.4800

> <Gold.Chemscore.Hbond>
1.6172

> <Gold.Chemscore.Metal>
0.0000

> <Gold.Chemscore.Lipo>
66.5055

> <Gold.Chemscore.Internal_Hbond>
0.0000

> <Gold.Chemscore.DEClash>
2.7241

> <Gold.Chemscore.DEInternal>
1.5146

> <Gold.Chemscore.Rot>
2.4197

> <Gold.Chemscore.Internal.Correction>
   9.000000E+99

> <Gold.Chemscore.Hbonds>
donor molecule, donor type, donor heavy atom, donor atom, acceptor molecule, acceptor atom, score
      P1  H  7989  7998       L1     8  0.33
      P1  H 10752 10765       L1     6  0.05

> <Gold.Chemscore.Hbond.Weighted>
-5.4015

> <Gold.Chemscore.Metal.Weighted>
-0.0000

> <Gold.Chemscore.Lipo.Weighted>
-7.7811

> <Gold.Chemscore.Internal_Hbond.Weighted>
0.0000

> <Gold.Chemscore.DEClash.Weighted>
2.7241

> <Gold.Chemscore.DEInternal.Weighted>
1.5146

> <Gold.Chemscore.Rot.Weighted>
6.1945

> <Gold.Chemscore.Internal.Correction.Weighted>
   9.000000E+99

> <Gold.Protein.RotatedTorsions>
[ 6907 6896 6895 6894 ] final   73.66 input  -60.11 | X-H torsion
[ 7974 7965 7964 7962 ] final   24.94 input  175.53 | X-H torsion
[ 8008 7997 7996 7995 ] final   33.38 input   59.86 | X-H torsion
[ 10167 10162 10161 10158 ] final  133.14 input  -65.29 | X-H torsion
[ 10718 10713 10712 10709 ] final  166.21 input   66.30 | X-H torsion
[ 10763 10752 10751 10750 ] final  176.05 input  -60.55 | X-H torsion
[ 11005 11000 10999 10996 ] final -177.59 input  -57.11 | X-H torsion

> <Gold.Protein.ActiveResidues>
 VAL166  LYS551  ARG553  GLY616  TRP617  ASP618  TYR619  PRO620  LYS621  CYS622 
 ASP623  PHE694  ASN695  SER759  ASP760  ASP761  ALA762  ILE779  LEU786  VAL792 
 PHE793  MET794  SER795  GLU796  ALA797  LYS798  CYS799  TRP800  GLU811  SER814 

> <Gold.Protein.RotatedAtoms>
  152.4935  134.4388  159.9536 H   0  0  0  0  0  0  0  0  0  0  0  0  # atno 6907 bound_to 6896
  151.4370  133.3648  159.2784 H   0  0  0  0  0  0  0  0  0  0  0  0  # atno 6908 bound_to 6896
  150.9114  134.8554  159.7488 H   0  0  0  0  0  0  0  0  0  0  0  0  # atno 6909 bound_to 6896
  146.1913  139.7534  142.8830 H   0  0  0  0  0  0  0  0  0  0  0  0  # atno 7974 bound_to 7965
  155.1377  140.3263  155.4459 H   0  0  0  0  0  0  0  0  0  0  0  0  # atno 8008 bound_to 7997
  156.2614  140.1999  156.6443 H   0  0  0  0  0  0  0  0  0  0  0  0  # atno 8009 bound_to 7997
  154.6565  140.0552  157.0001 H   0  0  0  0  0  0  0  0  0  0  0  0  # atno 8010 bound_to 7997
  139.5309  144.6629  151.4953 H   0  0  0  0  0  0  0  0  0  0  0  0  # atno 10167 bound_to 10162
  157.0692  131.0361  151.2618 H   0  0  0  0  0  0  0  0  0  0  0  0  # atno 10718 bound_to 10713
  154.4760  135.2773  155.1607 H   0  0  0  0  0  0  0  0  0  0  0  0  # atno 10763 bound_to 10752
  154.3337  135.6185  153.5567 H   0  0  0  0  0  0  0  0  0  0  0  0  # atno 10764 bound_to 10752
  152.9869  135.5771  154.5150 H   0  0  0  0  0  0  0  0  0  0  0  0  # atno 10765 bound_to 10752
  140.4392  134.6447  157.4749 H   0  0  0  0  0  0  0  0  0  0  0  0  # atno 11005 bound_to 11000
  145.3784  141.0354  143.3191 LP  0  0  0  0  0  0  0  0  0  0  0  0  # atno 17320 bound_to 7965
  144.8492  139.5348  143.6864 LP  0  0  0  0  0  0  0  0  0  0  0  0  # atno 17321 bound_to 7965
  140.6487  143.8742  150.6763 LP  0  0  0  0  0  0  0  0  0  0  0  0  # atno 17342 bound_to 10162
  140.2099  143.3891  152.1726 LP  0  0  0  0  0  0  0  0  0  0  0  0  # atno 17343 bound_to 10162
  157.4892  130.7812  149.7491 LP  0  0  0  0  0  0  0  0  0  0  0  0  # atno 17370 bound_to 10713
  155.9955  130.3911  150.2814 LP  0  0  0  0  0  0  0  0  0  0  0  0  # atno 17371 bound_to 10713
  140.0081  134.6732  155.9423 LP  0  0  0  0  0  0  0  0  0  0  0  0  # atno 17394 bound_to 11000
  141.1713  133.6537  156.4661 LP  0  0  0  0  0  0  0  0  0  0  0  0  # atno 17395 bound_to 11000

$$$$
