AV-unprocessed.smi:1335|AV-procd|sdf|5495|dock4
  -GOLD-   22720 5 73D 1   1.00000     0.00000
 Structure written by MMmdl.
 47 49  0  0  0  0  0  0  0  0  1 V2000
  145.0834  138.2133  162.7514 C   0  0  0  0  0  0  0  0  0  0  0  0
  146.1958  137.7992  161.9721 O   0  0  0  0  0  0  0  0  0  0  0  0
  146.5673  136.4707  162.0104 C   0  0  0  0  0  0  0  0  0  0  0  0
  146.0691  135.5484  162.9667 C   0  0  0  0  0  0  0  0  0  0  0  0
  146.4961  134.2070  162.9613 C   0  0  0  0  0  0  0  0  0  0  0  0
  147.4273  133.7670  162.0048 C   0  0  0  0  0  0  0  0  0  0  0  0
  147.9273  134.6706  161.0505 C   0  0  0  0  0  0  0  0  0  0  0  0
  147.5003  136.0149  161.0462 C   0  0  0  0  0  0  0  0  0  0  0  0
  148.0691  136.9537  159.9921 C   0  0  0  0  0  0  0  0  0  0  0  0
  148.8224  136.2704  159.0024 O   0  0  0  0  0  0  0  0  0  0  0  0
  149.5326  137.1313  158.1234 C   0  0  0  0  0  0  0  0  0  0  0  0
  150.5096  137.9756  158.9541 C   0  0  1  0  0  0  0  0  0  0  0  0
  151.3923  137.0847  159.6054 O   0  0  0  0  0  0  0  0  0  0  0  0
  151.3341  138.9401  158.0754 C   0  0  0  0  0  0  0  0  0  0  0  0
  152.0671  139.9062  158.8889 N   0  0  0  0  0  0  0  0  0  0  0  0
  152.9972  139.6238  159.8305 C   0  0  0  0  0  0  0  0  0  0  0  0
  153.3818  138.4991  160.1500 O   0  0  0  0  0  0  0  0  0  0  0  0
  153.4147  140.7930  160.3701 N   0  0  0  0  0  0  0  0  0  0  0  0
  154.4070  140.9677  161.4238 C   0  0  0  0  0  0  0  0  0  0  0  0
  152.7119  141.8498  159.7774 C   0  0  0  0  0  0  0  0  0  0  0  0
  152.7646  143.2355  160.0050 C   0  0  0  0  0  0  0  0  0  0  0  0
  151.9031  144.0496  159.2326 C   0  0  0  0  0  0  0  0  0  0  0  0
  151.0271  143.4768  158.2737 C   0  0  0  0  0  0  0  0  0  0  0  0
  150.9937  142.0778  158.0662 C   0  0  0  0  0  0  0  0  0  0  0  0
  151.8621  141.2928  158.8450 C   0  0  0  0  0  0  0  0  0  0  0  0
  144.9386  139.2865  162.6282 H   0  0  0  0  0  0  0  0  0  0  0  0
  145.2474  138.0234  163.8130 H   0  0  0  0  0  0  0  0  0  0  0  0
  144.1654  137.7188  162.4314 H   0  0  0  0  0  0  0  0  0  0  0  0
  145.3558  135.8452  163.7201 H   0  0  0  0  0  0  0  0  0  0  0  0
  146.1087  133.5152  163.6945 H   0  0  0  0  0  0  0  0  0  0  0  0
  147.7571  132.7384  162.0024 H   0  0  0  0  0  0  0  0  0  0  0  0
  148.6440  134.3295  160.3177 H   0  0  0  0  0  0  0  0  0  0  0  0
  147.2300  137.4363  159.4901 H   0  0  0  0  0  0  0  0  0  0  0  0
  148.6545  137.7622  160.4312 H   0  0  0  0  0  0  0  0  0  0  0  0
  150.0758  136.5239  157.3976 H   0  0  0  0  0  0  0  0  0  0  0  0
  148.8557  137.7801  157.5657 H   0  0  0  0  0  0  0  0  0  0  0  0
  149.9465  138.5199  159.7139 H   0  0  0  0  0  0  0  0  0  0  0  0
  152.2792  137.3251  159.3838 H   0  0  0  0  0  0  0  0  0  0  0  0
  152.0104  138.3973  157.4125 H   0  0  0  0  0  0  0  0  0  0  0  0
  150.6759  139.5006  157.4108 H   0  0  0  0  0  0  0  0  0  0  0  0
  153.9177  141.2474  162.3572 H   0  0  0  0  0  0  0  0  0  0  0  0
  155.1106  141.7566  161.1558 H   0  0  0  0  0  0  0  0  0  0  0  0
  154.9801  140.0564  161.6001 H   0  0  0  0  0  0  0  0  0  0  0  0
  153.4313  143.6630  160.7390 H   0  0  0  0  0  0  0  0  0  0  0  0
  151.9114  145.1201  159.3761 H   0  0  0  0  0  0  0  0  0  0  0  0
  150.3766  144.1166  157.6960 H   0  0  0  0  0  0  0  0  0  0  0  0
  150.3263  141.6375  157.3403 H   0  0  0  0  0  0  0  0  0  0  0  0
  1  2  1  0  0  0  0
  1 26  1  0  0  0  0
  1 27  1  0  0  0  0
  1 28  1  0  0  0  0
  2  3  1  0  0  0  0
  3  8  1  0  0  0  0
  3  4  2  0  0  0  0
  4  5  1  0  0  0  0
  4 29  1  0  0  0  0
  5  6  2  0  0  0  0
  5 30  1  0  0  0  0
  6  7  1  0  0  0  0
  6 31  1  0  0  0  0
  7  8  2  0  0  0  0
  7 32  1  0  0  0  0
  8  9  1  0  0  0  0
  9 10  1  0  0  0  0
  9 33  1  0  0  0  0
  9 34  1  0  0  0  0
 10 11  1  0  0  0  0
 11 12  1  0  0  0  0
 11 35  1  0  0  0  0
 11 36  1  0  0  0  0
 12 13  1  0  0  0  0
 12 14  1  0  0  0  0
 12 37  1  0  0  0  0
 13 38  1  0  0  0  0
 14 15  1  0  0  0  0
 14 39  1  0  0  0  0
 14 40  1  0  0  0  0
 15 25  1  0  0  0  0
 15 16  1  0  0  0  0
 16 17  2  0  0  0  0
 16 18  1  0  0  0  0
 18 19  1  0  0  0  0
 18 20  1  0  0  0  0
 19 41  1  0  0  0  0
 19 42  1  0  0  0  0
 19 43  1  0  0  0  0
 20 25  2  0  0  0  0
 20 21  1  0  0  0  0
 21 22  2  0  0  0  0
 21 44  1  0  0  0  0
 22 23  1  0  0  0  0
 22 45  1  0  0  0  0
 23 24  2  0  0  0  0
 23 46  1  0  0  0  0
 24 25  1  0  0  0  0
 24 47  1  0  0  0  0
M  END
> <s_m_source_file>
AV-unprocessed.smi

> <i_m_source_file_index>
1335

> <i_lp_mmshare_version>
43012

> <i_f3d_flags>
0

> <s_epik_input>
W0NIM11PYzFbY0hdW2NIXVtjSF1bY0hdYzFbQ0gyXU9bQ0gyXVtDQEhdKFtPSF0pW0NIMl1uKGMoPU8pbjJbQ0gzXSljKGMyMylbY0hdW2NIXVtjSF1bY0hdMw==

> <s_epik_cmdline>
J2VwaWtfcHl0aG9uJywgJy1waCcsICc3LjAnLCAnLXRuJywgJzgnLCAnLW1hJywgJzIwMCcsICctbWV0YWxfYmluZGluZycsICctaW1hZScsICc8aW5maWxlLm1hZT4nLCAnLW9tYWUnLCAnPG91dGZpbGUubWFlPic=

> <r_lp_tautomer_probability>
1

> <r_epik_Ionization_Penalty>
1.07897e-06

> <r_epik_Ionization_Penalty_Charging>
2.2947e-09

> <r_epik_Ionization_Penalty_Neutral>
1.07667e-06

> <r_epik_State_Penalty>
-0

> <r_epik_Charging_Adjusted_Penalty>
2.2947e-09

> <i_epik_Tot_Q>
0

> <i_epik_Tot_abs_Q>
0

> <r_epik_Metal_State_Penalty>
-0

> <b_epik_Metal_Only>
0

> <s_lp_Force_Field>
OPLS_2005

> <r_lp_Energy>
49.5291

> <b_lp_Chiralities_Consistent>
1

> <s_lp_Variant>
AV-unprocessed.smi:1335-2

> <Gold.Version>
5.8.1

> <Gold.Id.Protein>
6NUR|6NUR_protein|mol2

> <Gold.PLP.Fitness>
57.2604

> <Gold.PLP.PLP>
-51.6428

> <Gold.PLP.part.hbond>
-2.2309

> <Gold.PLP.part.metal>
0.0000

> <Gold.PLP.part.buried>
-5.5080

> <Gold.PLP.part.nonpolar>
-43.3565

> <Gold.PLP.part.repulsive>
0.0000

> <Gold.PLP.ligand.clash>
0.0000

> <Gold.PLP.ligand.torsion>
0.3024

> <Gold.PLP.Chemscore.Hbond>
2.0000

> <Gold.PLP.Chemscore.CHOScore>
0.0000

> <Gold.PLP.Chemscore.Metal>
0.0000

> <Gold.Chemscore.Hbonds>
donor molecule, donor type, donor heavy atom, donor atom, acceptor molecule, acceptor atom, score
      P1  H  6896  6908       L1    13  1.00
      P1  H  6934  6947       L1     2  0.72

> <Gold.PLP.Chemscore.Internal.Correction>
0.2224

> <Gold.Rescore>
     Score         DG    S(hbond)    S(metal)    S(lipo)     H(rot)  DE(clash)    DE(int)     intcor
     18.22     -20.23       1.67        0.00     133.24       2.50       0.10       1.91       ----

> <Gold.Chemscore.Fitness>
18.2205

> <Gold.Chemscore.DG>
-20.2280

> <Gold.Chemscore.ZeroCoef>
-5.4800

> <Gold.Chemscore.Hbond>
1.6674

> <Gold.Chemscore.Metal>
0.0000

> <Gold.Chemscore.Lipo>
133.2355

> <Gold.Chemscore.Internal_Hbond>
0.0000

> <Gold.Chemscore.DEClash>
0.0988

> <Gold.Chemscore.DEInternal>
1.9088

> <Gold.Chemscore.Rot>
2.5038

> <Gold.Chemscore.Internal.Correction>
   9.000000E+99

> <Gold.Chemscore.Hbonds>
donor molecule, donor type, donor heavy atom, donor atom, acceptor molecule, acceptor atom, score
      P1  H  6896  6908       L1    13  0.34
      P1  H  6934  6947       L1     2  0.69

> <Gold.Chemscore.Hbond.Weighted>
-5.5692

> <Gold.Chemscore.Metal.Weighted>
-0.0000

> <Gold.Chemscore.Lipo.Weighted>
-15.5886

> <Gold.Chemscore.Internal_Hbond.Weighted>
0.0000

> <Gold.Chemscore.DEClash.Weighted>
0.0988

> <Gold.Chemscore.DEInternal.Weighted>
1.9088

> <Gold.Chemscore.Rot.Weighted>
6.4098

> <Gold.Chemscore.Internal.Correction.Weighted>
   9.000000E+99

> <Gold.Protein.RotatedTorsions>
[ 6907 6896 6895 6894 ] final -119.05 input  -60.11 | X-H torsion
[ 7974 7965 7964 7962 ] final  -72.38 input  175.53 | X-H torsion
[ 8008 7997 7996 7995 ] final  124.10 input   59.86 | X-H torsion
[ 10167 10162 10161 10158 ] final -133.61 input  -65.29 | X-H torsion
[ 10718 10713 10712 10709 ] final   73.39 input   66.30 | X-H torsion
[ 10763 10752 10751 10750 ] final  -85.46 input  -60.55 | X-H torsion
[ 11005 11000 10999 10996 ] final  167.19 input  -57.11 | X-H torsion

> <Gold.Protein.ActiveResidues>
 VAL166  LYS551  ARG553  GLY616  TRP617  ASP618  TYR619  PRO620  LYS621  CYS622 
 ASP623  PHE694  ASN695  SER759  ASP760  ASP761  ALA762  ILE779  LEU786  VAL792 
 PHE793  MET794  SER795  GLU796  ALA797  LYS798  CYS799  TRP800  GLU811  SER814 

> <Gold.Protein.RotatedAtoms>
  150.8272  133.8152  159.3113 H   0  0  0  0  0  0  0  0  0  0  0  0  # atno 6907 bound_to 6896
  151.5892  135.1052  160.0044 H   0  0  0  0  0  0  0  0  0  0  0  0  # atno 6908 bound_to 6896
  152.4356  133.7313  159.6645 H   0  0  0  0  0  0  0  0  0  0  0  0  # atno 6909 bound_to 6896
  145.6659  140.9237  143.0909 H   0  0  0  0  0  0  0  0  0  0  0  0  # atno 7974 bound_to 7965
  156.2790  140.2747  156.1734 H   0  0  0  0  0  0  0  0  0  0  0  0  # atno 8008 bound_to 7997
  155.0631  140.0386  157.2601 H   0  0  0  0  0  0  0  0  0  0  0  0  # atno 8009 bound_to 7997
  154.7101  140.2667  155.6643 H   0  0  0  0  0  0  0  0  0  0  0  0  # atno 8010 bound_to 7997
  139.8965  143.6659  152.2603 H   0  0  0  0  0  0  0  0  0  0  0  0  # atno 10167 bound_to 10162
  157.6545  130.9626  150.1063 H   0  0  0  0  0  0  0  0  0  0  0  0  # atno 10718 bound_to 10713
  154.6113  135.5484  153.7476 H   0  0  0  0  0  0  0  0  0  0  0  0  # atno 10763 bound_to 10752
  153.0196  135.6390  154.1574 H   0  0  0  0  0  0  0  0  0  0  0  0  # atno 10764 bound_to 10752
  154.1512  135.2902  155.3115 H   0  0  0  0  0  0  0  0  0  0  0  0  # atno 10765 bound_to 10752
  140.2742  134.7802  157.3702 H   0  0  0  0  0  0  0  0  0  0  0  0  # atno 11005 bound_to 11000
  144.7073  139.8509  143.7426 LP  0  0  0  0  0  0  0  0  0  0  0  0  # atno 17320 bound_to 7965
  146.1086  139.4088  143.0302 LP  0  0  0  0  0  0  0  0  0  0  0  0  # atno 17321 bound_to 7965
  139.7063  144.7627  151.1188 LP  0  0  0  0  0  0  0  0  0  0  0  0  # atno 17342 bound_to 10162
  140.7716  143.5390  150.9334 LP  0  0  0  0  0  0  0  0  0  0  0  0  # atno 17343 bound_to 10162
  156.1972  130.3658  149.8835 LP  0  0  0  0  0  0  0  0  0  0  0  0  # atno 17370 bound_to 10713
  156.6748  130.8834  151.3567 LP  0  0  0  0  0  0  0  0  0  0  0  0  # atno 17371 bound_to 10713
  140.1344  134.5053  155.8080 LP  0  0  0  0  0  0  0  0  0  0  0  0  # atno 17394 bound_to 11000
  141.2173  133.6802  156.7098 LP  0  0  0  0  0  0  0  0  0  0  0  0  # atno 17395 bound_to 11000

$$$$
