#       Name:                AV-unprocessed.smi:3314
#       Creating user name   scv26
#       Creation time:       Fri Mar 27 19:08:15 2020


#       File generated by GOLD software.
#

@<TRIPOS>MOLECULE
AV-unprocessed.smi:3314
    43    44     1
SMALL
NO_CHARGES


@<TRIPOS>ATOM
      1 ****        -4.8305   2.6870   0.4952 C.3            1 S1                 0.0000
      2 ****        -3.3170   2.6202   0.4845 C.2            1 S1                 0.0000
      3 ****        -2.5272   3.8399   0.4841 C.2            1 S1                 0.0000
      4 ****        -1.1858   3.7590   0.4753 C.2            1 S1                 0.0000
      5 ****        -0.2702   4.9651   0.4733 C.3            1 S1                 0.0000
      6 ****        -0.5457   2.5261   0.4677 N.pl3          1 S1                 0.0000
      7 ****        -1.2375   1.3020   0.4664 C.2            1 S1                 0.0000
      8 ****        -0.6867   0.1228   0.4582 N.2            1 S1                 0.0000
      9 ****         0.6933  -0.0621   0.4588 C.2            1 S1                 0.0000
     10 ****         1.5960   0.7798   0.4706 O.2            1 S1                 0.0000
     11 ****         1.0711  -1.5480   0.4340 C.3            1 S1                 0.0000
     12 ****         1.3330  -2.0290  -1.0093 C.3            1 S1                 0.0000
     13 ****         1.7923  -3.4370  -1.0105 N.4            1 S1                 1.0000
     14 ****         2.0202  -3.9616  -2.3738 C.3            1 S1                 0.0000
     15 ****         2.9671  -3.6110  -0.1266 C.3            1 S1                 0.0000
     16 ****         2.6524  -3.0901   1.2849 C.3            1 S1                 0.0000
     17 ****         2.2537  -1.7271   1.2098 O.3            1 S1                 0.0000
     18 ****        -2.6877   1.4214   0.4750 C.2            1 S1                 0.0000
     19 ****        -5.1803   3.7198   0.4987 H              1 S1                 0.0000
     20 ****        -5.2257   2.1909   1.3821 H              1 S1                 0.0000
     21 ****        -5.2381   2.1928  -0.3871 H              1 S1                 0.0000
     22 ****        -3.0151   4.8037   0.4906 H              1 S1                 0.0000
     23 ****        -0.8409   5.8941   0.4939 H              1 S1                 0.0000
     24 ****         0.3515   4.9677  -0.4224 H              1 S1                 0.0000
     25 ****         0.3832   4.9479   1.3460 H              1 S1                 0.0000
     26 ****         0.2653  -2.1336   0.8825 H              1 S1                 0.0000
     27 ****         0.4212  -1.9466  -1.6032 H              1 S1                 0.0000
     28 ****         2.0865  -1.4020  -1.4905 H              1 S1                 0.0000
     29 ****         2.8174  -3.4130  -2.8772 H              1 S1                 0.0000
     30 ****         1.1139  -3.8761  -2.9743 H              1 S1                 0.0000
     31 ****         2.2988  -5.0154  -2.3391 H              1 S1                 0.0000
     32 ****         3.2421  -4.6654  -0.0809 H              1 S1                 0.0000
     33 ****         3.8217  -3.0732  -0.5404 H              1 S1                 0.0000
     34 ****         1.8696  -3.6861   1.7567 H              1 S1                 0.0000
     35 ****         3.5359  -3.1654   1.9192 H              1 S1                 0.0000
     36 ****        -3.3083   0.5365   0.4755 H              1 S1                 0.0000
     37 ****         0.4640   2.5517   0.4634 H              1 S1                 0.0000
     38 ****         1.0447  -3.9856  -0.6100 H              1 S1                 0.0000
     39 ****        -1.2786  -0.6831   0.4512 LP             1 S1                 0.0000
     40 ****         1.3710   1.7541   0.4817 LP             1 S1                 0.0000
     41 ****         2.5524   0.4875   0.4690 LP             1 S1                 0.0000
     42 ****         2.0840  -1.3908   2.1361 LP             1 S1                 0.0000
     43 ****         2.9937  -1.1986   0.7937 LP             1 S1                 0.0000
@<TRIPOS>BOND
    1    1    2 1     
    2    1   19 1     
    3    1   20 1     
    4    1   21 1     
    5    2   18 2     
    6    2    3 1     
    7    3    4 2     
    8    3   22 1     
    9    4    5 1     
   10    4    6 1     
   11    5   23 1     
   12    5   24 1     
   13    5   25 1     
   14    6    7 1     
   15    6   37 1     
   16    7    8 2     
   17    7   18 1     
   18    8    9 1     
   19    9   10 2     
   20    9   11 1     
   21   11   17 1     
   22   11   12 1     
   23   11   26 1     
   24   12   13 1     
   25   12   27 1     
   26   12   28 1     
   27   13   14 1     
   28   13   15 1     
   29   13   38 1     
   30   14   29 1     
   31   14   30 1     
   32   14   31 1     
   33   15   16 1     
   34   15   32 1     
   35   15   33 1     
   36   16   17 1     
   37   16   34 1     
   38   16   35 1     
   39   18   36 1     
   40    8   39 1     
   41   10   40 1     
   42   10   41 1     
   43   17   42 1     
   44   17   43 1     
@<TRIPOS>SUBSTRUCTURE
      1 S1             1
@<TRIPOS>SET
LONE_PAIRS      STATIC     ATOMS    <user>   **** ""
5 39 40 41 42 43
DONOR_HYDROGENS      STATIC     ATOMS    <user>   **** ""
2 37 38
ATOM$BLUE        STATIC     ATOMS    COLORGROUP SYSTEM
5 39 40 41 42 43
ATOM$RED        STATIC     ATOMS    COLORGROUP SYSTEM
2 37 38
