AV-unprocessed.smi:933|AV-procd|sdf|4203|dock10
  -GOLD-   22720 2113D 1   1.00000     0.00000
 Structure written by MMmdl.
 42 43  0  0  0  0  0  0  0  0  1 V2000
  152.2857  138.7003  156.0083 C   0  0  0  0  0  0  0  0  0  0  0  0
  151.6184  138.7652  154.6304 C   0  0  0  0  0  0  0  0  0  0  0  0
  150.4089  139.6386  154.6228 C   0  0  0  0  0  0  0  0  0  0  0  0
  149.2216  139.2471  154.1535 N   0  0  0  0  0  0  0  0  0  0  0  0
  148.2333  140.2263  154.2993 C   0  0  0  0  0  0  0  0  0  0  0  0
  146.8292  139.9573  153.8390 C   0  0  0  0  0  0  0  0  0  0  0  0
  146.7470  139.4270  152.3969 C   0  0  0  0  0  0  0  0  0  0  0  0
  146.8459  137.9690  152.3481 N   0  0  0  0  0  0  0  0  0  0  0  0
  145.8564  137.0784  152.5283 C   0  0  0  0  0  0  0  0  0  0  0  0
  144.7018  137.4271  152.7672 O   0  0  0  0  0  0  0  0  0  0  0  0
  146.2387  135.7947  152.4262 N   0  0  0  0  0  0  0  0  0  0  0  0
  145.3611  134.6360  152.5832 C   0  0  2  0  0  0  0  0  0  0  0  0
  146.1768  133.3692  152.9217 C   0  0  0  0  0  0  0  0  0  0  0  0
  145.8553  132.3375  151.8359 C   0  0  0  0  0  0  0  0  0  0  0  0
  145.3723  133.1594  150.6441 C   0  0  0  0  0  0  0  0  0  0  0  0
  144.5895  134.3069  151.2844 C   0  0  2  0  0  0  0  0  0  0  0  0
  144.3130  135.4808  150.3283 C   0  0  0  0  0  0  0  0  0  0  0  0
  148.6950  141.3745  154.8932 C   0  0  0  0  0  0  0  0  0  0  0  0
  150.3853  141.2624  155.3000 S   0  0  0  0  0  0  0  0  0  0  0  0
  153.1658  138.0573  155.9844 H   0  0  0  0  0  0  0  0  0  0  0  0
  151.6015  138.3014  156.7581 H   0  0  0  0  0  0  0  0  0  0  0  0
  152.6041  139.6897  156.3382 H   0  0  0  0  0  0  0  0  0  0  0  0
  152.3259  139.1421  153.8914 H   0  0  0  0  0  0  0  0  0  0  0  0
  151.3327  137.7634  154.3072 H   0  0  0  0  0  0  0  0  0  0  0  0
  146.3543  139.2377  154.5068 H   0  0  0  0  0  0  0  0  0  0  0  0
  146.2325  140.8670  153.9203 H   0  0  0  0  0  0  0  0  0  0  0  0
  145.8040  139.7417  151.9466 H   0  0  0  0  0  0  0  0  0  0  0  0
  147.5500  139.8637  151.8013 H   0  0  0  0  0  0  0  0  0  0  0  0
  147.7658  137.5955  152.1608 H   0  0  0  0  0  0  0  0  0  0  0  0
  147.2095  135.6049  152.2255 H   0  0  0  0  0  0  0  0  0  0  0  0
  144.6384  134.8427  153.3748 H   0  0  0  0  0  0  0  0  0  0  0  0
  147.2475  133.5798  152.9155 H   0  0  0  0  0  0  0  0  0  0  0  0
  145.9353  132.9877  153.9142 H   0  0  0  0  0  0  0  0  0  0  0  0
  146.7108  131.7073  151.5907 H   0  0  0  0  0  0  0  0  0  0  0  0
  145.0510  131.6851  152.1779 H   0  0  0  0  0  0  0  0  0  0  0  0
  146.2293  133.5492  150.0928 H   0  0  0  0  0  0  0  0  0  0  0  0
  144.7672  132.5735  149.9514 H   0  0  0  0  0  0  0  0  0  0  0  0
  143.6225  133.9007  151.5863 H   0  0  0  0  0  0  0  0  0  0  0  0
  145.2337  135.8990  149.9203 H   0  0  0  0  0  0  0  0  0  0  0  0
  143.7762  136.2815  150.8376 H   0  0  0  0  0  0  0  0  0  0  0  0
  143.7005  135.1569  149.4864 H   0  0  0  0  0  0  0  0  0  0  0  0
  148.1429  142.2735  155.1236 H   0  0  0  0  0  0  0  0  0  0  0  0
  1  2  1  0  0  0  0
  1 20  1  0  0  0  0
  1 21  1  0  0  0  0
  1 22  1  0  0  0  0
  2  3  1  0  0  0  0
  2 23  1  0  0  0  0
  2 24  1  0  0  0  0
  3 19  1  0  0  0  0
  3  4  2  0  0  0  0
  4  5  1  0  0  0  0
  5  6  1  0  0  0  0
  5 18  2  0  0  0  0
  6  7  1  0  0  0  0
  6 25  1  0  0  0  0
  6 26  1  0  0  0  0
  7  8  1  0  0  0  0
  7 27  1  0  0  0  0
  7 28  1  0  0  0  0
  8  9  1  0  0  0  0
  8 29  1  0  0  0  0
  9 10  2  0  0  0  0
  9 11  1  0  0  0  0
 11 12  1  0  0  0  0
 11 30  1  0  0  0  0
 12 16  1  0  0  0  0
 12 13  1  0  0  0  0
 12 31  1  0  0  0  0
 13 14  1  0  0  0  0
 13 32  1  0  0  0  0
 13 33  1  0  0  0  0
 14 15  1  0  0  0  0
 14 34  1  0  0  0  0
 14 35  1  0  0  0  0
 15 16  1  0  0  0  0
 15 36  1  0  0  0  0
 15 37  1  0  0  0  0
 16 17  1  0  0  0  0
 16 38  1  0  0  0  0
 17 39  1  0  0  0  0
 17 40  1  0  0  0  0
 17 41  1  0  0  0  0
 18 19  1  0  0  0  0
 18 42  1  0  0  0  0
M  END
> <s_m_source_file>
AV-unprocessed.smi

> <i_m_source_file_index>
933

> <i_lp_mmshare_version>
43012

> <i_f3d_flags>
0

> <s_epik_input>
W0NIM11bQ0gyXWMxbmMoW2NIXXMxKVtDSDJdW0NIMl1bTkhdQyg9TylbTkhdW0NAQEhdMltDSDJdW0NIMl1bQ0gyXVtDQEhdMltDSDNd

> <s_epik_cmdline>
J2VwaWtfcHl0aG9uJywgJy1waCcsICc3LjAnLCAnLXRuJywgJzgnLCAnLW1hJywgJzIwMCcsICctbWV0YWxfYmluZGluZycsICctaW1hZScsICc8aW5maWxlLm1hZT4nLCAnLW9tYWUnLCAnPG91dGZpbGUubWFlPic=

> <r_epik_Ionization_Penalty>
0.00203408

> <r_epik_Ionization_Penalty_Charging>
0

> <r_epik_Ionization_Penalty_Neutral>
0.00203408

> <r_epik_State_Penalty>
0.0013452

> <r_epik_Charging_Adjusted_Penalty>
0.0013452

> <i_epik_Tot_Q>
0

> <i_epik_Tot_abs_Q>
0

> <r_epik_Metal_State_Penalty>
-0

> <b_epik_Metal_Only>
0

> <s_lp_Force_Field>
OPLS_2005

> <r_lp_Energy>
20.7198

> <b_lp_Chiralities_Consistent>
1

> <s_lp_Variant>
AV-unprocessed.smi:933-3

> <Gold.Version>
5.8.1

> <Gold.Id.Protein>
6NUR|6NUR_protein|mol2

> <Gold.PLP.Fitness>
40.4395

> <Gold.PLP.PLP>
-33.5870

> <Gold.PLP.part.hbond>
-2.0000

> <Gold.PLP.part.metal>
0.0000

> <Gold.PLP.part.buried>
-1.3037

> <Gold.PLP.part.nonpolar>
-29.5765

> <Gold.PLP.part.repulsive>
0.4684

> <Gold.PLP.ligand.clash>
0.0000

> <Gold.PLP.ligand.torsion>
0.8343

> <Gold.PLP.Chemscore.Hbond>
1.9920

> <Gold.PLP.Chemscore.CHOScore>
0.8343

> <Gold.PLP.Chemscore.Metal>
0.0000

> <Gold.Chemscore.Hbonds>
donor molecule, donor type, donor heavy atom, donor atom, acceptor molecule, acceptor atom, score
      L1  H     8    29       P1  7948  1.00
      L1  H    11    30       P1  7948  1.00
      L1  C    18    42       P1  8028  0.84

> <Gold.PLP.Chemscore.Internal.Correction>
0.0421

> <Gold.Rescore>
     Score         DG    S(hbond)    S(metal)    S(lipo)     H(rot)  DE(clash)    DE(int)     intcor
     17.29     -18.19       1.91        0.00      87.91       1.55       0.02       0.89       ----

> <Gold.Chemscore.Fitness>
17.2894

> <Gold.Chemscore.DG>
-18.1937

> <Gold.Chemscore.ZeroCoef>
-5.4800

> <Gold.Chemscore.Hbond>
1.9136

> <Gold.Chemscore.Metal>
0.0000

> <Gold.Chemscore.Lipo>
87.9134

> <Gold.Chemscore.Internal_Hbond>
0.0000

> <Gold.Chemscore.DEClash>
0.0178

> <Gold.Chemscore.DEInternal>
0.8865

> <Gold.Chemscore.Rot>
1.5482

> <Gold.Chemscore.Internal.Correction>
   9.000000E+99

> <Gold.Chemscore.Hbonds>
donor molecule, donor type, donor heavy atom, donor atom, acceptor molecule, acceptor atom, score
      L1  H     8    29       P1  7948  0.98
      L1  H    11    30       P1  7948  0.95

> <Gold.Chemscore.Hbond.Weighted>
-6.3913

> <Gold.Chemscore.Metal.Weighted>
-0.0000

> <Gold.Chemscore.Lipo.Weighted>
-10.2859

> <Gold.Chemscore.Internal_Hbond.Weighted>
0.0000

> <Gold.Chemscore.DEClash.Weighted>
0.0178

> <Gold.Chemscore.DEInternal.Weighted>
0.8865

> <Gold.Chemscore.Rot.Weighted>
3.9635

> <Gold.Chemscore.Internal.Correction.Weighted>
   9.000000E+99

> <Gold.Protein.RotatedTorsions>
[ 6907 6896 6895 6894 ] final -113.65 input  -60.11 | X-H torsion
[ 7974 7965 7964 7962 ] final  -61.71 input  175.53 | X-H torsion
[ 8008 7997 7996 7995 ] final   54.66 input   59.86 | X-H torsion
[ 10167 10162 10161 10158 ] final   84.22 input  -65.29 | X-H torsion
[ 10718 10713 10712 10709 ] final   66.20 input   66.30 | X-H torsion
[ 10763 10752 10751 10750 ] final -139.96 input  -60.55 | X-H torsion
[ 11005 11000 10999 10996 ] final  -28.70 input  -57.11 | X-H torsion

> <Gold.Protein.ActiveResidues>
 VAL166  LYS551  ARG553  GLY616  TRP617  ASP618  TYR619  PRO620  LYS621  CYS622 
 ASP623  PHE694  ASN695  SER759  ASP760  ASP761  ALA762  ILE779  LEU786  VAL792 
 PHE793  MET794  SER795  GLU796  ALA797  LYS798  CYS799  TRP800  GLU811  SER814 

> <Gold.Protein.RotatedAtoms>
  150.7844  133.8914  159.3314 H   0  0  0  0  0  0  0  0  0  0  0  0  # atno 6907 bound_to 6896
  151.6768  135.0966  160.0218 H   0  0  0  0  0  0  0  0  0  0  0  0  # atno 6908 bound_to 6896
  152.3905  133.6633  159.6269 H   0  0  0  0  0  0  0  0  0  0  0  0  # atno 6909 bound_to 6896
  145.8002  140.8659  143.0235 H   0  0  0  0  0  0  0  0  0  0  0  0  # atno 7974 bound_to 7965
  155.4884  140.3470  155.4351 H   0  0  0  0  0  0  0  0  0  0  0  0  # atno 8008 bound_to 7997
  156.0993  140.1431  156.9517 H   0  0  0  0  0  0  0  0  0  0  0  0  # atno 8009 bound_to 7997
  154.4683  140.0909  156.7057 H   0  0  0  0  0  0  0  0  0  0  0  0  # atno 8010 bound_to 7997
  139.9103  144.6276  150.8544 H   0  0  0  0  0  0  0  0  0  0  0  0  # atno 10167 bound_to 10162
  157.6154  130.9255  150.0078 H   0  0  0  0  0  0  0  0  0  0  0  0  # atno 10718 bound_to 10713
  154.8593  135.3567  154.5631 H   0  0  0  0  0  0  0  0  0  0  0  0  # atno 10763 bound_to 10752
  153.6246  135.7004  153.5302 H   0  0  0  0  0  0  0  0  0  0  0  0  # atno 10764 bound_to 10752
  153.3100  135.4181  155.1287 H   0  0  0  0  0  0  0  0  0  0  0  0  # atno 10765 bound_to 10752
  140.9232  133.7385  156.0830 H   0  0  0  0  0  0  0  0  0  0  0  0  # atno 11005 bound_to 11000
  144.6770  140.0248  143.7483 LP  0  0  0  0  0  0  0  0  0  0  0  0  # atno 17320 bound_to 7965
  145.9886  139.2997  143.0998 LP  0  0  0  0  0  0  0  0  0  0  0  0  # atno 17321 bound_to 7965
  140.7687  143.3371  151.2287 LP  0  0  0  0  0  0  0  0  0  0  0  0  # atno 17342 bound_to 10162
  139.6948  143.9631  152.2877 LP  0  0  0  0  0  0  0  0  0  0  0  0  # atno 17343 bound_to 10162
  156.1274  130.3644  149.9787 LP  0  0  0  0  0  0  0  0  0  0  0  0  # atno 17370 bound_to 10713
  156.7855  130.9237  151.3646 LP  0  0  0  0  0  0  0  0  0  0  0  0  # atno 17371 bound_to 10713
  140.7961  134.3562  157.5452 LP  0  0  0  0  0  0  0  0  0  0  0  0  # atno 17394 bound_to 11000
  139.8780  134.9169  156.3166 LP  0  0  0  0  0  0  0  0  0  0  0  0  # atno 17395 bound_to 11000

$$$$
