AV-unprocessed.smi:1816|AV-procd|sdf|7367|dock7
  -GOLD-   22720 9 33D 1   1.00000     0.00000
 Structure written by MMmdl.
 35 36  0  0  0  0  0  0  0  0  3 V2000
  150.3040  135.1405  156.5879 C   0  0  0  0  0  0  0  0  0  0  0  0
  149.7144  135.9014  155.3784 C   0  0  1  0  0  0  0  0  0  0  0  0
  150.7982  136.7668  154.6935 C   0  0  0  0  0  0  0  0  0  0  0  0
  151.2979  137.8106  155.5796 N   0  0  0  0  0  0  0  0  0  0  0  0
  152.5480  138.2901  155.5776 C   0  0  0  0  0  0  0  0  0  0  0  0
  153.3743  137.8450  154.7777 O   0  0  0  0  0  0  0  0  0  0  0  0
  152.7604  139.2525  156.5026 N   0  5  0  0  0  0  0  0  0  0  0  0
  151.9341  140.3089  156.5751 C   0  0  0  0  0  0  0  0  0  0  0  0
  151.2471  140.7709  155.5240 N   0  0  0  0  0  0  0  0  0  0  0  0
  150.4448  141.8727  155.8262 C   0  0  0  0  0  0  0  0  0  0  0  0
  150.5149  142.2520  157.1405 C   0  0  0  0  0  0  0  0  0  0  0  0
  151.5985  141.2316  158.0428 S   0  0  0  0  0  0  0  0  0  0  0  0
  149.0971  134.9617  154.3984 N   0  3  0  0  0  0  0  0  0  0  0  0
  149.8635  133.7276  154.1188 C   0  0  0  0  0  0  0  0  0  0  0  0
  148.8493  132.7587  153.5227 C   0  0  0  0  0  0  0  0  0  0  0  0
  147.5828  133.0585  154.3156 C   0  0  0  0  0  0  0  0  0  0  0  0
  147.7102  134.5349  154.7163 C   0  0  0  0  0  0  0  0  0  0  0  0
  150.7663  135.8184  157.3055 H   0  0  0  0  0  0  0  0  0  0  0  0
  151.0667  134.4281  156.2721 H   0  0  0  0  0  0  0  0  0  0  0  0
  149.5409  134.5917  157.1392 H   0  0  0  0  0  0  0  0  0  0  0  0
  148.9277  136.5616  155.7477 H   0  0  0  0  0  0  0  0  0  0  0  0
  151.6304  136.1368  154.3744 H   0  0  0  0  0  0  0  0  0  0  0  0
  150.4078  137.2533  153.7991 H   0  0  0  0  0  0  0  0  0  0  0  0
  150.6505  138.2009  156.2485 H   0  0  0  0  0  0  0  0  0  0  0  0
  149.8541  142.3243  155.0432 H   0  0  0  0  0  0  0  0  0  0  0  0
  149.9985  143.0632  157.6309 H   0  0  0  0  0  0  0  0  0  0  0  0
  150.6995  133.9085  153.4424 H   0  0  0  0  0  0  0  0  0  0  0  0
  150.2582  133.3194  155.0509 H   0  0  0  0  0  0  0  0  0  0  0  0
  148.6910  132.9892  152.4680 H   0  0  0  0  0  0  0  0  0  0  0  0
  149.1614  131.7166  153.5977 H   0  0  0  0  0  0  0  0  0  0  0  0
  146.6765  132.8548  153.7445 H   0  0  0  0  0  0  0  0  0  0  0  0
  147.5559  132.4370  155.2118 H   0  0  0  0  0  0  0  0  0  0  0  0
  147.4868  134.6448  155.7786 H   0  0  0  0  0  0  0  0  0  0  0  0
  147.0076  135.1588  154.1629 H   0  0  0  0  0  0  0  0  0  0  0  0
  149.0400  135.4539  153.5181 H   0  0  0  0  0  0  0  0  0  0  0  0
  1  2  1  0  0  0  0
  1 18  1  0  0  0  0
  1 19  1  0  0  0  0
  1 20  1  0  0  0  0
  2  3  1  0  0  0  0
  2 13  1  0  0  0  0
  2 21  1  0  0  0  0
  3  4  1  0  0  0  0
  3 22  1  0  0  0  0
  3 23  1  0  0  0  0
  4  5  1  0  0  0  0
  4 24  1  0  0  0  0
  5  6  2  0  0  0  0
  5  7  1  0  0  0  0
  7  8  1  0  0  0  0
  8 12  1  0  0  0  0
  8  9  2  0  0  0  0
  9 10  1  0  0  0  0
 10 11  2  0  0  0  0
 10 25  1  0  0  0  0
 11 12  1  0  0  0  0
 11 26  1  0  0  0  0
 13 17  1  0  0  0  0
 13 14  1  0  0  0  0
 13 35  1  0  0  0  0
 14 15  1  0  0  0  0
 14 27  1  0  0  0  0
 14 28  1  0  0  0  0
 15 16  1  0  0  0  0
 15 29  1  0  0  0  0
 15 30  1  0  0  0  0
 16 17  1  0  0  0  0
 16 31  1  0  0  0  0
 16 32  1  0  0  0  0
 17 33  1  0  0  0  0
 17 34  1  0  0  0  0
M  CHG  1   7  -1
M  CHG  1  13   1
M  END
> <s_m_source_file>
AV-unprocessed.smi

> <i_m_source_file_index>
1816

> <i_lp_mmshare_version>
43012

> <i_f3d_flags>
0

> <s_epik_input>
W0NIMl0xW0NIMl1bQ0gyXVtDSDJdTjFbQ0BIXShbQ0gzXSlbQ0gyXVtOSF1DKD1PKVtOSF1jMm5bY0hdW2NIXXMy

> <s_epik_cmdline>
J2VwaWtfcHl0aG9uJywgJy1waCcsICc3LjAnLCAnLXRuJywgJzgnLCAnLW1hJywgJzIwMCcsICctbWV0YWxfYmluZGluZycsICctaW1hZScsICc8aW5maWxlLm1hZT4nLCAnLW9tYWUnLCAnPG91dGZpbGUubWFlPic=

> <r_lp_tautomer_probability>
0.999

> <r_epik_Ionization_Penalty>
6.21769

> <r_epik_Ionization_Penalty_Charging>
5.38662

> <r_epik_Ionization_Penalty_Neutral>
0.831074

> <r_epik_State_Penalty>
5.38626

> <r_epik_Charging_Adjusted_Penalty>
10.7729

> <i_epik_Tot_Q>
0

> <i_epik_Tot_abs_Q>
2

> <r_epik_Metal_State_Penalty>
1.41347

> <b_epik_Metal_Only>
1

> <s_lp_Force_Field>
OPLS_2005

> <r_lp_Energy>
20.95

> <b_lp_Chiralities_Consistent>
1

> <s_lp_Variant>
AV-unprocessed.smi:1816-4

> <Gold.Version>
5.8.1

> <Gold.Id.Protein>
6NUR|6NUR_protein|mol2

> <Gold.PLP.Fitness>
41.4907

> <Gold.PLP.PLP>
-27.1156

> <Gold.PLP.part.hbond>
-4.0000

> <Gold.PLP.part.metal>
0.0000

> <Gold.PLP.part.buried>
-3.3978

> <Gold.PLP.part.nonpolar>
-18.9634

> <Gold.PLP.part.repulsive>
0.1580

> <Gold.PLP.ligand.clash>
0.0000

> <Gold.PLP.ligand.torsion>
1.2666

> <Gold.PLP.Chemscore.Hbond>
4.8226

> <Gold.PLP.Chemscore.CHOScore>
0.7985

> <Gold.PLP.Chemscore.Metal>
0.0000

> <Gold.Chemscore.Hbonds>
donor molecule, donor type, donor heavy atom, donor atom, acceptor molecule, acceptor atom, score
      L1  H    13    35       P1  7948  2.00
      P1  H  7989  7998       L1     9  0.71
      P1  H  7997  8008       L1     7  2.00
      P1  H 10752 10765       L1     6  0.06
      L1  C    10    25       P1  8028  0.49
      L1  C    11    26       P1  8028  0.20

> <Gold.PLP.Chemscore.Internal.Correction>
0.0450

> <Gold.Rescore>
     Score         DG    S(hbond)    S(metal)    S(lipo)     H(rot)  DE(clash)    DE(int)     intcor
     12.20     -15.07       2.21        0.00      53.37       1.57       0.46       2.41       ----

> <Gold.Chemscore.Fitness>
12.2042

> <Gold.Chemscore.DG>
-15.0747

> <Gold.Chemscore.ZeroCoef>
-5.4800

> <Gold.Chemscore.Hbond>
2.2074

> <Gold.Chemscore.Metal>
0.0000

> <Gold.Chemscore.Lipo>
53.3654

> <Gold.Chemscore.Internal_Hbond>
0.0000

> <Gold.Chemscore.DEClash>
0.4609

> <Gold.Chemscore.DEInternal>
2.4096

> <Gold.Chemscore.Rot>
1.5710

> <Gold.Chemscore.Internal.Correction>
   9.000000E+99

> <Gold.Chemscore.Hbonds>
donor molecule, donor type, donor heavy atom, donor atom, acceptor molecule, acceptor atom, score
      L1  H    13    35       P1  7948  0.65
      P1  H  7989  7998       L1     9  0.38
      P1  H  7997  8008       L1     7  0.25
      P1  H 10752 10765       L1     6  0.05

> <Gold.Chemscore.Hbond.Weighted>
-7.3729

> <Gold.Chemscore.Metal.Weighted>
-0.0000

> <Gold.Chemscore.Lipo.Weighted>
-6.2437

> <Gold.Chemscore.Internal_Hbond.Weighted>
0.0000

> <Gold.Chemscore.DEClash.Weighted>
0.4609

> <Gold.Chemscore.DEInternal.Weighted>
2.4096

> <Gold.Chemscore.Rot.Weighted>
4.0219

> <Gold.Chemscore.Internal.Correction.Weighted>
   9.000000E+99

> <Gold.Protein.RotatedTorsions>
[ 6907 6896 6895 6894 ] final  -50.22 input  -60.11 | X-H torsion
[ 7974 7965 7964 7962 ] final -158.44 input  175.53 | X-H torsion
[ 8008 7997 7996 7995 ] final  -54.27 input   59.86 | X-H torsion
[ 10167 10162 10161 10158 ] final   79.68 input  -65.29 | X-H torsion
[ 10718 10713 10712 10709 ] final  -89.48 input   66.30 | X-H torsion
[ 10763 10752 10751 10750 ] final  163.66 input  -60.55 | X-H torsion
[ 11005 11000 10999 10996 ] final   41.49 input  -57.11 | X-H torsion

> <Gold.Protein.ActiveResidues>
 VAL166  LYS551  ARG553  GLY616  TRP617  ASP618  TYR619  PRO620  LYS621  CYS622 
 ASP623  PHE694  ASN695  SER759  ASP760  ASP761  ALA762  ILE779  LEU786  VAL792 
 PHE793  MET794  SER795  GLU796  ALA797  LYS798  CYS799  TRP800  GLU811  SER814 

> <Gold.Protein.RotatedAtoms>
  150.8728  134.8105  159.7167 H   0  0  0  0  0  0  0  0  0  0  0  0  # atno 6907 bound_to 6896
  152.4726  134.4920  159.9708 H   0  0  0  0  0  0  0  0  0  0  0  0  # atno 6908 bound_to 6896
  151.5006  133.3467  159.2904 H   0  0  0  0  0  0  0  0  0  0  0  0  # atno 6909 bound_to 6896
  144.7505  140.3827  143.6051 H   0  0  0  0  0  0  0  0  0  0  0  0  # atno 7974 bound_to 7965
  154.4157  140.1180  156.5288 H   0  0  0  0  0  0  0  0  0  0  0  0  # atno 8008 bound_to 7997
  155.6627  140.3496  155.4769 H   0  0  0  0  0  0  0  0  0  0  0  0  # atno 8009 bound_to 7997
  155.9699  140.1139  157.0811 H   0  0  0  0  0  0  0  0  0  0  0  0  # atno 8010 bound_to 7997
  139.9578  144.5982  150.8101 H   0  0  0  0  0  0  0  0  0  0  0  0  # atno 10167 bound_to 10162
  155.9984  130.4874  150.5177 H   0  0  0  0  0  0  0  0  0  0  0  0  # atno 10718 bound_to 10713
  154.2970  135.2760  155.2628 H   0  0  0  0  0  0  0  0  0  0  0  0  # atno 10763 bound_to 10752
  154.5082  135.5789  153.6587 H   0  0  0  0  0  0  0  0  0  0  0  0  # atno 10764 bound_to 10752
  152.9906  135.6174  154.3138 H   0  0  0  0  0  0  0  0  0  0  0  0  # atno 10765 bound_to 10752
  140.1830  134.4081  155.8189 H   0  0  0  0  0  0  0  0  0  0  0  0  # atno 11005 bound_to 11000
  145.6960  139.1650  143.2620 LP  0  0  0  0  0  0  0  0  0  0  0  0  # atno 17320 bound_to 7965
  146.1449  140.7006  142.9349 LP  0  0  0  0  0  0  0  0  0  0  0  0  # atno 17321 bound_to 7965
  140.7563  143.3063  151.2954 LP  0  0  0  0  0  0  0  0  0  0  0  0  # atno 17342 bound_to 10162
  139.6578  144.0244  152.2671 LP  0  0  0  0  0  0  0  0  0  0  0  0  # atno 17343 bound_to 10162
  157.3142  131.0669  151.1979 LP  0  0  0  0  0  0  0  0  0  0  0  0  # atno 17370 bound_to 10713
  157.2914  130.6798  149.6116 LP  0  0  0  0  0  0  0  0  0  0  0  0  # atno 17371 bound_to 10713
  141.2224  133.7009  156.7963 LP  0  0  0  0  0  0  0  0  0  0  0  0  # atno 17394 bound_to 11000
  140.2246  134.8731  157.3413 LP  0  0  0  0  0  0  0  0  0  0  0  0  # atno 17395 bound_to 11000

$$$$
