#       Name:                AV-unprocessed.smi:2753
#       Creating user name   scv26
#       Creation time:       Fri Mar 27 15:06:22 2020


#       File generated by GOLD software.
#

@<TRIPOS>MOLECULE
AV-unprocessed.smi:2753
    29    30     1
SMALL
NO_CHARGES


@<TRIPOS>ATOM
      1 ****        -4.8628   2.5873   0.0048 F              1 S1                 0.0000
      2 ****        -4.3579   1.3541   0.0026 C.3            1 S1                 0.0000
      3 ****        -4.8345   0.7228   1.0747 F              1 S1                 0.0000
      4 ****        -4.8283   0.7287  -1.0758 F              1 S1                 0.0000
      5 ****        -2.8648   1.3727   0.0075 C.2            1 S1                 0.0000
      6 ****        -1.9644   2.4142   0.0335 C.2            1 S1                 0.0000
      7 ****        -0.6614   1.9129   0.0307 N.2            1 S1                 0.0000
      8 ****        -0.8048   0.5906   0.0027 C.2            1 S1                 0.0000
      9 ****         0.3147  -0.4041  -0.0110 C.3            1 S1                 0.0000
     10 ****         1.1771  -0.2854  -1.2823 C.3            1 S1                 0.0000
     11 ****         2.3269  -1.3042  -1.2519 C.3            1 S1                 0.0000
     12 ****         3.1517  -1.1633   0.0380 C.3            1 S1                 0.0000
     13 ****         2.2847  -1.2959   1.2289 N.4            1 S1                 1.0000
     14 ****         1.1872  -0.3039   1.2576 C.3            1 S1                 0.0000
     15 ****        -2.0920   0.2240  -0.0135 N.pl3          1 S1                 0.0000
     16 ****        -2.4424  -0.7230  -0.0388 H              1 S1                 0.0000
     17 ****        -2.1512   3.4779   0.0554 H              1 S1                 0.0000
     18 ****        -0.1387  -1.3971  -0.0169 H              1 S1                 0.0000
     19 ****         0.5645  -0.4415  -2.1711 H              1 S1                 0.0000
     20 ****         1.5885   0.7220  -1.3608 H              1 S1                 0.0000
     21 ****         1.9236  -2.3153  -1.3217 H              1 S1                 0.0000
     22 ****         2.9691  -1.1670  -2.1224 H              1 S1                 0.0000
     23 ****         3.9296  -1.9263   0.0762 H              1 S1                 0.0000
     24 ****         3.6529  -0.1948   0.0643 H              1 S1                 0.0000
     25 ****         1.8826  -2.2225   1.2323 H              1 S1                 0.0000
     26 ****         1.6167   0.6947   1.3498 H              1 S1                 0.0000
     27 ****         0.5831  -0.4742   2.1493 H              1 S1                 0.0000
     28 ****         2.8493  -1.1829   2.0589 H              1 S1                 0.0000
     29 ****         0.1923   2.4335   0.0463 LP             1 S1                 0.0000
@<TRIPOS>BOND
    1    1    2 1     
    2    2    3 1     
    3    2    4 1     
    4    2    5 1     
    5    5    6 2     
    6    5   15 1     
    7    6   17 1     
    8    6    7 1     
    9    7    8 2     
   10    8   15 1     
   11    8    9 1     
   12    9   14 1     
   13    9   10 1     
   14    9   18 1     
   15   10   11 1     
   16   10   19 1     
   17   10   20 1     
   18   11   12 1     
   19   11   21 1     
   20   11   22 1     
   21   12   13 1     
   22   12   23 1     
   23   12   24 1     
   24   13   14 1     
   25   13   25 1     
   26   13   28 1     
   27   14   26 1     
   28   14   27 1     
   29   15   16 1     
   30    7   29 1     
@<TRIPOS>SUBSTRUCTURE
      1 S1             1
@<TRIPOS>SET
LONE_PAIRS      STATIC     ATOMS    <user>   **** ""
1 29
DONOR_HYDROGENS      STATIC     ATOMS    <user>   **** ""
3 25 28 16
ATOM$BLUE        STATIC     ATOMS    COLORGROUP SYSTEM
1 29
ATOM$RED        STATIC     ATOMS    COLORGROUP SYSTEM
3 25 28 16
