AV-unprocessed.smi:3004|AV-procd|sdf|11440|dock2
  -GOLD-   2272016373D 1   1.00000     0.00000
 Structure written by MMmdl.
 47 48  0  0  0  0  0  0  0  0  2 V2000
  153.8677  141.0308  161.2798 C   0  0  0  0  0  0  0  0  0  0  0  0
  153.1716  141.8363  160.2229 C   0  0  0  0  0  0  0  0  0  0  0  0
  153.0424  143.2506  160.1336 C   0  0  0  0  0  0  0  0  0  0  0  0
  152.3186  143.4525  158.9924 C   0  0  0  0  0  0  0  0  0  0  0  0
  151.8558  144.7225  158.3572 C   0  0  0  0  0  0  0  0  0  0  0  0
  152.0519  142.2032  158.4603 N   0  0  0  0  0  0  0  0  0  0  0  0
  151.3202  141.8565  157.2507 C   0  0  0  0  0  0  0  0  0  0  0  0
  151.4908  140.3781  156.8947 C   0  0  0  0  0  0  0  0  0  0  0  0
  152.6045  139.8568  156.9473 O   0  0  0  0  0  0  0  0  0  0  0  0
  150.3821  139.7116  156.5359 N   0  0  0  0  0  0  0  0  0  0  0  0
  150.3323  138.2981  156.1853 C   0  0  0  0  0  0  0  0  0  0  0  0
  149.6763  138.0838  154.8065 C   0  0  0  0  0  0  0  0  0  0  0  0
  149.2216  136.6851  154.5794 N   0  3  1  0  0  0  0  0  0  0  0  0
  150.2322  135.6905  155.0318 C   0  0  0  0  0  0  0  0  0  0  0  0
  149.8556  134.2670  154.5919 C   0  0  0  0  0  0  0  0  0  0  0  0
  148.4571  133.8882  155.0910 C   0  0  0  0  0  0  0  0  0  0  0  0
  147.4372  134.9376  154.6280 C   0  0  0  0  0  0  0  0  0  0  0  0
  147.8366  136.3675  155.0516 C   0  0  1  0  0  0  0  0  0  0  0  0
  147.6271  136.6070  156.5625 C   0  0  0  0  0  0  0  0  0  0  0  0
  152.5789  141.2153  159.2166 N   0  0  0  0  0  0  0  0  0  0  0  0
  154.4105  141.6744  161.9726 H   0  0  0  0  0  0  0  0  0  0  0  0
  154.5857  140.3388  160.8393 H   0  0  0  0  0  0  0  0  0  0  0  0
  153.1535  140.4467  161.8605 H   0  0  0  0  0  0  0  0  0  0  0  0
  153.4223  144.0037  160.8083 H   0  0  0  0  0  0  0  0  0  0  0  0
  152.1749  145.5874  158.9389 H   0  0  0  0  0  0  0  0  0  0  0  0
  150.7683  144.7485  158.2870 H   0  0  0  0  0  0  0  0  0  0  0  0
  152.2645  144.8265  157.3521 H   0  0  0  0  0  0  0  0  0  0  0  0
  150.2609  142.0808  157.3861 H   0  0  0  0  0  0  0  0  0  0  0  0
  151.6748  142.4840  156.4321 H   0  0  0  0  0  0  0  0  0  0  0  0
  149.5099  140.2211  156.5197 H   0  0  0  0  0  0  0  0  0  0  0  0
  151.3609  137.9393  156.1867 H   0  0  0  0  0  0  0  0  0  0  0  0
  149.8008  137.7389  156.9573 H   0  0  0  0  0  0  0  0  0  0  0  0
  148.8031  138.7342  154.7395 H   0  0  0  0  0  0  0  0  0  0  0  0
  150.3449  138.4031  154.0070 H   0  0  0  0  0  0  0  0  0  0  0  0
  151.2061  135.9398  154.6088 H   0  0  0  0  0  0  0  0  0  0  0  0
  150.3461  135.7371  156.1154 H   0  0  0  0  0  0  0  0  0  0  0  0
  149.8864  134.2002  153.5035 H   0  0  0  0  0  0  0  0  0  0  0  0
  150.5907  133.5538  154.9663 H   0  0  0  0  0  0  0  0  0  0  0  0
  148.1788  132.9032  154.7148 H   0  0  0  0  0  0  0  0  0  0  0  0
  148.4562  133.8155  156.1790 H   0  0  0  0  0  0  0  0  0  0  0  0
  147.3570  134.8965  153.5405 H   0  0  0  0  0  0  0  0  0  0  0  0
  146.4467  134.6901  155.0115 H   0  0  0  0  0  0  0  0  0  0  0  0
  147.1473  137.0290  154.5282 H   0  0  0  0  0  0  0  0  0  0  0  0
  146.6113  136.3406  156.8558 H   0  0  0  0  0  0  0  0  0  0  0  0
  147.7638  137.6544  156.8301 H   0  0  0  0  0  0  0  0  0  0  0  0
  148.3063  136.0147  157.1749 H   0  0  0  0  0  0  0  0  0  0  0  0
  149.1892  136.5811  153.5752 H   0  0  0  0  0  0  0  0  0  0  0  0
  1  2  1  0  0  0  0
  1 21  1  0  0  0  0
  1 22  1  0  0  0  0
  1 23  1  0  0  0  0
  2 20  2  0  0  0  0
  2  3  1  0  0  0  0
  3  4  2  0  0  0  0
  3 24  1  0  0  0  0
  4  5  1  0  0  0  0
  4  6  1  0  0  0  0
  5 25  1  0  0  0  0
  5 26  1  0  0  0  0
  5 27  1  0  0  0  0
  6  7  1  0  0  0  0
  6 20  1  0  0  0  0
  7  8  1  0  0  0  0
  7 28  1  0  0  0  0
  7 29  1  0  0  0  0
  8  9  2  0  0  0  0
  8 10  1  0  0  0  0
 10 11  1  0  0  0  0
 10 30  1  0  0  0  0
 11 12  1  0  0  0  0
 11 31  1  0  0  0  0
 11 32  1  0  0  0  0
 12 13  1  0  0  0  0
 12 33  1  0  0  0  0
 12 34  1  0  0  0  0
 13 18  1  0  0  0  0
 13 14  1  0  0  0  0
 13 47  1  0  0  0  0
 14 15  1  0  0  0  0
 14 35  1  0  0  0  0
 14 36  1  0  0  0  0
 15 16  1  0  0  0  0
 15 37  1  0  0  0  0
 15 38  1  0  0  0  0
 16 17  1  0  0  0  0
 16 39  1  0  0  0  0
 16 40  1  0  0  0  0
 17 18  1  0  0  0  0
 17 41  1  0  0  0  0
 17 42  1  0  0  0  0
 18 19  1  0  0  0  0
 18 43  1  0  0  0  0
 19 44  1  0  0  0  0
 19 45  1  0  0  0  0
 19 46  1  0  0  0  0
M  CHG  1  13   1
M  END
> <s_m_source_file>
AV-unprocessed.smi

> <i_m_source_file_index>
3004

> <i_lp_mmshare_version>
43012

> <i_f3d_flags>
0

> <s_epik_input>
W0NIM11jMVtjSF1jKFtDSDNdKW4objEpW0NIMl1DKD1PKVtOSF1bQ0gyXVtDSDJdTjJbQ0gyXVtDSDJdW0NIMl1bQ0gyXVtDQEhdMltDSDNd

> <s_epik_cmdline>
J2VwaWtfcHl0aG9uJywgJy1waCcsICc3LjAnLCAnLXRuJywgJzgnLCAnLW1hJywgJzIwMCcsICctbWV0YWxfYmluZGluZycsICctaW1hZScsICc8aW5maWxlLm1hZT4nLCAnLW9tYWUnLCAnPG91dGZpbGUubWFlPic=

> <r_lp_tautomer_probability>
1

> <r_epik_Ionization_Penalty>
0.00303644

> <r_epik_Ionization_Penalty_Charging>
0.00284254

> <r_epik_Ionization_Penalty_Neutral>
0.000193908

> <r_epik_State_Penalty>
-0

> <r_epik_Charging_Adjusted_Penalty>
0.00284254

> <i_epik_Tot_Q>
1

> <i_epik_Tot_abs_Q>
1

> <r_epik_Metal_State_Penalty>
-0

> <b_epik_Metal_Only>
0

> <s_lp_Force_Field>
OPLS_2005

> <r_lp_Energy>
17.9546

> <b_lp_Chiralities_Consistent>
1

> <s_lp_Variant>
AV-unprocessed.smi:3004-2

> <Gold.Version>
5.8.1

> <Gold.Id.Protein>
6NUR|6NUR_protein|mol2

> <Gold.PLP.Fitness>
43.7919

> <Gold.PLP.PLP>
-35.9275

> <Gold.PLP.part.hbond>
-2.0000

> <Gold.PLP.part.metal>
0.0000

> <Gold.PLP.part.buried>
-4.3646

> <Gold.PLP.part.nonpolar>
-29.0427

> <Gold.PLP.part.repulsive>
0.0454

> <Gold.PLP.ligand.clash>
0.0000

> <Gold.PLP.ligand.torsion>
0.6236

> <Gold.PLP.Chemscore.Hbond>
3.0000

> <Gold.PLP.Chemscore.CHOScore>
0.0000

> <Gold.PLP.Chemscore.Metal>
0.0000

> <Gold.Chemscore.Hbonds>
donor molecule, donor type, donor heavy atom, donor atom, acceptor molecule, acceptor atom, score
      L1  H    13    47       P1  7948  2.00
      P1  H  7997  8009       L1     9  1.00

> <Gold.PLP.Chemscore.Internal.Correction>
0.1116

> <Gold.Rescore>
     Score         DG    S(hbond)    S(metal)    S(lipo)     H(rot)  DE(clash)    DE(int)     intcor
     17.09     -19.27       1.98        0.00      97.80       1.67       0.01       2.17       ----

> <Gold.Chemscore.Fitness>
17.0883

> <Gold.Chemscore.DG>
-19.2675

> <Gold.Chemscore.ZeroCoef>
-5.4800

> <Gold.Chemscore.Hbond>
1.9786

> <Gold.Chemscore.Metal>
0.0000

> <Gold.Chemscore.Lipo>
97.8048

> <Gold.Chemscore.Internal_Hbond>
0.0000

> <Gold.Chemscore.DEClash>
0.0125

> <Gold.Chemscore.DEInternal>
2.1667

> <Gold.Chemscore.Rot>
1.6657

> <Gold.Chemscore.Internal.Correction>
   9.000000E+99

> <Gold.Chemscore.Hbonds>
donor molecule, donor type, donor heavy atom, donor atom, acceptor molecule, acceptor atom, score
      L1  H    13    47       P1  7948  0.98
      P1  H  7997  8009       L1     9  1.00

> <Gold.Chemscore.Hbond.Weighted>
-6.6084

> <Gold.Chemscore.Metal.Weighted>
-0.0000

> <Gold.Chemscore.Lipo.Weighted>
-11.4432

> <Gold.Chemscore.Internal_Hbond.Weighted>
0.0000

> <Gold.Chemscore.DEClash.Weighted>
0.0125

> <Gold.Chemscore.DEInternal.Weighted>
2.1667

> <Gold.Chemscore.Rot.Weighted>
4.2641

> <Gold.Chemscore.Internal.Correction.Weighted>
   9.000000E+99

> <Gold.Protein.RotatedTorsions>
[ 6907 6896 6895 6894 ] final -113.41 input  -60.11 | X-H torsion
[ 7974 7965 7964 7962 ] final   15.86 input  175.53 | X-H torsion
[ 8008 7997 7996 7995 ] final  176.40 input   59.86 | X-H torsion
[ 10167 10162 10161 10158 ] final  -82.35 input  -65.29 | X-H torsion
[ 10718 10713 10712 10709 ] final   67.99 input   66.30 | X-H torsion
[ 10763 10752 10751 10750 ] final   86.53 input  -60.55 | X-H torsion
[ 11005 11000 10999 10996 ] final  -68.37 input  -57.11 | X-H torsion

> <Gold.Protein.ActiveResidues>
 VAL166  LYS551  ARG553  GLY616  TRP617  ASP618  TYR619  PRO620  LYS621  CYS622 
 ASP623  PHE694  ASN695  SER759  ASP760  ASP761  ALA762  ILE779  LEU786  VAL792 
 PHE793  MET794  SER795  GLU796  ALA797  LYS798  CYS799  TRP800  GLU811  SER814 

> <Gold.Protein.RotatedAtoms>
  150.7827  133.8949  159.3324 H   0  0  0  0  0  0  0  0  0  0  0  0  # atno 6907 bound_to 6896
  151.6808  135.0960  160.0225 H   0  0  0  0  0  0  0  0  0  0  0  0  # atno 6908 bound_to 6896
  152.3883  133.6603  159.6252 H   0  0  0  0  0  0  0  0  0  0  0  0  # atno 6909 bound_to 6896
  146.2266  139.8832  142.8567 H   0  0  0  0  0  0  0  0  0  0  0  0  # atno 7974 bound_to 7965
  156.0768  140.1384  156.9761 H   0  0  0  0  0  0  0  0  0  0  0  0  # atno 8008 bound_to 7997
  154.4562  140.0960  156.6815 H   0  0  0  0  0  0  0  0  0  0  0  0  # atno 8009 bound_to 7997
  155.5139  140.3454  155.4396 H   0  0  0  0  0  0  0  0  0  0  0  0  # atno 8010 bound_to 7997
  140.4328  143.2542  151.8736 H   0  0  0  0  0  0  0  0  0  0  0  0  # atno 10167 bound_to 10162
  157.6263  130.9350  150.0317 H   0  0  0  0  0  0  0  0  0  0  0  0  # atno 10718 bound_to 10713
  153.1580  135.4577  154.9731 H   0  0  0  0  0  0  0  0  0  0  0  0  # atno 10763 bound_to 10752
  154.7876  135.3209  154.7854 H   0  0  0  0  0  0  0  0  0  0  0  0  # atno 10764 bound_to 10752
  153.8348  135.6935  153.4864 H   0  0  0  0  0  0  0  0  0  0  0  0  # atno 10765 bound_to 10752
  141.1530  133.6739  156.6435 H   0  0  0  0  0  0  0  0  0  0  0  0  # atno 11005 bound_to 11000
  145.2491  141.0037  143.3891 LP  0  0  0  0  0  0  0  0  0  0  0  0  # atno 17320 bound_to 7965
  144.9389  139.4212  143.6458 LP  0  0  0  0  0  0  0  0  0  0  0  0  # atno 17321 bound_to 7965
  139.4785  144.5316  151.8658 LP  0  0  0  0  0  0  0  0  0  0  0  0  # atno 17342 bound_to 10162
  140.4408  144.1989  150.5891 LP  0  0  0  0  0  0  0  0  0  0  0  0  # atno 17343 bound_to 10162
  156.1438  130.3642  149.9542 LP  0  0  0  0  0  0  0  0  0  0  0  0  # atno 17370 bound_to 10713
  156.7577  130.9139  151.3640 LP  0  0  0  0  0  0  0  0  0  0  0  0  # atno 17371 bound_to 10713
  140.3375  134.7877  157.4373 LP  0  0  0  0  0  0  0  0  0  0  0  0  # atno 17394 bound_to 11000
  140.0965  134.5530  155.8393 LP  0  0  0  0  0  0  0  0  0  0  0  0  # atno 17395 bound_to 11000

$$$$
