AV-unprocessed.smi:2061|AV-procd|sdf|8395|dock6
  -GOLD-   2272011 83D 1   1.00000     0.00000
 Structure written by MMmdl.
 45 46  0  0  0  0  0  0  0  0  3 V2000
  147.4415  136.2301  162.8254 C   0  0  0  0  0  0  0  0  0  0  0  0
  147.2214  136.3462  161.3561 C   0  0  0  0  0  0  0  0  0  0  0  0
  147.6061  135.5773  160.2943 C   0  0  0  0  0  0  0  0  0  0  0  0
  147.0578  136.2685  159.1811 C   0  0  0  0  0  0  0  0  0  0  0  0
  147.2460  135.7789  157.8616 N   0  0  0  0  0  0  0  0  0  0  0  0
  148.2122  134.9685  157.3924 C   0  0  0  0  0  0  0  0  0  0  0  0
  149.1100  134.5670  158.1424 O   0  0  0  0  0  0  0  0  0  0  0  0
  148.0502  134.6889  156.0702 N   0  5  0  0  0  0  0  0  0  0  0  0
  148.5095  135.5456  154.9774 C   0  0  0  0  0  0  0  0  0  0  0  0
  149.7350  136.3934  155.4299 C   0  0  1  0  0  0  0  0  0  0  0  0
  150.8459  135.4778  156.0219 C   0  0  0  0  0  0  0  0  0  0  0  0
  150.1965  137.2740  154.2975 N   0  3  1  0  0  0  0  0  0  0  0  0
  149.6439  138.6611  154.3179 C   0  0  0  0  0  0  0  0  0  0  0  0
  150.4178  139.5698  155.2965 C   0  0  2  0  0  0  0  0  0  0  0  0
  149.9139  141.0166  155.2571 C   0  0  0  0  0  0  0  0  0  0  0  0
  151.7947  139.5723  154.9387 O   0  0  0  0  0  0  0  0  0  0  0  0
  152.3811  138.2783  155.0136 C   0  0  2  0  0  0  0  0  0  0  0  0
  153.8732  138.4148  154.6930 C   0  0  0  0  0  0  0  0  0  0  0  0
  151.6580  137.3449  154.0189 C   0  0  0  0  0  0  0  0  0  0  0  0
  146.3965  137.3611  159.5336 N   0  0  0  0  0  0  0  0  0  0  0  0
  146.4975  137.4160  160.9288 O   0  0  0  0  0  0  0  0  0  0  0  0
  148.0769  135.3754  163.0579 H   0  0  0  0  0  0  0  0  0  0  0  0
  146.4939  136.0997  163.3483 H   0  0  0  0  0  0  0  0  0  0  0  0
  147.9244  137.1261  163.2156 H   0  0  0  0  0  0  0  0  0  0  0  0
  148.1876  134.6676  160.3122 H   0  0  0  0  0  0  0  0  0  0  0  0
  146.5551  136.0706  157.1865 H   0  0  0  0  0  0  0  0  0  0  0  0
  148.7798  134.9704  154.0912 H   0  0  0  0  0  0  0  0  0  0  0  0
  147.7148  136.2176  154.6518 H   0  0  0  0  0  0  0  0  0  0  0  0
  149.4162  137.0507  156.2394 H   0  0  0  0  0  0  0  0  0  0  0  0
  150.4835  134.8690  156.8529 H   0  0  0  0  0  0  0  0  0  0  0  0
  151.6719  136.0531  156.4360 H   0  0  0  0  0  0  0  0  0  0  0  0
  151.2616  134.7932  155.2798 H   0  0  0  0  0  0  0  0  0  0  0  0
  149.7216  139.0688  153.3090 H   0  0  0  0  0  0  0  0  0  0  0  0
  148.5812  138.6697  154.5597 H   0  0  0  0  0  0  0  0  0  0  0  0
  150.3137  139.2024  156.3183 H   0  0  0  0  0  0  0  0  0  0  0  0
  148.8612  141.0722  155.5356 H   0  0  0  0  0  0  0  0  0  0  0  0
  150.0205  141.4464  154.2608 H   0  0  0  0  0  0  0  0  0  0  0  0
  150.4736  141.6432  155.9520 H   0  0  0  0  0  0  0  0  0  0  0  0
  152.2821  137.9053  156.0334 H   0  0  0  0  0  0  0  0  0  0  0  0
  154.3753  137.4484  154.7454 H   0  0  0  0  0  0  0  0  0  0  0  0
  154.3643  139.0830  155.4008 H   0  0  0  0  0  0  0  0  0  0  0  0
  154.0272  138.8189  153.6921 H   0  0  0  0  0  0  0  0  0  0  0  0
  152.1210  136.3602  153.9771 H   0  0  0  0  0  0  0  0  0  0  0  0
  151.7780  137.7489  153.0125 H   0  0  0  0  0  0  0  0  0  0  0  0
  149.8002  136.8290  153.4816 H   0  0  0  0  0  0  0  0  0  0  0  0
  1  2  1  0  0  0  0
  1 22  1  0  0  0  0
  1 23  1  0  0  0  0
  1 24  1  0  0  0  0
  2 21  1  0  0  0  0
  2  3  2  0  0  0  0
  3  4  1  0  0  0  0
  3 25  1  0  0  0  0
  4  5  1  0  0  0  0
  4 20  2  0  0  0  0
  5  6  1  0  0  0  0
  5 26  1  0  0  0  0
  6  7  2  0  0  0  0
  6  8  1  0  0  0  0
  8  9  1  0  0  0  0
  9 10  1  0  0  0  0
  9 27  1  0  0  0  0
  9 28  1  0  0  0  0
 10 11  1  0  0  0  0
 10 12  1  0  0  0  0
 10 29  1  0  0  0  0
 11 30  1  0  0  0  0
 11 31  1  0  0  0  0
 11 32  1  0  0  0  0
 12 19  1  0  0  0  0
 12 13  1  0  0  0  0
 12 45  1  0  0  0  0
 13 14  1  0  0  0  0
 13 33  1  0  0  0  0
 13 34  1  0  0  0  0
 14 15  1  0  0  0  0
 14 16  1  0  0  0  0
 14 35  1  0  0  0  0
 15 36  1  0  0  0  0
 15 37  1  0  0  0  0
 15 38  1  0  0  0  0
 16 17  1  0  0  0  0
 17 18  1  0  0  0  0
 17 19  1  0  0  0  0
 17 39  1  0  0  0  0
 18 40  1  0  0  0  0
 18 41  1  0  0  0  0
 18 42  1  0  0  0  0
 19 43  1  0  0  0  0
 19 44  1  0  0  0  0
 20 21  1  0  0  0  0
M  CHG  1   8  -1
M  CHG  1  12   1
M  END
> <s_m_source_file>
AV-unprocessed.smi

> <i_m_source_file_index>
2061

> <i_lp_mmshare_version>
43012

> <i_f3d_flags>
0

> <s_epik_input>
W0NIM11jMVtjSF1jKG5vMSlbTkhdQyg9TylbTkhdW0NIMl1bQ0BIXShbQ0gzXSlOMltDSDJdW0NAQEhdKFtDSDNdKU9bQ0BASF0oW0NIM10pW0NIMl0y

> <s_epik_cmdline>
J2VwaWtfcHl0aG9uJywgJy1waCcsICc3LjAnLCAnLXRuJywgJzgnLCAnLW1hJywgJzIwMCcsICctbWV0YWxfYmluZGluZycsICctaW1hZScsICc8aW5maWxlLm1hZT4nLCAnLW9tYWUnLCAnPG91dGZpbGUubWFlPic=

> <r_epik_Ionization_Penalty>
6.8073

> <r_epik_Ionization_Penalty_Charging>
6.80729

> <r_epik_Ionization_Penalty_Neutral>
5.65391e-06

> <r_epik_State_Penalty>
7.47323

> <r_epik_Charging_Adjusted_Penalty>
14.2805

> <i_epik_Tot_Q>
0

> <i_epik_Tot_abs_Q>
2

> <r_epik_Metal_State_Penalty>
3.40035

> <b_epik_Metal_Only>
1

> <s_lp_Force_Field>
OPLS_2005

> <r_lp_Energy>
21.1883

> <b_lp_Chiralities_Consistent>
1

> <s_lp_Variant>
AV-unprocessed.smi:2061-36

> <Gold.Version>
5.8.1

> <Gold.Id.Protein>
6NUR|6NUR_protein|mol2

> <Gold.PLP.Fitness>
42.6549

> <Gold.PLP.PLP>
-33.0228

> <Gold.PLP.part.hbond>
-5.0043

> <Gold.PLP.part.metal>
0.0000

> <Gold.PLP.part.buried>
-0.8275

> <Gold.PLP.part.nonpolar>
-27.8920

> <Gold.PLP.part.repulsive>
0.1261

> <Gold.PLP.ligand.clash>
0.0000

> <Gold.PLP.ligand.torsion>
2.2460

> <Gold.PLP.Chemscore.Hbond>
4.6500

> <Gold.PLP.Chemscore.CHOScore>
0.0000

> <Gold.PLP.Chemscore.Metal>
0.0000

> <Gold.Chemscore.Hbonds>
donor molecule, donor type, donor heavy atom, donor atom, acceptor molecule, acceptor atom, score
      L1  H    12    45       P1  7948  2.00
      P1  H  6896  6909       L1     7  1.00
      P1  H  6934  6947       L1    21  0.70
      P1  H  7989  7998       L1    16  0.85

> <Gold.PLP.Chemscore.Internal.Correction>
0.1740

> <Gold.Rescore>
     Score         DG    S(hbond)    S(metal)    S(lipo)     H(rot)  DE(clash)    DE(int)     intcor
     14.16     -20.33       2.73        0.00      82.90       1.56       0.39       5.78       ----

> <Gold.Chemscore.Fitness>
14.1630

> <Gold.Chemscore.DG>
-20.3321

> <Gold.Chemscore.ZeroCoef>
-5.4800

> <Gold.Chemscore.Hbond>
2.7347

> <Gold.Chemscore.Metal>
0.0000

> <Gold.Chemscore.Lipo>
82.8975

> <Gold.Chemscore.Internal_Hbond>
0.0000

> <Gold.Chemscore.DEClash>
0.3924

> <Gold.Chemscore.DEInternal>
5.7767

> <Gold.Chemscore.Rot>
1.5550

> <Gold.Chemscore.Internal.Correction>
   9.000000E+99

> <Gold.Chemscore.Hbonds>
donor molecule, donor type, donor heavy atom, donor atom, acceptor molecule, acceptor atom, score
      L1  H    12    45       P1  7948  0.45
      P1  H  6896  6909       L1     7  0.96
      P1  H  6934  6947       L1    21  0.07
      P1  H  7989  7998       L1    16  0.14

> <Gold.Chemscore.Hbond.Weighted>
-9.1340

> <Gold.Chemscore.Metal.Weighted>
-0.0000

> <Gold.Chemscore.Lipo.Weighted>
-9.6990

> <Gold.Chemscore.Internal_Hbond.Weighted>
0.0000

> <Gold.Chemscore.DEClash.Weighted>
0.3924

> <Gold.Chemscore.DEInternal.Weighted>
5.7767

> <Gold.Chemscore.Rot.Weighted>
3.9809

> <Gold.Chemscore.Internal.Correction.Weighted>
   9.000000E+99

> <Gold.Protein.RotatedTorsions>
[ 6907 6896 6895 6894 ] final   28.46 input  -60.11 | X-H torsion
[ 7974 7965 7964 7962 ] final -138.96 input  175.53 | X-H torsion
[ 8008 7997 7996 7995 ] final   97.95 input   59.86 | X-H torsion
[ 10167 10162 10161 10158 ] final  -49.83 input  -65.29 | X-H torsion
[ 10718 10713 10712 10709 ] final  166.17 input   66.30 | X-H torsion
[ 10763 10752 10751 10750 ] final -164.72 input  -60.55 | X-H torsion
[ 11005 11000 10999 10996 ] final  -53.74 input  -57.11 | X-H torsion

> <Gold.Protein.ActiveResidues>
 VAL166  LYS551  ARG553  GLY616  TRP617  ASP618  TYR619  PRO620  LYS621  CYS622 
 ASP623  PHE694  ASN695  SER759  ASP760  ASP761  ALA762  ILE779  LEU786  VAL792 
 PHE793  MET794  SER795  GLU796  ALA797  LYS798  CYS799  TRP800  GLU811  SER814 

> <Gold.Protein.RotatedAtoms>
  152.0173  134.9843  160.0569 H   0  0  0  0  0  0  0  0  0  0  0  0  # atno 6907 bound_to 6896
  152.1371  133.4437  159.4757 H   0  0  0  0  0  0  0  0  0  0  0  0  # atno 6908 bound_to 6896
  150.6861  134.2268  159.4462 H   0  0  0  0  0  0  0  0  0  0  0  0  # atno 6909 bound_to 6896
  144.8716  140.6375  143.5263 H   0  0  0  0  0  0  0  0  0  0  0  0  # atno 7974 bound_to 7965
  156.0955  140.3251  155.7871 H   0  0  0  0  0  0  0  0  0  0  0  0  # atno 8008 bound_to 7997
  155.4926  140.0562  157.2968 H   0  0  0  0  0  0  0  0  0  0  0  0  # atno 8009 bound_to 7997
  154.4663  140.1991  156.0124 H   0  0  0  0  0  0  0  0  0  0  0  0  # atno 8010 bound_to 7997
  140.6667  143.2682  151.4271 H   0  0  0  0  0  0  0  0  0  0  0  0  # atno 10167 bound_to 10162
  157.0696  131.0362  151.2616 H   0  0  0  0  0  0  0  0  0  0  0  0  # atno 10718 bound_to 10713
  154.7002  135.2986  154.9353 H   0  0  0  0  0  0  0  0  0  0  0  0  # atno 10763 bound_to 10752
  154.0287  135.6673  153.4783 H   0  0  0  0  0  0  0  0  0  0  0  0  # atno 10764 bound_to 10752
  153.0675  135.5079  154.8141 H   0  0  0  0  0  0  0  0  0  0  0  0  # atno 10765 bound_to 10752
  141.0991  133.6620  156.4217 H   0  0  0  0  0  0  0  0  0  0  0  0  # atno 11005 bound_to 11000
  145.4120  139.1578  143.4120 LP  0  0  0  0  0  0  0  0  0  0  0  0  # atno 17320 bound_to 7965
  146.2934  140.4225  142.8731 LP  0  0  0  0  0  0  0  0  0  0  0  0  # atno 17321 bound_to 7965
  139.5918  144.1483  152.2097 LP  0  0  0  0  0  0  0  0  0  0  0  0  # atno 17342 bound_to 10162
  140.0840  144.5677  150.7102 LP  0  0  0  0  0  0  0  0  0  0  0  0  # atno 17343 bound_to 10162
  157.4889  130.7810  149.7487 LP  0  0  0  0  0  0  0  0  0  0  0  0  # atno 17370 bound_to 10713
  155.9954  130.3912  150.2819 LP  0  0  0  0  0  0  0  0  0  0  0  0  # atno 17371 bound_to 10713
  140.5067  134.6434  157.5269 LP  0  0  0  0  0  0  0  0  0  0  0  0  # atno 17394 bound_to 11000
  139.9837  134.7096  155.9813 LP  0  0  0  0  0  0  0  0  0  0  0  0  # atno 17395 bound_to 11000

$$$$
