AV-unprocessed.smi:285|AV-procd|sdf|2165|dock6
  -GOLD-   2262021523D 1   1.00000     0.00000
 Structure written by MMmdl.
 31 33  0  0  0  0  0  0  0  0  1 V2000
  153.1690  142.4368  161.5642 N   0  0  0  0  0  0  0  0  0  0  0  0
  152.5835  142.5846  160.3677 C   0  0  0  0  0  0  0  0  0  0  0  0
  152.0638  143.7937  160.0517 N   0  0  0  0  0  0  0  0  0  0  0  0
  151.4738  143.9680  158.8649 C   0  0  0  0  0  0  0  0  0  0  0  0
  151.3027  143.0834  157.8789 N   0  0  0  0  0  0  0  0  0  0  0  0
  151.8254  141.8627  158.1982 C   0  0  0  0  0  0  0  0  0  0  0  0
  152.4837  141.5349  159.4198 C   0  0  0  0  0  0  0  0  0  0  0  0
  152.8953  140.2083  159.4029 N   0  0  0  0  0  0  0  0  0  0  0  0
  152.4912  139.7973  158.2333 C   0  0  0  0  0  0  0  0  0  0  0  0
  152.8216  138.0064  157.6757 Br  0  0  0  0  0  0  0  0  0  0  0  0
  151.8351  140.7095  157.4376 N   0  0  0  0  0  0  0  0  0  0  0  0
  151.2568  140.5228  156.0711 C   0  0  2  0  0  0  0  0  0  0  0  0
  150.3421  141.6899  155.6990 C   0  0  0  0  0  0  0  0  0  0  0  0
  149.3021  140.9978  154.8434 C   0  0  1  0  0  0  0  0  0  0  0  0
  149.7451  140.8882  153.5032 O   0  0  0  0  0  0  0  0  0  0  0  0
  149.1856  139.6328  155.5411 C   0  0  1  0  0  0  0  0  0  0  0  0
  148.6751  138.4560  154.6923 C   0  0  0  0  0  0  0  0  0  0  0  0
  149.3640  138.4034  153.4610 O   0  0  0  0  0  0  0  0  0  0  0  0
  150.4848  139.3596  156.0633 O   0  0  0  0  0  0  0  0  0  0  0  0
  153.5646  141.5446  161.8242 H   0  0  0  0  0  0  0  0  0  0  0  0
  153.2093  143.2158  162.2051 H   0  0  0  0  0  0  0  0  0  0  0  0
  151.0824  144.9571  158.6783 H   0  0  0  0  0  0  0  0  0  0  0  0
  152.1026  140.4033  155.3948 H   0  0  0  0  0  0  0  0  0  0  0  0
  149.8758  142.0980  156.5968 H   0  0  0  0  0  0  0  0  0  0  0  0
  150.8925  142.4842  155.1932 H   0  0  0  0  0  0  0  0  0  0  0  0
  148.3531  141.5349  154.8478 H   0  0  0  0  0  0  0  0  0  0  0  0
  149.1231  140.3603  153.0257 H   0  0  0  0  0  0  0  0  0  0  0  0
  148.5314  139.7505  156.4065 H   0  0  0  0  0  0  0  0  0  0  0  0
  148.7818  137.5066  155.2170 H   0  0  0  0  0  0  0  0  0  0  0  0
  147.6125  138.5843  154.4844 H   0  0  0  0  0  0  0  0  0  0  0  0
  149.3639  137.5093  153.1550 H   0  0  0  0  0  0  0  0  0  0  0  0
  1  2  1  0  0  0  0
  1 20  1  0  0  0  0
  1 21  1  0  0  0  0
  2  7  1  0  0  0  0
  2  3  2  0  0  0  0
  3  4  1  0  0  0  0
  4  5  2  0  0  0  0
  4 22  1  0  0  0  0
  5  6  1  0  0  0  0
  6 11  1  0  0  0  0
  6  7  2  0  0  0  0
  7  8  1  0  0  0  0
  8  9  2  0  0  0  0
  9 10  1  0  0  0  0
  9 11  1  0  0  0  0
 11 12  1  0  0  0  0
 12 19  1  0  0  0  0
 12 13  1  0  0  0  0
 12 23  1  0  0  0  0
 13 14  1  0  0  0  0
 13 24  1  0  0  0  0
 13 25  1  0  0  0  0
 14 15  1  0  0  0  0
 14 16  1  0  0  0  0
 14 26  1  0  0  0  0
 15 27  1  0  0  0  0
 16 17  1  0  0  0  0
 16 19  1  0  0  0  0
 16 28  1  0  0  0  0
 17 18  1  0  0  0  0
 17 29  1  0  0  0  0
 17 30  1  0  0  0  0
 18 31  1  0  0  0  0
M  END
> <s_m_source_file>
AV-unprocessed.smi

> <i_m_source_file_index>
285

> <i_lp_mmshare_version>
43012

> <i_f3d_flags>
0

> <s_epik_input>
bjFbY0hdbmMoW05IMl0pYyhjMTIpbmMoQnIpbjJbQ0BASF0zW0NIMl1bQ0BASF0oW09IXSlbQ0BIXShPMylbQ0gyXVtPSF0=

> <s_epik_cmdline>
J2VwaWtfcHl0aG9uJywgJy1waCcsICc3LjAnLCAnLXRuJywgJzgnLCAnLW1hJywgJzIwMCcsICctbWV0YWxfYmluZGluZycsICctaW1hZScsICc8aW5maWxlLm1hZT4nLCAnLW9tYWUnLCAnPG91dGZpbGUubWFlPic=

> <r_lp_tautomer_probability>
1

> <r_epik_Ionization_Penalty>
0.000103242

> <r_epik_Ionization_Penalty_Charging>
0

> <r_epik_Ionization_Penalty_Neutral>
0.000103242

> <r_epik_State_Penalty>
-0

> <r_epik_Charging_Adjusted_Penalty>
0

> <i_epik_Tot_Q>
0

> <i_epik_Tot_abs_Q>
0

> <r_epik_Metal_State_Penalty>
-0

> <b_epik_Metal_Only>
0

> <s_epik_Chemistry_Notes>
This compound contains an acetal/aminal-like group ( X-CH(R)-Y where X, Y are N, S, or O) that may be acid/base labile, releasing an aldehyde.

> <s_lp_Force_Field>
OPLS_2005

> <r_lp_Energy>
33.7508

> <b_lp_Chiralities_Consistent>
1

> <s_lp_Variant>
AV-unprocessed.smi:285-1

> <Gold.Version>
5.8.1

> <Gold.Id.Protein>
6NUR|6NUR_protein|mol2

> <Gold.PLP.Fitness>
40.8556

> <Gold.PLP.PLP>
-33.8207

> <Gold.PLP.part.hbond>
-4.6271

> <Gold.PLP.part.metal>
0.0000

> <Gold.PLP.part.buried>
-6.1448

> <Gold.PLP.part.nonpolar>
-22.3661

> <Gold.PLP.part.repulsive>
0.1582

> <Gold.PLP.ligand.clash>
0.0000

> <Gold.PLP.ligand.torsion>
0.3481

> <Gold.PLP.Chemscore.Hbond>
2.5760

> <Gold.PLP.Chemscore.CHOScore>
0.0000

> <Gold.PLP.Chemscore.Metal>
0.0000

> <Gold.Chemscore.Hbonds>
donor molecule, donor type, donor heavy atom, donor atom, acceptor molecule, acceptor atom, score
      L1  H    15    27       P1  7957  0.29
      L1  H    18    31       P1  7948  1.00
      P1  H  7989  7998       L1    15  0.30
      P1  H  8011  8017       L1    15  0.95

> <Gold.PLP.Chemscore.Internal.Correction>
0.0032

> <Gold.Rescore>
     Score         DG    S(hbond)    S(metal)    S(lipo)     H(rot)  DE(clash)    DE(int)     intcor
      8.20      -9.85       2.31        0.00      38.39       3.06       0.11       1.54       ----

> <Gold.Chemscore.Fitness>
8.1988

> <Gold.Chemscore.DG>
-9.8491

> <Gold.Chemscore.ZeroCoef>
-5.4800

> <Gold.Chemscore.Hbond>
2.3092

> <Gold.Chemscore.Metal>
0.0000

> <Gold.Chemscore.Lipo>
38.3900

> <Gold.Chemscore.Internal_Hbond>
0.0000

> <Gold.Chemscore.DEClash>
0.1072

> <Gold.Chemscore.DEInternal>
1.5432

> <Gold.Chemscore.Rot>
3.0607

> <Gold.Chemscore.Internal.Correction>
   9.000000E+99

> <Gold.Chemscore.Hbonds>
donor molecule, donor type, donor heavy atom, donor atom, acceptor molecule, acceptor atom, score
      L1  H    15    27       P1  7957  0.28
      L1  H    18    31       P1  7948  0.91
      P1  H  7989  7998       L1    15  0.24
      P1  H  8011  8017       L1    15  0.21

> <Gold.Chemscore.Hbond.Weighted>
-7.7129

> <Gold.Chemscore.Metal.Weighted>
-0.0000

> <Gold.Chemscore.Lipo.Weighted>
-4.4916

> <Gold.Chemscore.Internal_Hbond.Weighted>
0.0000

> <Gold.Chemscore.DEClash.Weighted>
0.1072

> <Gold.Chemscore.DEInternal.Weighted>
1.5432

> <Gold.Chemscore.Rot.Weighted>
7.8354

> <Gold.Chemscore.Internal.Correction.Weighted>
   9.000000E+99

> <Gold.Protein.RotatedTorsions>
[ 6907 6896 6895 6894 ] final   -1.35 input  -60.11 | X-H torsion
[ 7974 7965 7964 7962 ] final  106.89 input  175.53 | X-H torsion
[ 8008 7997 7996 7995 ] final  123.72 input   59.86 | X-H torsion
[ 10167 10162 10161 10158 ] final  -17.05 input  -65.29 | X-H torsion
[ 10718 10713 10712 10709 ] final   40.78 input   66.30 | X-H torsion
[ 10763 10752 10751 10750 ] final   44.94 input  -60.55 | X-H torsion
[ 11005 11000 10999 10996 ] final   38.71 input  -57.11 | X-H torsion

> <Gold.Protein.ActiveResidues>
 VAL166  LYS551  ARG553  GLY616  TRP617  ASP618  TYR619  PRO620  LYS621  CYS622 
 ASP623  PHE694  ASN695  SER759  ASP760  ASP761  ALA762  ILE779  LEU786  VAL792 
 PHE793  MET794  SER795  GLU796  ALA797  LYS798  CYS799  TRP800  GLU811  SER814 

> <Gold.Protein.RotatedAtoms>
  151.5474  135.1068  159.9941 H   0  0  0  0  0  0  0  0  0  0  0  0  # atno 6907 bound_to 6896
  152.4507  133.7620  159.6762 H   0  0  0  0  0  0  0  0  0  0  0  0  # atno 6908 bound_to 6896
  150.8435  133.7832  159.3076 H   0  0  0  0  0  0  0  0  0  0  0  0  # atno 6909 bound_to 6896
  145.3008  139.2570  143.3815 H   0  0  0  0  0  0  0  0  0  0  0  0  # atno 7974 bound_to 7965
  156.2776  140.2756  156.1674 H   0  0  0  0  0  0  0  0  0  0  0  0  # atno 8008 bound_to 7997
  155.0691  140.0387  157.2620 H   0  0  0  0  0  0  0  0  0  0  0  0  # atno 8009 bound_to 7997
  154.7055  140.2658  155.6684 H   0  0  0  0  0  0  0  0  0  0  0  0  # atno 8010 bound_to 7997
  140.7242  143.5055  150.9816 H   0  0  0  0  0  0  0  0  0  0  0  0  # atno 10167 bound_to 10162
  157.3860  130.7780  149.7231 H   0  0  0  0  0  0  0  0  0  0  0  0  # atno 10718 bound_to 10713
  152.9832  135.6055  154.3356 H   0  0  0  0  0  0  0  0  0  0  0  0  # atno 10763 bound_to 10752
  154.3056  135.2772  155.2592 H   0  0  0  0  0  0  0  0  0  0  0  0  # atno 10764 bound_to 10752
  154.4824  135.5913  153.6455 H   0  0  0  0  0  0  0  0  0  0  0  0  # atno 10765 bound_to 10752
  140.2100  134.3767  155.8054 H   0  0  0  0  0  0  0  0  0  0  0  0  # atno 11005 bound_to 11000
  146.3153  140.3521  142.8657 LP  0  0  0  0  0  0  0  0  0  0  0  0  # atno 17320 bound_to 7965
  144.9095  140.7741  143.5816 LP  0  0  0  0  0  0  0  0  0  0  0  0  # atno 17321 bound_to 7965
  139.8766  143.7125  152.3161 LP  0  0  0  0  0  0  0  0  0  0  0  0  # atno 17342 bound_to 10162
  139.7392  144.7563  151.0679 LP  0  0  0  0  0  0  0  0  0  0  0  0  # atno 17343 bound_to 10162
  155.9787  130.4048  150.3634 LP  0  0  0  0  0  0  0  0  0  0  0  0  # atno 17370 bound_to 10713
  157.1744  131.0376  151.2780 LP  0  0  0  0  0  0  0  0  0  0  0  0  # atno 17371 bound_to 10713
  141.2226  133.7138  156.8401 LP  0  0  0  0  0  0  0  0  0  0  0  0  # atno 17394 bound_to 11000
  140.1961  134.8930  157.3116 LP  0  0  0  0  0  0  0  0  0  0  0  0  # atno 17395 bound_to 11000

$$$$
