#       Name:                AV-unprocessed.smi:456
#       Creating user name   scv26
#       Creation time:       Thu Mar 26 23:01:50 2020


#       File generated by GOLD software.
#

@<TRIPOS>MOLECULE
AV-unprocessed.smi:456
    35    37     1
SMALL
NO_CHARGES


@<TRIPOS>ATOM
      1 ****        -1.3655   2.9874   0.4745 O.3            1 S1                 0.0000
      2 ****        -0.8932   1.6734   0.2634 C.3            1 S1                 0.0000
      3 ****         0.6461   1.7228   0.1944 C.3            1 S1                 0.0000
      4 ****         1.2512   0.3866   0.1258 N.pl3          1 S1                 0.0000
      5 ****         1.7039  -0.3137  -0.9496 C.2            1 S1                 0.0000
      6 ****         2.1680  -1.5105  -0.4939 N.pl3          1 S1                 1.0000
      7 ****         2.0114  -1.5742   0.8928 C.ar           1 S1                 0.0000
      8 ****         2.3308  -2.5770   1.8026 C.ar           1 S1                 0.0000
      9 ****         2.0360  -2.3224   3.1583 C.ar           1 S1                 0.0000
     10 ****         2.3271  -3.2650   4.0858 F              1 S1                 0.0000
     11 ****         1.4443  -1.1075   3.5654 C.ar           1 S1                 0.0000
     12 ****         1.1762  -0.9044   4.8770 F              1 S1                 0.0000
     13 ****         1.1253  -0.0978   2.6335 C.ar           1 S1                 0.0000
     14 ****         1.4219  -0.3583   1.2968 C.ar           1 S1                 0.0000
     15 ****        -1.5051   1.0327  -0.9746 C.ar           1 S1                 0.0000
     16 ****        -1.5655   1.7401  -2.1956 C.ar           1 S1                 0.0000
     17 ****        -2.1199   1.1346  -3.3400 C.ar           1 S1                 0.0000
     18 ****        -2.6142  -0.1820  -3.2713 C.ar           1 S1                 0.0000
     19 ****        -2.5533  -0.8933  -2.0577 C.ar           1 S1                 0.0000
     20 ****        -2.0001  -0.2878  -0.9128 C.ar           1 S1                 0.0000
     21 ****        -2.3021   2.9534   0.5976 H              1 S1                 0.0000
     22 ****        -1.1940   1.0958   1.1384 H              1 S1                 0.0000
     23 ****         0.9746   2.2816  -0.6832 H              1 S1                 0.0000
     24 ****         1.0607   2.2388   1.0616 H              1 S1                 0.0000
     25 ****         1.6902   0.0176  -1.9783 H              1 S1                 0.0000
     26 ****         2.7826  -3.5087   1.4956 H              1 S1                 0.0000
     27 ****         0.6724   0.8284   2.9548 H              1 S1                 0.0000
     28 ****        -1.1843   2.7489  -2.2594 H              1 S1                 0.0000
     29 ****        -2.1649   1.6805  -4.2709 H              1 S1                 0.0000
     30 ****        -3.0394  -0.6460  -4.1491 H              1 S1                 0.0000
     31 ****        -2.9310  -1.9038  -2.0050 H              1 S1                 0.0000
     32 ****        -1.9530  -0.8433   0.0124 H              1 S1                 0.0000
     33 ****         2.5620  -2.2284  -1.0887 H              1 S1                 0.0000
     34 ****        -1.1501   3.5550  -0.3202 LP             1 S1                 0.0000
     35 ****        -0.9322   3.3750   1.2882 LP             1 S1                 0.0000
@<TRIPOS>BOND
    1    1    2 1     
    2    1   21 1     
    3    2    3 1     
    4    2   15 1     
    5    2   22 1     
    6    3    4 1     
    7    3   23 1     
    8    3   24 1     
    9    4   14 1     
   10    4    5 1     
   11    5    6 2     
   12    5   25 1     
   13    6    7 1     
   14    6   33 1     
   15    7   14 ar    
   16    7    8 ar    
   17    8    9 ar    
   18    8   26 1     
   19    9   10 1     
   20    9   11 ar    
   21   11   12 1     
   22   11   13 ar    
   23   13   14 ar    
   24   13   27 1     
   25   15   20 ar    
   26   15   16 ar    
   27   16   17 ar    
   28   16   28 1     
   29   17   18 ar    
   30   17   29 1     
   31   18   19 ar    
   32   18   30 1     
   33   19   20 ar    
   34   19   31 1     
   35   20   32 1     
   36    1   34 1     
   37    1   35 1     
@<TRIPOS>SUBSTRUCTURE
      1 S1             1
@<TRIPOS>SET
LONE_PAIRS      STATIC     ATOMS    <user>   **** ""
2 34 35
DONOR_HYDROGENS      STATIC     ATOMS    <user>   **** ""
2 21 33
ATOM$BLUE        STATIC     ATOMS    COLORGROUP SYSTEM
2 34 35
ATOM$RED        STATIC     ATOMS    COLORGROUP SYSTEM
2 21 33
