AV-unprocessed.smi:2513|AV-procd|sdf|9891|dock6
  -GOLD-   2272013523D 1   1.00000     0.00000
 Structure written by MMmdl.
 35 36  0  0  0  0  0  0  0  0  1 V2000
  151.4066  138.7389  154.8967 C   0  0  0  0  0  0  0  0  0  0  0  0
  150.7221  139.9719  155.0636 O   0  0  0  0  0  0  0  0  0  0  0  0
  149.4997  140.1307  154.4402 C   0  0  0  0  0  0  0  0  0  0  0  0
  148.9395  139.1725  153.5571 C   0  0  0  0  0  0  0  0  0  0  0  0
  147.6884  139.4245  152.9685 C   0  0  0  0  0  0  0  0  0  0  0  0
  147.0371  140.6281  153.2837 C   0  0  0  0  0  0  0  0  0  0  0  0
  147.5569  141.5465  154.1215 N   0  0  0  0  0  0  0  0  0  0  0  0
  148.7641  141.3173  154.6964 C   0  0  0  0  0  0  0  0  0  0  0  0
  149.3807  142.2367  155.5899 N   0  0  0  0  0  0  0  0  0  0  0  0
  149.6365  142.0857  156.9011 C   0  0  0  0  0  0  0  0  0  0  0  0
  149.3681  141.0875  157.5703 O   0  0  0  0  0  0  0  0  0  0  0  0
  150.2339  143.1749  157.4059 N   0  0  0  0  0  0  0  0  0  0  0  0
  150.6463  143.3399  158.7965 C   0  0  2  0  0  0  0  0  0  0  0  0
  151.4459  144.6422  158.9505 C   0  0  0  0  0  0  0  0  0  0  0  0
  151.9990  144.7523  160.3757 C   0  0  0  0  0  0  0  0  0  0  0  0
  152.7773  143.4809  160.7492 C   0  0  0  0  0  0  0  0  0  0  0  0
  151.9387  142.3400  160.6021 O   0  0  0  0  0  0  0  0  0  0  0  0
  151.4973  142.1400  159.2630 C   0  0  0  0  0  0  0  0  0  0  0  0
  152.3462  138.7722  155.4483 H   0  0  0  0  0  0  0  0  0  0  0  0
  151.6462  138.5542  153.8485 H   0  0  0  0  0  0  0  0  0  0  0  0
  150.8246  137.9035  155.2880 H   0  0  0  0  0  0  0  0  0  0  0  0
  149.4440  138.2489  153.3182 H   0  0  0  0  0  0  0  0  0  0  0  0
  147.2395  138.7127  152.2916 H   0  0  0  0  0  0  0  0  0  0  0  0
  146.0746  140.8607  152.8525 H   0  0  0  0  0  0  0  0  0  0  0  0
  149.6595  143.1142  155.1764 H   0  0  0  0  0  0  0  0  0  0  0  0
  150.4170  143.9484  156.7837 H   0  0  0  0  0  0  0  0  0  0  0  0
  149.7583  143.4081  159.4279 H   0  0  0  0  0  0  0  0  0  0  0  0
  152.2739  144.6573  158.2399 H   0  0  0  0  0  0  0  0  0  0  0  0
  150.8196  145.5055  158.7217 H   0  0  0  0  0  0  0  0  0  0  0  0
  152.6419  145.6285  160.4640 H   0  0  0  0  0  0  0  0  0  0  0  0
  151.1767  144.8947  161.0780 H   0  0  0  0  0  0  0  0  0  0  0  0
  153.6684  143.3733  160.1287 H   0  0  0  0  0  0  0  0  0  0  0  0
  153.1154  143.5388  161.7839 H   0  0  0  0  0  0  0  0  0  0  0  0
  150.9112  141.2211  159.2288 H   0  0  0  0  0  0  0  0  0  0  0  0
  152.3576  141.9912  158.6083 H   0  0  0  0  0  0  0  0  0  0  0  0
  1  2  1  0  0  0  0
  1 19  1  0  0  0  0
  1 20  1  0  0  0  0
  1 21  1  0  0  0  0
  2  3  1  0  0  0  0
  3  8  1  0  0  0  0
  3  4  2  0  0  0  0
  4  5  1  0  0  0  0
  4 22  1  0  0  0  0
  5  6  2  0  0  0  0
  5 23  1  0  0  0  0
  6  7  1  0  0  0  0
  6 24  1  0  0  0  0
  7  8  2  0  0  0  0
  8  9  1  0  0  0  0
  9 10  1  0  0  0  0
  9 25  1  0  0  0  0
 10 11  2  0  0  0  0
 10 12  1  0  0  0  0
 12 13  1  0  0  0  0
 12 26  1  0  0  0  0
 13 18  1  0  0  0  0
 13 14  1  0  0  0  0
 13 27  1  0  0  0  0
 14 15  1  0  0  0  0
 14 28  1  0  0  0  0
 14 29  1  0  0  0  0
 15 16  1  0  0  0  0
 15 30  1  0  0  0  0
 15 31  1  0  0  0  0
 16 17  1  0  0  0  0
 16 32  1  0  0  0  0
 16 33  1  0  0  0  0
 17 18  1  0  0  0  0
 18 34  1  0  0  0  0
 18 35  1  0  0  0  0
M  END
> <s_m_source_file>
AV-unprocessed.smi

> <i_m_source_file_index>
2513

> <i_lp_mmshare_version>
43012

> <i_f3d_flags>
0

> <s_epik_input>
W0NIM11PYzFbY0hdW2NIXVtjSF1uYzFbTkhdQyg9TylbTkhdW0NAQEhdMltDSDJdW0NIMl1bQ0gyXU9bQ0gyXTI=

> <s_epik_cmdline>
J2VwaWtfcHl0aG9uJywgJy1waCcsICc3LjAnLCAnLXRuJywgJzgnLCAnLW1hJywgJzIwMCcsICctbWV0YWxfYmluZGluZycsICctaW1hZScsICc8aW5maWxlLm1hZT4nLCAnLW9tYWUnLCAnPG91dGZpbGUubWFlPic=

> <r_lp_tautomer_probability>
1

> <r_epik_Ionization_Penalty>
3.98976e-05

> <r_epik_Ionization_Penalty_Charging>
0

> <r_epik_Ionization_Penalty_Neutral>
3.98976e-05

> <r_epik_State_Penalty>
-0

> <r_epik_Charging_Adjusted_Penalty>
0

> <i_epik_Tot_Q>
0

> <i_epik_Tot_abs_Q>
0

> <r_epik_Metal_State_Penalty>
-0

> <b_epik_Metal_Only>
0

> <s_lp_Force_Field>
OPLS_2005

> <r_lp_Energy>
12.9865

> <b_lp_Chiralities_Consistent>
1

> <s_lp_Variant>
AV-unprocessed.smi:2513-1

> <Gold.Version>
5.8.1

> <Gold.Id.Protein>
6NUR|6NUR_protein|mol2

> <Gold.PLP.Fitness>
38.0300

> <Gold.PLP.PLP>
-32.3999

> <Gold.PLP.part.hbond>
-3.4671

> <Gold.PLP.part.metal>
0.0000

> <Gold.PLP.part.buried>
2.3137

> <Gold.PLP.part.nonpolar>
-31.3494

> <Gold.PLP.part.repulsive>
0.4528

> <Gold.PLP.ligand.clash>
0.0000

> <Gold.PLP.ligand.torsion>
0.7146

> <Gold.PLP.Chemscore.Hbond>
1.3520

> <Gold.PLP.Chemscore.CHOScore>
1.0000

> <Gold.PLP.Chemscore.Metal>
0.0000

> <Gold.Chemscore.Hbonds>
donor molecule, donor type, donor heavy atom, donor atom, acceptor molecule, acceptor atom, score
      L1  H     9    25       P1  8028  0.46
      L1  H    12    26       P1  8028  0.40
      P1  H  7989  7998       L1     2  0.38
      L1  C     6    24       P1 10175  1.00

> <Gold.PLP.Chemscore.Internal.Correction>
0.0032

> <Gold.Rescore>
     Score         DG    S(hbond)    S(metal)    S(lipo)     H(rot)  DE(clash)    DE(int)     intcor
     15.71     -17.56       1.81        0.00      78.98       1.25       0.06       1.79       ----

> <Gold.Chemscore.Fitness>
15.7076

> <Gold.Chemscore.DG>
-17.5610

> <Gold.Chemscore.ZeroCoef>
-5.4800

> <Gold.Chemscore.Hbond>
1.8115

> <Gold.Chemscore.Metal>
0.0000

> <Gold.Chemscore.Lipo>
78.9850

> <Gold.Chemscore.Internal_Hbond>
0.0000

> <Gold.Chemscore.DEClash>
0.0635

> <Gold.Chemscore.DEInternal>
1.7899

> <Gold.Chemscore.Rot>
1.2542

> <Gold.Chemscore.Internal.Correction>
   9.000000E+99

> <Gold.Chemscore.Hbonds>
donor molecule, donor type, donor heavy atom, donor atom, acceptor molecule, acceptor atom, score
      L1  H     9    25       P1  8028  0.46
      L1  H    12    26       P1  8028  0.37

> <Gold.Chemscore.Hbond.Weighted>
-6.0504

> <Gold.Chemscore.Metal.Weighted>
-0.0000

> <Gold.Chemscore.Lipo.Weighted>
-9.2412

> <Gold.Chemscore.Internal_Hbond.Weighted>
0.0000

> <Gold.Chemscore.DEClash.Weighted>
0.0635

> <Gold.Chemscore.DEInternal.Weighted>
1.7899

> <Gold.Chemscore.Rot.Weighted>
3.2107

> <Gold.Chemscore.Internal.Correction.Weighted>
   9.000000E+99

> <Gold.Protein.RotatedTorsions>
[ 6907 6896 6895 6894 ] final -155.83 input  -60.11 | X-H torsion
[ 7974 7965 7964 7962 ] final   81.66 input  175.53 | X-H torsion
[ 8008 7997 7996 7995 ] final  -65.38 input   59.86 | X-H torsion
[ 10167 10162 10161 10158 ] final  -54.06 input  -65.29 | X-H torsion
[ 10718 10713 10712 10709 ] final  122.79 input   66.30 | X-H torsion
[ 10763 10752 10751 10750 ] final   16.30 input  -60.55 | X-H torsion
[ 11005 11000 10999 10996 ] final  102.76 input  -57.11 | X-H torsion

> <Gold.Protein.ActiveResidues>
 VAL166  LYS551  ARG553  GLY616  TRP617  ASP618  TYR619  PRO620  LYS621  CYS622 
 ASP623  PHE694  ASN695  SER759  ASP760  ASP761  ALA762  ILE779  LEU786  VAL792 
 PHE793  MET794  SER795  GLU796  ALA797  LYS798  CYS799  TRP800  GLU811  SER814 

> <Gold.Protein.RotatedAtoms>
  151.2784  133.4221  159.2625 H   0  0  0  0  0  0  0  0  0  0  0  0  # atno 6907 bound_to 6896
  151.0383  134.9589  159.8158 H   0  0  0  0  0  0  0  0  0  0  0  0  # atno 6908 bound_to 6896
  152.5360  134.2743  159.9036 H   0  0  0  0  0  0  0  0  0  0  0  0  # atno 6909 bound_to 6896
  145.6353  139.2413  143.2062 H   0  0  0  0  0  0  0  0  0  0  0  0  # atno 7974 bound_to 7965
  154.4668  140.0934  156.7041 H   0  0  0  0  0  0  0  0  0  0  0  0  # atno 8008 bound_to 7997
  155.4836  140.3468  155.4325 H   0  0  0  0  0  0  0  0  0  0  0  0  # atno 8009 bound_to 7997
  156.0970  140.1412  156.9506 H   0  0  0  0  0  0  0  0  0  0  0  0  # atno 8010 bound_to 7997
  140.6451  143.2530  151.4881 H   0  0  0  0  0  0  0  0  0  0  0  0  # atno 10167 bound_to 10162
  157.5715  131.1083  150.8358 H   0  0  0  0  0  0  0  0  0  0  0  0  # atno 10718 bound_to 10713
  153.1443  135.6766  153.8978 H   0  0  0  0  0  0  0  0  0  0  0  0  # atno 10763 bound_to 10752
  153.8425  135.3103  155.3428 H   0  0  0  0  0  0  0  0  0  0  0  0  # atno 10764 bound_to 10752
  154.7813  135.4887  153.9935 H   0  0  0  0  0  0  0  0  0  0  0  0  # atno 10765 bound_to 10752
  139.8779  134.9236  156.5106 H   0  0  0  0  0  0  0  0  0  0  0  0  # atno 11005 bound_to 11000
  146.1324  140.7167  142.9405 LP  0  0  0  0  0  0  0  0  0  0  0  0  # atno 17320 bound_to 7965
  144.7178  140.4270  143.7031 LP  0  0  0  0  0  0  0  0  0  0  0  0  # atno 17321 bound_to 7965
  139.5661  144.2038  152.1767 LP  0  0  0  0  0  0  0  0  0  0  0  0  # atno 17342 bound_to 10162
  140.1320  144.5279  150.6796 LP  0  0  0  0  0  0  0  0  0  0  0  0  # atno 17343 bound_to 10162
  156.8828  130.5185  149.5290 LP  0  0  0  0  0  0  0  0  0  0  0  0  # atno 17370 bound_to 10713
  156.0761  130.5782  150.9475 LP  0  0  0  0  0  0  0  0  0  0  0  0  # atno 17371 bound_to 10713
  140.8523  133.8123  155.9181 LP  0  0  0  0  0  0  0  0  0  0  0  0  # atno 17394 bound_to 11000
  140.9132  134.2234  157.4973 LP  0  0  0  0  0  0  0  0  0  0  0  0  # atno 17395 bound_to 11000

$$$$
