AV-unprocessed.smi:1208|AV-procd|sdf|5068|dock6
  -GOLD-   22720 4113D 1   1.00000     0.00000
 Structure written by MMmdl.
 36 37  0  0  0  0  0  0  0  0  1 V2000
  148.9945  141.2705  155.9978 C   0  0  0  0  0  0  0  0  0  0  0  0
  150.4949  141.3198  155.6699 C   0  0  1  0  0  0  0  0  0  0  0  0
  151.1681  142.1022  156.7040 N   0  0  0  0  0  0  0  0  0  0  0  0
  151.0565  141.9104  158.0277 C   0  0  0  0  0  0  0  0  0  0  0  0
  150.3592  141.0244  158.5246 O   0  0  0  0  0  0  0  0  0  0  0  0
  151.8538  142.8828  158.9101 C   0  0  0  0  0  0  0  0  0  0  0  0
  152.8055  142.2167  159.8114 N   0  0  0  0  0  0  0  0  0  0  0  0
  153.7449  141.4322  159.1594 N   0  0  0  0  0  0  0  0  0  0  0  0
  154.6485  140.8104  159.8383 C   0  0  0  0  0  0  0  0  0  0  0  0
  155.5613  140.0481  159.1517 O   0  0  0  0  0  0  0  0  0  0  0  0
  154.7026  140.9099  161.2801 C   0  0  0  0  0  0  0  0  0  0  0  0
  153.7815  141.6743  161.9067 C   0  0  0  0  0  0  0  0  0  0  0  0
  152.7441  142.3954  161.1669 C   0  0  0  0  0  0  0  0  0  0  0  0
  151.8955  143.1015  161.7115 O   0  0  0  0  0  0  0  0  0  0  0  0
  151.1211  139.9116  155.5806 C   0  0  1  0  0  0  0  0  0  0  0  0
  150.4387  138.9691  154.5893 C   0  0  0  0  0  0  0  0  0  0  0  0
  151.5227  137.9552  154.2637 C   0  0  0  0  0  0  0  0  0  0  0  0
  152.8208  138.6552  154.6747 C   0  0  0  0  0  0  0  0  0  0  0  0
  152.4378  139.9703  155.0524 O   0  0  0  0  0  0  0  0  0  0  0  0
  155.9634  139.4931  159.8021 H   0  0  0  0  0  0  0  0  0  0  0  0
  148.4343  140.7466  155.2233 H   0  0  0  0  0  0  0  0  0  0  0  0
  148.5770  142.2749  156.0741 H   0  0  0  0  0  0  0  0  0  0  0  0
  148.8106  140.7606  156.9442 H   0  0  0  0  0  0  0  0  0  0  0  0
  150.6054  141.8186  154.7053 H   0  0  0  0  0  0  0  0  0  0  0  0
  151.7599  142.8561  156.3868 H   0  0  0  0  0  0  0  0  0  0  0  0
  152.3719  143.5988  158.2696 H   0  0  0  0  0  0  0  0  0  0  0  0
  151.1464  143.4750  159.4935 H   0  0  0  0  0  0  0  0  0  0  0  0
  155.4654  140.3823  161.8337 H   0  0  0  0  0  0  0  0  0  0  0  0
  153.8104  141.7579  162.9830 H   0  0  0  0  0  0  0  0  0  0  0  0
  151.1581  139.4466  156.5678 H   0  0  0  0  0  0  0  0  0  0  0  0
  149.5377  138.5074  154.9939 H   0  0  0  0  0  0  0  0  0  0  0  0
  150.1630  139.5118  153.6840 H   0  0  0  0  0  0  0  0  0  0  0  0
  151.3881  137.0384  154.8389 H   0  0  0  0  0  0  0  0  0  0  0  0
  151.5151  137.6926  153.2054 H   0  0  0  0  0  0  0  0  0  0  0  0
  153.2744  138.1521  155.5297 H   0  0  0  0  0  0  0  0  0  0  0  0
  153.5535  138.6832  153.8679 H   0  0  0  0  0  0  0  0  0  0  0  0
  1  2  1  0  0  0  0
  1 21  1  0  0  0  0
  1 22  1  0  0  0  0
  1 23  1  0  0  0  0
  2  3  1  0  0  0  0
  2 15  1  0  0  0  0
  2 24  1  0  0  0  0
  3  4  1  0  0  0  0
  3 25  1  0  0  0  0
  4  5  2  0  0  0  0
  4  6  1  0  0  0  0
  6 26  1  0  0  0  0
  6 27  1  0  0  0  0
  6  7  1  0  0  0  0
  7  8  1  0  0  0  0
  7 13  1  0  0  0  0
  8  9  2  0  0  0  0
  9 10  1  0  0  0  0
  9 11  1  0  0  0  0
 10 20  1  0  0  0  0
 11 28  1  0  0  0  0
 11 12  2  0  0  0  0
 12 29  1  0  0  0  0
 12 13  1  0  0  0  0
 13 14  2  0  0  0  0
 15 19  1  0  0  0  0
 15 16  1  0  0  0  0
 15 30  1  0  0  0  0
 16 17  1  0  0  0  0
 16 31  1  0  0  0  0
 16 32  1  0  0  0  0
 17 18  1  0  0  0  0
 17 33  1  0  0  0  0
 17 34  1  0  0  0  0
 18 19  1  0  0  0  0
 18 35  1  0  0  0  0
 18 36  1  0  0  0  0
M  END
> <s_m_source_file>
AV-unprocessed.smi

> <i_m_source_file_index>
1208

> <i_lp_mmshare_version>
43012

> <i_f3d_flags>
0

> <s_epik_input>
TzFbQ0gyXVtDSDJdW0NIMl1bQ0BIXTFbQ0BIXShbQ0gzXSlbTkhdQyg9TylbQ0gyXW4yW25IXWMoPU8pW2NIXVtjSF1jMj1P

> <s_epik_cmdline>
J2VwaWtfcHl0aG9uJywgJy1waCcsICc3LjAnLCAnLXRuJywgJzgnLCAnLW1hJywgJzIwMCcsICctbWV0YWxfYmluZGluZycsICctaW1hZScsICc8aW5maWxlLm1hZT4nLCAnLW9tYWUnLCAnPG91dGZpbGUubWFlPic=

> <r_lp_tautomer_probability>
0.9996

> <r_epik_Ionization_Penalty>
2.12735

> <r_epik_Ionization_Penalty_Charging>
3.86665e-08

> <r_epik_Ionization_Penalty_Neutral>
2.12735

> <r_epik_State_Penalty>
1.70441

> <r_epik_Charging_Adjusted_Penalty>
1.70441

> <i_epik_Tot_Q>
0

> <i_epik_Tot_abs_Q>
0

> <r_epik_Metal_State_Penalty>
1.70441

> <b_epik_Metal_Only>
0

> <s_lp_Force_Field>
OPLS_2005

> <r_lp_Energy>
29.9915

> <b_lp_Chiralities_Consistent>
1

> <s_lp_Variant>
AV-unprocessed.smi:1208-8

> <Gold.Version>
5.8.1

> <Gold.Id.Protein>
6NUR|6NUR_protein|mol2

> <Gold.PLP.Fitness>
45.9911

> <Gold.PLP.PLP>
-41.2028

> <Gold.PLP.part.hbond>
-3.3215

> <Gold.PLP.part.metal>
0.0000

> <Gold.PLP.part.buried>
-2.4570

> <Gold.PLP.part.nonpolar>
-34.5336

> <Gold.PLP.part.repulsive>
0.2655

> <Gold.PLP.ligand.clash>
0.0000

> <Gold.PLP.ligand.torsion>
0.1629

> <Gold.PLP.Chemscore.Hbond>
1.6938

> <Gold.PLP.Chemscore.CHOScore>
0.0000

> <Gold.PLP.Chemscore.Metal>
0.0000

> <Gold.Chemscore.Hbonds>
donor molecule, donor type, donor heavy atom, donor atom, acceptor molecule, acceptor atom, score
      P1  H  6933  6945       L1    14  0.16
      P1  H  7989  7998       L1    19  0.25
      P1  H  7997  8009       L1    10  1.00
      P1  H  7997  8010       L1    19  0.25

> <Gold.PLP.Chemscore.Internal.Correction>
0.0328

> <Gold.Rescore>
     Score         DG    S(hbond)    S(metal)    S(lipo)     H(rot)  DE(clash)    DE(int)     intcor
     11.26     -12.86       1.64        0.00      73.59       2.63       0.15       1.45       ----

> <Gold.Chemscore.Fitness>
11.2646

> <Gold.Chemscore.DG>
-12.8593

> <Gold.Chemscore.ZeroCoef>
-5.4800

> <Gold.Chemscore.Hbond>
1.6446

> <Gold.Chemscore.Metal>
0.0000

> <Gold.Chemscore.Lipo>
73.5893

> <Gold.Chemscore.Internal_Hbond>
0.0000

> <Gold.Chemscore.DEClash>
0.1467

> <Gold.Chemscore.DEInternal>
1.4480

> <Gold.Chemscore.Rot>
2.6264

> <Gold.Chemscore.Internal.Correction>
   9.000000E+99

> <Gold.Chemscore.Hbonds>
donor molecule, donor type, donor heavy atom, donor atom, acceptor molecule, acceptor atom, score
      P1  H  6933  6945       L1    14  0.11
      P1  H  7997  8009       L1    10  0.91
      P1  H  7997  8010       L1    19  0.01

> <Gold.Chemscore.Hbond.Weighted>
-5.4931

> <Gold.Chemscore.Metal.Weighted>
-0.0000

> <Gold.Chemscore.Lipo.Weighted>
-8.6099

> <Gold.Chemscore.Internal_Hbond.Weighted>
0.0000

> <Gold.Chemscore.DEClash.Weighted>
0.1467

> <Gold.Chemscore.DEInternal.Weighted>
1.4480

> <Gold.Chemscore.Rot.Weighted>
6.7237

> <Gold.Chemscore.Internal.Correction.Weighted>
   9.000000E+99

> <Gold.Protein.RotatedTorsions>
[ 6907 6896 6895 6894 ] final  -52.36 input  -60.11 | X-H torsion
[ 7974 7965 7964 7962 ] final -146.60 input  175.53 | X-H torsion
[ 8008 7997 7996 7995 ] final  101.41 input   59.86 | X-H torsion
[ 10167 10162 10161 10158 ] final -136.04 input  -65.29 | X-H torsion
[ 10718 10713 10712 10709 ] final -116.59 input   66.30 | X-H torsion
[ 10763 10752 10751 10750 ] final   19.67 input  -60.55 | X-H torsion
[ 11005 11000 10999 10996 ] final  134.88 input  -57.11 | X-H torsion

> <Gold.Protein.ActiveResidues>
 VAL166  LYS551  ARG553  GLY616  TRP617  ASP618  TYR619  PRO620  LYS621  CYS622 
 ASP623  PHE694  ASN695  SER759  ASP760  ASP761  ALA762  ILE779  LEU786  VAL792 
 PHE793  MET794  SER795  GLU796  ALA797  LYS798  CYS799  TRP800  GLU811  SER814 

> <Gold.Protein.RotatedAtoms>
  150.8525  134.7854  159.7019 H   0  0  0  0  0  0  0  0  0  0  0  0  # atno 6907 bound_to 6896
  152.4586  134.5233  159.9799 H   0  0  0  0  0  0  0  0  0  0  0  0  # atno 6908 bound_to 6896
  151.5351  133.3404  159.2961 H   0  0  0  0  0  0  0  0  0  0  0  0  # atno 6909 bound_to 6896
  144.8148  140.5434  143.5618 H   0  0  0  0  0  0  0  0  0  0  0  0  # atno 7974 bound_to 7965
  156.1296  140.3198  155.8329 H   0  0  0  0  0  0  0  0  0  0  0  0  # atno 8008 bound_to 7997
  155.4356  140.0522  157.3032 H   0  0  0  0  0  0  0  0  0  0  0  0  # atno 8009 bound_to 7997
  154.4889  140.2084  155.9606 H   0  0  0  0  0  0  0  0  0  0  0  0  # atno 8010 bound_to 7997
  139.8718  143.6948  152.2639 H   0  0  0  0  0  0  0  0  0  0  0  0  # atno 10167 bound_to 10162
  156.0974  130.6144  150.9055 H   0  0  0  0  0  0  0  0  0  0  0  0  # atno 10718 bound_to 10713
  153.1143  135.6704  153.9446 H   0  0  0  0  0  0  0  0  0  0  0  0  # atno 10763 bound_to 10752
  153.8980  135.3039  155.3449 H   0  0  0  0  0  0  0  0  0  0  0  0  # atno 10764 bound_to 10752
  154.7560  135.5011  153.9454 H   0  0  0  0  0  0  0  0  0  0  0  0  # atno 10765 bound_to 10752
  139.9944  134.9503  156.9929 H   0  0  0  0  0  0  0  0  0  0  0  0  # atno 11005 bound_to 11000
  145.5239  139.1476  143.3537 LP  0  0  0  0  0  0  0  0  0  0  0  0  # atno 17320 bound_to 7965
  146.2450  140.5380  142.8917 LP  0  0  0  0  0  0  0  0  0  0  0  0  # atno 17321 bound_to 7965
  139.7277  144.7589  151.0852 LP  0  0  0  0  0  0  0  0  0  0  0  0  # atno 17342 bound_to 10162
  140.7759  143.5127  150.9633 LP  0  0  0  0  0  0  0  0  0  0  0  0  # atno 17343 bound_to 10162
  157.6138  131.0934  150.8748 LP  0  0  0  0  0  0  0  0  0  0  0  0  # atno 17370 bound_to 10713
  156.8883  130.5203  149.5287 LP  0  0  0  0  0  0  0  0  0  0  0  0  # atno 17371 bound_to 10713
  140.4847  134.1254  155.7222 LP  0  0  0  0  0  0  0  0  0  0  0  0  # atno 17394 bound_to 11000
  141.1592  133.8825  157.1894 LP  0  0  0  0  0  0  0  0  0  0  0  0  # atno 17395 bound_to 11000

$$$$
