AV-unprocessed.smi:403|AV-procd|sdf|2496|dock6
  -GOLD-   2262022443D 1   1.00000     0.00000
 Structure written by MMmdl.
 46 47  0  0  0  0  0  0  0  0  1 V2000
  152.3349  145.1421  158.6345 C   0  0  0  0  0  0  0  0  0  0  0  0
  151.7995  144.2636  159.7781 C   0  0  0  0  0  0  0  0  0  0  0  0
  152.5670  142.9338  159.8331 C   0  0  0  0  0  0  0  0  0  0  0  0
  150.2812  144.0127  159.6700 C   0  0  0  0  0  0  0  0  0  0  0  0
  149.4140  145.1942  160.1524 C   0  0  0  0  0  0  0  0  0  0  0  0
  147.9572  144.8147  160.4410 C   0  0  0  0  0  0  0  0  0  0  0  0
  147.6373  144.2772  161.5020 O   0  0  0  0  0  0  0  0  0  0  0  0
  147.0754  145.1079  159.4729 N   0  0  0  0  0  0  0  0  0  0  0  0
  145.6409  144.8430  159.5399 C   0  0  0  0  0  0  0  0  0  0  0  0
  144.9081  144.8910  158.1963 C   0  0  0  0  0  0  0  0  0  0  0  0
  144.4246  143.7089  157.5869 C   0  0  0  0  0  0  0  0  0  0  0  0
  143.7313  143.7928  156.3663 C   0  0  0  0  0  0  0  0  0  0  0  0
  143.5371  145.0628  155.7961 C   0  0  0  0  0  0  0  0  0  0  0  0
  143.9822  146.2011  156.3649 N   0  0  0  0  0  0  0  0  0  0  0  0
  144.6521  146.1256  157.5411 C   0  0  0  0  0  0  0  0  0  0  0  0
  145.1172  147.3321  158.0931 N   0  0  0  0  0  0  0  0  0  0  0  0
  145.0129  148.4523  157.1666 C   0  0  0  0  0  0  0  0  0  0  0  0
  145.7258  149.6837  157.7513 C   0  0  0  0  0  0  0  0  0  0  0  0
  145.1849  149.9861  159.0348 O   0  0  0  0  0  0  0  0  0  0  0  0
  145.3522  148.9111  159.9556 C   0  0  0  0  0  0  0  0  0  0  0  0
  144.6268  147.6618  159.4270 C   0  0  0  0  0  0  0  0  0  0  0  0
  152.1344  144.6921  157.6617 H   0  0  0  0  0  0  0  0  0  0  0  0
  153.4132  145.2797  158.7196 H   0  0  0  0  0  0  0  0  0  0  0  0
  151.8850  146.1344  158.6426 H   0  0  0  0  0  0  0  0  0  0  0  0
  151.9900  144.7841  160.7176 H   0  0  0  0  0  0  0  0  0  0  0  0
  152.4276  142.3587  158.9172 H   0  0  0  0  0  0  0  0  0  0  0  0
  152.2310  142.3176  160.6677 H   0  0  0  0  0  0  0  0  0  0  0  0
  153.6367  143.1011  159.9613 H   0  0  0  0  0  0  0  0  0  0  0  0
  150.0263  143.7610  158.6392 H   0  0  0  0  0  0  0  0  0  0  0  0
  150.0330  143.1332  160.2664 H   0  0  0  0  0  0  0  0  0  0  0  0
  149.8433  145.6156  161.0623 H   0  0  0  0  0  0  0  0  0  0  0  0
  149.4119  145.9895  159.4071 H   0  0  0  0  0  0  0  0  0  0  0  0
  147.4199  145.5475  158.6319 H   0  0  0  0  0  0  0  0  0  0  0  0
  145.5033  143.8476  159.9617 H   0  0  0  0  0  0  0  0  0  0  0  0
  145.1902  145.5365  160.2506 H   0  0  0  0  0  0  0  0  0  0  0  0
  144.5720  142.7410  158.0419 H   0  0  0  0  0  0  0  0  0  0  0  0
  143.3548  142.9049  155.8805 H   0  0  0  0  0  0  0  0  0  0  0  0
  143.0090  145.1682  154.8599 H   0  0  0  0  0  0  0  0  0  0  0  0
  145.4477  148.1904  156.2012 H   0  0  0  0  0  0  0  0  0  0  0  0
  143.9601  148.6788  156.9918 H   0  0  0  0  0  0  0  0  0  0  0  0
  146.8002  149.5089  157.8297 H   0  0  0  0  0  0  0  0  0  0  0  0
  145.5894  150.5440  157.0960 H   0  0  0  0  0  0  0  0  0  0  0  0
  146.4140  148.7105  160.1070 H   0  0  0  0  0  0  0  0  0  0  0  0
  144.9415  149.2037  160.9220 H   0  0  0  0  0  0  0  0  0  0  0  0
  143.5526  147.8495  159.3941 H   0  0  0  0  0  0  0  0  0  0  0  0
  144.7897  146.8188  160.0992 H   0  0  0  0  0  0  0  0  0  0  0  0
  1  2  1  0  0  0  0
  1 22  1  0  0  0  0
  1 23  1  0  0  0  0
  1 24  1  0  0  0  0
  2  3  1  0  0  0  0
  2  4  1  0  0  0  0
  2 25  1  0  0  0  0
  3 26  1  0  0  0  0
  3 27  1  0  0  0  0
  3 28  1  0  0  0  0
  4  5  1  0  0  0  0
  4 29  1  0  0  0  0
  4 30  1  0  0  0  0
  5  6  1  0  0  0  0
  5 31  1  0  0  0  0
  5 32  1  0  0  0  0
  6  7  2  0  0  0  0
  6  8  1  0  0  0  0
  8  9  1  0  0  0  0
  8 33  1  0  0  0  0
  9 10  1  0  0  0  0
  9 34  1  0  0  0  0
  9 35  1  0  0  0  0
 10 15  1  0  0  0  0
 10 11  2  0  0  0  0
 11 12  1  0  0  0  0
 11 36  1  0  0  0  0
 12 13  2  0  0  0  0
 12 37  1  0  0  0  0
 13 14  1  0  0  0  0
 13 38  1  0  0  0  0
 14 15  2  0  0  0  0
 15 16  1  0  0  0  0
 16 21  1  0  0  0  0
 16 17  1  0  0  0  0
 17 18  1  0  0  0  0
 17 39  1  0  0  0  0
 17 40  1  0  0  0  0
 18 19  1  0  0  0  0
 18 41  1  0  0  0  0
 18 42  1  0  0  0  0
 19 20  1  0  0  0  0
 20 21  1  0  0  0  0
 20 43  1  0  0  0  0
 20 44  1  0  0  0  0
 21 45  1  0  0  0  0
 21 46  1  0  0  0  0
M  END
> <s_m_source_file>
AV-unprocessed.smi

> <i_m_source_file_index>
403

> <i_lp_mmshare_version>
43012

> <i_f3d_flags>
0

> <s_epik_input>
W0NIM11bQ0hdKFtDSDNdKVtDSDJdW0NIMl1DKD1PKVtOSF1bQ0gyXWMxW2NIXVtjSF1bY0hdbmMxTjJbQ0gyXVtDSDJdT1tDSDJdW0NIMl0y

> <s_epik_cmdline>
J2VwaWtfcHl0aG9uJywgJy1waCcsICc3LjAnLCAnLXRuJywgJzgnLCAnLW1hJywgJzIwMCcsICctbWV0YWxfYmluZGluZycsICctaW1hZScsICc8aW5maWxlLm1hZT4nLCAnLW9tYWUnLCAnPG91dGZpbGUubWFlPic=

> <r_lp_tautomer_probability>
1

> <r_epik_Ionization_Penalty>
0.00581842

> <r_epik_Ionization_Penalty_Charging>
0

> <r_epik_Ionization_Penalty_Neutral>
0.00581842

> <r_epik_State_Penalty>
0.00427389

> <r_epik_Charging_Adjusted_Penalty>
0.00427389

> <i_epik_Tot_Q>
0

> <i_epik_Tot_abs_Q>
0

> <r_epik_Metal_State_Penalty>
-0

> <b_epik_Metal_Only>
0

> <s_lp_Force_Field>
OPLS_2005

> <r_lp_Energy>
20.7725

> <b_lp_Chiralities_Consistent>
1

> <s_lp_Variant>
AV-unprocessed.smi:403-1

> <Gold.Version>
5.8.1

> <Gold.Id.Protein>
6NUR|6NUR_protein|mol2

> <Gold.PLP.Fitness>
43.7609

> <Gold.PLP.PLP>
-39.8093

> <Gold.PLP.part.hbond>
-1.8447

> <Gold.PLP.part.metal>
0.0000

> <Gold.PLP.part.buried>
-6.9168

> <Gold.PLP.part.nonpolar>
-33.7329

> <Gold.PLP.part.repulsive>
0.5332

> <Gold.PLP.ligand.clash>
0.0738

> <Gold.PLP.ligand.torsion>
0.9291

> <Gold.PLP.Chemscore.Hbond>
1.8938

> <Gold.PLP.Chemscore.CHOScore>
0.0000

> <Gold.PLP.Chemscore.Metal>
0.0000

> <Gold.Chemscore.Hbonds>
donor molecule, donor type, donor heavy atom, donor atom, acceptor molecule, acceptor atom, score
      L1  H     8    33       P1  8029  0.86
      P1  H  6933  6944       L1     7  0.84

> <Gold.PLP.Chemscore.Internal.Correction>
0.2024

> <Gold.Rescore>
     Score         DG    S(hbond)    S(metal)    S(lipo)     H(rot)  DE(clash)    DE(int)     intcor
     17.66     -19.31       1.91        0.00     101.69       1.73       0.07       1.58       ----

> <Gold.Chemscore.Fitness>
17.6589

> <Gold.Chemscore.DG>
-19.3068

> <Gold.Chemscore.ZeroCoef>
-5.4800

> <Gold.Chemscore.Hbond>
1.9071

> <Gold.Chemscore.Metal>
0.0000

> <Gold.Chemscore.Lipo>
101.6924

> <Gold.Chemscore.Internal_Hbond>
0.0000

> <Gold.Chemscore.DEClash>
0.0710

> <Gold.Chemscore.DEInternal>
1.5769

> <Gold.Chemscore.Rot>
1.7347

> <Gold.Chemscore.Internal.Correction>
   9.000000E+99

> <Gold.Chemscore.Hbonds>
donor molecule, donor type, donor heavy atom, donor atom, acceptor molecule, acceptor atom, score
      L1  H     8    33       P1  8029  0.84
      P1  H  6933  6944       L1     7  0.45

> <Gold.Chemscore.Hbond.Weighted>
-6.3697

> <Gold.Chemscore.Metal.Weighted>
-0.0000

> <Gold.Chemscore.Lipo.Weighted>
-11.8980

> <Gold.Chemscore.Internal_Hbond.Weighted>
0.0000

> <Gold.Chemscore.DEClash.Weighted>
0.0710

> <Gold.Chemscore.DEInternal.Weighted>
1.5769

> <Gold.Chemscore.Rot.Weighted>
4.4409

> <Gold.Chemscore.Internal.Correction.Weighted>
   9.000000E+99

> <Gold.Protein.RotatedTorsions>
[ 6907 6896 6895 6894 ] final  -75.90 input  -60.11 | X-H torsion
[ 7974 7965 7964 7962 ] final   37.32 input  175.53 | X-H torsion
[ 8008 7997 7996 7995 ] final  173.04 input   59.86 | X-H torsion
[ 10167 10162 10161 10158 ] final   44.23 input  -65.29 | X-H torsion
[ 10718 10713 10712 10709 ] final -129.63 input   66.30 | X-H torsion
[ 10763 10752 10751 10750 ] final  152.19 input  -60.55 | X-H torsion
[ 11005 11000 10999 10996 ] final  -95.14 input  -57.11 | X-H torsion

> <Gold.Protein.ActiveResidues>
 VAL166  LYS551  ARG553  GLY616  TRP617  ASP618  TYR619  PRO620  LYS621  CYS622 
 ASP623  PHE694  ASN695  SER759  ASP760  ASP761  ALA762  ILE779  LEU786  VAL792 
 PHE793  MET794  SER795  GLU796  ALA797  LYS798  CYS799  TRP800  GLU811  SER814 

> <Gold.Protein.RotatedAtoms>
  150.7044  134.4652  159.5398 H   0  0  0  0  0  0  0  0  0  0  0  0  # atno 6907 bound_to 6896
  152.2319  134.8311  160.0481 H   0  0  0  0  0  0  0  0  0  0  0  0  # atno 6908 bound_to 6896
  151.9124  133.3529  159.3905 H   0  0  0  0  0  0  0  0  0  0  0  0  # atno 6909 bound_to 6896
  146.1146  139.5908  142.9330 H   0  0  0  0  0  0  0  0  0  0  0  0  # atno 7974 bound_to 7965
  156.1115  140.1470  156.9331 H   0  0  0  0  0  0  0  0  0  0  0  0  # atno 8008 bound_to 7997
  154.4770  140.0891  156.7330 H   0  0  0  0  0  0  0  0  0  0  0  0  # atno 8009 bound_to 7997
  155.4587  140.3437  155.4312 H   0  0  0  0  0  0  0  0  0  0  0  0  # atno 8010 bound_to 7997
  140.3363  144.2525  150.6161 H   0  0  0  0  0  0  0  0  0  0  0  0  # atno 10167 bound_to 10162
  156.2066  130.6891  151.0601 H   0  0  0  0  0  0  0  0  0  0  0  0  # atno 10718 bound_to 10713
  154.1160  135.2836  155.3219 H   0  0  0  0  0  0  0  0  0  0  0  0  # atno 10763 bound_to 10752
  154.6456  135.5387  153.7844 H   0  0  0  0  0  0  0  0  0  0  0  0  # atno 10764 bound_to 10752
  153.0329  135.6497  154.1317 H   0  0  0  0  0  0  0  0  0  0  0  0  # atno 10765 bound_to 10752
  141.1450  133.8005  157.0395 H   0  0  0  0  0  0  0  0  0  0  0  0  # atno 11005 bound_to 11000
  145.5594  141.0406  143.2235 LP  0  0  0  0  0  0  0  0  0  0  0  0  # atno 17320 bound_to 7965
  144.7541  139.7118  143.7261 LP  0  0  0  0  0  0  0  0  0  0  0  0  # atno 17321 bound_to 7965
  140.5350  143.2235  151.8177 LP  0  0  0  0  0  0  0  0  0  0  0  0  # atno 17342 bound_to 10162
  139.4848  144.4672  151.9469 LP  0  0  0  0  0  0  0  0  0  0  0  0  # atno 17343 bound_to 10162
  157.7015  131.0774  150.6804 LP  0  0  0  0  0  0  0  0  0  0  0  0  # atno 17370 bound_to 10713
  156.6862  130.4581  149.5613 LP  0  0  0  0  0  0  0  0  0  0  0  0  # atno 17371 bound_to 10713
  140.0702  134.9706  157.1454 LP  0  0  0  0  0  0  0  0  0  0  0  0  # atno 17394 bound_to 11000
  140.3722  134.2378  155.7177 LP  0  0  0  0  0  0  0  0  0  0  0  0  # atno 17395 bound_to 11000

$$$$
