#       Name:                AV-unprocessed.smi:35
#       Creating user name   scv26
#       Creation time:       Thu Mar 26 16:04:06 2020


#       File generated by GOLD software.
#

@<TRIPOS>MOLECULE
AV-unprocessed.smi:35
    41    42     1
SMALL
NO_CHARGES


@<TRIPOS>ATOM
      1 ****         1.2787   4.5751   1.5499 O.2            1 S1                 0.0000
      2 ****         0.6788   3.5649   1.1874 C.2            1 S1                 0.0000
      3 ****        -0.2177   2.9103   1.9799 N.pl3          1 S1                -1.0000
      4 ****        -0.8658   1.7767   1.5805 C.2            1 S1                 0.0000
      5 ****        -1.7162   1.2169   2.2721 O.2            1 S1                 0.0000
      6 ****        -0.5606   1.2159   0.3071 N.am           1 S1                 0.0000
      7 ****        -1.2933  -0.0364  -0.1517 C.3            1 S1                 0.0000
      8 ****        -0.8076  -0.4268  -1.4079 O.3            1 S1                 0.0000
      9 ****         0.0328  -1.5771  -1.3165 C.3            1 S1                 0.0000
     10 ****         1.5058  -1.1711  -1.0760 C.3            1 S1                 0.0000
     11 ****         2.0697  -0.6682  -2.2684 O.3            1 S1                 0.0000
     12 ****        -0.6265  -2.3402  -0.1627 C.3            1 S1                 0.0000
     13 ****         0.2396  -3.2663   0.4638 O.3            1 S1                 0.0000
     14 ****        -1.0627  -1.2388   0.7940 C.3            1 S1                 0.0000
     15 ****        -2.2530  -1.6320   1.4468 O.3            1 S1                 0.0000
     16 ****         0.2933   1.9028  -0.5435 C.2            1 S1                 0.0000
     17 ****         0.9167   3.0312  -0.1497 C.2            1 S1                 0.0000
     18 ****         2.1247   3.8856  -1.4675 Br             1 S1                 0.0000
     19 ****        -2.3362   0.2730  -0.2403 H              1 S1                 0.0000
     20 ****        -0.0346  -2.1619  -2.2348 H              1 S1                 0.0000
     21 ****         1.6162  -0.4530  -0.2651 H              1 S1                 0.0000
     22 ****         2.1018  -2.0412  -0.8019 H              1 S1                 0.0000
     23 ****         2.9678  -0.4295  -2.0972 H              1 S1                 0.0000
     24 ****        -1.4981  -2.8707  -0.5509 H              1 S1                 0.0000
     25 ****        -0.2223  -3.6584   1.1893 H              1 S1                 0.0000
     26 ****        -0.2732  -1.0098   1.5122 H              1 S1                 0.0000
     27 ****        -2.5350  -0.9143   1.9951 H              1 S1                 0.0000
     28 ****         0.4778   1.5444  -1.5443 H              1 S1                 0.0000
     29 ****         1.9229   5.0234   0.9303 LP             1 S1                 0.0000
     30 ****         1.1223   4.9483   2.4644 LP             1 S1                 0.0000
     31 ****        -0.4083   3.2756   2.8911 LP             1 S1                 0.0000
     32 ****        -1.9580   1.5909   3.1675 LP             1 S1                 0.0000
     33 ****        -2.1654   0.3880   1.9387 LP             1 S1                 0.0000
     34 ****        -0.2820   0.3278  -1.8007 LP             1 S1                 0.0000
     35 ****        -1.5827  -0.6386  -2.0032 LP             1 S1                 0.0000
     36 ****         1.5583   0.1363  -2.5704 LP             1 S1                 0.0000
     37 ****         2.0368  -1.3704  -2.9796 LP             1 S1                 0.0000
     38 ****         1.0557  -2.7944   0.7974 LP             1 S1                 0.0000
     39 ****         0.5076  -3.9745  -0.1894 LP             1 S1                 0.0000
     40 ****        -2.0810  -2.4414   2.0084 LP             1 S1                 0.0000
     41 ****        -2.9590  -1.8400   0.7698 LP             1 S1                 0.0000
@<TRIPOS>BOND
    1    1    2 2     
    2    2   17 1     
    3    2    3 1     
    4    3    4 1     
    5    4    5 2     
    6    4    6 am    
    7    6    7 1     
    8    6   16 1     
    9    7   14 1     
   10    7    8 1     
   11    7   19 1     
   12    8    9 1     
   13    9   10 1     
   14    9   12 1     
   15    9   20 1     
   16   10   11 1     
   17   10   21 1     
   18   10   22 1     
   19   11   23 1     
   20   12   13 1     
   21   12   14 1     
   22   12   24 1     
   23   13   25 1     
   24   14   15 1     
   25   14   26 1     
   26   15   27 1     
   27   16   17 2     
   28   16   28 1     
   29   17   18 1     
   30    1   29 1     
   31    1   30 1     
   32    3   31 1     
   33    5   32 1     
   34    5   33 1     
   35    8   34 1     
   36    8   35 1     
   37   11   36 1     
   38   11   37 1     
   39   13   38 1     
   40   13   39 1     
   41   15   40 1     
   42   15   41 1     
@<TRIPOS>SUBSTRUCTURE
      1 S1             1
@<TRIPOS>SET
LONE_PAIRS      STATIC     ATOMS    <user>   **** ""
13 29 30 31 32 33 34 35 36 37 38 39 40 41
DONOR_HYDROGENS      STATIC     ATOMS    <user>   **** ""
3 23 25 27
ATOM$BLUE        STATIC     ATOMS    COLORGROUP SYSTEM
13 29 30 31 32 33 34 35 36 37 38 39 40 41
ATOM$RED        STATIC     ATOMS    COLORGROUP SYSTEM
3 23 25 27
