#       Name:                AV-unprocessed.smi:2822
#       Creating user name   scv26
#       Creation time:       Fri Mar 27 15:32:20 2020


#       File generated by GOLD software.
#

@<TRIPOS>MOLECULE
AV-unprocessed.smi:2822
    43    45     1
SMALL
NO_CHARGES


@<TRIPOS>ATOM
      1 ****        -5.3371  -0.1256   1.1074 Cl             1 S1                 0.0000
      2 ****        -4.4768   1.3737   1.1599 C.ar           1 S1                 0.0000
      3 ****        -5.1880   2.5895   1.0981 C.ar           1 S1                 0.0000
      4 ****        -4.5949   3.8015   1.1315 N.ar           1 S1                 0.0000
      5 ****        -3.2499   3.8392   1.2306 C.ar           1 S1                 0.0000
      6 ****        -2.4440   2.6854   1.3006 C.ar           1 S1                 0.0000
      7 ****        -3.0670   1.4156   1.2631 C.ar           1 S1                 0.0000
      8 ****        -2.3412   0.2165   1.3265 N.pl3          1 S1                 0.0000
      9 ****        -0.8895   0.2143   1.2322 C.3            1 S1                 0.0000
     10 ****        -0.3340  -1.2191   1.1338 C.3            1 S1                 0.0000
     11 ****         1.2044  -1.2729   1.1999 C.3            1 S1                 0.0000
     12 ****         1.8407  -0.7673  -0.0109 N.3            1 S1                 0.0000
     13 ****         3.2972  -0.8597   0.0840 C.3            1 S1                 0.0000
     14 ****         4.0055  -0.3081  -1.1632 C.3            1 S1                 0.0000
     15 ****         3.5071  -1.0312  -2.4223 C.3            1 S1                 0.0000
     16 ****         1.9735  -0.9729  -2.4898 C.3            1 S1                 0.0000
     17 ****         1.3415  -1.4936  -1.1820 C.3            1 S1                 0.0000
     18 ****        -0.1962  -1.4227  -1.2627 C.3            1 S1                 0.0000
     19 ****        -0.7806  -1.8867  -0.0483 O.3            1 S1                 0.0000
     20 ****        -6.2652   2.5894   1.0190 H              1 S1                 0.0000
     21 ****        -2.7998   4.8207   1.2552 H              1 S1                 0.0000
     22 ****        -1.3730   2.7939   1.3820 H              1 S1                 0.0000
     23 ****        -2.8301  -0.6603   1.2130 H              1 S1                 0.0000
     24 ****        -0.5691   0.8156   0.3816 H              1 S1                 0.0000
     25 ****        -0.4885   0.6941   2.1256 H              1 S1                 0.0000
     26 ****        -0.7209  -1.7838   1.9829 H              1 S1                 0.0000
     27 ****         1.5536  -0.7104   2.0666 H              1 S1                 0.0000
     28 ****         1.5107  -2.3075   1.3631 H              1 S1                 0.0000
     29 ****         3.6422  -0.3095   0.9600 H              1 S1                 0.0000
     30 ****         3.5930  -1.8988   0.2373 H              1 S1                 0.0000
     31 ****         3.8132   0.7619  -1.2512 H              1 S1                 0.0000
     32 ****         5.0851  -0.4250  -1.0654 H              1 S1                 0.0000
     33 ****         3.9441  -0.5837  -3.3154 H              1 S1                 0.0000
     34 ****         3.8330  -2.0719  -2.4008 H              1 S1                 0.0000
     35 ****         1.6573   0.0559  -2.6680 H              1 S1                 0.0000
     36 ****         1.6197  -1.5578  -3.3395 H              1 S1                 0.0000
     37 ****         1.6148  -2.5452  -1.0772 H              1 S1                 0.0000
     38 ****        -0.5314  -0.4077  -1.4779 H              1 S1                 0.0000
     39 ****        -0.5598  -2.0475  -2.0789 H              1 S1                 0.0000
     40 ****        -5.1338   4.6426   1.0844 LP             1 S1                 0.0000
     41 ****         1.6069   0.1996  -0.1136 LP             1 S1                 0.0000
     42 ****        -1.7711  -1.7673  -0.1159 LP             1 S1                 0.0000
     43 ****        -0.5677  -2.8592   0.0461 LP             1 S1                 0.0000
@<TRIPOS>BOND
    1    1    2 1     
    2    2    7 ar    
    3    2    3 ar    
    4    3    4 ar    
    5    3   20 1     
    6    4    5 ar    
    7    5    6 ar    
    8    5   21 1     
    9    6    7 ar    
   10    6   22 1     
   11    7    8 1     
   12    8    9 1     
   13    8   23 1     
   14    9   10 1     
   15    9   24 1     
   16    9   25 1     
   17   10   19 1     
   18   10   11 1     
   19   10   26 1     
   20   11   12 1     
   21   11   27 1     
   22   11   28 1     
   23   12   17 1     
   24   12   13 1     
   25   13   14 1     
   26   13   29 1     
   27   13   30 1     
   28   14   15 1     
   29   14   31 1     
   30   14   32 1     
   31   15   16 1     
   32   15   33 1     
   33   15   34 1     
   34   16   17 1     
   35   16   35 1     
   36   16   36 1     
   37   17   18 1     
   38   17   37 1     
   39   18   19 1     
   40   18   38 1     
   41   18   39 1     
   42    4   40 1     
   43   12   41 1     
   44   19   42 1     
   45   19   43 1     
@<TRIPOS>SUBSTRUCTURE
      1 S1             1
@<TRIPOS>SET
LONE_PAIRS      STATIC     ATOMS    <user>   **** ""
4 40 41 42 43
DONOR_HYDROGENS      STATIC     ATOMS    <user>   **** ""
1 23
ATOM$BLUE        STATIC     ATOMS    COLORGROUP SYSTEM
4 40 41 42 43
ATOM$RED        STATIC     ATOMS    COLORGROUP SYSTEM
1 23
