AV-unprocessed.smi:37|AV-procd|sdf|320|dock3
  -GOLD-   2262016143D 1   1.00000     0.00000
 Structure written by MMmdl.
 43 44  0  0  0  0  0  0  0  0  2 V2000
  145.4840  135.3487  162.2029 C   0  0  0  0  0  0  0  0  0  0  0  0
  146.7659  135.1207  161.3881 C   0  0  0  0  0  0  0  0  0  0  0  0
  147.6150  136.3818  161.2155 C   0  0  0  0  0  0  0  0  0  0  0  0
  147.7923  137.1912  162.1278 O   0  0  0  0  0  0  0  0  0  0  0  0
  148.1175  136.4769  159.9777 O   0  0  0  0  0  0  0  0  0  0  0  0
  149.3575  137.1308  159.7622 C   0  0  0  0  0  0  0  0  0  0  0  0
  149.7190  137.1387  158.2665 C   0  0  1  0  0  0  0  0  0  0  0  0
  149.0871  138.2374  157.6141 O   0  0  0  0  0  0  0  0  0  0  0  0
  149.8691  138.5601  156.5084 C   0  0  1  0  0  0  0  0  0  0  0  0
  149.4119  139.8799  155.9090 N   0  0  0  0  0  0  0  0  0  0  0  0
  148.3718  140.6074  156.4673 C   0  0  0  0  0  0  0  0  0  0  0  0
  147.9962  141.8016  155.9661 C   0  0  0  0  0  0  0  0  0  0  0  0
  146.9803  142.4756  156.5322 F   0  0  0  0  0  0  0  0  0  0  0  0
  148.7105  142.3614  154.8221 C   0  0  0  0  0  0  0  0  0  0  0  0
  148.3420  143.4338  154.3452 O   0  0  0  0  0  0  0  0  0  0  0  0
  149.7758  141.6625  154.3358 N   0  5  0  0  0  0  0  0  0  0  0  0
  150.1724  140.4634  154.8552 C   0  0  0  0  0  0  0  0  0  0  0  0
  151.1735  139.8670  154.4589 O   0  0  0  0  0  0  0  0  0  0  0  0
  151.2849  138.5457  157.1031 C   0  0  1  0  0  0  0  0  0  0  0  0
  151.5858  140.0748  158.3656 Br  0  0  0  0  0  0  0  0  0  0  0  0
  151.2153  137.2391  157.8929 C   0  0  1  0  0  0  0  0  0  0  0  0
  152.1029  137.1982  159.0062 O   0  0  0  0  0  0  0  0  0  0  0  0
  153.3990  137.5202  158.8561 C   0  0  0  0  0  0  0  0  0  0  0  0
  153.9592  137.7637  157.7858 O   0  0  0  0  0  0  0  0  0  0  0  0
  154.1341  137.5650  160.1969 C   0  0  0  0  0  0  0  0  0  0  0  0
  153.8461  136.3535  161.0965 C   0  0  0  0  0  0  0  0  0  0  0  0
  144.9245  134.4190  162.3050 H   0  0  0  0  0  0  0  0  0  0  0  0
  144.8296  136.0758  161.7208 H   0  0  0  0  0  0  0  0  0  0  0  0
  145.7100  135.7089  163.2074 H   0  0  0  0  0  0  0  0  0  0  0  0
  147.3769  134.3581  161.8720 H   0  0  0  0  0  0  0  0  0  0  0  0
  146.5108  134.7377  160.3997 H   0  0  0  0  0  0  0  0  0  0  0  0
  149.3070  138.1563  160.1313 H   0  0  0  0  0  0  0  0  0  0  0  0
  150.1361  136.6207  160.3305 H   0  0  0  0  0  0  0  0  0  0  0  0
  149.3240  136.2250  157.8207 H   0  0  0  0  0  0  0  0  0  0  0  0
  149.7344  137.8291  155.7082 H   0  0  0  0  0  0  0  0  0  0  0  0
  147.8451  140.2338  157.3311 H   0  0  0  0  0  0  0  0  0  0  0  0
  152.0568  138.5524  156.3333 H   0  0  0  0  0  0  0  0  0  0  0  0
  151.4332  136.4079  157.2197 H   0  0  0  0  0  0  0  0  0  0  0  0
  155.2047  137.6298  160.0003 H   0  0  0  0  0  0  0  0  0  0  0  0
  153.8524  138.4821  160.7145 H   0  0  0  0  0  0  0  0  0  0  0  0
  154.4046  136.4265  162.0297 H   0  0  0  0  0  0  0  0  0  0  0  0
  154.1362  135.4200  160.6122 H   0  0  0  0  0  0  0  0  0  0  0  0
  152.7875  136.2892  161.3505 H   0  0  0  0  0  0  0  0  0  0  0  0
  1  2  1  0  0  0  0
  1 27  1  0  0  0  0
  1 28  1  0  0  0  0
  1 29  1  0  0  0  0
  2  3  1  0  0  0  0
  2 30  1  0  0  0  0
  2 31  1  0  0  0  0
  3  4  2  0  0  0  0
  3  5  1  0  0  0  0
  5  6  1  0  0  0  0
  6  7  1  0  0  0  0
  6 32  1  0  0  0  0
  6 33  1  0  0  0  0
  7 21  1  0  0  0  0
  7  8  1  0  0  0  0
  7 34  1  0  0  0  0
  8  9  1  0  0  0  0
  9 10  1  0  0  0  0
  9 19  1  0  0  0  0
  9 35  1  0  0  0  0
 10 17  1  0  0  0  0
 10 11  1  0  0  0  0
 11 12  2  0  0  0  0
 11 36  1  0  0  0  0
 12 13  1  0  0  0  0
 12 14  1  0  0  0  0
 14 15  2  0  0  0  0
 14 16  1  0  0  0  0
 16 17  1  0  0  0  0
 17 18  2  0  0  0  0
 19 20  1  0  0  0  0
 19 21  1  0  0  0  0
 19 37  1  0  0  0  0
 21 22  1  0  0  0  0
 21 38  1  0  0  0  0
 22 23  1  0  0  0  0
 23 24  2  0  0  0  0
 23 25  1  0  0  0  0
 25 26  1  0  0  0  0
 25 39  1  0  0  0  0
 25 40  1  0  0  0  0
 26 41  1  0  0  0  0
 26 42  1  0  0  0  0
 26 43  1  0  0  0  0
M  CHG  1  16  -1
M  END
> <s_m_source_file>
AV-unprocessed.smi

> <i_m_source_file_index>
37

> <i_lp_mmshare_version>
43012

> <i_f3d_flags>
0

> <s_epik_input>
W0NIM11bQ0gyXUMoPU8pT1tDSDJdW0NAQEhdMU9bQ0BASF0objJbY0hdYyhGKWMoPU8pW25IXWMyPU8pW0NAQEhdKEJyKVtDQEhdMU9DKD1PKVtDSDJdW0NIM10=

> <s_epik_cmdline>
J2VwaWtfcHl0aG9uJywgJy1waCcsICc3LjAnLCAnLXRuJywgJzgnLCAnLW1hJywgJzIwMCcsICctbWV0YWxfYmluZGluZycsICctaW1hZScsICc8aW5maWxlLm1hZT4nLCAnLW9tYWUnLCAnPG91dGZpbGUubWFlPic=

> <r_epik_Ionization_Penalty>
1.08158

> <r_epik_Ionization_Penalty_Charging>
9.05154e-09

> <r_epik_Ionization_Penalty_Neutral>
1.08158

> <r_epik_State_Penalty>
1.13706

> <r_epik_Charging_Adjusted_Penalty>
1.13706

> <i_epik_Tot_Q>
-1

> <i_epik_Tot_abs_Q>
1

> <r_epik_Metal_State_Penalty>
0.00343535

> <b_epik_Metal_Only>
0

> <s_epik_Chemistry_Notes>
This compound has an ester and may undergo hydrolysis at high or low pH. This compound contains an acetal/aminal-like group ( X-CH(R)-Y where X, Y are N, S, or O) that may be acid/base labile, releasing an aldehyde.

> <s_lp_Force_Field>
OPLS_2005

> <r_lp_Energy>
41.8028

> <b_lp_Chiralities_Consistent>
1

> <s_lp_Variant>
AV-unprocessed.smi:37-18

> <Gold.Version>
5.8.1

> <Gold.Id.Protein>
6NUR|6NUR_protein|mol2

> <Gold.PLP.Fitness>
42.0264

> <Gold.PLP.PLP>
-31.6382

> <Gold.PLP.part.hbond>
-8.0000

> <Gold.PLP.part.metal>
0.0000

> <Gold.PLP.part.buried>
1.2998

> <Gold.PLP.part.nonpolar>
-24.4831

> <Gold.PLP.part.repulsive>
1.8854

> <Gold.PLP.ligand.clash>
0.0000

> <Gold.PLP.ligand.torsion>
1.2245

> <Gold.PLP.Chemscore.Hbond>
4.2076

> <Gold.PLP.Chemscore.CHOScore>
0.0000

> <Gold.PLP.Chemscore.Metal>
0.0000

> <Gold.Chemscore.Hbonds>
donor molecule, donor type, donor heavy atom, donor atom, acceptor molecule, acceptor atom, score
      P1  H  6931  6943       L1     4  1.00
      P1  H  6934  6947       L1     4  0.21
      P1  H  7989  7998       L1    18  0.75
      P1  H  8011  8017       L1    16  0.34
      P1  H  8022  8030       L1    15  1.00

> <Gold.PLP.Chemscore.Internal.Correction>
0.2145

> <Gold.Rescore>
     Score         DG    S(hbond)    S(metal)    S(lipo)     H(rot)  DE(clash)    DE(int)     intcor
     10.19     -13.58       3.17        0.00      50.17       3.27       0.30       3.08       ----

> <Gold.Chemscore.Fitness>
10.1934

> <Gold.Chemscore.DG>
-13.5792

> <Gold.Chemscore.ZeroCoef>
-5.4800

> <Gold.Chemscore.Hbond>
3.1715

> <Gold.Chemscore.Metal>
0.0000

> <Gold.Chemscore.Lipo>
50.1694

> <Gold.Chemscore.Internal_Hbond>
0.0000

> <Gold.Chemscore.DEClash>
0.3010

> <Gold.Chemscore.DEInternal>
3.0848

> <Gold.Chemscore.Rot>
3.2669

> <Gold.Chemscore.Internal.Correction>
   9.000000E+99

> <Gold.Chemscore.Hbonds>
donor molecule, donor type, donor heavy atom, donor atom, acceptor molecule, acceptor atom, score
      P1  H  6931  6943       L1     4  0.89
      P1  H  6934  6947       L1     4  0.04
      P1  H  7989  7998       L1    18  0.14
      P1  H  7997  8009       L1    24  0.01
      P1  H  8011  8017       L1    16  0.08
      P1  H  8022  8030       L1    15  0.93

> <Gold.Chemscore.Hbond.Weighted>
-10.5927

> <Gold.Chemscore.Metal.Weighted>
-0.0000

> <Gold.Chemscore.Lipo.Weighted>
-5.8698

> <Gold.Chemscore.Internal_Hbond.Weighted>
0.0000

> <Gold.Chemscore.DEClash.Weighted>
0.3010

> <Gold.Chemscore.DEInternal.Weighted>
3.0848

> <Gold.Chemscore.Rot.Weighted>
8.3634

> <Gold.Chemscore.Internal.Correction.Weighted>
   9.000000E+99

> <Gold.Protein.RotatedTorsions>
[ 6907 6896 6895 6894 ] final  153.48 input  -60.11 | X-H torsion
[ 7974 7965 7964 7962 ] final  164.28 input  175.53 | X-H torsion
[ 8008 7997 7996 7995 ] final  127.88 input   59.86 | X-H torsion
[ 10167 10162 10161 10158 ] final -126.42 input  -65.29 | X-H torsion
[ 10718 10713 10712 10709 ] final -127.02 input   66.30 | X-H torsion
[ 10763 10752 10751 10750 ] final -140.69 input  -60.55 | X-H torsion
[ 11005 11000 10999 10996 ] final  174.76 input  -57.11 | X-H torsion

> <Gold.Protein.ActiveResidues>
 VAL166  LYS551  ARG553  GLY616  TRP617  ASP618  TYR619  PRO620  LYS621  CYS622 
 ASP623  PHE694  ASN695  SER759  ASP760  ASP761  ALA762  ILE779  LEU786  VAL792 
 PHE793  MET794  SER795  GLU796  ALA797  LYS798  CYS799  TRP800  GLU811  SER814 

> <Gold.Protein.RotatedAtoms>
  152.0721  133.4111  159.4463 H   0  0  0  0  0  0  0  0  0  0  0  0  # atno 6907 bound_to 6896
  150.6863  134.3080  159.4743 H   0  0  0  0  0  0  0  0  0  0  0  0  # atno 6908 bound_to 6896
  152.0913  134.9405  160.0622 H   0  0  0  0  0  0  0  0  0  0  0  0  # atno 6909 bound_to 6896
  144.7552  139.8304  143.6352 H   0  0  0  0  0  0  0  0  0  0  0  0  # atno 7974 bound_to 7965
  156.2902  140.2658  156.2345 H   0  0  0  0  0  0  0  0  0  0  0  0  # atno 8008 bound_to 7997
  155.0039  140.0387  157.2390 H   0  0  0  0  0  0  0  0  0  0  0  0  # atno 8009 bound_to 7997
  154.7577  140.2755  155.6245 H   0  0  0  0  0  0  0  0  0  0  0  0  # atno 8010 bound_to 7997
  139.9717  143.5839  152.2410 H   0  0  0  0  0  0  0  0  0  0  0  0  # atno 10167 bound_to 10162
  156.1819  130.6737  151.0315 H   0  0  0  0  0  0  0  0  0  0  0  0  # atno 10718 bound_to 10713
  154.8570  135.3546  154.5748 H   0  0  0  0  0  0  0  0  0  0  0  0  # atno 10763 bound_to 10752
  153.6360  135.7000  153.5263 H   0  0  0  0  0  0  0  0  0  0  0  0  # atno 10764 bound_to 10752
  153.3010  135.4206  155.1211 H   0  0  0  0  0  0  0  0  0  0  0  0  # atno 10765 bound_to 10752
  140.3548  134.7164  157.4292 H   0  0  0  0  0  0  0  0  0  0  0  0  # atno 11005 bound_to 11000
  146.1553  139.4649  143.0023 LP  0  0  0  0  0  0  0  0  0  0  0  0  # atno 17320 bound_to 7965
  145.6805  141.0192  143.1609 LP  0  0  0  0  0  0  0  0  0  0  0  0  # atno 17321 bound_to 7965
  139.6476  144.7659  151.2212 LP  0  0  0  0  0  0  0  0  0  0  0  0  # atno 17342 bound_to 10162
  140.7520  143.6213  150.8511 LP  0  0  0  0  0  0  0  0  0  0  0  0  # atno 17343 bound_to 10162
  157.6873  131.0821  150.7206 LP  0  0  0  0  0  0  0  0  0  0  0  0  # atno 17370 bound_to 10713
  156.7263  130.4696  149.5510 LP  0  0  0  0  0  0  0  0  0  0  0  0  # atno 17371 bound_to 10713
  140.0674  134.5911  155.8680 LP  0  0  0  0  0  0  0  0  0  0  0  0  # atno 17394 bound_to 11000
  141.2001  133.6611  156.5881 LP  0  0  0  0  0  0  0  0  0  0  0  0  # atno 17395 bound_to 11000

$$$$
