AV-unprocessed.smi:2741|AV-procd|sdf|10561|dock8
  -GOLD-   2272015 13D 1   1.00000     0.00000
 Structure written by MMmdl.
 39 40  0  0  0  0  0  0  0  0  1 V2000
  146.7030  128.8359  153.8394 O   0  0  0  0  0  0  0  0  0  0  0  0
  147.2678  129.0438  152.7645 C   0  0  0  0  0  0  0  0  0  0  0  0
  148.5479  128.2869  152.3833 C   0  0  0  0  0  0  0  0  0  0  0  0
  148.4019  126.8221  152.4303 N   0  0  0  0  0  0  0  0  0  0  0  0
  148.4854  126.1303  151.2059 C   0  0  0  0  0  0  0  0  0  0  0  0
  148.3626  124.7923  151.1102 C   0  0  0  0  0  0  0  0  0  0  0  0
  148.5065  124.0640  149.7829 C   0  0  0  0  0  0  0  0  0  0  0  0
  147.4364  124.2620  149.0128 F   0  0  0  0  0  0  0  0  0  0  0  0
  149.5755  124.5188  149.1307 F   0  0  0  0  0  0  0  0  0  0  0  0
  148.6564  122.7511  149.9624 F   0  0  0  0  0  0  0  0  0  0  0  0
  148.1703  124.0718  152.3532 C   0  0  0  0  0  0  0  0  0  0  0  0
  148.0884  124.7179  153.5327 C   0  0  0  0  0  0  0  0  0  0  0  0
  148.1965  126.1762  153.6172 C   0  0  0  0  0  0  0  0  0  0  0  0
  148.1119  126.7790  154.6875 O   0  0  0  0  0  0  0  0  0  0  0  0
  146.8094  129.9116  151.8502 N   0  0  0  0  0  0  0  0  0  0  0  0
  145.5969  130.7125  151.9822 C   0  0  0  0  0  0  0  0  0  0  0  0
  145.5083  131.8105  150.9041 C   0  0  1  0  0  0  0  0  0  0  0  0
  144.0928  132.0149  150.3529 C   0  0  0  0  0  0  0  0  0  0  0  0
  144.1244  133.4272  149.7743 C   0  0  0  0  0  0  0  0  0  0  0  0
  144.9560  134.2110  150.7915 C   0  0  2  0  0  0  0  0  0  0  0  0
  145.5874  135.3304  150.2064 O   0  0  0  0  0  0  0  0  0  0  0  0
  145.9667  133.2070  151.3701 C   0  0  0  0  0  0  0  0  0  0  0  0
  148.8449  128.6067  151.3834 H   0  0  0  0  0  0  0  0  0  0  0  0
  149.3623  128.6064  153.0361 H   0  0  0  0  0  0  0  0  0  0  0  0
  148.6513  126.7615  150.3449 H   0  0  0  0  0  0  0  0  0  0  0  0
  148.0848  122.9952  152.3376 H   0  0  0  0  0  0  0  0  0  0  0  0
  147.9408  124.1485  154.4389 H   0  0  0  0  0  0  0  0  0  0  0  0
  147.3346  130.0192  150.9944 H   0  0  0  0  0  0  0  0  0  0  0  0
  144.7176  130.0677  151.9408 H   0  0  0  0  0  0  0  0  0  0  0  0
  145.6000  131.1643  152.9748 H   0  0  0  0  0  0  0  0  0  0  0  0
  146.1395  131.5233  150.0612 H   0  0  0  0  0  0  0  0  0  0  0  0
  143.8204  131.2644  149.6102 H   0  0  0  0  0  0  0  0  0  0  0  0
  143.3604  131.9671  151.1602 H   0  0  0  0  0  0  0  0  0  0  0  0
  144.6231  133.4101  148.8037 H   0  0  0  0  0  0  0  0  0  0  0  0
  143.1290  133.8484  149.6313 H   0  0  0  0  0  0  0  0  0  0  0  0
  144.3021  134.5593  151.5923 H   0  0  0  0  0  0  0  0  0  0  0  0
  145.7763  135.1308  149.3021 H   0  0  0  0  0  0  0  0  0  0  0  0
  145.9827  133.2859  152.4580 H   0  0  0  0  0  0  0  0  0  0  0  0
  146.9822  133.3998  151.0209 H   0  0  0  0  0  0  0  0  0  0  0  0
  1  2  2  0  0  0  0
  2  3  1  0  0  0  0
  2 15  1  0  0  0  0
  3  4  1  0  0  0  0
  3 23  1  0  0  0  0
  3 24  1  0  0  0  0
  4 13  1  0  0  0  0
  4  5  1  0  0  0  0
  5  6  2  0  0  0  0
  5 25  1  0  0  0  0
  6  7  1  0  0  0  0
  6 11  1  0  0  0  0
  7  8  1  0  0  0  0
  7  9  1  0  0  0  0
  7 10  1  0  0  0  0
 11 12  2  0  0  0  0
 11 26  1  0  0  0  0
 12 13  1  0  0  0  0
 12 27  1  0  0  0  0
 13 14  2  0  0  0  0
 15 16  1  0  0  0  0
 15 28  1  0  0  0  0
 16 17  1  0  0  0  0
 16 29  1  0  0  0  0
 16 30  1  0  0  0  0
 17 22  1  0  0  0  0
 17 18  1  0  0  0  0
 17 31  1  0  0  0  0
 18 19  1  0  0  0  0
 18 32  1  0  0  0  0
 18 33  1  0  0  0  0
 19 20  1  0  0  0  0
 19 34  1  0  0  0  0
 19 35  1  0  0  0  0
 20 21  1  0  0  0  0
 20 22  1  0  0  0  0
 20 36  1  0  0  0  0
 21 37  1  0  0  0  0
 22 38  1  0  0  0  0
 22 39  1  0  0  0  0
M  END
> <s_m_source_file>
AV-unprocessed.smi

> <i_m_source_file_index>
2741

> <i_lp_mmshare_version>
43012

> <i_f3d_flags>
0

> <s_epik_input>
W09IXVtDQEBIXShbQ0gyXTEpW0NIMl1bQ0gyXVtDQEhdMVtDSDJdW05IXUMoPU8pW0NIMl1uMltjSF1jKEMoRikoRilGKVtjSF1bY0hdYzI9Tw==

> <s_epik_cmdline>
J2VwaWtfcHl0aG9uJywgJy1waCcsICc3LjAnLCAnLXRuJywgJzgnLCAnLW1hJywgJzIwMCcsICctbWV0YWxfYmluZGluZycsICctaW1hZScsICc8aW5maWxlLm1hZT4nLCAnLW9tYWUnLCAnPG91dGZpbGUubWFlPic=

> <r_lp_tautomer_probability>
1

> <r_epik_Ionization_Penalty>
1.17551e-06

> <r_epik_Ionization_Penalty_Charging>
1.78841e-08

> <r_epik_Ionization_Penalty_Neutral>
1.15762e-06

> <r_epik_State_Penalty>
-0

> <r_epik_Charging_Adjusted_Penalty>
1.78841e-08

> <i_epik_Tot_Q>
0

> <i_epik_Tot_abs_Q>
0

> <r_epik_Metal_State_Penalty>
-0

> <b_epik_Metal_Only>
0

> <s_lp_Force_Field>
OPLS_2005

> <r_lp_Energy>
34.082

> <b_lp_Chiralities_Consistent>
1

> <s_lp_Variant>
AV-unprocessed.smi:2741-4

> <Gold.Version>
5.8.1

> <Gold.Id.Protein>
6NUR|6NUR_protein|mol2

> <Gold.PLP.Fitness>
41.5519

> <Gold.PLP.PLP>
-37.6690

> <Gold.PLP.part.hbond>
-2.0000

> <Gold.PLP.part.metal>
0.0000

> <Gold.PLP.part.buried>
-6.2909

> <Gold.PLP.part.nonpolar>
-29.4391

> <Gold.PLP.part.repulsive>
0.1006

> <Gold.PLP.ligand.clash>
0.0000

> <Gold.PLP.ligand.torsion>
1.0671

> <Gold.PLP.Chemscore.Hbond>
1.9920

> <Gold.PLP.Chemscore.CHOScore>
0.0000

> <Gold.PLP.Chemscore.Metal>
0.0000

> <Gold.Chemscore.Hbonds>
donor molecule, donor type, donor heavy atom, donor atom, acceptor molecule, acceptor atom, score
      L1  H    15    28       P1 10747  0.85
      L1  H    21    37       P1  7921  1.00

> <Gold.PLP.Chemscore.Internal.Correction>
0.0411

> <Gold.Rescore>
     Score         DG    S(hbond)    S(metal)    S(lipo)     H(rot)  DE(clash)    DE(int)     intcor
     13.72     -14.95       1.93        0.00      80.05       2.48       0.07       1.16       ----

> <Gold.Chemscore.Fitness>
13.7173

> <Gold.Chemscore.DG>
-14.9497

> <Gold.Chemscore.ZeroCoef>
-5.4800

> <Gold.Chemscore.Hbond>
1.9326

> <Gold.Chemscore.Metal>
0.0000

> <Gold.Chemscore.Lipo>
80.0467

> <Gold.Chemscore.Internal_Hbond>
0.0000

> <Gold.Chemscore.DEClash>
0.0714

> <Gold.Chemscore.DEInternal>
1.1610

> <Gold.Chemscore.Rot>
2.4807

> <Gold.Chemscore.Internal.Correction>
   9.000000E+99

> <Gold.Chemscore.Hbonds>
donor molecule, donor type, donor heavy atom, donor atom, acceptor molecule, acceptor atom, score
      L1  H    15    28       P1 10747  0.84
      L1  H    21    37       P1  7921  0.98

> <Gold.Chemscore.Hbond.Weighted>
-6.4549

> <Gold.Chemscore.Metal.Weighted>
-0.0000

> <Gold.Chemscore.Lipo.Weighted>
-9.3655

> <Gold.Chemscore.Internal_Hbond.Weighted>
0.0000

> <Gold.Chemscore.DEClash.Weighted>
0.0714

> <Gold.Chemscore.DEInternal.Weighted>
1.1610

> <Gold.Chemscore.Rot.Weighted>
6.3507

> <Gold.Chemscore.Internal.Correction.Weighted>
   9.000000E+99

> <Gold.Protein.RotatedTorsions>
[ 6907 6896 6895 6894 ] final    3.02 input  -60.11 | X-H torsion
[ 7974 7965 7964 7962 ] final  175.93 input  175.53 | X-H torsion
[ 8008 7997 7996 7995 ] final  -85.84 input   59.86 | X-H torsion
[ 10167 10162 10161 10158 ] final  -29.96 input  -65.29 | X-H torsion
[ 10718 10713 10712 10709 ] final  141.02 input   66.30 | X-H torsion
[ 10763 10752 10751 10750 ] final -119.26 input  -60.55 | X-H torsion
[ 11005 11000 10999 10996 ] final -174.53 input  -57.11 | X-H torsion

> <Gold.Protein.ActiveResidues>
 VAL166  LYS551  ARG553  GLY616  TRP617  ASP618  TYR619  PRO620  LYS621  CYS622 
 ASP623  PHE694  ASN695  SER759  ASP760  ASP761  ALA762  ILE779  LEU786  VAL792 
 PHE793  MET794  SER795  GLU796  ALA797  LYS798  CYS799  TRP800  GLU811  SER814 

> <Gold.Protein.RotatedAtoms>
  151.6184  135.1034  160.0095 H   0  0  0  0  0  0  0  0  0  0  0  0  # atno 6907 bound_to 6896
  152.4171  133.7052  159.6457 H   0  0  0  0  0  0  0  0  0  0  0  0  # atno 6908 bound_to 6896
  150.8059  133.8437  159.3227 H   0  0  0  0  0  0  0  0  0  0  0  0  # atno 6909 bound_to 6896
  144.7193  140.0021  143.6440 H   0  0  0  0  0  0  0  0  0  0  0  0  # atno 7974 bound_to 7965
  154.6452  140.0586  156.9892 H   0  0  0  0  0  0  0  0  0  0  0  0  # atno 8008 bound_to 7997
  155.1456  140.3269  155.4424 H   0  0  0  0  0  0  0  0  0  0  0  0  # atno 8009 bound_to 7997
  156.2550  140.1956  156.6569 H   0  0  0  0  0  0  0  0  0  0  0  0  # atno 8010 bound_to 7997
  140.7255  143.3886  151.1470 H   0  0  0  0  0  0  0  0  0  0  0  0  # atno 10167 bound_to 10162
  157.3967  131.1011  151.0592 H   0  0  0  0  0  0  0  0  0  0  0  0  # atno 10718 bound_to 10713
  154.8612  135.4245  154.2270 H   0  0  0  0  0  0  0  0  0  0  0  0  # atno 10763 bound_to 10752
  153.3263  135.6985  153.6992 H   0  0  0  0  0  0  0  0  0  0  0  0  # atno 10764 bound_to 10752
  153.6027  135.3534  155.2924 H   0  0  0  0  0  0  0  0  0  0  0  0  # atno 10765 bound_to 10752
  140.4735  134.6143  157.4891 H   0  0  0  0  0  0  0  0  0  0  0  0  # atno 11005 bound_to 11000
  146.0327  139.3349  143.0745 LP  0  0  0  0  0  0  0  0  0  0  0  0  # atno 17320 bound_to 7965
  145.8433  140.9569  143.0788 LP  0  0  0  0  0  0  0  0  0  0  0  0  # atno 17321 bound_to 7965
  139.7488  143.8811  152.3071 LP  0  0  0  0  0  0  0  0  0  0  0  0  # atno 17342 bound_to 10162
  139.8657  144.7094  150.9046 LP  0  0  0  0  0  0  0  0  0  0  0  0  # atno 17343 bound_to 10162
  157.1606  130.6224  149.5609 LP  0  0  0  0  0  0  0  0  0  0  0  0  # atno 17370 bound_to 10713
  155.9812  130.4818  150.6816 LP  0  0  0  0  0  0  0  0  0  0  0  0  # atno 17371 bound_to 10713
  139.9870  134.7045  155.9756 LP  0  0  0  0  0  0  0  0  0  0  0  0  # atno 17394 bound_to 11000
  141.1566  133.6542  156.4180 LP  0  0  0  0  0  0  0  0  0  0  0  0  # atno 17395 bound_to 11000

$$$$
