AV-unprocessed.smi:2889|AV-procd|sdf|11111|dock3
  -GOLD-   2272015573D 1   1.00000     0.00000
 Structure written by MMmdl.
 36 37  0  0  0  0  0  0  0  0  1 V2000
  154.3957  140.7208  161.0901 C   0  0  0  0  0  0  0  0  0  0  0  0
  153.6178  140.4020  159.4830 S   0  0  0  0  0  0  0  0  0  0  0  0
  152.5173  141.8452  159.3249 C   0  0  1  0  0  0  0  0  0  0  0  0
  153.3251  143.1345  159.5658 C   0  0  0  0  0  0  0  0  0  0  0  0
  152.4601  144.3935  159.4036 C   0  0  0  0  0  0  0  0  0  0  0  0
  151.7991  144.4310  158.0188 C   0  0  0  0  0  0  0  0  0  0  0  0
  150.9712  143.1622  157.7711 C   0  0  0  0  0  0  0  0  0  0  0  0
  151.8190  141.8871  157.9445 C   0  0  2  0  0  0  0  0  0  0  0  0
  150.9549  140.7175  157.7742 N   0  0  0  0  0  0  0  0  0  0  0  0
  150.5776  140.1888  156.1764 S   0  0  0  0  0  0  0  0  0  0  0  0
  151.8459  139.9959  155.4556 O   0  0  0  0  0  0  0  0  0  0  0  0
  149.6210  139.0795  156.3084 O   0  0  0  0  0  0  0  0  0  0  0  0
  149.7017  141.6542  155.4770 C   0  0  0  0  0  0  0  0  0  0  0  0
  148.3243  141.2633  155.0177 C   0  0  0  0  0  0  0  0  0  0  0  0
  147.9548  140.2511  154.0885 C   0  0  0  0  0  0  0  0  0  0  0  0
  146.5927  140.3319  154.0533 C   0  0  0  0  0  0  0  0  0  0  0  0
  146.1537  141.3125  154.8816 O   0  0  0  0  0  0  0  0  0  0  0  0
  147.2665  141.9025  155.4915 N   0  0  0  0  0  0  0  0  0  0  0  0
  155.1292  139.9448  161.3077 H   0  0  0  0  0  0  0  0  0  0  0  0
  153.6563  140.7234  161.8900 H   0  0  0  0  0  0  0  0  0  0  0  0
  154.9064  141.6837  161.0830 H   0  0  0  0  0  0  0  0  0  0  0  0
  151.7603  141.7778  160.1076 H   0  0  0  0  0  0  0  0  0  0  0  0
  153.7621  143.1183  160.5647 H   0  0  0  0  0  0  0  0  0  0  0  0
  154.1605  143.1798  158.8657 H   0  0  0  0  0  0  0  0  0  0  0  0
  151.6929  144.4145  160.1784 H   0  0  0  0  0  0  0  0  0  0  0  0
  153.0710  145.2849  159.5479 H   0  0  0  0  0  0  0  0  0  0  0  0
  151.1637  145.3130  157.9332 H   0  0  0  0  0  0  0  0  0  0  0  0
  152.5651  144.5247  157.2482 H   0  0  0  0  0  0  0  0  0  0  0  0
  150.1292  143.1418  158.4646 H   0  0  0  0  0  0  0  0  0  0  0  0
  150.5424  143.1941  156.7686 H   0  0  0  0  0  0  0  0  0  0  0  0
  152.5901  141.8708  157.1725 H   0  0  0  0  0  0  0  0  0  0  0  0
  151.2828  139.9400  158.3466 H   0  0  0  0  0  0  0  0  0  0  0  0
  149.6490  142.4122  156.2591 H   0  0  0  0  0  0  0  0  0  0  0  0
  150.2971  142.0652  154.6623 H   0  0  0  0  0  0  0  0  0  0  0  0
  148.5883  139.5698  153.5406 H   0  0  0  0  0  0  0  0  0  0  0  0
  145.8301  139.7889  153.5146 H   0  0  0  0  0  0  0  0  0  0  0  0
  1  2  1  0  0  0  0
  1 19  1  0  0  0  0
  1 20  1  0  0  0  0
  1 21  1  0  0  0  0
  2  3  1  0  0  0  0
  3  8  1  0  0  0  0
  3  4  1  0  0  0  0
  3 22  1  0  0  0  0
  4  5  1  0  0  0  0
  4 23  1  0  0  0  0
  4 24  1  0  0  0  0
  5  6  1  0  0  0  0
  5 25  1  0  0  0  0
  5 26  1  0  0  0  0
  6  7  1  0  0  0  0
  6 27  1  0  0  0  0
  6 28  1  0  0  0  0
  7  8  1  0  0  0  0
  7 29  1  0  0  0  0
  7 30  1  0  0  0  0
  8  9  1  0  0  0  0
  8 31  1  0  0  0  0
  9 10  1  0  0  0  0
  9 32  1  0  0  0  0
 10 11  2  0  0  0  0
 10 12  2  0  0  0  0
 10 13  1  0  0  0  0
 13 14  1  0  0  0  0
 13 33  1  0  0  0  0
 13 34  1  0  0  0  0
 14 18  2  0  0  0  0
 14 15  1  0  0  0  0
 15 16  2  0  0  0  0
 15 35  1  0  0  0  0
 16 17  1  0  0  0  0
 16 36  1  0  0  0  0
 17 18  1  0  0  0  0
M  END
> <s_m_source_file>
AV-unprocessed.smi

> <i_m_source_file_index>
2889

> <i_lp_mmshare_version>
43012

> <i_f3d_flags>
0

> <s_epik_input>
W0NIM11TW0NAQEhdMVtDSDJdW0NIMl1bQ0gyXVtDSDJdW0NASF0xW05IXVMoPU8pKD1PKVtDSDJdYzJbY0hdW2NIXW9uMg==

> <s_epik_cmdline>
J2VwaWtfcHl0aG9uJywgJy1waCcsICc3LjAnLCAnLXRuJywgJzgnLCAnLW1hJywgJzIwMCcsICctbWV0YWxfYmluZGluZycsICctaW1hZScsICc8aW5maWxlLm1hZT4nLCAnLW9tYWUnLCAnPG91dGZpbGUubWFlPic=

> <r_lp_tautomer_probability>
1

> <r_epik_Ionization_Penalty>
0.000229547

> <r_epik_Ionization_Penalty_Charging>
0

> <r_epik_Ionization_Penalty_Neutral>
0.000229547

> <r_epik_State_Penalty>
-0

> <r_epik_Charging_Adjusted_Penalty>
0

> <i_epik_Tot_Q>
0

> <i_epik_Tot_abs_Q>
0

> <r_epik_Metal_State_Penalty>
0.145979

> <b_epik_Metal_Only>
0

> <s_lp_Force_Field>
OPLS_2005

> <r_lp_Energy>
3.91212

> <b_lp_Chiralities_Consistent>
1

> <s_lp_Variant>
AV-unprocessed.smi:2889-4

> <Gold.Version>
5.8.1

> <Gold.Id.Protein>
6NUR|6NUR_protein|mol2

> <Gold.PLP.Fitness>
41.5996

> <Gold.PLP.PLP>
-36.7057

> <Gold.PLP.part.hbond>
-1.0000

> <Gold.PLP.part.metal>
0.0000

> <Gold.PLP.part.buried>
-2.9575

> <Gold.PLP.part.nonpolar>
-33.0534

> <Gold.PLP.part.repulsive>
0.5181

> <Gold.PLP.ligand.clash>
0.0000

> <Gold.PLP.ligand.torsion>
0.3593

> <Gold.PLP.Chemscore.Hbond>
0.8160

> <Gold.PLP.Chemscore.CHOScore>
1.0000

> <Gold.PLP.Chemscore.Metal>
0.0000

> <Gold.Chemscore.Hbonds>
donor molecule, donor type, donor heavy atom, donor atom, acceptor molecule, acceptor atom, score
      P1  H  7989  7998       L1    11  0.63
      L1  C    16    36       P1 10175  1.00

> <Gold.PLP.Chemscore.Internal.Correction>
0.1643

> <Gold.Rescore>
     Score         DG    S(hbond)    S(metal)    S(lipo)     H(rot)  DE(clash)    DE(int)     intcor
     15.09     -16.67       0.88        0.00     109.95       1.81       0.07       1.51       ----

> <Gold.Chemscore.Fitness>
15.0859

> <Gold.Chemscore.DG>
-16.6683

> <Gold.Chemscore.ZeroCoef>
-5.4800

> <Gold.Chemscore.Hbond>
0.8823

> <Gold.Chemscore.Metal>
0.0000

> <Gold.Chemscore.Lipo>
109.9499

> <Gold.Chemscore.Internal_Hbond>
0.0000

> <Gold.Chemscore.DEClash>
0.0730

> <Gold.Chemscore.DEInternal>
1.5093

> <Gold.Chemscore.Rot>
1.8058

> <Gold.Chemscore.Internal.Correction>
   9.000000E+99

> <Gold.Chemscore.Hbonds>
donor molecule, donor type, donor heavy atom, donor atom, acceptor molecule, acceptor atom, score
      P1  H  7989  7998       L1    11  0.43

> <Gold.Chemscore.Hbond.Weighted>
-2.9469

> <Gold.Chemscore.Metal.Weighted>
-0.0000

> <Gold.Chemscore.Lipo.Weighted>
-12.8641

> <Gold.Chemscore.Internal_Hbond.Weighted>
0.0000

> <Gold.Chemscore.DEClash.Weighted>
0.0730

> <Gold.Chemscore.DEInternal.Weighted>
1.5093

> <Gold.Chemscore.Rot.Weighted>
4.6228

> <Gold.Chemscore.Internal.Correction.Weighted>
   9.000000E+99

> <Gold.Protein.RotatedTorsions>
[ 6907 6896 6895 6894 ] final   52.23 input  -60.11 | X-H torsion
[ 7974 7965 7964 7962 ] final  116.56 input  175.53 | X-H torsion
[ 8008 7997 7996 7995 ] final   86.60 input   59.86 | X-H torsion
[ 10167 10162 10161 10158 ] final  113.57 input  -65.29 | X-H torsion
[ 10718 10713 10712 10709 ] final -171.88 input   66.30 | X-H torsion
[ 10763 10752 10751 10750 ] final   85.53 input  -60.55 | X-H torsion
[ 11005 11000 10999 10996 ] final  -74.83 input  -57.11 | X-H torsion

> <Gold.Protein.ActiveResidues>
 VAL166  LYS551  ARG553  GLY616  TRP617  ASP618  TYR619  PRO620  LYS621  CYS622 
 ASP623  PHE694  ASN695  SER759  ASP760  ASP761  ALA762  ILE779  LEU786  VAL792 
 PHE793  MET794  SER795  GLU796  ALA797  LYS798  CYS799  TRP800  GLU811  SER814 

> <Gold.Protein.RotatedAtoms>
  152.3210  134.7380  160.0313 H   0  0  0  0  0  0  0  0  0  0  0  0  # atno 6907 bound_to 6896
  151.7828  133.3346  159.3484 H   0  0  0  0  0  0  0  0  0  0  0  0  # atno 6908 bound_to 6896
  150.7370  134.5846  159.6000 H   0  0  0  0  0  0  0  0  0  0  0  0  # atno 6909 bound_to 6896
  145.1781  139.3065  143.4432 H   0  0  0  0  0  0  0  0  0  0  0  0  # atno 7974 bound_to 7965
  155.9648  140.3390  155.6522 H   0  0  0  0  0  0  0  0  0  0  0  0  # atno 8008 bound_to 7997
  155.6751  140.0731  157.2524 H   0  0  0  0  0  0  0  0  0  0  0  0  # atno 8009 bound_to 7997
  154.4152  140.1684  156.1909 H   0  0  0  0  0  0  0  0  0  0  0  0  # atno 8010 bound_to 7997
  139.6451  144.7126  151.2158 H   0  0  0  0  0  0  0  0  0  0  0  0  # atno 10167 bound_to 10162
  156.7474  130.9365  151.3113 H   0  0  0  0  0  0  0  0  0  0  0  0  # atno 10718 bound_to 10713
  153.1484  135.4614  154.9600 H   0  0  0  0  0  0  0  0  0  0  0  0  # atno 10763 bound_to 10752
  154.7805  135.3187  154.8003 H   0  0  0  0  0  0  0  0  0  0  0  0  # atno 10764 bound_to 10752
  153.8513  135.6921  153.4846 H   0  0  0  0  0  0  0  0  0  0  0  0  # atno 10765 bound_to 10752
  141.1639  133.6925  156.7424 H   0  0  0  0  0  0  0  0  0  0  0  0  # atno 11005 bound_to 11000
  146.3458  140.1950  142.8589 LP  0  0  0  0  0  0  0  0  0  0  0  0  # atno 17320 bound_to 7965
  145.0164  140.8757  143.5193 LP  0  0  0  0  0  0  0  0  0  0  0  0  # atno 17321 bound_to 7965
  140.7511  143.6244  150.8482 LP  0  0  0  0  0  0  0  0  0  0  0  0  # atno 17342 bound_to 10162
  139.9886  143.5872  152.2918 LP  0  0  0  0  0  0  0  0  0  0  0  0  # atno 17343 bound_to 10162
  157.6792  130.9123  150.0225 LP  0  0  0  0  0  0  0  0  0  0  0  0  # atno 17370 bound_to 10713
  156.1424  130.3642  149.9562 LP  0  0  0  0  0  0  0  0  0  0  0  0  # atno 17371 bound_to 10713
  140.2664  134.8426  157.3807 LP  0  0  0  0  0  0  0  0  0  0  0  0  # atno 17394 bound_to 11000
  140.1562  134.4786  155.7926 LP  0  0  0  0  0  0  0  0  0  0  0  0  # atno 17395 bound_to 11000

$$$$
