AV-unprocessed.smi:249|AV-procd|sdf|1915|dock9
  -GOLD-   2262021 13D 1   1.00000     0.00000
 Structure written by MMmdl.
 64 67  0  0  0  0  0  0  0  0  2 V2000
  146.2125  128.7902  151.6630 C   0  0  0  0  0  0  0  0  0  0  0  0
  146.3097  129.9931  152.6153 C   0  0  0  0  0  0  0  0  0  0  0  0
  146.7012  131.2589  151.9297 N   0  3  1  0  0  0  0  0  0  0  0  0
  145.6216  131.7447  151.0222 C   0  0  0  0  0  0  0  0  0  0  0  0
  146.0346  133.0046  150.2453 C   0  0  0  0  0  0  0  0  0  0  0  0
  146.4210  134.1495  151.1965 C   0  0  1  0  0  0  0  0  0  0  0  0
  145.2690  134.6565  151.9603 N   0  0  0  0  0  0  0  0  0  0  0  0
  144.0317  134.8998  151.2255 C   0  0  0  0  0  0  0  0  0  0  0  0
  145.5317  135.6884  152.7929 C   0  0  0  0  0  0  0  0  0  0  0  0
  145.2773  135.5033  154.1113 N   0  0  0  0  0  0  0  0  0  0  0  0
  145.5267  136.4861  154.9821 C   0  0  0  0  0  0  0  0  0  0  0  0
  146.0189  137.7048  154.7477 N   0  0  0  0  0  0  0  0  0  0  0  0
  146.2672  137.8938  153.4196 C   0  0  0  0  0  0  0  0  0  0  0  0
  146.0541  136.9460  152.3804 C   0  0  0  0  0  0  0  0  0  0  0  0
  146.4222  137.4905  151.1561 N   0  0  0  0  0  0  0  0  0  0  0  0
  146.8328  138.6932  151.4552 C   0  0  0  0  0  0  0  0  0  0  0  0
  146.7795  139.0157  152.7923 N   0  0  0  0  0  0  0  0  0  0  0  0
  147.1710  140.2789  153.3941 C   0  0  0  0  0  0  0  0  0  0  0  0
  148.6229  140.2770  153.9355 C   0  0  2  0  0  0  0  0  0  0  0  0
  149.0386  138.8618  154.4134 C   0  0  0  0  0  0  0  0  0  0  0  0
  149.9682  138.2648  153.5341 O   0  0  0  0  0  0  0  0  0  0  0  0
  148.7792  141.3474  155.0507 C   0  0  2  0  0  0  0  0  0  0  0  0
  150.1792  141.4371  155.6530 C   0  0  0  0  0  0  0  0  0  0  0  0
  149.9552  141.8968  157.0968 C   0  0  0  0  0  0  0  0  0  0  0  0
  148.5469  141.9800  157.2646 O   0  0  0  0  0  0  0  0  0  0  0  0
  147.9369  141.1299  156.3090 C   0  0  0  0  0  0  0  0  0  0  0  0
  147.5651  133.6105  152.0823 C   0  0  0  0  0  0  0  0  0  0  0  0
  147.1731  132.3338  152.8634 C   0  0  2  0  0  0  0  0  0  0  0  0
  148.3776  131.9018  153.7259 C   0  0  0  0  0  0  0  0  0  0  0  0
  146.0665  127.8696  152.2287 H   0  0  0  0  0  0  0  0  0  0  0  0
  147.1261  128.6740  151.0790 H   0  0  0  0  0  0  0  0  0  0  0  0
  145.3736  128.8703  150.9728 H   0  0  0  0  0  0  0  0  0  0  0  0
  145.3690  130.1346  153.1494 H   0  0  0  0  0  0  0  0  0  0  0  0
  147.0481  129.7174  153.3638 H   0  0  0  0  0  0  0  0  0  0  0  0
  145.3649  130.9783  150.2931 H   0  0  0  0  0  0  0  0  0  0  0  0
  144.7176  131.9389  151.6019 H   0  0  0  0  0  0  0  0  0  0  0  0
  146.8847  132.7650  149.6050 H   0  0  0  0  0  0  0  0  0  0  0  0
  145.2377  133.3082  149.5662 H   0  0  0  0  0  0  0  0  0  0  0  0
  146.8060  134.9733  150.5944 H   0  0  0  0  0  0  0  0  0  0  0  0
  143.3316  135.5140  151.7949 H   0  0  0  0  0  0  0  0  0  0  0  0
  143.5303  133.9568  151.0086 H   0  0  0  0  0  0  0  0  0  0  0  0
  144.2353  135.4054  150.2810 H   0  0  0  0  0  0  0  0  0  0  0  0
  145.2998  136.2646  156.0147 H   0  0  0  0  0  0  0  0  0  0  0  0
  147.1913  139.3827  150.7044 H   0  0  0  0  0  0  0  0  0  0  0  0
  147.0398  141.0474  152.6327 H   0  0  0  0  0  0  0  0  0  0  0  0
  146.4717  140.5197  154.1958 H   0  0  0  0  0  0  0  0  0  0  0  0
  149.2752  140.5537  153.1055 H   0  0  0  0  0  0  0  0  0  0  0  0
  149.4559  138.8996  155.4201 H   0  0  0  0  0  0  0  0  0  0  0  0
  148.1869  138.1844  154.4537 H   0  0  0  0  0  0  0  0  0  0  0  0
  149.4921  137.7858  152.8727 H   0  0  0  0  0  0  0  0  0  0  0  0
  148.5218  142.3268  154.6438 H   0  0  0  0  0  0  0  0  0  0  0  0
  150.6673  140.4616  155.6539 H   0  0  0  0  0  0  0  0  0  0  0  0
  150.8163  142.1277  155.0993 H   0  0  0  0  0  0  0  0  0  0  0  0
  150.3681  141.1734  157.8011 H   0  0  0  0  0  0  0  0  0  0  0  0
  150.4141  142.8652  157.2968 H   0  0  0  0  0  0  0  0  0  0  0  0
  146.8890  141.3965  156.1708 H   0  0  0  0  0  0  0  0  0  0  0  0
  147.9918  140.0949  156.6512 H   0  0  0  0  0  0  0  0  0  0  0  0
  148.4222  133.3853  151.4455 H   0  0  0  0  0  0  0  0  0  0  0  0
  147.9196  134.3813  152.7674 H   0  0  0  0  0  0  0  0  0  0  0  0
  146.3501  132.5776  153.5368 H   0  0  0  0  0  0  0  0  0  0  0  0
  148.7941  132.7531  154.2653 H   0  0  0  0  0  0  0  0  0  0  0  0
  149.1756  131.4806  153.1136 H   0  0  0  0  0  0  0  0  0  0  0  0
  148.1075  131.1715  154.4876 H   0  0  0  0  0  0  0  0  0  0  0  0
  147.4920  131.0339  151.3433 H   0  0  0  0  0  0  0  0  0  0  0  0
  1  2  1  0  0  0  0
  1 30  1  0  0  0  0
  1 31  1  0  0  0  0
  1 32  1  0  0  0  0
  2  3  1  0  0  0  0
  2 33  1  0  0  0  0
  2 34  1  0  0  0  0
  3 28  1  0  0  0  0
  3  4  1  0  0  0  0
  3 64  1  0  0  0  0
  4  5  1  0  0  0  0
  4 35  1  0  0  0  0
  4 36  1  0  0  0  0
  5  6  1  0  0  0  0
  5 37  1  0  0  0  0
  5 38  1  0  0  0  0
  6  7  1  0  0  0  0
  6 27  1  0  0  0  0
  6 39  1  0  0  0  0
  7  8  1  0  0  0  0
  7  9  1  0  0  0  0
  8 40  1  0  0  0  0
  8 41  1  0  0  0  0
  8 42  1  0  0  0  0
  9 14  1  0  0  0  0
  9 10  2  0  0  0  0
 10 11  1  0  0  0  0
 11 12  2  0  0  0  0
 11 43  1  0  0  0  0
 12 13  1  0  0  0  0
 13 17  1  0  0  0  0
 13 14  2  0  0  0  0
 14 15  1  0  0  0  0
 15 16  2  0  0  0  0
 16 17  1  0  0  0  0
 16 44  1  0  0  0  0
 17 18  1  0  0  0  0
 18 19  1  0  0  0  0
 18 45  1  0  0  0  0
 18 46  1  0  0  0  0
 19 20  1  0  0  0  0
 19 22  1  0  0  0  0
 19 47  1  0  0  0  0
 20 21  1  0  0  0  0
 20 48  1  0  0  0  0
 20 49  1  0  0  0  0
 21 50  1  0  0  0  0
 22 26  1  0  0  0  0
 22 23  1  0  0  0  0
 22 51  1  0  0  0  0
 23 24  1  0  0  0  0
 23 52  1  0  0  0  0
 23 53  1  0  0  0  0
 24 25  1  0  0  0  0
 24 54  1  0  0  0  0
 24 55  1  0  0  0  0
 25 26  1  0  0  0  0
 26 56  1  0  0  0  0
 26 57  1  0  0  0  0
 27 28  1  0  0  0  0
 27 58  1  0  0  0  0
 27 59  1  0  0  0  0
 28 29  1  0  0  0  0
 28 60  1  0  0  0  0
 29 61  1  0  0  0  0
 29 62  1  0  0  0  0
 29 63  1  0  0  0  0
M  CHG  1   3   1
M  END
> <s_m_source_file>
AV-unprocessed.smi

> <i_m_source_file_index>
249

> <i_lp_mmshare_version>
43012

> <i_f3d_flags>
0

> <s_epik_input>
W0NIM11bQ0gyXU4xW0NIMl1bQ0gyXVtDQEhdKFtDSDJdW0NASF0xW0NIM10pTihbQ0gzXSljKG5bY0hdbjIpYyhjMjMpbltjSF1uM1tDSDJdW0NASF0oW0NIMl1bT0hdKVtDQEBIXTRbQ0gyXVtDSDJdT1tDSDJdNA==

> <s_epik_cmdline>
J2VwaWtfcHl0aG9uJywgJy1waCcsICc3LjAnLCAnLXRuJywgJzgnLCAnLW1hJywgJzIwMCcsICctbWV0YWxfYmluZGluZycsICctaW1hZScsICc8aW5maWxlLm1hZT4nLCAnLW9tYWUnLCAnPG91dGZpbGUubWFlPic=

> <r_lp_tautomer_probability>
1

> <r_epik_Ionization_Penalty>
0.00294688

> <r_epik_Ionization_Penalty_Charging>
0.00169971

> <r_epik_Ionization_Penalty_Neutral>
0.00124717

> <r_epik_State_Penalty>
-0

> <r_epik_Charging_Adjusted_Penalty>
0.00169971

> <i_epik_Tot_Q>
1

> <i_epik_Tot_abs_Q>
1

> <r_epik_Metal_State_Penalty>
-0

> <b_epik_Metal_Only>
0

> <s_lp_Force_Field>
OPLS_2005

> <r_lp_Energy>
57.0606

> <b_lp_Chiralities_Consistent>
1

> <s_lp_Variant>
AV-unprocessed.smi:249-18

> <Gold.Version>
5.8.1

> <Gold.Id.Protein>
6NUR|6NUR_protein|mol2

> <Gold.PLP.Fitness>
49.2457

> <Gold.PLP.PLP>
-44.2741

> <Gold.PLP.part.hbond>
-3.6915

> <Gold.PLP.part.metal>
0.0000

> <Gold.PLP.part.buried>
-0.4728

> <Gold.PLP.part.nonpolar>
-42.5967

> <Gold.PLP.part.repulsive>
2.5692

> <Gold.PLP.ligand.clash>
0.0000

> <Gold.PLP.ligand.torsion>
1.7620

> <Gold.PLP.Chemscore.Hbond>
2.0000

> <Gold.PLP.Chemscore.CHOScore>
0.6332

> <Gold.PLP.Chemscore.Metal>
0.0000

> <Gold.Chemscore.Hbonds>
donor molecule, donor type, donor heavy atom, donor atom, acceptor molecule, acceptor atom, score
      L1  H     3    64       P1 10747  1.00
      L1  H    21    50       P1  7948  1.00
      L1  C    16    44       P1  7957  0.64

> <Gold.PLP.Chemscore.Internal.Correction>
0.5960

> <Gold.Rescore>
     Score         DG    S(hbond)    S(metal)    S(lipo)     H(rot)  DE(clash)    DE(int)     intcor
     14.12     -17.48       1.94        0.00     110.65       2.90       1.62       1.74       ----

> <Gold.Chemscore.Fitness>
14.1179

> <Gold.Chemscore.DG>
-17.4759

> <Gold.Chemscore.ZeroCoef>
-5.4800

> <Gold.Chemscore.Hbond>
1.9387

> <Gold.Chemscore.Metal>
0.0000

> <Gold.Chemscore.Lipo>
110.6516

> <Gold.Chemscore.Internal_Hbond>
0.0000

> <Gold.Chemscore.DEClash>
1.6156

> <Gold.Chemscore.DEInternal>
1.7424

> <Gold.Chemscore.Rot>
2.9006

> <Gold.Chemscore.Internal.Correction>
   9.000000E+99

> <Gold.Chemscore.Hbonds>
donor molecule, donor type, donor heavy atom, donor atom, acceptor molecule, acceptor atom, score
      L1  H     3    64       P1 10747  1.00
      L1  H    21    50       P1  7948  0.81

> <Gold.Chemscore.Hbond.Weighted>
-6.4753

> <Gold.Chemscore.Metal.Weighted>
-0.0000

> <Gold.Chemscore.Lipo.Weighted>
-12.9462

> <Gold.Chemscore.Internal_Hbond.Weighted>
0.0000

> <Gold.Chemscore.DEClash.Weighted>
1.6156

> <Gold.Chemscore.DEInternal.Weighted>
1.7424

> <Gold.Chemscore.Rot.Weighted>
7.4256

> <Gold.Chemscore.Internal.Correction.Weighted>
   9.000000E+99

> <Gold.Protein.RotatedTorsions>
[ 6907 6896 6895 6894 ] final -174.85 input  -60.11 | X-H torsion
[ 7974 7965 7964 7962 ] final  -81.81 input  175.53 | X-H torsion
[ 8008 7997 7996 7995 ] final  -43.58 input   59.86 | X-H torsion
[ 10167 10162 10161 10158 ] final   -1.33 input  -65.29 | X-H torsion
[ 10718 10713 10712 10709 ] final   94.14 input   66.30 | X-H torsion
[ 10763 10752 10751 10750 ] final  150.23 input  -60.55 | X-H torsion
[ 11005 11000 10999 10996 ] final -114.85 input  -57.11 | X-H torsion

> <Gold.Protein.ActiveResidues>
 VAL166  LYS551  ARG553  GLY616  TRP617  ASP618  TYR619  PRO620  LYS621  CYS622 
 ASP623  PHE694  ASN695  SER759  ASP760  ASP761  ALA762  ILE779  LEU786  VAL792 
 PHE793  MET794  SER795  GLU796  ALA797  LYS798  CYS799  TRP800  GLU811  SER814 

> <Gold.Protein.RotatedAtoms>
  151.5790  133.3380  159.3004 H   0  0  0  0  0  0  0  0  0  0  0  0  # atno 6907 bound_to 6896
  150.8324  134.7586  159.6876 H   0  0  0  0  0  0  0  0  0  0  0  0  # atno 6908 bound_to 6896
  152.4406  134.5606  159.9944 H   0  0  0  0  0  0  0  0  0  0  0  0  # atno 6909 bound_to 6896
  145.5416  140.9509  143.1548 H   0  0  0  0  0  0  0  0  0  0  0  0  # atno 7974 bound_to 7965
  154.3997  140.1444  156.3543 H   0  0  0  0  0  0  0  0  0  0  0  0  # atno 8008 bound_to 7997
  155.8240  140.3468  155.5511 H   0  0  0  0  0  0  0  0  0  0  0  0  # atno 8009 bound_to 7997
  155.8258  140.0905  157.1813 H   0  0  0  0  0  0  0  0  0  0  0  0  # atno 8010 bound_to 7997
  140.6805  143.6788  150.8123 H   0  0  0  0  0  0  0  0  0  0  0  0  # atno 10167 bound_to 10162
  157.6950  131.0502  150.4141 H   0  0  0  0  0  0  0  0  0  0  0  0  # atno 10718 bound_to 10713
  154.0840  135.2857  155.3284 H   0  0  0  0  0  0  0  0  0  0  0  0  # atno 10763 bound_to 10752
  154.6664  135.5315  153.8086 H   0  0  0  0  0  0  0  0  0  0  0  0  # atno 10764 bound_to 10752
  153.0438  135.6547  154.1014 H   0  0  0  0  0  0  0  0  0  0  0  0  # atno 10765 bound_to 10752
  141.0525  133.9664  157.2811 H   0  0  0  0  0  0  0  0  0  0  0  0  # atno 11005 bound_to 11000
  144.7574  139.7041  143.7248 LP  0  0  0  0  0  0  0  0  0  0  0  0  # atno 17320 bound_to 7965
  146.1977  139.5253  142.9764 LP  0  0  0  0  0  0  0  0  0  0  0  0  # atno 17321 bound_to 7965
  140.0488  143.5271  152.2683 LP  0  0  0  0  0  0  0  0  0  0  0  0  # atno 17342 bound_to 10162
  139.6125  144.7612  151.2920 LP  0  0  0  0  0  0  0  0  0  0  0  0  # atno 17343 bound_to 10162
  156.4522  130.4014  149.6629 LP  0  0  0  0  0  0  0  0  0  0  0  0  # atno 17370 bound_to 10713
  156.3774  130.7561  151.2551 LP  0  0  0  0  0  0  0  0  0  0  0  0  # atno 17371 bound_to 10713
  139.9362  135.0196  156.8564 LP  0  0  0  0  0  0  0  0  0  0  0  0  # atno 17394 bound_to 11000
  140.6027  134.0156  155.7544 LP  0  0  0  0  0  0  0  0  0  0  0  0  # atno 17395 bound_to 11000

$$$$
