AV-unprocessed.smi:83|AV-procd|sdf|804|dock10
  -GOLD-   2262017193D 1   1.00000     0.00000
 Structure written by MMmdl.
 56 59  0  0  0  0  0  0  0  0  1 V2000
  151.6853  145.1413  160.3268 C   0  0  0  0  0  0  0  0  0  0  0  0
  152.2241  143.8681  160.9817 C   0  0  0  0  0  0  0  0  0  0  0  0
  152.3148  143.8215  162.2081 O   0  0  0  0  0  0  0  0  0  0  0  0
  152.5847  142.8384  160.1893 N   0  0  0  0  0  0  0  0  0  0  0  0
  153.1199  141.5749  160.6896 C   0  0  0  0  0  0  0  0  0  0  0  0
  153.4429  140.7460  159.4422 C   0  0  0  0  0  0  0  0  0  0  0  0
  152.5049  141.2952  158.3677 C   0  0  1  0  0  0  0  0  0  0  0  0
  151.1390  140.5678  158.4336 C   0  0  0  0  0  0  0  0  0  0  0  0
  150.5172  140.3318  157.1293 N   0  0  0  0  0  0  0  0  0  0  0  0
  150.8562  141.2619  156.0539 C   0  0  0  0  0  0  0  0  0  0  0  0
  149.3818  139.5798  157.0142 C   0  0  0  0  0  0  0  0  0  0  0  0
  148.7895  139.1340  158.1560 N   0  0  0  0  0  0  0  0  0  0  0  0
  147.7067  138.3548  158.1131 C   0  0  0  0  0  0  0  0  0  0  0  0
  147.0523  137.8977  157.0467 N   0  0  0  0  0  0  0  0  0  0  0  0
  147.6209  138.3466  155.8929 C   0  0  0  0  0  0  0  0  0  0  0  0
  148.7668  139.1896  155.7817 C   0  0  0  0  0  0  0  0  0  0  0  0
  149.0201  139.4333  154.4346 N   0  0  0  0  0  0  0  0  0  0  0  0
  148.1047  138.7615  153.7948 C   0  0  0  0  0  0  0  0  0  0  0  0
  147.2234  138.0771  154.5954 N   0  0  0  0  0  0  0  0  0  0  0  0
  146.1158  137.2501  154.1510 C   0  0  0  0  0  0  0  0  0  0  0  0
  145.9058  137.3180  152.6257 C   0  0  2  0  0  0  0  0  0  0  0  0
  145.3258  138.5642  152.2899 O   0  0  0  0  0  0  0  0  0  0  0  0
  144.9942  136.1878  152.1132 C   0  0  1  0  0  0  0  0  0  0  0  0
  145.0540  135.9625  150.6025 C   0  0  0  0  0  0  0  0  0  0  0  0
  144.5482  134.5429  150.4860 C   0  0  0  0  0  0  0  0  0  0  0  0
  145.1451  133.8835  151.7274 C   0  0  0  0  0  0  0  0  0  0  0  0
  145.4004  134.9347  152.6562 O   0  0  0  0  0  0  0  0  0  0  0  0
  152.4565  142.7870  158.7353 C   0  0  0  0  0  0  0  0  0  0  0  0
  152.3843  145.5189  159.5806 H   0  0  0  0  0  0  0  0  0  0  0  0
  151.5348  145.9228  161.0719 H   0  0  0  0  0  0  0  0  0  0  0  0
  150.7271  144.9512  159.8442 H   0  0  0  0  0  0  0  0  0  0  0  0
  154.0040  141.7254  161.3106 H   0  0  0  0  0  0  0  0  0  0  0  0
  152.3597  141.0786  161.2945 H   0  0  0  0  0  0  0  0  0  0  0  0
  154.4772  140.9266  159.1461 H   0  0  0  0  0  0  0  0  0  0  0  0
  153.3339  139.6737  159.6083 H   0  0  0  0  0  0  0  0  0  0  0  0
  152.9352  141.1578  157.3751 H   0  0  0  0  0  0  0  0  0  0  0  0
  151.2994  139.5889  158.8863 H   0  0  0  0  0  0  0  0  0  0  0  0
  150.4704  141.0653  159.1275 H   0  0  0  0  0  0  0  0  0  0  0  0
  150.8744  140.7523  155.0898 H   0  0  0  0  0  0  0  0  0  0  0  0
  151.8422  141.6996  156.2122 H   0  0  0  0  0  0  0  0  0  0  0  0
  150.1321  142.0760  156.0053 H   0  0  0  0  0  0  0  0  0  0  0  0
  147.3131  138.0482  159.0711 H   0  0  0  0  0  0  0  0  0  0  0  0
  148.0475  138.7463  152.7161 H   0  0  0  0  0  0  0  0  0  0  0  0
  146.3187  136.2242  154.4604 H   0  0  0  0  0  0  0  0  0  0  0  0
  145.2116  137.5584  154.6773 H   0  0  0  0  0  0  0  0  0  0  0  0
  146.8735  137.2535  152.1264 H   0  0  0  0  0  0  0  0  0  0  0  0
  144.8685  138.4704  151.4682 H   0  0  0  0  0  0  0  0  0  0  0  0
  143.9596  136.3657  152.4124 H   0  0  0  0  0  0  0  0  0  0  0  0
  144.4513  136.6765  150.0403 H   0  0  0  0  0  0  0  0  0  0  0  0
  146.0824  136.0238  150.2436 H   0  0  0  0  0  0  0  0  0  0  0  0
  143.4591  134.5317  150.5422 H   0  0  0  0  0  0  0  0  0  0  0  0
  144.8472  134.0551  149.5580 H   0  0  0  0  0  0  0  0  0  0  0  0
  144.4751  133.1364  152.1533 H   0  0  0  0  0  0  0  0  0  0  0  0
  146.0900  133.3940  151.4898 H   0  0  0  0  0  0  0  0  0  0  0  0
  151.5697  143.2915  158.3602 H   0  0  0  0  0  0  0  0  0  0  0  0
  153.3159  143.3024  158.3044 H   0  0  0  0  0  0  0  0  0  0  0  0
  1  2  1  0  0  0  0
  1 29  1  0  0  0  0
  1 30  1  0  0  0  0
  1 31  1  0  0  0  0
  2  3  2  0  0  0  0
  2  4  1  0  0  0  0
  4 28  1  0  0  0  0
  4  5  1  0  0  0  0
  5  6  1  0  0  0  0
  5 32  1  0  0  0  0
  5 33  1  0  0  0  0
  6  7  1  0  0  0  0
  6 34  1  0  0  0  0
  6 35  1  0  0  0  0
  7  8  1  0  0  0  0
  7 28  1  0  0  0  0
  7 36  1  0  0  0  0
  8  9  1  0  0  0  0
  8 37  1  0  0  0  0
  8 38  1  0  0  0  0
  9 10  1  0  0  0  0
  9 11  1  0  0  0  0
 10 39  1  0  0  0  0
 10 40  1  0  0  0  0
 10 41  1  0  0  0  0
 11 16  1  0  0  0  0
 11 12  2  0  0  0  0
 12 13  1  0  0  0  0
 13 14  2  0  0  0  0
 13 42  1  0  0  0  0
 14 15  1  0  0  0  0
 15 19  1  0  0  0  0
 15 16  2  0  0  0  0
 16 17  1  0  0  0  0
 17 18  2  0  0  0  0
 18 19  1  0  0  0  0
 18 43  1  0  0  0  0
 19 20  1  0  0  0  0
 20 21  1  0  0  0  0
 20 44  1  0  0  0  0
 20 45  1  0  0  0  0
 21 22  1  0  0  0  0
 21 23  1  0  0  0  0
 21 46  1  0  0  0  0
 22 47  1  0  0  0  0
 23 27  1  0  0  0  0
 23 24  1  0  0  0  0
 23 48  1  0  0  0  0
 24 25  1  0  0  0  0
 24 49  1  0  0  0  0
 24 50  1  0  0  0  0
 25 26  1  0  0  0  0
 25 51  1  0  0  0  0
 25 52  1  0  0  0  0
 26 27  1  0  0  0  0
 26 53  1  0  0  0  0
 26 54  1  0  0  0  0
 28 55  1  0  0  0  0
 28 56  1  0  0  0  0
M  END
> <s_m_source_file>
AV-unprocessed.smi

> <i_m_source_file_index>
83

> <i_lp_mmshare_version>
43012

> <i_f3d_flags>
0

> <s_epik_input>
W0NIM11DKD1PKU4xW0NIMl1bQ0gyXVtDQEhdKFtDSDJdMSlbQ0gyXU4oW0NIM10pYyhuW2NIXW4yKWMoYzIzKW5bY0hdbjNbQ0gyXVtDQEhdKFtPSF0pW0NAQEhdNFtDSDJdW0NIMl1bQ0gyXU80

> <s_epik_cmdline>
J2VwaWtfcHl0aG9uJywgJy1waCcsICc3LjAnLCAnLXRuJywgJzgnLCAnLW1hJywgJzIwMCcsICctbWV0YWxfYmluZGluZycsICctaW1hZScsICc8aW5maWxlLm1hZT4nLCAnLW9tYWUnLCAnPG91dGZpbGUubWFlPic=

> <r_lp_tautomer_probability>
1

> <r_epik_Ionization_Penalty>
0.00109752

> <r_epik_Ionization_Penalty_Charging>
0

> <r_epik_Ionization_Penalty_Neutral>
0.00109752

> <r_epik_State_Penalty>
0.000634803

> <r_epik_Charging_Adjusted_Penalty>
0.000634803

> <i_epik_Tot_Q>
0

> <i_epik_Tot_abs_Q>
0

> <r_epik_Metal_State_Penalty>
-0

> <b_epik_Metal_Only>
0

> <s_lp_Force_Field>
OPLS_2005

> <r_lp_Energy>
53.0153

> <b_lp_Chiralities_Consistent>
1

> <s_lp_Variant>
AV-unprocessed.smi:83-5

> <Gold.Version>
5.8.1

> <Gold.Id.Protein>
6NUR|6NUR_protein|mol2

> <Gold.PLP.Fitness>
50.0209

> <Gold.PLP.PLP>
-44.4669

> <Gold.PLP.part.hbond>
-2.3326

> <Gold.PLP.part.metal>
0.0000

> <Gold.PLP.part.buried>
-4.1463

> <Gold.PLP.part.nonpolar>
-36.9604

> <Gold.PLP.part.repulsive>
0.4164

> <Gold.PLP.ligand.clash>
0.0000

> <Gold.PLP.ligand.torsion>
1.2424

> <Gold.PLP.Chemscore.Hbond>
1.0000

> <Gold.PLP.Chemscore.CHOScore>
1.5483

> <Gold.PLP.Chemscore.Metal>
0.0000

> <Gold.Chemscore.Hbonds>
donor molecule, donor type, donor heavy atom, donor atom, acceptor molecule, acceptor atom, score
      L1  H    22    47       P1 10171  1.00
      L1  C    18    43       P1  7948  0.21
      L1  C    18    43       P1  7957  0.90

> <Gold.PLP.Chemscore.Internal.Correction>
0.3940

> <Gold.Rescore>
     Score         DG    S(hbond)    S(metal)    S(lipo)     H(rot)  DE(clash)    DE(int)     intcor
     12.06     -13.21       1.00        0.00      94.90       2.62       0.11       1.04       ----

> <Gold.Chemscore.Fitness>
12.0648

> <Gold.Chemscore.DG>
-13.2131

> <Gold.Chemscore.ZeroCoef>
-5.4800

> <Gold.Chemscore.Hbond>
0.9954

> <Gold.Chemscore.Metal>
0.0000

> <Gold.Chemscore.Lipo>
94.9017

> <Gold.Chemscore.Internal_Hbond>
0.0000

> <Gold.Chemscore.DEClash>
0.1075

> <Gold.Chemscore.DEInternal>
1.0408

> <Gold.Chemscore.Rot>
2.6152

> <Gold.Chemscore.Internal.Correction>
   9.000000E+99

> <Gold.Chemscore.Hbonds>
donor molecule, donor type, donor heavy atom, donor atom, acceptor molecule, acceptor atom, score
      L1  H    22    47       P1 10171  0.99

> <Gold.Chemscore.Hbond.Weighted>
-3.3245

> <Gold.Chemscore.Metal.Weighted>
-0.0000

> <Gold.Chemscore.Lipo.Weighted>
-11.1035

> <Gold.Chemscore.Internal_Hbond.Weighted>
0.0000

> <Gold.Chemscore.DEClash.Weighted>
0.1075

> <Gold.Chemscore.DEInternal.Weighted>
1.0408

> <Gold.Chemscore.Rot.Weighted>
6.6949

> <Gold.Chemscore.Internal.Correction.Weighted>
   9.000000E+99

> <Gold.Protein.RotatedTorsions>
[ 6907 6896 6895 6894 ] final   81.32 input  -60.11 | X-H torsion
[ 7974 7965 7964 7962 ] final  -76.44 input  175.53 | X-H torsion
[ 8008 7997 7996 7995 ] final -128.04 input   59.86 | X-H torsion
[ 10167 10162 10161 10158 ] final  -97.83 input  -65.29 | X-H torsion
[ 10718 10713 10712 10709 ] final -111.57 input   66.30 | X-H torsion
[ 10763 10752 10751 10750 ] final -130.81 input  -60.55 | X-H torsion
[ 11005 11000 10999 10996 ] final  121.03 input  -57.11 | X-H torsion

> <Gold.Protein.ActiveResidues>
 VAL166  LYS551  ARG553  GLY616  TRP617  ASP618  TYR619  PRO620  LYS621  CYS622 
 ASP623  PHE694  ASN695  SER759  ASP760  ASP761  ALA762  ILE779  LEU786  VAL792 
 PHE793  MET794  SER795  GLU796  ALA797  LYS798  CYS799  TRP800  GLU811  SER814 

> <Gold.Protein.RotatedAtoms>
  152.5264  134.3222  159.9152 H   0  0  0  0  0  0  0  0  0  0  0  0  # atno 6907 bound_to 6896
  151.3171  133.4049  159.2659 H   0  0  0  0  0  0  0  0  0  0  0  0  # atno 6908 bound_to 6896
  150.9989  134.9323  159.8000 H   0  0  0  0  0  0  0  0  0  0  0  0  # atno 6909 bound_to 6896
  145.6129  140.9382  143.1180 H   0  0  0  0  0  0  0  0  0  0  0  0  # atno 7974 bound_to 7965
  155.2562  140.0434  157.2992 H   0  0  0  0  0  0  0  0  0  0  0  0  # atno 8008 bound_to 7997
  154.5739  140.2381  155.8121 H   0  0  0  0  0  0  0  0  0  0  0  0  # atno 8009 bound_to 7997
  156.2143  140.2989  155.9811 H   0  0  0  0  0  0  0  0  0  0  0  0  # atno 8010 bound_to 7997
  140.2794  143.3292  152.0457 H   0  0  0  0  0  0  0  0  0  0  0  0  # atno 10167 bound_to 10162
  156.0655  130.5874  150.8391 H   0  0  0  0  0  0  0  0  0  0  0  0  # atno 10718 bound_to 10713
  154.8754  135.3850  154.4144 H   0  0  0  0  0  0  0  0  0  0  0  0  # atno 10763 bound_to 10752
  153.4854  135.7030  153.5919 H   0  0  0  0  0  0  0  0  0  0  0  0  # atno 10764 bound_to 10752
  153.4316  135.3877  155.2141 H   0  0  0  0  0  0  0  0  0  0  0  0  # atno 10765 bound_to 10752
  139.9209  134.9637  156.7896 H   0  0  0  0  0  0  0  0  0  0  0  0  # atno 11005 bound_to 11000
  144.7262  139.7867  143.7364 LP  0  0  0  0  0  0  0  0  0  0  0  0  # atno 17320 bound_to 7965
  146.1491  139.4568  143.0060 LP  0  0  0  0  0  0  0  0  0  0  0  0  # atno 17321 bound_to 7965
  139.4967  144.6602  151.6481 LP  0  0  0  0  0  0  0  0  0  0  0  0  # atno 17342 bound_to 10162
  140.5825  143.9922  150.6276 LP  0  0  0  0  0  0  0  0  0  0  0  0  # atno 17343 bound_to 10162
  157.5693  131.0946  150.9442 LP  0  0  0  0  0  0  0  0  0  0  0  0  # atno 17370 bound_to 10713
  156.9662  130.5473  149.5288 LP  0  0  0  0  0  0  0  0  0  0  0  0  # atno 17371 bound_to 10713
  140.6477  133.9760  155.7739 LP  0  0  0  0  0  0  0  0  0  0  0  0  # atno 17394 bound_to 11000
  141.0729  134.0179  157.3500 LP  0  0  0  0  0  0  0  0  0  0  0  0  # atno 17395 bound_to 11000

$$$$
