#       Name:                AV-unprocessed.smi:346
#       Creating user name   scv26
#       Creation time:       Thu Mar 26 22:32:26 2020


#       File generated by GOLD software.
#

@<TRIPOS>MOLECULE
AV-unprocessed.smi:346
    38    39     1
SMALL
NO_CHARGES


@<TRIPOS>ATOM
      1 ****        -1.9308   3.3185   1.3893 C.3            1 S1                 0.0000
      2 ****        -1.4158   1.9989   1.3782 O.3            1 S1                 0.0000
      3 ****        -1.9512   1.2151   0.3244 C.3            1 S1                 0.0000
      4 ****        -1.3480  -0.1962   0.3604 C.3            1 S1                 0.0000
      5 ****         0.1168  -0.1817   0.2269 N.pl3          1 S1                 0.0000
      6 ****         0.9014  -0.1988  -0.8867 C.2            1 S1                 0.0000
      7 ****         0.3540  -0.2572  -2.5588 S.3            1 S1                 0.0000
      8 ****        -0.1022  -1.9915  -2.8195 C.3            1 S1                 0.0000
      9 ****        -0.6174  -2.2513  -4.2321 C.2            1 S1                 0.0000
     10 ****        -1.8714  -1.8788  -4.5007 N.am           1 S1                 0.0000
     11 ****         0.1062  -2.7841  -5.0703 O.2            1 S1                 0.0000
     12 ****         2.1999  -0.1579  -0.4822 N.pl3          1 S1                 1.0000
     13 ****         2.2508  -0.1130   0.9122 C.ar           1 S1                 0.0000
     14 ****         3.3353  -0.0621   1.7825 C.ar           1 S1                 0.0000
     15 ****         3.0417  -0.0155   3.1615 C.ar           1 S1                 0.0000
     16 ****         4.3362   0.0509   4.2996 Cl             1 S1                 0.0000
     17 ****         1.7103  -0.0212   3.6264 C.ar           1 S1                 0.0000
     18 ****         0.6183  -0.0768   2.7358 C.ar           1 S1                 0.0000
     19 ****         0.9175  -0.1241   1.3744 C.ar           1 S1                 0.0000
     20 ****        -1.4895   3.8765   2.2151 H              1 S1                 0.0000
     21 ****        -3.0134   3.3183   1.5230 H              1 S1                 0.0000
     22 ****        -1.6923   3.8427   0.4629 H              1 S1                 0.0000
     23 ****        -3.0363   1.1537   0.4200 H              1 S1                 0.0000
     24 ****        -1.7353   1.6856  -0.6362 H              1 S1                 0.0000
     25 ****        -1.6208  -0.7163   1.2786 H              1 S1                 0.0000
     26 ****        -1.7528  -0.7914  -0.4577 H              1 S1                 0.0000
     27 ****         0.7704  -2.6171  -2.6287 H              1 S1                 0.0000
     28 ****        -0.8632  -2.2805  -2.0944 H              1 S1                 0.0000
     29 ****        -2.2596  -2.0319  -5.4202 H              1 S1                 0.0000
     30 ****        -2.4300  -1.4461  -3.7792 H              1 S1                 0.0000
     31 ****         4.3553  -0.0558   1.4268 H              1 S1                 0.0000
     32 ****         1.5205   0.0191   4.6894 H              1 S1                 0.0000
     33 ****        -0.3965  -0.0750   3.1051 H              1 S1                 0.0000
     34 ****         2.9894  -0.1587  -1.1153 H              1 S1                 0.0000
     35 ****        -1.6386   1.5605   2.2489 LP             1 S1                 0.0000
     36 ****        -0.4225   2.0434   1.2719 LP             1 S1                 0.0000
     37 ****         1.0393  -3.0504  -4.8286 LP             1 S1                 0.0000
     38 ****        -0.2380  -2.9513  -5.9942 LP             1 S1                 0.0000
@<TRIPOS>BOND
    1    1    2 1     
    2    1   20 1     
    3    1   21 1     
    4    1   22 1     
    5    2    3 1     
    6    3    4 1     
    7    3   23 1     
    8    3   24 1     
    9    4    5 1     
   10    4   25 1     
   11    4   26 1     
   12    5   19 1     
   13    5    6 1     
   14    6    7 1     
   15    6   12 2     
   16    7    8 1     
   17    8    9 1     
   18    8   27 1     
   19    8   28 1     
   20    9   10 am    
   21    9   11 2     
   22   10   29 1     
   23   10   30 1     
   24   12   13 1     
   25   12   34 1     
   26   13   19 ar    
   27   13   14 ar    
   28   14   15 ar    
   29   14   31 1     
   30   15   16 1     
   31   15   17 ar    
   32   17   18 ar    
   33   17   32 1     
   34   18   19 ar    
   35   18   33 1     
   36    2   35 1     
   37    2   36 1     
   38   11   37 1     
   39   11   38 1     
@<TRIPOS>SUBSTRUCTURE
      1 S1             1
@<TRIPOS>SET
LONE_PAIRS      STATIC     ATOMS    <user>   **** ""
4 35 36 37 38
DONOR_HYDROGENS      STATIC     ATOMS    <user>   **** ""
3 29 30 34
ATOM$BLUE        STATIC     ATOMS    COLORGROUP SYSTEM
4 35 36 37 38
ATOM$RED        STATIC     ATOMS    COLORGROUP SYSTEM
3 29 30 34
