AV-unprocessed.smi:2439|AV-procd|sdf|9610|dock6
  -GOLD-   2272013243D 1   1.00000     0.00000
 Structure written by MMmdl.
 41 43  0  0  0  0  0  0  0  0  2 V2000
  149.2204  134.1156  153.5672 N   0  0  0  0  0  0  0  0  0  0  0  0
  148.3872  133.6329  152.9260 C   0  0  0  0  0  0  0  0  0  0  0  0
  147.3371  133.0234  152.1187 C   0  0  0  0  0  0  0  0  0  0  0  0
  147.1983  131.6197  152.1257 C   0  0  0  0  0  0  0  0  0  0  0  0
  146.1895  131.0265  151.3453 C   0  0  0  0  0  0  0  0  0  0  0  0
  145.3545  131.8662  150.5863 C   0  0  0  0  0  0  0  0  0  0  0  0
  145.4764  133.2099  150.5701 N   0  0  0  0  0  0  0  0  0  0  0  0
  146.4465  133.7897  151.3194 C   0  0  0  0  0  0  0  0  0  0  0  0
  146.5480  135.1932  151.2860 N   0  0  0  0  0  0  0  0  0  0  0  0
  145.4551  136.0388  150.8205 C   0  0  0  0  0  0  0  0  0  0  0  0
  145.5730  137.4853  151.3296 C   0  0  1  0  0  0  0  0  0  0  0  0
  145.6287  137.5412  152.8666 C   0  0  0  0  0  0  0  0  0  0  0  0
  145.8117  138.9362  153.3296 N   0  3  1  0  0  0  0  0  0  0  0  0
  145.8261  139.0437  154.8103 C   0  0  0  0  0  0  0  0  0  0  0  0
  145.9216  140.5114  155.2568 C   0  0  0  0  0  0  0  0  0  0  0  0
  147.1525  141.1896  154.6420 C   0  0  0  0  0  0  0  0  0  0  0  0
  147.1275  141.0402  153.1149 C   0  0  0  0  0  0  0  0  0  0  0  0
  147.0069  139.5604  152.6994 C   0  0  2  0  0  0  0  0  0  0  0  0
  146.9299  139.4127  151.1670 C   0  0  0  0  0  0  0  0  0  0  0  0
  146.7800  138.0421  150.8197 O   0  0  0  0  0  0  0  0  0  0  0  0
  147.8546  131.0000  152.7202 H   0  0  0  0  0  0  0  0  0  0  0  0
  146.0586  129.9547  151.3295 H   0  0  0  0  0  0  0  0  0  0  0  0
  144.5687  131.4485  149.9746 H   0  0  0  0  0  0  0  0  0  0  0  0
  147.4370  135.6284  151.4885 H   0  0  0  0  0  0  0  0  0  0  0  0
  145.4228  136.0197  149.7305 H   0  0  0  0  0  0  0  0  0  0  0  0
  144.5140  135.6035  151.1575 H   0  0  0  0  0  0  0  0  0  0  0  0
  144.7208  138.0707  150.9803 H   0  0  0  0  0  0  0  0  0  0  0  0
  144.7058  137.1377  153.2853 H   0  0  0  0  0  0  0  0  0  0  0  0
  146.4475  136.9220  153.2370 H   0  0  0  0  0  0  0  0  0  0  0  0
  144.9177  138.5974  155.2170 H   0  0  0  0  0  0  0  0  0  0  0  0
  146.6665  138.4742  155.2108 H   0  0  0  0  0  0  0  0  0  0  0  0
  145.0190  141.0458  154.9572 H   0  0  0  0  0  0  0  0  0  0  0  0
  145.9690  140.5679  156.3446 H   0  0  0  0  0  0  0  0  0  0  0  0
  147.1784  142.2445  154.9171 H   0  0  0  0  0  0  0  0  0  0  0  0
  148.0615  140.7389  155.0424 H   0  0  0  0  0  0  0  0  0  0  0  0
  146.2891  141.6081  152.7087 H   0  0  0  0  0  0  0  0  0  0  0  0
  148.0311  141.4767  152.6881 H   0  0  0  0  0  0  0  0  0  0  0  0
  147.8918  139.0262  153.0506 H   0  0  0  0  0  0  0  0  0  0  0  0
  146.1030  139.9941  150.7554 H   0  0  0  0  0  0  0  0  0  0  0  0
  147.8427  139.7904  150.7058 H   0  0  0  0  0  0  0  0  0  0  0  0
  145.0084  139.4569  153.0075 H   0  0  0  0  0  0  0  0  0  0  0  0
  1  2  3  0  0  0  0
  2  3  1  0  0  0  0
  3  8  1  0  0  0  0
  3  4  2  0  0  0  0
  4  5  1  0  0  0  0
  4 21  1  0  0  0  0
  5  6  2  0  0  0  0
  5 22  1  0  0  0  0
  6  7  1  0  0  0  0
  6 23  1  0  0  0  0
  7  8  2  0  0  0  0
  8  9  1  0  0  0  0
  9 10  1  0  0  0  0
  9 24  1  0  0  0  0
 10 11  1  0  0  0  0
 10 25  1  0  0  0  0
 10 26  1  0  0  0  0
 11 20  1  0  0  0  0
 11 12  1  0  0  0  0
 11 27  1  0  0  0  0
 12 13  1  0  0  0  0
 12 28  1  0  0  0  0
 12 29  1  0  0  0  0
 13 18  1  0  0  0  0
 13 14  1  0  0  0  0
 13 41  1  0  0  0  0
 14 15  1  0  0  0  0
 14 30  1  0  0  0  0
 14 31  1  0  0  0  0
 15 16  1  0  0  0  0
 15 32  1  0  0  0  0
 15 33  1  0  0  0  0
 16 17  1  0  0  0  0
 16 34  1  0  0  0  0
 16 35  1  0  0  0  0
 17 18  1  0  0  0  0
 17 36  1  0  0  0  0
 17 37  1  0  0  0  0
 18 19  1  0  0  0  0
 18 38  1  0  0  0  0
 19 20  1  0  0  0  0
 19 39  1  0  0  0  0
 19 40  1  0  0  0  0
M  CHG  1  13   1
M  END
> <s_m_source_file>
AV-unprocessed.smi

> <i_m_source_file_index>
2439

> <i_lp_mmshare_version>
43012

> <i_f3d_flags>
0

> <s_epik_input>
TiNDYzFbY0hdW2NIXVtjSF1uYzFbTkhdW0NIMl1bQ0BIXShbQ0gyXTIpT1tDSDJdW0NAQEhdKE4yMylbQ0gyXVtDSDJdW0NIMl1bQ0gyXTM=

> <s_epik_cmdline>
J2VwaWtfcHl0aG9uJywgJy1waCcsICc3LjAnLCAnLXRuJywgJzgnLCAnLW1hJywgJzIwMCcsICctbWV0YWxfYmluZGluZycsICctaW1hZScsICc8aW5maWxlLm1hZT4nLCAnLW9tYWUnLCAnPG91dGZpbGUubWFlPic=

> <r_epik_Ionization_Penalty>
0.0803594

> <r_epik_Ionization_Penalty_Charging>
0.0803403

> <r_epik_Ionization_Penalty_Neutral>
1.90988e-05

> <r_epik_State_Penalty>
0.0711481

> <r_epik_Charging_Adjusted_Penalty>
0.151488

> <i_epik_Tot_Q>
1

> <i_epik_Tot_abs_Q>
1

> <r_epik_Metal_State_Penalty>
0.0711482

> <b_epik_Metal_Only>
0

> <s_lp_Force_Field>
OPLS_2005

> <r_lp_Energy>
27.3027

> <b_lp_Chiralities_Consistent>
1

> <s_lp_Variant>
AV-unprocessed.smi:2439-8

> <Gold.Version>
5.8.1

> <Gold.Id.Protein>
6NUR|6NUR_protein|mol2

> <Gold.PLP.Fitness>
40.3407

> <Gold.PLP.PLP>
-29.2363

> <Gold.PLP.part.hbond>
-3.0000

> <Gold.PLP.part.metal>
0.0000

> <Gold.PLP.part.buried>
2.1294

> <Gold.PLP.part.nonpolar>
-30.4287

> <Gold.PLP.part.repulsive>
2.6553

> <Gold.PLP.ligand.clash>
0.0000

> <Gold.PLP.ligand.torsion>
0.2237

> <Gold.PLP.Chemscore.Hbond>
3.8500

> <Gold.PLP.Chemscore.CHOScore>
0.0000

> <Gold.PLP.Chemscore.Metal>
0.0000

> <Gold.Chemscore.Hbonds>
donor molecule, donor type, donor heavy atom, donor atom, acceptor molecule, acceptor atom, score
      L1  H     9    24       P1  7948  1.00
      L1  H    13    41       P1 10175  2.00
      P1  H  7954  7966       L1    20  0.90

> <Gold.PLP.Chemscore.Internal.Correction>
0.0017

> <Gold.Rescore>
     Score         DG    S(hbond)    S(metal)    S(lipo)     H(rot)  DE(clash)    DE(int)     intcor
     15.67     -19.99       2.44        0.00      82.04       1.27       3.99       0.33       ----

> <Gold.Chemscore.Fitness>
15.6724

> <Gold.Chemscore.DG>
-19.9879

> <Gold.Chemscore.ZeroCoef>
-5.4800

> <Gold.Chemscore.Hbond>
2.4400

> <Gold.Chemscore.Metal>
0.0000

> <Gold.Chemscore.Lipo>
82.0424

> <Gold.Chemscore.Internal_Hbond>
0.0000

> <Gold.Chemscore.DEClash>
3.9863

> <Gold.Chemscore.DEInternal>
0.3292

> <Gold.Chemscore.Rot>
1.2659

> <Gold.Chemscore.Internal.Correction>
   9.000000E+99

> <Gold.Chemscore.Hbonds>
donor molecule, donor type, donor heavy atom, donor atom, acceptor molecule, acceptor atom, score
      L1  H     9    24       P1  7948  0.96
      L1  H    13    41       P1 10175  1.00
      P1  H  7954  7966       L1    20  0.18

> <Gold.Chemscore.Hbond.Weighted>
-8.1497

> <Gold.Chemscore.Metal.Weighted>
-0.0000

> <Gold.Chemscore.Lipo.Weighted>
-9.5990

> <Gold.Chemscore.Internal_Hbond.Weighted>
0.0000

> <Gold.Chemscore.DEClash.Weighted>
3.9863

> <Gold.Chemscore.DEInternal.Weighted>
0.3292

> <Gold.Chemscore.Rot.Weighted>
3.2408

> <Gold.Chemscore.Internal.Correction.Weighted>
   9.000000E+99

> <Gold.Protein.RotatedTorsions>
[ 6907 6896 6895 6894 ] final  -80.17 input  -60.11 | X-H torsion
[ 7974 7965 7964 7962 ] final  150.86 input  175.53 | X-H torsion
[ 8008 7997 7996 7995 ] final -127.07 input   59.86 | X-H torsion
[ 10167 10162 10161 10158 ] final   70.86 input  -65.29 | X-H torsion
[ 10718 10713 10712 10709 ] final  -27.76 input   66.30 | X-H torsion
[ 10763 10752 10751 10750 ] final  141.31 input  -60.55 | X-H torsion
[ 11005 11000 10999 10996 ] final  -73.88 input  -57.11 | X-H torsion

> <Gold.Protein.ActiveResidues>
 VAL166  LYS551  ARG553  GLY616  TRP617  ASP618  TYR619  PRO620  LYS621  CYS622 
 ASP623  PHE694  ASN695  SER759  ASP760  ASP761  ALA762  ILE779  LEU786  VAL792 
 PHE793  MET794  SER795  GLU796  ALA797  LYS798  CYS799  TRP800  GLU811  SER814 

> <Gold.Protein.RotatedAtoms>
  150.6935  134.4011  159.5118 H   0  0  0  0  0  0  0  0  0  0  0  0  # atno 6907 bound_to 6896
  152.1784  134.8772  160.0537 H   0  0  0  0  0  0  0  0  0  0  0  0  # atno 6908 bound_to 6896
  151.9772  133.3710  159.4130 H   0  0  0  0  0  0  0  0  0  0  0  0  # atno 6909 bound_to 6896
  144.8334  139.6463  143.6049 H   0  0  0  0  0  0  0  0  0  0  0  0  # atno 7974 bound_to 7965
  155.2401  140.0428  157.2974 H   0  0  0  0  0  0  0  0  0  0  0  0  # atno 8008 bound_to 7997
  154.5834  140.2407  155.7992 H   0  0  0  0  0  0  0  0  0  0  0  0  # atno 8009 bound_to 7997
  156.2209  140.2970  155.9958 H   0  0  0  0  0  0  0  0  0  0  0  0  # atno 8010 bound_to 7997
  140.0524  144.5301  150.7353 H   0  0  0  0  0  0  0  0  0  0  0  0  # atno 10167 bound_to 10162
  156.4340  130.4451  149.7098 H   0  0  0  0  0  0  0  0  0  0  0  0  # atno 10718 bound_to 10713
  153.9371  135.2984  155.3444 H   0  0  0  0  0  0  0  0  0  0  0  0  # atno 10763 bound_to 10752
  154.7496  135.4986  153.9269 H   0  0  0  0  0  0  0  0  0  0  0  0  # atno 10764 bound_to 10752
  153.1061  135.6747  153.9689 H   0  0  0  0  0  0  0  0  0  0  0  0  # atno 10765 bound_to 10752
  141.1628  133.6892  156.7279 H   0  0  0  0  0  0  0  0  0  0  0  0  # atno 11005 bound_to 11000
  146.2635  139.6465  142.9346 LP  0  0  0  0  0  0  0  0  0  0  0  0  # atno 17320 bound_to 7965
  145.4847  141.0438  143.2626 LP  0  0  0  0  0  0  0  0  0  0  0  0  # atno 17321 bound_to 7965
  140.7210  143.2589  151.4277 LP  0  0  0  0  0  0  0  0  0  0  0  0  # atno 17342 bound_to 10162
  139.5945  144.1428  152.2127 LP  0  0  0  0  0  0  0  0  0  0  0  0  # atno 17343 bound_to 10162
  156.3990  130.7665  151.2671 LP  0  0  0  0  0  0  0  0  0  0  0  0  # atno 17370 bound_to 10713
  157.7508  131.0245  150.3881 LP  0  0  0  0  0  0  0  0  0  0  0  0  # atno 17371 bound_to 10713
  140.2767  134.8349  157.3897 LP  0  0  0  0  0  0  0  0  0  0  0  0  # atno 17394 bound_to 11000
  140.1471  134.4898  155.7988 LP  0  0  0  0  0  0  0  0  0  0  0  0  # atno 17395 bound_to 11000

$$$$
