AV-unprocessed.smi:1059|AV-procd|sdf|4654|dock9
  -GOLD-   22720 3163D 1   1.00000     0.00000
 Structure written by MMmdl.
 55 56  0  0  0  0  0  0  0  0  2 V2000
  152.6420  142.2438  160.1256 C   0  0  0  0  0  0  0  0  0  0  0  0
  152.4849  142.2746  158.5974 C   0  0  0  0  0  0  0  0  0  0  0  0
  152.0769  143.6862  158.1353 C   0  0  0  0  0  0  0  0  0  0  0  0
  151.4899  141.1830  158.1323 C   0  0  0  0  0  0  0  0  0  0  0  0
  152.0803  140.0827  157.2274 C   0  0  0  0  0  0  0  0  0  0  0  0
  152.9112  139.3023  157.6948 O   0  0  0  0  0  0  0  0  0  0  0  0
  151.6638  139.9995  155.9396 N   0  0  0  0  0  0  0  0  0  0  0  0
  152.1613  138.9763  155.0113 C   0  0  0  0  0  0  0  0  0  0  0  0
  151.0417  137.9540  154.7460 C   0  0  0  0  0  0  0  0  0  0  0  0
  149.7686  138.6444  154.2123 C   0  0  0  0  0  0  0  0  0  0  0  0
  148.6805  137.6743  154.1338 N   0  0  0  0  0  0  0  0  0  0  0  0
  147.8791  137.3283  155.1513 C   0  0  0  0  0  0  0  0  0  0  0  0
  147.9807  137.7957  156.2854 O   0  0  0  0  0  0  0  0  0  0  0  0
  146.9565  136.4318  154.7613 N   0  0  0  0  0  0  0  0  0  0  0  0
  145.9465  135.8094  155.5436 C   0  0  0  0  0  0  0  0  0  0  0  0
  145.6751  136.3485  156.8198 C   0  0  0  0  0  0  0  0  0  0  0  0
  144.6738  135.7693  157.6260 C   0  0  0  0  0  0  0  0  0  0  0  0
  143.9493  134.6611  157.1400 C   0  0  0  0  0  0  0  0  0  0  0  0
  142.9474  134.0516  157.9077 N   0  0  0  0  0  0  0  0  0  0  0  0
  143.2130  132.6446  158.1659 C   0  0  0  0  0  0  0  0  0  0  0  0
  142.5544  134.8471  159.0614 C   0  0  0  0  0  0  0  0  0  0  0  0
  144.2254  134.1814  155.9042 N   0  3  0  0  0  0  0  0  0  0  0  0
  145.1763  134.7059  155.1011 C   0  0  0  0  0  0  0  0  0  0  0  0
  149.3720  139.8497  155.0959 C   0  0  0  0  0  0  0  0  0  0  0  0
  150.5732  140.7806  155.3404 C   0  0  0  0  0  0  0  0  0  0  0  0
  151.6963  142.4549  160.6259 H   0  0  0  0  0  0  0  0  0  0  0  0
  153.3682  142.9842  160.4619 H   0  0  0  0  0  0  0  0  0  0  0  0
  152.9889  141.2682  160.4677 H   0  0  0  0  0  0  0  0  0  0  0  0
  153.4667  142.0535  158.1755 H   0  0  0  0  0  0  0  0  0  0  0  0
  151.1000  143.9640  158.5318 H   0  0  0  0  0  0  0  0  0  0  0  0
  152.0260  143.7641  157.0499 H   0  0  0  0  0  0  0  0  0  0  0  0
  152.7954  144.4319  158.4763 H   0  0  0  0  0  0  0  0  0  0  0  0
  151.0694  140.6874  159.0084 H   0  0  0  0  0  0  0  0  0  0  0  0
  150.6621  141.6685  157.6144 H   0  0  0  0  0  0  0  0  0  0  0  0
  152.4630  139.4524  154.0771 H   0  0  0  0  0  0  0  0  0  0  0  0
  153.0510  138.4646  155.3807 H   0  0  0  0  0  0  0  0  0  0  0  0
  151.3863  137.2016  154.0356 H   0  0  0  0  0  0  0  0  0  0  0  0
  150.8166  137.4240  155.6731 H   0  0  0  0  0  0  0  0  0  0  0  0
  149.9879  139.0110  153.2075 H   0  0  0  0  0  0  0  0  0  0  0  0
  148.5226  137.2431  153.2348 H   0  0  0  0  0  0  0  0  0  0  0  0
  146.9459  136.2059  153.7773 H   0  0  0  0  0  0  0  0  0  0  0  0
  146.2343  137.1976  157.1853 H   0  0  0  0  0  0  0  0  0  0  0  0
  144.4668  136.1730  158.6065 H   0  0  0  0  0  0  0  0  0  0  0  0
  143.4804  132.1235  157.2458 H   0  0  0  0  0  0  0  0  0  0  0  0
  142.3262  132.1634  158.5792 H   0  0  0  0  0  0  0  0  0  0  0  0
  144.0292  132.5255  158.8796 H   0  0  0  0  0  0  0  0  0  0  0  0
  142.3529  135.8789  158.7710 H   0  0  0  0  0  0  0  0  0  0  0  0
  143.3370  134.8490  159.8212 H   0  0  0  0  0  0  0  0  0  0  0  0
  141.6469  134.4405  159.5082 H   0  0  0  0  0  0  0  0  0  0  0  0
  145.2700  134.2266  154.1383 H   0  0  0  0  0  0  0  0  0  0  0  0
  148.5616  140.4106  154.6291 H   0  0  0  0  0  0  0  0  0  0  0  0
  148.9905  139.4969  156.0555 H   0  0  0  0  0  0  0  0  0  0  0  0
  150.2565  141.6323  155.9392 H   0  0  0  0  0  0  0  0  0  0  0  0
  150.9138  141.2029  154.3939 H   0  0  0  0  0  0  0  0  0  0  0  0
  143.6880  133.3855  155.5600 H   0  0  0  0  0  0  0  0  0  0  0  0
  1  2  1  0  0  0  0
  1 26  1  0  0  0  0
  1 27  1  0  0  0  0
  1 28  1  0  0  0  0
  2  3  1  0  0  0  0
  2  4  1  0  0  0  0
  2 29  1  0  0  0  0
  3 30  1  0  0  0  0
  3 31  1  0  0  0  0
  3 32  1  0  0  0  0
  4  5  1  0  0  0  0
  4 33  1  0  0  0  0
  4 34  1  0  0  0  0
  5  6  2  0  0  0  0
  5  7  1  0  0  0  0
  7 25  1  0  0  0  0
  7  8  1  0  0  0  0
  8  9  1  0  0  0  0
  8 35  1  0  0  0  0
  8 36  1  0  0  0  0
  9 10  1  0  0  0  0
  9 37  1  0  0  0  0
  9 38  1  0  0  0  0
 10 11  1  0  0  0  0
 10 24  1  0  0  0  0
 10 39  1  0  0  0  0
 11 12  1  0  0  0  0
 11 40  1  0  0  0  0
 12 13  2  0  0  0  0
 12 14  1  0  0  0  0
 14 15  1  0  0  0  0
 14 41  1  0  0  0  0
 15 23  1  0  0  0  0
 15 16  2  0  0  0  0
 16 17  1  0  0  0  0
 16 42  1  0  0  0  0
 17 18  2  0  0  0  0
 17 43  1  0  0  0  0
 18 19  1  0  0  0  0
 18 22  1  0  0  0  0
 19 20  1  0  0  0  0
 19 21  1  0  0  0  0
 20 44  1  0  0  0  0
 20 45  1  0  0  0  0
 20 46  1  0  0  0  0
 21 47  1  0  0  0  0
 21 48  1  0  0  0  0
 21 49  1  0  0  0  0
 22 23  2  0  0  0  0
 22 55  1  0  0  0  0
 23 50  1  0  0  0  0
 24 25  1  0  0  0  0
 24 51  1  0  0  0  0
 24 52  1  0  0  0  0
 25 53  1  0  0  0  0
 25 54  1  0  0  0  0
M  CHG  1  22   1
M  END
> <s_m_source_file>
AV-unprocessed.smi

> <i_m_source_file_index>
1059

> <i_lp_mmshare_version>
43012

> <i_f3d_flags>
0

> <s_epik_input>
W0NIM11bQ0hdKFtDSDNdKVtDSDJdQyg9TylOMVtDSDJdW0NIMl1bQ0hdKFtDSDJdW0NIMl0xKVtOSF1DKD1PKVtOSF1jMltjSF1bY0hdYyhOKFtDSDNdKVtDSDNdKW5bY0hdMg==

> <s_epik_cmdline>
J2VwaWtfcHl0aG9uJywgJy1waCcsICc3LjAnLCAnLXRuJywgJzgnLCAnLW1hJywgJzIwMCcsICctbWV0YWxfYmluZGluZycsICctaW1hZScsICc8aW5maWxlLm1hZT4nLCAnLW9tYWUnLCAnPG91dGZpbGUubWFlPic=

> <r_lp_tautomer_probability>
0.999994

> <r_epik_Ionization_Penalty>
0.255783

> <r_epik_Ionization_Penalty_Charging>
0.255763

> <r_epik_Ionization_Penalty_Neutral>
1.99447e-05

> <r_epik_State_Penalty>
0.247288

> <r_epik_Charging_Adjusted_Penalty>
0.503051

> <i_epik_Tot_Q>
1

> <i_epik_Tot_abs_Q>
1

> <r_epik_Metal_State_Penalty>
0.537004

> <b_epik_Metal_Only>
0

> <s_lp_Force_Field>
OPLS_2005

> <r_lp_Energy>
38.2328

> <b_lp_Chiralities_Consistent>
1

> <s_lp_Variant>
AV-unprocessed.smi:1059-1

> <Gold.Version>
5.8.1

> <Gold.Id.Protein>
6NUR|6NUR_protein|mol2

> <Gold.PLP.Fitness>
46.9680

> <Gold.PLP.PLP>
-35.7266

> <Gold.PLP.part.hbond>
-3.9347

> <Gold.PLP.part.metal>
0.0000

> <Gold.PLP.part.buried>
-4.2511

> <Gold.PLP.part.nonpolar>
-29.1008

> <Gold.PLP.part.repulsive>
0.0651

> <Gold.PLP.ligand.clash>
1.0584

> <Gold.PLP.ligand.torsion>
1.3049

> <Gold.PLP.Chemscore.Hbond>
4.8940

> <Gold.PLP.Chemscore.CHOScore>
0.0000

> <Gold.PLP.Chemscore.Metal>
0.0000

> <Gold.Chemscore.Hbonds>
donor molecule, donor type, donor heavy atom, donor atom, acceptor molecule, acceptor atom, score
      L1  H    11    40       P1  7948  1.00
      L1  H    22    55       P1 10957  1.89
      P1  H  7997  8010       L1     6  0.95
      P1  H 11000 11005       L1    19  0.81

> <Gold.PLP.Chemscore.Internal.Correction>
0.2276

> <Gold.Rescore>
     Score         DG    S(hbond)    S(metal)    S(lipo)     H(rot)  DE(clash)    DE(int)     intcor
     16.22     -20.54       2.87        0.00      80.77       1.55       0.05       4.27       ----

> <Gold.Chemscore.Fitness>
16.2204

> <Gold.Chemscore.DG>
-20.5381

> <Gold.Chemscore.ZeroCoef>
-5.4800

> <Gold.Chemscore.Hbond>
2.8682

> <Gold.Chemscore.Metal>
0.0000

> <Gold.Chemscore.Lipo>
80.7699

> <Gold.Chemscore.Internal_Hbond>
0.0000

> <Gold.Chemscore.DEClash>
0.0458

> <Gold.Chemscore.DEInternal>
4.2719

> <Gold.Chemscore.Rot>
1.5514

> <Gold.Chemscore.Internal.Correction>
   9.000000E+99

> <Gold.Chemscore.Hbonds>
donor molecule, donor type, donor heavy atom, donor atom, acceptor molecule, acceptor atom, score
      L1  H    11    40       P1  7948  0.98
      L1  H    22    55       P1 10957  0.90
      P1  H  7997  8010       L1     6  0.21
      P1  H 11000 11005       L1    19  0.03

> <Gold.Chemscore.Hbond.Weighted>
-9.5796

> <Gold.Chemscore.Metal.Weighted>
-0.0000

> <Gold.Chemscore.Lipo.Weighted>
-9.4501

> <Gold.Chemscore.Internal_Hbond.Weighted>
0.0000

> <Gold.Chemscore.DEClash.Weighted>
0.0458

> <Gold.Chemscore.DEInternal.Weighted>
4.2719

> <Gold.Chemscore.Rot.Weighted>
3.9716

> <Gold.Chemscore.Internal.Correction.Weighted>
   9.000000E+99

> <Gold.Protein.RotatedTorsions>
[ 6907 6896 6895 6894 ] final  112.73 input  -60.11 | X-H torsion
[ 7974 7965 7964 7962 ] final   40.97 input  175.53 | X-H torsion
[ 8008 7997 7996 7995 ] final   43.46 input   59.86 | X-H torsion
[ 10167 10162 10161 10158 ] final   81.97 input  -65.29 | X-H torsion
[ 10718 10713 10712 10709 ] final   31.93 input   66.30 | X-H torsion
[ 10763 10752 10751 10750 ] final -158.22 input  -60.55 | X-H torsion
[ 11005 11000 10999 10996 ] final  -99.52 input  -57.11 | X-H torsion

> <Gold.Protein.ActiveResidues>
 VAL166  LYS551  ARG553  GLY616  TRP617  ASP618  TYR619  PRO620  LYS621  CYS622 
 ASP623  PHE694  ASN695  SER759  ASP760  ASP761  ALA762  ILE779  LEU786  VAL792 
 PHE793  MET794  SER795  GLU796  ALA797  LYS798  CYS799  TRP800  GLU811  SER814 

> <Gold.Protein.RotatedAtoms>
  152.4900  133.8475  159.7183 H   0  0  0  0  0  0  0  0  0  0  0  0  # atno 6907 bound_to 6896
  150.9021  133.7096  159.2883 H   0  0  0  0  0  0  0  0  0  0  0  0  # atno 6908 bound_to 6896
  151.4534  135.1036  159.9756 H   0  0  0  0  0  0  0  0  0  0  0  0  # atno 6909 bound_to 6896
  146.0862  139.5471  142.9505 H   0  0  0  0  0  0  0  0  0  0  0  0  # atno 7974 bound_to 7965
  155.3031  140.3386  155.4247 H   0  0  0  0  0  0  0  0  0  0  0  0  # atno 8008 bound_to 7997
  156.1991  140.1726  156.7975 H   0  0  0  0  0  0  0  0  0  0  0  0  # atno 8009 bound_to 7997
  154.5537  140.0700  156.8692 H   0  0  0  0  0  0  0  0  0  0  0  0  # atno 8010 bound_to 7997
  139.9337  144.6135  150.8320 H   0  0  0  0  0  0  0  0  0  0  0  0  # atno 10167 bound_to 10162
  157.2788  130.7244  149.6545 H   0  0  0  0  0  0  0  0  0  0  0  0  # atno 10718 bound_to 10713
  154.7574  135.3108  154.8444 H   0  0  0  0  0  0  0  0  0  0  0  0  # atno 10763 bound_to 10752
  153.9214  135.6795  153.4752 H   0  0  0  0  0  0  0  0  0  0  0  0  # atno 10764 bound_to 10752
  153.1172  135.4839  154.9065 H   0  0  0  0  0  0  0  0  0  0  0  0  # atno 10765 bound_to 10752
  141.1305  133.8328  157.0983 H   0  0  0  0  0  0  0  0  0  0  0  0  # atno 11005 bound_to 11000
  145.6126  141.0337  143.1958 LP  0  0  0  0  0  0  0  0  0  0  0  0  # atno 17320 bound_to 7965
  144.7327  139.7677  143.7341 LP  0  0  0  0  0  0  0  0  0  0  0  0  # atno 17321 bound_to 7965
  140.7630  143.3213  151.2616 LP  0  0  0  0  0  0  0  0  0  0  0  0  # atno 17342 bound_to 10162
  139.6761  143.9935  152.2782 LP  0  0  0  0  0  0  0  0  0  0  0  0  # atno 17343 bound_to 10162
  155.9664  130.4344  150.5050 LP  0  0  0  0  0  0  0  0  0  0  0  0  # atno 17370 bound_to 10713
  157.2989  131.0641  151.2082 LP  0  0  0  0  0  0  0  0  0  0  0  0  # atno 17371 bound_to 10713
  140.0349  134.9883  157.0852 LP  0  0  0  0  0  0  0  0  0  0  0  0  # atno 17394 bound_to 11000
  140.4226  134.1865  155.7165 LP  0  0  0  0  0  0  0  0  0  0  0  0  # atno 17395 bound_to 11000

$$$$
