AV-unprocessed.smi:1709|AV-procd|sdf|6894|dock1
  -GOLD-   22720 8103D 1   1.00000     0.00000
 Structure written by MMmdl.
 43 45  0  0  0  0  0  0  0  0  2 V2000
  147.6702  133.7977  159.7525 C   0  0  0  0  0  0  0  0  0  0  0  0
  147.5355  134.8275  160.8632 C   0  0  0  0  0  0  0  0  0  0  0  0
  147.1050  134.4083  162.1399 C   0  0  0  0  0  0  0  0  0  0  0  0
  146.9824  135.3576  163.1685 C   0  0  0  0  0  0  0  0  0  0  0  0
  147.2998  136.6939  162.8749 C   0  0  0  0  0  0  0  0  0  0  0  0
  147.7123  137.1030  161.6576 N   0  0  0  0  0  0  0  0  0  0  0  0
  147.8310  136.2009  160.6488 C   0  0  0  0  0  0  0  0  0  0  0  0
  148.2738  136.5452  159.3338 N   0  0  0  0  0  0  0  0  0  0  0  0
  149.4661  136.9824  158.8757 C   0  0  0  0  0  0  0  0  0  0  0  0
  150.4166  137.1519  159.6372 O   0  0  0  0  0  0  0  0  0  0  0  0
  149.5441  137.2161  157.5552 N   0  0  0  0  0  0  0  0  0  0  0  0
  150.7157  137.7188  156.8418 C   0  0  1  0  0  0  0  0  0  0  0  0
  150.5539  137.6504  155.3107 C   0  0  0  0  0  0  0  0  0  0  0  0
  151.1216  138.9776  154.7976 C   0  0  0  0  0  0  0  0  0  0  0  0
  150.7998  139.9138  155.8808 N   0  3  2  0  0  0  0  0  0  0  0  0
  151.4134  141.2570  155.8567 C   0  0  0  0  0  0  0  0  0  0  0  0
  150.7835  142.1020  156.9848 C   0  0  0  0  0  0  0  0  0  0  0  0
  150.8547  141.3929  158.3562 C   0  0  0  0  0  0  0  0  0  0  0  0
  150.3155  139.9483  158.2830 C   0  0  0  0  0  0  0  0  0  0  0  0
  151.0376  139.2005  157.1473 C   0  0  1  0  0  0  0  0  0  0  0  0
  147.3654  132.8069  160.0902 H   0  0  0  0  0  0  0  0  0  0  0  0
  148.7054  133.7337  159.4159 H   0  0  0  0  0  0  0  0  0  0  0  0
  147.0443  134.0676  158.9015 H   0  0  0  0  0  0  0  0  0  0  0  0
  146.8710  133.3716  162.3324 H   0  0  0  0  0  0  0  0  0  0  0  0
  146.6549  135.0682  164.1561 H   0  0  0  0  0  0  0  0  0  0  0  0
  147.2211  137.4558  163.6361 H   0  0  0  0  0  0  0  0  0  0  0  0
  147.5858  136.3846  158.6125 H   0  0  0  0  0  0  0  0  0  0  0  0
  148.7128  137.0474  157.0059 H   0  0  0  0  0  0  0  0  0  0  0  0
  151.5840  137.1154  157.1147 H   0  0  0  0  0  0  0  0  0  0  0  0
  151.0559  136.7868  154.8733 H   0  0  0  0  0  0  0  0  0  0  0  0
  149.4977  137.5857  155.0439 H   0  0  0  0  0  0  0  0  0  0  0  0
  152.2039  138.9119  154.6755 H   0  0  0  0  0  0  0  0  0  0  0  0
  150.6827  139.2851  153.8480 H   0  0  0  0  0  0  0  0  0  0  0  0
  152.4941  141.1793  155.9845 H   0  0  0  0  0  0  0  0  0  0  0  0
  151.2335  141.7274  154.8895 H   0  0  0  0  0  0  0  0  0  0  0  0
  151.2720  143.0753  157.0412 H   0  0  0  0  0  0  0  0  0  0  0  0
  149.7385  142.2984  156.7419 H   0  0  0  0  0  0  0  0  0  0  0  0
  151.8912  141.3728  158.6952 H   0  0  0  0  0  0  0  0  0  0  0  0
  150.2994  141.9628  159.1015 H   0  0  0  0  0  0  0  0  0  0  0  0
  150.4778  139.4464  159.2371 H   0  0  0  0  0  0  0  0  0  0  0  0
  149.2388  139.9599  158.1076 H   0  0  0  0  0  0  0  0  0  0  0  0
  152.1102  139.2432  157.3497 H   0  0  0  0  0  0  0  0  0  0  0  0
  149.8011  140.0544  155.8252 H   0  0  0  0  0  0  0  0  0  0  0  0
  1  2  1  0  0  0  0
  1 21  1  0  0  0  0
  1 22  1  0  0  0  0
  1 23  1  0  0  0  0
  2  7  1  0  0  0  0
  2  3  2  0  0  0  0
  3  4  1  0  0  0  0
  3 24  1  0  0  0  0
  4  5  2  0  0  0  0
  4 25  1  0  0  0  0
  5  6  1  0  0  0  0
  5 26  1  0  0  0  0
  6  7  2  0  0  0  0
  7  8  1  0  0  0  0
  8  9  1  0  0  0  0
  8 27  1  0  0  0  0
  9 10  2  0  0  0  0
  9 11  1  0  0  0  0
 11 12  1  0  0  0  0
 11 28  1  0  0  0  0
 12 20  1  0  0  0  0
 12 13  1  0  0  0  0
 12 29  1  0  0  0  0
 13 14  1  0  0  0  0
 13 30  1  0  0  0  0
 13 31  1  0  0  0  0
 14 15  1  0  0  0  0
 14 32  1  0  0  0  0
 14 33  1  0  0  0  0
 15 20  1  0  0  0  0
 15 16  1  0  0  0  0
 15 43  1  0  0  0  0
 16 17  1  0  0  0  0
 16 34  1  0  0  0  0
 16 35  1  0  0  0  0
 17 18  1  0  0  0  0
 17 36  1  0  0  0  0
 17 37  1  0  0  0  0
 18 19  1  0  0  0  0
 18 38  1  0  0  0  0
 18 39  1  0  0  0  0
 19 20  1  0  0  0  0
 19 40  1  0  0  0  0
 19 41  1  0  0  0  0
 20 42  1  0  0  0  0
M  CHG  1  15   1
M  END
> <s_m_source_file>
AV-unprocessed.smi

> <i_m_source_file_index>
1709

> <i_lp_mmshare_version>
43012

> <i_f3d_flags>
0

> <s_epik_input>
W0NIM11jMVtjSF1bY0hdW2NIXW5jMVtOSF1DKD1PKVtOSF1bQ0BIXShbQ0gyXVtDSDJdMilbQ0BASF0oTjIzKVtDSDJdW0NIMl1bQ0gyXVtDSDJdMw==

> <s_epik_cmdline>
J2VwaWtfcHl0aG9uJywgJy1waCcsICc3LjAnLCAnLXRuJywgJzgnLCAnLW1hJywgJzIwMCcsICctbWV0YWxfYmluZGluZycsICctaW1hZScsICc8aW5maWxlLm1hZT4nLCAnLW9tYWUnLCAnPG91dGZpbGUubWFlPic=

> <r_epik_Ionization_Penalty>
0.00101524

> <r_epik_Ionization_Penalty_Charging>
0.000974069

> <r_epik_Ionization_Penalty_Neutral>
4.11757e-05

> <r_epik_State_Penalty>
0.000633842

> <r_epik_Charging_Adjusted_Penalty>
0.00160791

> <i_epik_Tot_Q>
1

> <i_epik_Tot_abs_Q>
1

> <r_epik_Metal_State_Penalty>
-0

> <b_epik_Metal_Only>
0

> <s_lp_Force_Field>
OPLS_2005

> <r_lp_Energy>
46.0591

> <b_lp_Chiralities_Consistent>
1

> <s_lp_Variant>
AV-unprocessed.smi:1709-4

> <Gold.Version>
5.8.1

> <Gold.Id.Protein>
6NUR|6NUR_protein|mol2

> <Gold.PLP.Fitness>
39.3161

> <Gold.PLP.PLP>
-34.5279

> <Gold.PLP.part.hbond>
-2.4569

> <Gold.PLP.part.metal>
0.0000

> <Gold.PLP.part.buried>
-5.3447

> <Gold.PLP.part.nonpolar>
-26.8679

> <Gold.PLP.part.repulsive>
0.2845

> <Gold.PLP.ligand.clash>
0.0000

> <Gold.PLP.ligand.torsion>
0.7282

> <Gold.PLP.Chemscore.Hbond>
2.0812

> <Gold.PLP.Chemscore.CHOScore>
0.0000

> <Gold.PLP.Chemscore.Metal>
0.0000

> <Gold.Chemscore.Hbonds>
donor molecule, donor type, donor heavy atom, donor atom, acceptor molecule, acceptor atom, score
      P1  H  6896  6908       L1    10  0.59
      P1  H  6931  6943       L1     6  1.00
      P1  H  6934  6947       L1     6  0.59

> <Gold.PLP.Chemscore.Internal.Correction>
0.0010

> <Gold.Rescore>
     Score         DG    S(hbond)    S(metal)    S(lipo)     H(rot)  DE(clash)    DE(int)     intcor
     17.39     -18.70       1.90        0.00      80.54       1.00       0.03       1.28       ----

> <Gold.Chemscore.Fitness>
17.3910

> <Gold.Chemscore.DG>
-18.6951

> <Gold.Chemscore.ZeroCoef>
-5.4800

> <Gold.Chemscore.Hbond>
1.9016

> <Gold.Chemscore.Metal>
0.0000

> <Gold.Chemscore.Lipo>
80.5436

> <Gold.Chemscore.Internal_Hbond>
0.0000

> <Gold.Chemscore.DEClash>
0.0282

> <Gold.Chemscore.DEInternal>
1.2758

> <Gold.Chemscore.Rot>
1.0000

> <Gold.Chemscore.Internal.Correction>
   9.000000E+99

> <Gold.Chemscore.Hbonds>
donor molecule, donor type, donor heavy atom, donor atom, acceptor molecule, acceptor atom, score
      P1  H  6896  6908       L1    10  0.15
      P1  H  6931  6943       L1     6  0.57
      P1  H  6934  6947       L1     6  0.47

> <Gold.Chemscore.Hbond.Weighted>
-6.3515

> <Gold.Chemscore.Metal.Weighted>
-0.0000

> <Gold.Chemscore.Lipo.Weighted>
-9.4236

> <Gold.Chemscore.Internal_Hbond.Weighted>
0.0000

> <Gold.Chemscore.DEClash.Weighted>
0.0282

> <Gold.Chemscore.DEInternal.Weighted>
1.2758

> <Gold.Chemscore.Rot.Weighted>
2.5600

> <Gold.Chemscore.Internal.Correction.Weighted>
   9.000000E+99

> <Gold.Protein.RotatedTorsions>
[ 6907 6896 6895 6894 ] final -149.02 input  -60.11 | X-H torsion
[ 7974 7965 7964 7962 ] final  -67.77 input  175.53 | X-H torsion
[ 8008 7997 7996 7995 ] final   22.60 input   59.86 | X-H torsion
[ 10167 10162 10161 10158 ] final   38.60 input  -65.29 | X-H torsion
[ 10718 10713 10712 10709 ] final   33.01 input   66.30 | X-H torsion
[ 10763 10752 10751 10750 ] final  102.72 input  -60.55 | X-H torsion
[ 11005 11000 10999 10996 ] final  131.73 input  -57.11 | X-H torsion

> <Gold.Protein.ActiveResidues>
 VAL166  LYS551  ARG553  GLY616  TRP617  ASP618  TYR619  PRO620  LYS621  CYS622 
 ASP623  PHE694  ASN695  SER759  ASP760  ASP761  ALA762  ILE779  LEU786  VAL792 
 PHE793  MET794  SER795  GLU796  ALA797  LYS798  CYS799  TRP800  GLU811  SER814 

> <Gold.Protein.RotatedAtoms>
  151.1782  133.4741  159.2593 H   0  0  0  0  0  0  0  0  0  0  0  0  # atno 6907 bound_to 6896
  151.1286  135.0118  159.8582 H   0  0  0  0  0  0  0  0  0  0  0  0  # atno 6908 bound_to 6896
  152.5459  134.1687  159.8641 H   0  0  0  0  0  0  0  0  0  0  0  0  # atno 6909 bound_to 6896
  145.7250  140.9022  143.0610 H   0  0  0  0  0  0  0  0  0  0  0  0  # atno 7974 bound_to 7965
  154.9682  140.3086  155.5000 H   0  0  0  0  0  0  0  0  0  0  0  0  # atno 8008 bound_to 7997
  156.2969  140.2289  156.4711 H   0  0  0  0  0  0  0  0  0  0  0  0  # atno 8009 bound_to 7997
  154.7901  140.0440  157.1183 H   0  0  0  0  0  0  0  0  0  0  0  0  # atno 8010 bound_to 7997
  140.3921  144.1839  150.6131 H   0  0  0  0  0  0  0  0  0  0  0  0  # atno 10167 bound_to 10162
  157.2925  130.7310  149.6619 H   0  0  0  0  0  0  0  0  0  0  0  0  # atno 10718 bound_to 10713
  153.3432  135.4001  155.1588 H   0  0  0  0  0  0  0  0  0  0  0  0  # atno 10763 bound_to 10752
  154.8648  135.3638  154.5318 H   0  0  0  0  0  0  0  0  0  0  0  0  # atno 10764 bound_to 10752
  153.5765  135.7077  153.5541 H   0  0  0  0  0  0  0  0  0  0  0  0  # atno 10765 bound_to 10752
  139.9748  134.9567  156.9481 H   0  0  0  0  0  0  0  0  0  0  0  0  # atno 11005 bound_to 11000
  144.6907  139.9254  143.7469 LP  0  0  0  0  0  0  0  0  0  0  0  0  # atno 17320 bound_to 7965
  146.0590  139.3585  143.0593 LP  0  0  0  0  0  0  0  0  0  0  0  0  # atno 17321 bound_to 7965
  140.4829  143.2373  151.8929 LP  0  0  0  0  0  0  0  0  0  0  0  0  # atno 17342 bound_to 10162
  139.4788  144.5250  151.8748 LP  0  0  0  0  0  0  0  0  0  0  0  0  # atno 17343 bound_to 10162
  155.9667  130.4304  150.4876 LP  0  0  0  0  0  0  0  0  0  0  0  0  # atno 17370 bound_to 10713
  157.2842  131.0613  151.2177 LP  0  0  0  0  0  0  0  0  0  0  0  0  # atno 17371 bound_to 10713
  140.5218  134.0900  155.7294 LP  0  0  0  0  0  0  0  0  0  0  0  0  # atno 17394 bound_to 11000
  141.1425  133.9112  157.2292 LP  0  0  0  0  0  0  0  0  0  0  0  0  # atno 17395 bound_to 11000

$$$$
