AV-unprocessed.smi:1196|AV-procd|sdf|5007|dock8
  -GOLD-   22720 4 23D 1   1.00000     0.00000
 Structure written by MMmdl.
 36 37  0  0  0  0  0  0  0  0  2 V2000
  148.4531  142.3333  158.0536 C   0  0  0  0  0  0  0  0  0  0  0  0
  149.4857  141.9923  156.9675 C   0  0  1  0  0  0  0  0  0  0  0  0
  150.8669  141.6895  157.5805 C   0  0  0  0  0  0  0  0  0  0  0  0
  151.4588  142.8536  158.2164 N   0  0  0  0  0  0  0  0  0  0  0  0
  151.0410  144.1662  158.1550 C   0  0  0  0  0  0  0  0  0  0  0  0
  151.9114  144.9053  158.9037 C   0  0  0  0  0  0  0  0  0  0  0  0
  152.8408  143.9433  159.3889 C   0  0  0  0  0  0  0  0  0  0  0  0
  152.5665  142.7159  158.9775 N   0  0  0  0  0  0  0  0  0  0  0  0
  149.0225  140.8506  156.1818 N   0  0  0  0  0  0  0  0  0  0  0  0
  149.0173  140.7753  154.8423 C   0  0  0  0  0  0  0  0  0  0  0  0
  149.4033  141.6879  154.1117 O   0  0  0  0  0  0  0  0  0  0  0  0
  148.5054  139.4663  154.2375 C   0  0  0  0  0  0  0  0  0  0  0  0
  149.0693  138.2285  154.9596 C   0  0  0  0  0  0  0  0  0  0  0  0
  150.4455  137.7914  154.4204 C   0  0  1  0  0  0  0  0  0  0  0  0
  151.4891  138.6966  154.8515 N   0  0  0  0  0  0  0  0  0  0  0  0
  152.4324  138.0580  155.5407 C   0  0  0  0  0  0  0  0  0  0  0  0
  153.4190  138.6432  155.9817 O   0  0  0  0  0  0  0  0  0  0  0  0
  152.1196  136.7529  155.6560 N   0  5  0  0  0  0  0  0  0  0  0  0
  150.9522  136.4852  155.0317 C   0  0  0  0  0  0  0  0  0  0  0  0
  150.3381  135.4262  154.9141 O   0  0  0  0  0  0  0  0  0  0  0  0
  148.7722  143.1947  158.6407 H   0  0  0  0  0  0  0  0  0  0  0  0
  148.3079  141.4977  158.7392 H   0  0  0  0  0  0  0  0  0  0  0  0
  147.4843  142.5773  157.6164 H   0  0  0  0  0  0  0  0  0  0  0  0
  149.5895  142.8603  156.3135 H   0  0  0  0  0  0  0  0  0  0  0  0
  150.7757  140.9087  158.3368 H   0  0  0  0  0  0  0  0  0  0  0  0
  151.5530  141.3072  156.8226 H   0  0  0  0  0  0  0  0  0  0  0  0
  150.1698  144.4613  157.5890 H   0  0  0  0  0  0  0  0  0  0  0  0
  151.8885  145.9708  159.0773 H   0  0  0  0  0  0  0  0  0  0  0  0
  153.7002  144.0990  160.0242 H   0  0  0  0  0  0  0  0  0  0  0  0
  148.6954  140.0474  156.6994 H   0  0  0  0  0  0  0  0  0  0  0  0
  147.4165  139.4655  154.2944 H   0  0  0  0  0  0  0  0  0  0  0  0
  148.7611  139.4289  153.1774 H   0  0  0  0  0  0  0  0  0  0  0  0
  149.1345  138.4226  156.0319 H   0  0  0  0  0  0  0  0  0  0  0  0
  148.3691  137.3995  154.8443 H   0  0  0  0  0  0  0  0  0  0  0  0
  150.4407  137.7111  153.3327 H   0  0  0  0  0  0  0  0  0  0  0  0
  151.5007  139.6811  154.6311 H   0  0  0  0  0  0  0  0  0  0  0  0
  1  2  1  0  0  0  0
  1 21  1  0  0  0  0
  1 22  1  0  0  0  0
  1 23  1  0  0  0  0
  2  3  1  0  0  0  0
  2  9  1  0  0  0  0
  2 24  1  0  0  0  0
  3  4  1  0  0  0  0
  3 25  1  0  0  0  0
  3 26  1  0  0  0  0
  4  8  1  0  0  0  0
  4  5  1  0  0  0  0
  5  6  2  0  0  0  0
  5 27  1  0  0  0  0
  6  7  1  0  0  0  0
  6 28  1  0  0  0  0
  7  8  2  0  0  0  0
  7 29  1  0  0  0  0
  9 10  1  0  0  0  0
  9 30  1  0  0  0  0
 10 11  2  0  0  0  0
 10 12  1  0  0  0  0
 12 13  1  0  0  0  0
 12 31  1  0  0  0  0
 12 32  1  0  0  0  0
 13 14  1  0  0  0  0
 13 33  1  0  0  0  0
 13 34  1  0  0  0  0
 14 19  1  0  0  0  0
 14 15  1  0  0  0  0
 14 35  1  0  0  0  0
 15 16  1  0  0  0  0
 15 36  1  0  0  0  0
 16 17  2  0  0  0  0
 16 18  1  0  0  0  0
 18 19  1  0  0  0  0
 19 20  2  0  0  0  0
M  CHG  1  18  -1
M  END
> <s_m_source_file>
AV-unprocessed.smi

> <i_m_source_file_index>
1196

> <i_lp_mmshare_version>
43012

> <i_f3d_flags>
0

> <s_epik_input>
bjFbY0hdW2NIXVtjSF1uMVtDSDJdW0NAQEhdKFtDSDNdKVtOSF1DKD1PKVtDSDJdW0NIMl1bQ0BASF0yW05IXUMoPU8pW05IXUMyPU8=

> <s_epik_cmdline>
J2VwaWtfcHl0aG9uJywgJy1waCcsICc3LjAnLCAnLXRuJywgJzgnLCAnLW1hJywgJzIwMCcsICctbWV0YWxfYmluZGluZycsICctaW1hZScsICc8aW5maWxlLm1hZT4nLCAnLW9tYWUnLCAnPG91dGZpbGUubWFlPic=

> <r_lp_tautomer_probability>
1

> <r_epik_Ionization_Penalty>
2.57056

> <r_epik_Ionization_Penalty_Charging>
2.57023

> <r_epik_Ionization_Penalty_Neutral>
0.000331301

> <r_epik_State_Penalty>
2.56828

> <r_epik_Charging_Adjusted_Penalty>
5.13851

> <i_epik_Tot_Q>
-1

> <i_epik_Tot_abs_Q>
1

> <r_epik_Metal_State_Penalty>
0.444883

> <b_epik_Metal_Only>
1

> <s_lp_Force_Field>
OPLS_2005

> <r_lp_Energy>
6.594

> <b_lp_Chiralities_Consistent>
1

> <s_lp_Variant>
AV-unprocessed.smi:1196-12

> <Gold.Version>
5.8.1

> <Gold.Id.Protein>
6NUR|6NUR_protein|mol2

> <Gold.PLP.Fitness>
46.2446

> <Gold.PLP.PLP>
-33.8957

> <Gold.PLP.part.hbond>
-4.0000

> <Gold.PLP.part.metal>
0.0000

> <Gold.PLP.part.buried>
-3.6954

> <Gold.PLP.part.nonpolar>
-27.3094

> <Gold.PLP.part.repulsive>
0.5880

> <Gold.PLP.ligand.clash>
0.0000

> <Gold.PLP.ligand.torsion>
0.6920

> <Gold.PLP.Chemscore.Hbond>
3.4240

> <Gold.PLP.Chemscore.CHOScore>
1.1065

> <Gold.PLP.Chemscore.Metal>
0.0000

> <Gold.Chemscore.Hbonds>
donor molecule, donor type, donor heavy atom, donor atom, acceptor molecule, acceptor atom, score
      P1  H  7989  7998       L1    11  0.01
      P1  H  7997  8010       L1    17  0.90
      P1  H  8011  8017       L1    11  0.56
      P1  H 10752 10765       L1    18  2.00
      L1  C     5    27       P1  8028  1.00
      L1  C     5    27       P1  8029  0.05

> <Gold.PLP.Chemscore.Internal.Correction>
0.1413

> <Gold.Rescore>
     Score         DG    S(hbond)    S(metal)    S(lipo)     H(rot)  DE(clash)    DE(int)     intcor
     12.54     -13.37       2.16        0.00      69.12       2.89       0.14       0.69       ----

> <Gold.Chemscore.Fitness>
12.5353

> <Gold.Chemscore.DG>
-13.3699

> <Gold.Chemscore.ZeroCoef>
-5.4800

> <Gold.Chemscore.Hbond>
2.1595

> <Gold.Chemscore.Metal>
0.0000

> <Gold.Chemscore.Lipo>
69.1226

> <Gold.Chemscore.Internal_Hbond>
0.0000

> <Gold.Chemscore.DEClash>
0.1432

> <Gold.Chemscore.DEInternal>
0.6913

> <Gold.Chemscore.Rot>
2.8946

> <Gold.Chemscore.Internal.Correction>
   9.000000E+99

> <Gold.Chemscore.Hbonds>
donor molecule, donor type, donor heavy atom, donor atom, acceptor molecule, acceptor atom, score
      P1  H  7989  7998       L1    11  0.01
      P1  H  7997  8010       L1    17  0.88
      P1  H  8011  8017       L1    11  0.55
      P1  H 10752 10765       L1    18  0.24

> <Gold.Chemscore.Hbond.Weighted>
-7.2127

> <Gold.Chemscore.Metal.Weighted>
-0.0000

> <Gold.Chemscore.Lipo.Weighted>
-8.0873

> <Gold.Chemscore.Internal_Hbond.Weighted>
0.0000

> <Gold.Chemscore.DEClash.Weighted>
0.1432

> <Gold.Chemscore.DEInternal.Weighted>
0.6913

> <Gold.Chemscore.Rot.Weighted>
7.4101

> <Gold.Chemscore.Internal.Correction.Weighted>
   9.000000E+99

> <Gold.Protein.RotatedTorsions>
[ 6907 6896 6895 6894 ] final  118.08 input  -60.11 | X-H torsion
[ 7974 7965 7964 7962 ] final -120.17 input  175.53 | X-H torsion
[ 8008 7997 7996 7995 ] final   84.75 input   59.86 | X-H torsion
[ 10167 10162 10161 10158 ] final  104.89 input  -65.29 | X-H torsion
[ 10718 10713 10712 10709 ] final  -42.19 input   66.30 | X-H torsion
[ 10763 10752 10751 10750 ] final -155.13 input  -60.55 | X-H torsion
[ 11005 11000 10999 10996 ] final -163.81 input  -57.11 | X-H torsion

> <Gold.Protein.ActiveResidues>
 VAL166  LYS551  ARG553  GLY616  TRP617  ASP618  TYR619  PRO620  LYS621  CYS622 
 ASP623  PHE694  ASN695  SER759  ASP760  ASP761  ALA762  ILE779  LEU786  VAL792 
 PHE793  MET794  SER795  GLU796  ALA797  LYS798  CYS799  TRP800  GLU811  SER814 

> <Gold.Protein.RotatedAtoms>
  152.4568  133.7740  159.6813 H   0  0  0  0  0  0  0  0  0  0  0  0  # atno 6907 bound_to 6896
  150.8497  133.7796  159.3036 H   0  0  0  0  0  0  0  0  0  0  0  0  # atno 6908 bound_to 6896
  151.5395  135.1071  159.9974 H   0  0  0  0  0  0  0  0  0  0  0  0  # atno 6909 bound_to 6896
  145.0543  140.8242  143.4190 H   0  0  0  0  0  0  0  0  0  0  0  0  # atno 7974 bound_to 7965
  155.9411  140.3408  155.6328 H   0  0  0  0  0  0  0  0  0  0  0  0  # atno 8008 bound_to 7997
  155.7038  140.0763  157.2418 H   0  0  0  0  0  0  0  0  0  0  0  0  # atno 8009 bound_to 7997
  154.4103  140.1635  156.2208 H   0  0  0  0  0  0  0  0  0  0  0  0  # atno 8010 bound_to 7997
  139.7139  144.7072  151.0982 H   0  0  0  0  0  0  0  0  0  0  0  0  # atno 10167 bound_to 10162
  156.2623  130.4198  149.8529 H   0  0  0  0  0  0  0  0  0  0  0  0  # atno 10718 bound_to 10713
  154.7809  135.3174  154.7992 H   0  0  0  0  0  0  0  0  0  0  0  0  # atno 10763 bound_to 10752
  153.8703  135.6845  153.4779 H   0  0  0  0  0  0  0  0  0  0  0  0  # atno 10764 bound_to 10752
  153.1445  135.4725  154.9483 H   0  0  0  0  0  0  0  0  0  0  0  0  # atno 10765 bound_to 10752
  140.5939  134.5016  157.5196 H   0  0  0  0  0  0  0  0  0  0  0  0  # atno 11005 bound_to 11000
  145.1488  139.2527  143.5452 LP  0  0  0  0  0  0  0  0  0  0  0  0  # atno 17320 bound_to 7965
  146.3520  140.1185  142.8601 LP  0  0  0  0  0  0  0  0  0  0  0  0  # atno 17321 bound_to 7965
  140.7739  143.5256  150.9484 LP  0  0  0  0  0  0  0  0  0  0  0  0  # atno 17342 bound_to 10162
  139.8942  143.6916  152.3141 LP  0  0  0  0  0  0  0  0  0  0  0  0  # atno 17343 bound_to 10162
  156.6039  130.8558  151.3438 LP  0  0  0  0  0  0  0  0  0  0  0  0  # atno 17370 bound_to 10713
  157.7255  130.9616  150.1616 LP  0  0  0  0  0  0  0  0  0  0  0  0  # atno 17371 bound_to 10713
  139.9262  134.8052  156.1063 LP  0  0  0  0  0  0  0  0  0  0  0  0  # atno 17394 bound_to 11000
  141.0917  133.6712  156.2555 LP  0  0  0  0  0  0  0  0  0  0  0  0  # atno 17395 bound_to 11000

$$$$
