AV-unprocessed.smi:2232|AV-procd|sdf|9038|dock2
  -GOLD-   2272012243D 1   1.00000     0.00000
 Structure written by MMmdl.
 42 43  0  0  0  0  0  0  0  0  1 V2000
  146.9476  142.8392  153.2768 C   0  0  0  0  0  0  0  0  0  0  0  0
  147.6206  141.5477  153.6916 C   0  0  0  0  0  0  0  0  0  0  0  0
  148.5672  141.5281  154.7335 C   0  0  0  0  0  0  0  0  0  0  0  0
  149.1563  140.2947  155.0736 C   0  0  0  0  0  0  0  0  0  0  0  0
  150.1803  140.2014  156.1853 C   0  0  0  0  0  0  0  0  0  0  0  0
  148.8571  139.1374  154.4459 N   0  0  0  0  0  0  0  0  0  0  0  0
  147.9472  139.1441  153.4403 C   0  0  0  0  0  0  0  0  0  0  0  0
  147.5586  137.9820  152.7222 N   0  0  0  0  0  0  0  0  0  0  0  0
  146.3358  137.6584  152.2654 C   0  0  0  0  0  0  0  0  0  0  0  0
  145.3147  138.3286  152.4242 O   0  0  0  0  0  0  0  0  0  0  0  0
  146.3578  136.4927  151.6028 N   0  0  0  0  0  0  0  0  0  0  0  0
  145.1987  135.8593  150.9852 C   0  0  0  0  0  0  0  0  0  0  0  0
  145.5667  134.5001  150.3600 C   0  0  0  0  0  0  0  0  0  0  0  0
  145.2647  133.3364  151.1920 N   0  0  0  0  0  0  0  0  0  0  0  0
  146.3349  133.0276  152.1386 C   0  0  0  0  0  0  0  0  0  0  0  0
  146.0177  131.7786  152.9804 C   0  0  0  0  0  0  0  0  0  0  0  0
  145.7596  130.6729  152.1216 O   0  0  0  0  0  0  0  0  0  0  0  0
  144.6859  130.9197  151.2199 C   0  0  0  0  0  0  0  0  0  0  0  0
  145.0064  132.1600  150.3683 C   0  0  0  0  0  0  0  0  0  0  0  0
  147.3080  140.3385  153.0383 C   0  0  0  0  0  0  0  0  0  0  0  0
  147.2361  143.6640  153.9293 H   0  0  0  0  0  0  0  0  0  0  0  0
  145.8637  142.7326  153.3224 H   0  0  0  0  0  0  0  0  0  0  0  0
  147.2255  143.0984  152.2548 H   0  0  0  0  0  0  0  0  0  0  0  0
  148.8342  142.4337  155.2586 H   0  0  0  0  0  0  0  0  0  0  0  0
  150.2358  141.1326  156.7498 H   0  0  0  0  0  0  0  0  0  0  0  0
  151.1676  139.9926  155.7729 H   0  0  0  0  0  0  0  0  0  0  0  0
  149.9202  139.4007  156.8782 H   0  0  0  0  0  0  0  0  0  0  0  0
  148.2989  137.3242  152.5286 H   0  0  0  0  0  0  0  0  0  0  0  0
  147.2391  136.0075  151.5204 H   0  0  0  0  0  0  0  0  0  0  0  0
  144.4454  135.7376  151.7627 H   0  0  0  0  0  0  0  0  0  0  0  0
  144.7678  136.5220  150.2328 H   0  0  0  0  0  0  0  0  0  0  0  0
  145.0198  134.4050  149.4208 H   0  0  0  0  0  0  0  0  0  0  0  0
  146.6241  134.4947  150.0902 H   0  0  0  0  0  0  0  0  0  0  0  0
  147.2711  132.8703  151.6008 H   0  0  0  0  0  0  0  0  0  0  0  0
  146.4988  133.8669  152.8134 H   0  0  0  0  0  0  0  0  0  0  0  0
  146.8583  131.5360  153.6309 H   0  0  0  0  0  0  0  0  0  0  0  0
  145.1554  131.9556  153.6250 H   0  0  0  0  0  0  0  0  0  0  0  0
  144.5464  130.0469  150.5821 H   0  0  0  0  0  0  0  0  0  0  0  0
  143.7584  131.0619  151.7767 H   0  0  0  0  0  0  0  0  0  0  0  0
  144.1723  132.3567  149.6937 H   0  0  0  0  0  0  0  0  0  0  0  0
  145.8729  131.9504  149.7392 H   0  0  0  0  0  0  0  0  0  0  0  0
  146.5843  140.3308  152.2358 H   0  0  0  0  0  0  0  0  0  0  0  0
  1  2  1  0  0  0  0
  1 21  1  0  0  0  0
  1 22  1  0  0  0  0
  1 23  1  0  0  0  0
  2 20  1  0  0  0  0
  2  3  2  0  0  0  0
  3  4  1  0  0  0  0
  3 24  1  0  0  0  0
  4  5  1  0  0  0  0
  4  6  2  0  0  0  0
  5 25  1  0  0  0  0
  5 26  1  0  0  0  0
  5 27  1  0  0  0  0
  6  7  1  0  0  0  0
  7  8  1  0  0  0  0
  7 20  2  0  0  0  0
  8  9  1  0  0  0  0
  8 28  1  0  0  0  0
  9 10  2  0  0  0  0
  9 11  1  0  0  0  0
 11 12  1  0  0  0  0
 11 29  1  0  0  0  0
 12 13  1  0  0  0  0
 12 30  1  0  0  0  0
 12 31  1  0  0  0  0
 13 14  1  0  0  0  0
 13 32  1  0  0  0  0
 13 33  1  0  0  0  0
 14 19  1  0  0  0  0
 14 15  1  0  0  0  0
 15 16  1  0  0  0  0
 15 34  1  0  0  0  0
 15 35  1  0  0  0  0
 16 17  1  0  0  0  0
 16 36  1  0  0  0  0
 16 37  1  0  0  0  0
 17 18  1  0  0  0  0
 18 19  1  0  0  0  0
 18 38  1  0  0  0  0
 18 39  1  0  0  0  0
 19 40  1  0  0  0  0
 19 41  1  0  0  0  0
 20 42  1  0  0  0  0
M  END
> <s_m_source_file>
AV-unprocessed.smi

> <i_m_source_file_index>
2232

> <i_lp_mmshare_version>
43012

> <i_f3d_flags>
0

> <s_epik_input>
W0NIM11jMVtjSF1jKFtDSDNdKW5jKFtjSF0xKVtOSF1DKD1PKVtOSF1bQ0gyXVtDSDJdTjJbQ0gyXVtDSDJdT1tDSDJdW0NIMl0y

> <s_epik_cmdline>
J2VwaWtfcHl0aG9uJywgJy1waCcsICc3LjAnLCAnLXRuJywgJzgnLCAnLW1hJywgJzIwMCcsICctbWV0YWxfYmluZGluZycsICctaW1hZScsICc8aW5maWxlLm1hZT4nLCAnLW9tYWUnLCAnPG91dGZpbGUubWFlPic=

> <r_epik_Ionization_Penalty>
0.26623

> <r_epik_Ionization_Penalty_Charging>
0

> <r_epik_Ionization_Penalty_Neutral>
0.26623

> <r_epik_State_Penalty>
0.257924

> <r_epik_Charging_Adjusted_Penalty>
0.257924

> <i_epik_Tot_Q>
0

> <i_epik_Tot_abs_Q>
0

> <r_epik_Metal_State_Penalty>
0.257909

> <b_epik_Metal_Only>
0

> <s_lp_Force_Field>
OPLS_2005

> <r_lp_Energy>
21.9386

> <b_lp_Chiralities_Consistent>
1

> <s_lp_Variant>
AV-unprocessed.smi:2232-1

> <Gold.Version>
5.8.1

> <Gold.Id.Protein>
6NUR|6NUR_protein|mol2

> <Gold.PLP.Fitness>
39.9388

> <Gold.PLP.PLP>
-35.9795

> <Gold.PLP.part.hbond>
-2.2958

> <Gold.PLP.part.metal>
0.0000

> <Gold.PLP.part.buried>
-3.6493

> <Gold.PLP.part.nonpolar>
-32.7145

> <Gold.PLP.part.repulsive>
3.2799

> <Gold.PLP.ligand.clash>
0.0000

> <Gold.PLP.ligand.torsion>
0.8555

> <Gold.PLP.Chemscore.Hbond>
1.8800

> <Gold.PLP.Chemscore.CHOScore>
0.0000

> <Gold.PLP.Chemscore.Metal>
0.0000

> <Gold.Chemscore.Hbonds>
donor molecule, donor type, donor heavy atom, donor atom, acceptor molecule, acceptor atom, score
      L1  H     8    28       P1  7948  0.73
      L1  H    11    29       P1  7948  0.83

> <Gold.PLP.Chemscore.Internal.Correction>
0.0302

> <Gold.Rescore>
     Score         DG    S(hbond)    S(metal)    S(lipo)     H(rot)  DE(clash)    DE(int)     intcor
     14.07     -17.63       1.88        0.00      81.73       1.44       1.46       2.10       ----

> <Gold.Chemscore.Fitness>
14.0721

> <Gold.Chemscore.DG>
-17.6258

> <Gold.Chemscore.ZeroCoef>
-5.4800

> <Gold.Chemscore.Hbond>
1.8795

> <Gold.Chemscore.Metal>
0.0000

> <Gold.Chemscore.Lipo>
81.7349

> <Gold.Chemscore.Internal_Hbond>
0.0000

> <Gold.Chemscore.DEClash>
1.4581

> <Gold.Chemscore.DEInternal>
2.0956

> <Gold.Chemscore.Rot>
1.4433

> <Gold.Chemscore.Internal.Correction>
   9.000000E+99

> <Gold.Chemscore.Hbonds>
donor molecule, donor type, donor heavy atom, donor atom, acceptor molecule, acceptor atom, score
      L1  H     8    28       P1  7948  0.72
      L1  H    11    29       P1  7948  0.83

> <Gold.Chemscore.Hbond.Weighted>
-6.2776

> <Gold.Chemscore.Metal.Weighted>
-0.0000

> <Gold.Chemscore.Lipo.Weighted>
-9.5630

> <Gold.Chemscore.Internal_Hbond.Weighted>
0.0000

> <Gold.Chemscore.DEClash.Weighted>
1.4581

> <Gold.Chemscore.DEInternal.Weighted>
2.0956

> <Gold.Chemscore.Rot.Weighted>
3.6948

> <Gold.Chemscore.Internal.Correction.Weighted>
   9.000000E+99

> <Gold.Protein.RotatedTorsions>
[ 6907 6896 6895 6894 ] final -164.04 input  -60.11 | X-H torsion
[ 7974 7965 7964 7962 ] final  128.09 input  175.53 | X-H torsion
[ 8008 7997 7996 7995 ] final   25.76 input   59.86 | X-H torsion
[ 10167 10162 10161 10158 ] final  -86.39 input  -65.29 | X-H torsion
[ 10718 10713 10712 10709 ] final -170.79 input   66.30 | X-H torsion
[ 10763 10752 10751 10750 ] final -148.87 input  -60.55 | X-H torsion
[ 11005 11000 10999 10996 ] final  103.28 input  -57.11 | X-H torsion

> <Gold.Protein.ActiveResidues>
 VAL166  LYS551  ARG553  GLY616  TRP617  ASP618  TYR619  PRO620  LYS621  CYS622 
 ASP623  PHE694  ASN695  SER759  ASP760  ASP761  ALA762  ILE779  LEU786  VAL792 
 PHE793  MET794  SER795  GLU796  ALA797  LYS798  CYS799  TRP800  GLU811  SER814 

> <Gold.Protein.RotatedAtoms>
  151.4055  133.3744  159.2737 H   0  0  0  0  0  0  0  0  0  0  0  0  # atno 6907 bound_to 6896
  150.9402  134.8812  159.7618 H   0  0  0  0  0  0  0  0  0  0  0  0  # atno 6908 bound_to 6896
  152.5068  134.4005  159.9467 H   0  0  0  0  0  0  0  0  0  0  0  0  # atno 6909 bound_to 6896
  145.0434  139.3944  143.5090 H   0  0  0  0  0  0  0  0  0  0  0  0  # atno 7974 bound_to 7965
  155.0168  140.3143  155.4808 H   0  0  0  0  0  0  0  0  0  0  0  0  # atno 8008 bound_to 7997
  156.2899  140.2204  156.5226 H   0  0  0  0  0  0  0  0  0  0  0  0  # atno 8009 bound_to 7997
  154.7487  140.0468  157.0862 H   0  0  0  0  0  0  0  0  0  0  0  0  # atno 8010 bound_to 7997
  140.3946  143.2689  151.9221 H   0  0  0  0  0  0  0  0  0  0  0  0  # atno 10167 bound_to 10162
  156.7314  130.9307  151.3104 H   0  0  0  0  0  0  0  0  0  0  0  0  # atno 10718 bound_to 10713
  154.8209  135.3323  154.7041 H   0  0  0  0  0  0  0  0  0  0  0  0  # atno 10763 bound_to 10752
  153.7674  135.6928  153.4917 H   0  0  0  0  0  0  0  0  0  0  0  0  # atno 10764 bound_to 10752
  153.2068  135.4496  155.0281 H   0  0  0  0  0  0  0  0  0  0  0  0  # atno 10765 bound_to 10752
  139.8783  134.9257  156.5186 H   0  0  0  0  0  0  0  0  0  0  0  0  # atno 11005 bound_to 11000
  146.3511  140.0047  142.8673 LP  0  0  0  0  0  0  0  0  0  0  0  0  # atno 17320 bound_to 7965
  145.1619  140.9677  143.4372 LP  0  0  0  0  0  0  0  0  0  0  0  0  # atno 17321 bound_to 7965
  139.4787  144.5694  151.8113 LP  0  0  0  0  0  0  0  0  0  0  0  0  # atno 17342 bound_to 10162
  140.4804  144.1458  150.5931 LP  0  0  0  0  0  0  0  0  0  0  0  0  # atno 17343 bound_to 10162
  157.6857  130.9183  150.0381 LP  0  0  0  0  0  0  0  0  0  0  0  0  # atno 17370 bound_to 10713
  156.1527  130.3642  149.9415 LP  0  0  0  0  0  0  0  0  0  0  0  0  # atno 17371 bound_to 10713
  140.8467  133.8163  155.9128 LP  0  0  0  0  0  0  0  0  0  0  0  0  # atno 17394 bound_to 11000
  140.9184  134.2172  157.4942 LP  0  0  0  0  0  0  0  0  0  0  0  0  # atno 17395 bound_to 11000

$$$$
