#       Name:                AV-unprocessed.smi:1058
#       Creating user name   scv26
#       Creation time:       Fri Mar 27 03:16:08 2020


#       File generated by GOLD software.
#

@<TRIPOS>MOLECULE
AV-unprocessed.smi:1058
    45    46     1
SMALL
NO_CHARGES


@<TRIPOS>ATOM
      1 ****        -1.4237  -0.9950   2.9399 C.3            1 S1                 0.0000
      2 ****        -0.9386  -0.6081   1.5324 C.3            1 S1                 0.0000
      3 ****         0.5102  -0.8117   1.4841 N.am           1 S1                 0.0000
      4 ****         1.2346  -0.9222   0.3596 C.2            1 S1                 0.0000
      5 ****         0.7412  -0.8821  -0.7684 O.2            1 S1                 0.0000
      6 ****         2.5426  -1.0729   0.6335 N.am           1 S1                 0.0000
      7 ****         3.6187  -1.2243  -0.2815 C.ar           1 S1                 0.0000
      8 ****         4.8973  -1.3379   0.3101 C.ar           1 S1                 0.0000
      9 ****         6.0303  -1.4912  -0.5125 C.ar           1 S1                 0.0000
     10 ****         5.8550  -1.5288  -1.9074 C.ar           1 S1                 0.0000
     11 ****         4.5482  -1.4099  -2.4149 C.ar           1 S1                 0.0000
     12 ****         3.4613  -1.2621  -1.6284 N.ar           1 S1                 0.0000
     13 ****        -1.2930   0.8783   1.2911 C.2            1 S1                 0.0000
     14 ****        -0.4885   1.7388   1.6563 O.2            1 S1                 0.0000
     15 ****        -2.4663   1.2051   0.6921 N.am           1 S1                 0.0000
     16 ****        -3.4753   0.2532   0.2111 C.3            1 S1                 0.0000
     17 ****        -3.2694   0.0281  -1.2950 C.3            1 S1                 0.0000
     18 ****        -3.5062   1.6220  -2.2008 S.o2           1 S1                 0.0000
     19 ****        -2.9219   1.5045  -3.5450 O.2            1 S1                 0.0000
     20 ****        -4.9115   2.0255  -2.0384 O.2            1 S1                 0.0000
     21 ****        -2.4706   2.7702  -1.1876 C.3            1 S1                 0.0000
     22 ****        -2.7845   2.5860   0.3067 C.3            1 S1                 0.0000
     23 ****        -2.5042  -0.8812   3.0350 H              1 S1                 0.0000
     24 ****        -0.9567  -0.3817   3.7123 H              1 S1                 0.0000
     25 ****        -1.1887  -2.0368   3.1601 H              1 S1                 0.0000
     26 ****        -1.3893  -1.2623   0.7864 H              1 S1                 0.0000
     27 ****         0.9937  -0.8472   2.3694 H              1 S1                 0.0000
     28 ****         2.7997  -1.0767   1.6095 H              1 S1                 0.0000
     29 ****         5.0141  -1.3073   1.3837 H              1 S1                 0.0000
     30 ****         7.0162  -1.5786  -0.0801 H              1 S1                 0.0000
     31 ****         6.6991  -1.6457  -2.5711 H              1 S1                 0.0000
     32 ****         4.3699  -1.4337  -3.4797 H              1 S1                 0.0000
     33 ****        -3.4588  -0.6918   0.7512 H              1 S1                 0.0000
     34 ****        -4.4759   0.6492   0.3897 H              1 S1                 0.0000
     35 ****        -2.2655  -0.3437  -1.5043 H              1 S1                 0.0000
     36 ****        -3.9819  -0.6972  -1.6878 H              1 S1                 0.0000
     37 ****        -1.4204   2.5599  -1.3940 H              1 S1                 0.0000
     38 ****        -2.6743   3.7909  -1.5110 H              1 S1                 0.0000
     39 ****        -3.8362   2.8018   0.4995 H              1 S1                 0.0000
     40 ****        -2.2297   3.3176   0.8957 H              1 S1                 0.0000
     41 ****        -0.2455  -0.7621  -0.8786 LP             1 S1                 0.0000
     42 ****         1.3273  -0.9696  -1.5739 LP             1 S1                 0.0000
     43 ****         2.5507  -1.1814  -2.0338 LP             1 S1                 0.0000
     44 ****         0.3678   1.4681   2.0961 LP             1 S1                 0.0000
     45 ****        -0.6925   2.7071   1.5125 LP             1 S1                 0.0000
@<TRIPOS>BOND
    1    1    2 1     
    2    1   23 1     
    3    1   24 1     
    4    1   25 1     
    5    2    3 1     
    6    2   13 1     
    7    2   26 1     
    8    3    4 am    
    9    3   27 1     
   10    4    5 2     
   11    4    6 am    
   12    6    7 1     
   13    6   28 1     
   14    7   12 ar    
   15    7    8 ar    
   16    8    9 ar    
   17    8   29 1     
   18    9   10 ar    
   19    9   30 1     
   20   10   11 ar    
   21   10   31 1     
   22   11   12 ar    
   23   11   32 1     
   24   13   14 2     
   25   13   15 am    
   26   15   22 1     
   27   15   16 1     
   28   16   17 1     
   29   16   33 1     
   30   16   34 1     
   31   17   18 1     
   32   17   35 1     
   33   17   36 1     
   34   18   19 2     
   35   18   20 2     
   36   18   21 1     
   37   21   22 1     
   38   21   37 1     
   39   21   38 1     
   40   22   39 1     
   41   22   40 1     
   42    5   41 1     
   43    5   42 1     
   44   12   43 1     
   45   14   44 1     
   46   14   45 1     
@<TRIPOS>SUBSTRUCTURE
      1 S1             1
@<TRIPOS>SET
LONE_PAIRS      STATIC     ATOMS    <user>   **** ""
7 41 42 43 44 45 19 20
DONOR_HYDROGENS      STATIC     ATOMS    <user>   **** ""
2 27 28
ATOM$BLUE        STATIC     ATOMS    COLORGROUP SYSTEM
7 41 42 43 44 45 19 20
ATOM$RED        STATIC     ATOMS    COLORGROUP SYSTEM
2 27 28
