AV-unprocessed.smi:2751|AV-procd|sdf|10595|dock5
  -GOLD-   2272015 43D 1   1.00000     0.00000
 Structure written by MMmdl.
 34 35  0  0  0  0  0  0  0  0  1 V2000
  149.4169  141.1048  157.0614 O   0  0  0  0  0  0  0  0  0  0  0  0
  149.4703  142.1068  156.3475 C   0  0  0  0  0  0  0  0  0  0  0  0
  150.0003  143.2723  156.7462 N   0  0  0  0  0  0  0  0  0  0  0  0
  150.5943  143.5167  158.0555 C   0  0  0  0  0  0  0  0  0  0  0  0
  152.0494  143.0215  158.1208 C   0  0  0  0  0  0  0  0  0  0  0  0
  152.7088  143.2920  159.4822 C   0  0  2  0  0  0  0  0  0  0  0  0
  152.6655  142.0553  160.4007 C   0  0  0  0  0  0  0  0  0  0  0  0
  153.2676  142.3820  161.7720 C   0  0  0  0  0  0  0  0  0  0  0  0
  152.5812  143.6213  162.3559 C   0  0  0  0  0  0  0  0  0  0  0  0
  152.6161  144.7772  161.3436 C   0  0  0  0  0  0  0  0  0  0  0  0
  152.0183  144.3666  160.1175 O   0  0  0  0  0  0  0  0  0  0  0  0
  149.0158  142.1832  155.0855 N   0  0  0  0  0  0  0  0  0  0  0  0
  148.4064  141.1543  154.3239 C   0  0  0  0  0  0  0  0  0  0  0  0
  148.4435  139.8460  154.5815 N   0  0  0  0  0  0  0  0  0  0  0  0
  147.7098  139.2669  153.5563 C   0  0  0  0  0  0  0  0  0  0  0  0
  147.2663  140.2671  152.7296 C   0  0  0  0  0  0  0  0  0  0  0  0
  147.7012  141.4746  153.2066 O   0  0  0  0  0  0  0  0  0  0  0  0
  150.0004  144.0448  156.0961 H   0  0  0  0  0  0  0  0  0  0  0  0
  150.5396  144.5789  158.2996 H   0  0  0  0  0  0  0  0  0  0  0  0
  149.9894  142.9978  158.7994 H   0  0  0  0  0  0  0  0  0  0  0  0
  152.0875  141.9539  157.8998 H   0  0  0  0  0  0  0  0  0  0  0  0
  152.6309  143.5167  157.3419 H   0  0  0  0  0  0  0  0  0  0  0  0
  153.7483  143.5815  159.3161 H   0  0  0  0  0  0  0  0  0  0  0  0
  151.6335  141.7244  160.5251 H   0  0  0  0  0  0  0  0  0  0  0  0
  153.2074  141.2258  159.9453 H   0  0  0  0  0  0  0  0  0  0  0  0
  153.1615  141.5328  162.4476 H   0  0  0  0  0  0  0  0  0  0  0  0
  154.3371  142.5695  161.6675 H   0  0  0  0  0  0  0  0  0  0  0  0
  151.5454  143.3846  162.6024 H   0  0  0  0  0  0  0  0  0  0  0  0
  153.0651  143.9184  163.2866 H   0  0  0  0  0  0  0  0  0  0  0  0
  152.0669  145.6340  161.7338 H   0  0  0  0  0  0  0  0  0  0  0  0
  153.6402  145.1098  161.1671 H   0  0  0  0  0  0  0  0  0  0  0  0
  149.1254  143.0692  154.6148 H   0  0  0  0  0  0  0  0  0  0  0  0
  147.5629  138.1987  153.4954 H   0  0  0  0  0  0  0  0  0  0  0  0
  146.6744  140.2863  151.8266 H   0  0  0  0  0  0  0  0  0  0  0  0
  1  2  2  0  0  0  0
  2  3  1  0  0  0  0
  2 12  1  0  0  0  0
  3  4  1  0  0  0  0
  3 18  1  0  0  0  0
  4  5  1  0  0  0  0
  4 19  1  0  0  0  0
  4 20  1  0  0  0  0
  5  6  1  0  0  0  0
  5 21  1  0  0  0  0
  5 22  1  0  0  0  0
  6 11  1  0  0  0  0
  6  7  1  0  0  0  0
  6 23  1  0  0  0  0
  7  8  1  0  0  0  0
  7 24  1  0  0  0  0
  7 25  1  0  0  0  0
  8  9  1  0  0  0  0
  8 26  1  0  0  0  0
  8 27  1  0  0  0  0
  9 10  1  0  0  0  0
  9 28  1  0  0  0  0
  9 29  1  0  0  0  0
 10 11  1  0  0  0  0
 10 30  1  0  0  0  0
 10 31  1  0  0  0  0
 12 13  1  0  0  0  0
 12 32  1  0  0  0  0
 13 17  1  0  0  0  0
 13 14  2  0  0  0  0
 14 15  1  0  0  0  0
 15 16  2  0  0  0  0
 15 33  1  0  0  0  0
 16 17  1  0  0  0  0
 16 34  1  0  0  0  0
M  END
> <s_m_source_file>
AV-unprocessed.smi

> <i_m_source_file_index>
2751

> <i_lp_mmshare_version>
43012

> <i_f3d_flags>
0

> <s_epik_input>
bzFbY0hdW2NIXW5jMVtOSF1DKD1PKVtOSF1bQ0gyXVtDSDJdW0NAQEhdMltDSDJdW0NIMl1bQ0gyXVtDSDJdTzI=

> <s_epik_cmdline>
J2VwaWtfcHl0aG9uJywgJy1waCcsICc3LjAnLCAnLXRuJywgJzgnLCAnLW1hJywgJzIwMCcsICctbWV0YWxfYmluZGluZycsICctaW1hZScsICc8aW5maWxlLm1hZT4nLCAnLW9tYWUnLCAnPG91dGZpbGUubWFlPic=

> <r_lp_tautomer_probability>
0.785861

> <r_epik_Ionization_Penalty>
4.88827e-05

> <r_epik_Ionization_Penalty_Charging>
0

> <r_epik_Ionization_Penalty_Neutral>
4.88827e-05

> <r_epik_State_Penalty>
0.0434822

> <r_epik_Charging_Adjusted_Penalty>
0.0434822

> <i_epik_Tot_Q>
0

> <i_epik_Tot_abs_Q>
0

> <r_epik_Metal_State_Penalty>
0.0598982

> <b_epik_Metal_Only>
0

> <s_lp_Force_Field>
OPLS_2005

> <r_lp_Energy>
7.87484

> <b_lp_Chiralities_Consistent>
1

> <s_lp_Variant>
AV-unprocessed.smi:2751-1

> <Gold.Version>
5.8.1

> <Gold.Id.Protein>
6NUR|6NUR_protein|mol2

> <Gold.PLP.Fitness>
43.3829

> <Gold.PLP.PLP>
-33.2860

> <Gold.PLP.part.hbond>
-2.0000

> <Gold.PLP.part.metal>
0.0000

> <Gold.PLP.part.buried>
-3.2041

> <Gold.PLP.part.nonpolar>
-28.5254

> <Gold.PLP.part.repulsive>
0.5226

> <Gold.PLP.ligand.clash>
0.0000

> <Gold.PLP.ligand.torsion>
0.7347

> <Gold.PLP.Chemscore.Hbond>
1.8640

> <Gold.PLP.Chemscore.CHOScore>
1.9902

> <Gold.PLP.Chemscore.Metal>
0.0000

> <Gold.Chemscore.Hbonds>
donor molecule, donor type, donor heavy atom, donor atom, acceptor molecule, acceptor atom, score
      L1  H     3    18       P1  8028  0.31
      L1  H    12    32       P1  8028  0.40
      L1  C    15    33       P1  7948  0.07

> <Gold.PLP.Chemscore.Internal.Correction>
0.0036

> <Gold.Rescore>
     Score         DG    S(hbond)    S(metal)    S(lipo)     H(rot)  DE(clash)    DE(int)     intcor
     15.22     -17.27       1.72        0.00      87.32       1.63       0.34       1.72       ----

> <Gold.Chemscore.Fitness>
15.2200

> <Gold.Chemscore.DG>
-17.2736

> <Gold.Chemscore.ZeroCoef>
-5.4800

> <Gold.Chemscore.Hbond>
1.7238

> <Gold.Chemscore.Metal>
0.0000

> <Gold.Chemscore.Lipo>
87.3172

> <Gold.Chemscore.Internal_Hbond>
0.0000

> <Gold.Chemscore.DEClash>
0.3370

> <Gold.Chemscore.DEInternal>
1.7166

> <Gold.Chemscore.Rot>
1.6328

> <Gold.Chemscore.Internal.Correction>
   9.000000E+99

> <Gold.Chemscore.Hbonds>
donor molecule, donor type, donor heavy atom, donor atom, acceptor molecule, acceptor atom, score
      L1  H     3    18       P1  8028  0.32
      L1  H    12    32       P1  8028  0.40

> <Gold.Chemscore.Hbond.Weighted>
-5.7574

> <Gold.Chemscore.Metal.Weighted>
-0.0000

> <Gold.Chemscore.Lipo.Weighted>
-10.2161

> <Gold.Chemscore.Internal_Hbond.Weighted>
0.0000

> <Gold.Chemscore.DEClash.Weighted>
0.3370

> <Gold.Chemscore.DEInternal.Weighted>
1.7166

> <Gold.Chemscore.Rot.Weighted>
4.1799

> <Gold.Chemscore.Internal.Correction.Weighted>
   9.000000E+99

> <Gold.Protein.RotatedTorsions>
[ 6907 6896 6895 6894 ] final   99.84 input  -60.11 | X-H torsion
[ 7974 7965 7964 7962 ] final  171.52 input  175.53 | X-H torsion
[ 8008 7997 7996 7995 ] final   43.33 input   59.86 | X-H torsion
[ 10167 10162 10161 10158 ] final  117.43 input  -65.29 | X-H torsion
[ 10718 10713 10712 10709 ] final  168.58 input   66.30 | X-H torsion
[ 10763 10752 10751 10750 ] final -162.12 input  -60.55 | X-H torsion
[ 11005 11000 10999 10996 ] final  118.97 input  -57.11 | X-H torsion

> <Gold.Protein.ActiveResidues>
 VAL166  LYS551  ARG553  GLY616  TRP617  ASP618  TYR619  PRO620  LYS621  CYS622 
 ASP623  PHE694  ASN695  SER759  ASP760  ASP761  ALA762  ILE779  LEU786  VAL792 
 PHE793  MET794  SER795  GLU796  ALA797  LYS798  CYS799  TRP800  GLU811  SER814 

> <Gold.Protein.RotatedAtoms>
  152.5384  134.0367  159.8048 H   0  0  0  0  0  0  0  0  0  0  0  0  # atno 6907 bound_to 6896
  151.0529  133.5601  159.2648 H   0  0  0  0  0  0  0  0  0  0  0  0  # atno 6908 bound_to 6896
  151.2528  135.0636  159.9122 H   0  0  0  0  0  0  0  0  0  0  0  0  # atno 6909 bound_to 6896
  144.7292  139.9362  143.6427 H   0  0  0  0  0  0  0  0  0  0  0  0  # atno 7974 bound_to 7965
  155.3010  140.3385  155.4248 H   0  0  0  0  0  0  0  0  0  0  0  0  # atno 8008 bound_to 7997
  156.2001  140.1730  156.7955 H   0  0  0  0  0  0  0  0  0  0  0  0  # atno 8009 bound_to 7997
  154.5549  140.0698  156.8711 H   0  0  0  0  0  0  0  0  0  0  0  0  # atno 8010 bound_to 7997
  139.6179  144.7095  151.2698 H   0  0  0  0  0  0  0  0  0  0  0  0  # atno 10167 bound_to 10162
  157.0350  131.0270  151.2732 H   0  0  0  0  0  0  0  0  0  0  0  0  # atno 10718 bound_to 10713
  154.7243  135.3032  154.8996 H   0  0  0  0  0  0  0  0  0  0  0  0  # atno 10763 bound_to 10752
  153.9859  135.6724  153.4756 H   0  0  0  0  0  0  0  0  0  0  0  0  # atno 10764 bound_to 10752
  153.0861  135.4983  154.8518 H   0  0  0  0  0  0  0  0  0  0  0  0  # atno 10765 bound_to 10752
  139.9129  134.9625  156.7584 H   0  0  0  0  0  0  0  0  0  0  0  0  # atno 11005 bound_to 11000
  146.0819  139.3807  143.0459 LP  0  0  0  0  0  0  0  0  0  0  0  0  # atno 17320 bound_to 7965
  145.7828  140.9848  143.1090 LP  0  0  0  0  0  0  0  0  0  0  0  0  # atno 17321 bound_to 7965
  140.7363  143.6711  150.8081 LP  0  0  0  0  0  0  0  0  0  0  0  0  # atno 17342 bound_to 10162
  140.0317  143.5437  152.2757 LP  0  0  0  0  0  0  0  0  0  0  0  0  # atno 17343 bound_to 10162
  157.5148  130.7961  149.7744 LP  0  0  0  0  0  0  0  0  0  0  0  0  # atno 17370 bound_to 10713
  156.0057  130.3857  150.2441 LP  0  0  0  0  0  0  0  0  0  0  0  0  # atno 17371 bound_to 10713
  140.6717  133.9554  155.7860 LP  0  0  0  0  0  0  0  0  0  0  0  0  # atno 17394 bound_to 11000
  141.0573  134.0398  157.3706 LP  0  0  0  0  0  0  0  0  0  0  0  0  # atno 17395 bound_to 11000

$$$$
