#       Name:                AV-unprocessed.smi:3242
#       Creating user name   scv26
#       Creation time:       Fri Mar 27 18:26:36 2020


#       File generated by GOLD software.
#

@<TRIPOS>MOLECULE
AV-unprocessed.smi:3242
    43    44     1
SMALL
NO_CHARGES


@<TRIPOS>ATOM
      1 ****        -2.8965   1.9844  -3.7630 C.3            1 S1                 0.0000
      2 ****        -2.8225   0.7513  -3.0094 N.pl3          1 S1                 0.0000
      3 ****        -1.9200  -0.2821  -3.1371 C.2            1 S1                 0.0000
      4 ****        -2.2426  -1.2264  -2.2029 C.2            1 S1                 0.0000
      5 ****        -1.5610  -2.5382  -1.9112 C.3            1 S1                 0.0000
      6 ****        -0.0742  -2.3661  -1.5571 C.3            1 S1                 0.0000
      7 ****         0.0993  -1.4172  -0.4617 N.am           1 S1                 0.0000
      8 ****         1.1561  -0.6051  -0.2896 C.2            1 S1                 0.0000
      9 ****         2.1196  -0.6150  -1.0581 O.2            1 S1                 0.0000
     10 ****         1.0382   0.2693   0.7448 N.am           1 S1                 0.0000
     11 ****         0.0135   0.1585   1.8059 C.3            1 S1                 0.0000
     12 ****         0.4692   0.6080   3.2105 C.3            1 S1                 0.0000
     13 ****         1.8535   0.0840   3.6363 C.3            1 S1                 0.0000
     14 ****         3.0108   0.9840   3.1713 C.3            1 S1                 0.0000
     15 ****         3.2312   1.0138   1.6508 C.3            1 S1                 0.0000
     16 ****         1.9729   1.4000   0.8534 C.3            1 S1                 0.0000
     17 ****        -3.3786  -0.6689  -1.5496 C.2            1 S1                 0.0000
     18 ****        -3.7217   0.5141  -2.0325 N.2            1 S1                 0.0000
     19 ****        -2.1247   1.9994  -4.5330 H              1 S1                 0.0000
     20 ****        -2.7479   2.8336  -3.0955 H              1 S1                 0.0000
     21 ****        -3.8739   2.0688  -4.2394 H              1 S1                 0.0000
     22 ****        -1.1254  -0.2584  -3.8684 H              1 S1                 0.0000
     23 ****        -2.0607  -3.0484  -1.0870 H              1 S1                 0.0000
     24 ****        -1.6464  -3.2112  -2.7647 H              1 S1                 0.0000
     25 ****         0.3606  -3.3248  -1.2732 H              1 S1                 0.0000
     26 ****         0.4648  -2.0249  -2.4426 H              1 S1                 0.0000
     27 ****        -0.6636  -1.3384   0.1947 H              1 S1                 0.0000
     28 ****        -0.8690   0.7240   1.5042 H              1 S1                 0.0000
     29 ****        -0.3129  -0.8762   1.9188 H              1 S1                 0.0000
     30 ****         0.4421   1.6952   3.2917 H              1 S1                 0.0000
     31 ****        -0.2729   0.2542   3.9270 H              1 S1                 0.0000
     32 ****         1.8823   0.0445   4.7256 H              1 S1                 0.0000
     33 ****         1.9991  -0.9423   3.2963 H              1 S1                 0.0000
     34 ****         2.8437   1.9997   3.5318 H              1 S1                 0.0000
     35 ****         3.9324   0.6495   3.6484 H              1 S1                 0.0000
     36 ****         4.0187   1.7365   1.4355 H              1 S1                 0.0000
     37 ****         3.6124   0.0502   1.3102 H              1 S1                 0.0000
     38 ****         2.2688   1.7382  -0.1413 H              1 S1                 0.0000
     39 ****         1.4834   2.2670   1.2980 H              1 S1                 0.0000
     40 ****        -3.9571  -1.0849  -0.7381 H              1 S1                 0.0000
     41 ****         2.1305  -1.2405  -1.8382 LP             1 S1                 0.0000
     42 ****         2.8904   0.0025  -0.9015 LP             1 S1                 0.0000
     43 ****        -4.4772   1.1001  -1.7394 LP             1 S1                 0.0000
@<TRIPOS>BOND
    1    1    2 1     
    2    1   19 1     
    3    1   20 1     
    4    1   21 1     
    5    2   18 1     
    6    2    3 1     
    7    3    4 2     
    8    3   22 1     
    9    4    5 1     
   10    4   17 1     
   11    5    6 1     
   12    5   23 1     
   13    5   24 1     
   14    6    7 1     
   15    6   25 1     
   16    6   26 1     
   17    7    8 am    
   18    7   27 1     
   19    8    9 2     
   20    8   10 am    
   21   10   16 1     
   22   10   11 1     
   23   11   12 1     
   24   11   28 1     
   25   11   29 1     
   26   12   13 1     
   27   12   30 1     
   28   12   31 1     
   29   13   14 1     
   30   13   32 1     
   31   13   33 1     
   32   14   15 1     
   33   14   34 1     
   34   14   35 1     
   35   15   16 1     
   36   15   36 1     
   37   15   37 1     
   38   16   38 1     
   39   16   39 1     
   40   17   18 2     
   41   17   40 1     
   42    9   41 1     
   43    9   42 1     
   44   18   43 1     
@<TRIPOS>SUBSTRUCTURE
      1 S1             1
@<TRIPOS>SET
LONE_PAIRS      STATIC     ATOMS    <user>   **** ""
3 41 42 43
DONOR_HYDROGENS      STATIC     ATOMS    <user>   **** ""
1 27
ATOM$BLUE        STATIC     ATOMS    COLORGROUP SYSTEM
3 41 42 43
ATOM$RED        STATIC     ATOMS    COLORGROUP SYSTEM
1 27
