#       Name:                AV-unprocessed.smi:363
#       Creating user name   scv26
#       Creation time:       Thu Mar 26 22:36:23 2020


#       File generated by GOLD software.
#

@<TRIPOS>MOLECULE
AV-unprocessed.smi:363
    45    46     1
SMALL
NO_CHARGES


@<TRIPOS>ATOM
      1 ****        -4.9588   0.6281  -0.6687 C.3            1 S1                 0.0000
      2 ****        -3.4766   0.2876  -0.5758 C.2            1 S1                 0.0000
      3 ****        -2.5307   1.3791  -0.5824 C.2            1 S1                 0.0000
      4 ****        -1.2080   1.1524  -0.5477 C.2            1 S1                 0.0000
      5 ****        -0.2193   2.3136  -0.5639 C.3            1 S1                 0.0000
      6 ****        -0.7053  -0.1766  -0.4854 N.am           1 S1                 0.0000
      7 ****         0.7584  -0.4038  -0.4549 C.3            1 S1                 0.0000
      8 ****         1.3413  -0.3426   0.9779 C.3            1 S1                 0.0000
      9 ****         1.1798  -1.6014   1.6000 O.3            1 S1                 0.0000
     10 ****         2.8088   0.0588   0.9509 C.ar           1 S1                 0.0000
     11 ****         3.7803  -0.8161   0.4163 C.ar           1 S1                 0.0000
     12 ****         5.1363  -0.4373   0.3829 C.ar           1 S1                 0.0000
     13 ****         5.5292   0.8196   0.8819 C.ar           1 S1                 0.0000
     14 ****         7.1905   1.2838   0.8401 Cl             1 S1                 0.0000
     15 ****         4.5646   1.6970   1.4141 C.ar           1 S1                 0.0000
     16 ****         3.2084   1.3179   1.4487 C.ar           1 S1                 0.0000
     17 ****        -1.5346  -1.2684  -0.4406 C.2            1 S1                 0.0000
     18 ****        -1.0630  -2.4039  -0.3220 O.2            1 S1                 0.0000
     19 ****        -2.9939  -0.9831  -0.5225 C.2            1 S1                 0.0000
     20 ****        -3.8974  -2.1507  -0.5148 C.2            1 S1                 0.0000
     21 ****        -3.5530  -3.1439  -1.3461 N.am           1 S1                 0.0000
     22 ****        -4.9449  -2.2241   0.1259 O.2            1 S1                 0.0000
     23 ****        -5.1068   1.6868  -0.8833 H              1 S1                 0.0000
     24 ****        -5.4620   0.4082   0.2731 H              1 S1                 0.0000
     25 ****        -5.4425   0.0632  -1.4662 H              1 S1                 0.0000
     26 ****        -2.8950   2.3955  -0.6245 H              1 S1                 0.0000
     27 ****        -0.7337   3.2595  -0.3915 H              1 S1                 0.0000
     28 ****         0.2723   2.3839  -1.5345 H              1 S1                 0.0000
     29 ****         0.5390   2.2256   0.2117 H              1 S1                 0.0000
     30 ****         1.0499  -1.3351  -0.9448 H              1 S1                 0.0000
     31 ****         1.2444   0.3443  -1.0796 H              1 S1                 0.0000
     32 ****         0.7930   0.3852   1.5770 H              1 S1                 0.0000
     33 ****         1.4700  -1.5324   2.4967 H              1 S1                 0.0000
     34 ****         3.4865  -1.7802   0.0278 H              1 S1                 0.0000
     35 ****         5.8734  -1.1118  -0.0277 H              1 S1                 0.0000
     36 ****         4.8629   2.6626   1.7954 H              1 S1                 0.0000
     37 ****         2.4771   1.9999   1.8574 H              1 S1                 0.0000
     38 ****        -4.1298  -3.9702  -1.4117 H              1 S1                 0.0000
     39 ****        -2.7255  -3.0546  -1.9176 H              1 S1                 0.0000
     40 ****         1.7269  -2.2873   1.1203 LP             1 S1                 0.0000
     41 ****         0.2162  -1.8679   1.5770 LP             1 S1                 0.0000
     42 ****        -0.0730  -2.5300  -0.2582 LP             1 S1                 0.0000
     43 ****        -1.6712  -3.1970  -0.2897 LP             1 S1                 0.0000
     44 ****        -5.2381  -1.4556   0.6946 LP             1 S1                 0.0000
     45 ****        -5.5033  -3.0523   0.0781 LP             1 S1                 0.0000
@<TRIPOS>BOND
    1    1    2 1     
    2    1   23 1     
    3    1   24 1     
    4    1   25 1     
    5    2   19 2     
    6    2    3 1     
    7    3    4 2     
    8    3   26 1     
    9    4    5 1     
   10    4    6 1     
   11    5   27 1     
   12    5   28 1     
   13    5   29 1     
   14    6    7 1     
   15    6   17 am    
   16    7    8 1     
   17    7   30 1     
   18    7   31 1     
   19    8    9 1     
   20    8   10 1     
   21    8   32 1     
   22    9   33 1     
   23   10   16 ar    
   24   10   11 ar    
   25   11   12 ar    
   26   11   34 1     
   27   12   13 ar    
   28   12   35 1     
   29   13   14 1     
   30   13   15 ar    
   31   15   16 ar    
   32   15   36 1     
   33   16   37 1     
   34   17   18 2     
   35   17   19 1     
   36   19   20 1     
   37   20   21 am    
   38   20   22 2     
   39   21   38 1     
   40   21   39 1     
   41    9   40 1     
   42    9   41 1     
   43   18   42 1     
   44   18   43 1     
   45   22   44 1     
   46   22   45 1     
@<TRIPOS>SUBSTRUCTURE
      1 S1             1
@<TRIPOS>SET
LONE_PAIRS      STATIC     ATOMS    <user>   **** ""
6 40 41 42 43 44 45
DONOR_HYDROGENS      STATIC     ATOMS    <user>   **** ""
3 33 38 39
ATOM$BLUE        STATIC     ATOMS    COLORGROUP SYSTEM
6 40 41 42 43 44 45
ATOM$RED        STATIC     ATOMS    COLORGROUP SYSTEM
3 33 38 39
