AV-unprocessed.smi:2438|AV-procd|sdf|9599|dock5
  -GOLD-   2272013233D 1   1.00000     0.00000
 Structure written by MMmdl.
 44 45  0  0  0  0  0  0  0  0  2 V2000
  150.1800  141.4444  157.5254 C   0  0  0  0  0  0  0  0  0  0  0  0
  150.4996  140.0244  157.6057 N   0  0  0  0  0  0  0  0  0  0  0  0
  151.8509  139.6939  158.0387 C   0  0  0  0  0  0  0  0  0  0  0  0
  150.0166  139.2064  156.5644 C   0  0  0  0  0  0  0  0  0  0  0  0
  150.4112  139.4847  155.3005 N   0  0  0  0  0  0  0  0  0  0  0  0
  149.9896  138.7195  154.2884 C   0  0  0  0  0  0  0  0  0  0  0  0
  149.1731  137.6716  154.4593 N   0  3  0  0  0  0  0  0  0  0  0  0
  148.7454  137.3524  155.7037 C   0  0  0  0  0  0  0  0  0  0  0  0
  149.1604  138.1093  156.8247 C   0  0  0  0  0  0  0  0  0  0  0  0
  148.7141  137.8483  158.1508 N   0  0  0  0  0  0  0  0  0  0  0  0
  147.4960  137.4480  158.5493 C   0  0  0  0  0  0  0  0  0  0  0  0
  146.5226  137.2984  157.8111 O   0  0  0  0  0  0  0  0  0  0  0  0
  147.4745  137.2034  159.8667 N   0  0  0  0  0  0  0  0  0  0  0  0
  146.3268  136.6944  160.6165 C   0  0  2  0  0  0  0  0  0  0  0  0
  146.3729  137.2022  162.0704 C   0  0  0  0  0  0  0  0  0  0  0  0
  147.5048  136.5446  162.8786 C   0  0  0  0  0  0  0  0  0  0  0  0
  147.4164  135.0110  162.8246 C   0  0  0  0  0  0  0  0  0  0  0  0
  147.4137  134.4906  161.3718 C   0  0  1  0  0  0  0  0  0  0  0  0
  147.3498  132.9513  161.3053 C   0  0  0  0  0  0  0  0  0  0  0  0
  147.3724  132.5287  160.0409 F   0  0  0  0  0  0  0  0  0  0  0  0
  148.3871  132.4239  161.9556 F   0  0  0  0  0  0  0  0  0  0  0  0
  146.2315  132.5163  161.8859 F   0  0  0  0  0  0  0  0  0  0  0  0
  146.2647  135.1513  160.5772 C   0  0  0  0  0  0  0  0  0  0  0  0
  149.1286  141.5939  157.2772 H   0  0  0  0  0  0  0  0  0  0  0  0
  150.7905  141.9401  156.7696 H   0  0  0  0  0  0  0  0  0  0  0  0
  150.3690  141.9277  158.4842 H   0  0  0  0  0  0  0  0  0  0  0  0
  152.0248  138.6181  158.0667 H   0  0  0  0  0  0  0  0  0  0  0  0
  152.0311  140.0873  159.0396 H   0  0  0  0  0  0  0  0  0  0  0  0
  152.5837  140.1361  157.3628 H   0  0  0  0  0  0  0  0  0  0  0  0
  150.2996  138.9351  153.2765 H   0  0  0  0  0  0  0  0  0  0  0  0
  148.0715  136.5102  155.7433 H   0  0  0  0  0  0  0  0  0  0  0  0
  149.4335  137.8597  158.8597 H   0  0  0  0  0  0  0  0  0  0  0  0
  148.3226  137.3579  160.3920 H   0  0  0  0  0  0  0  0  0  0  0  0
  145.4217  137.0914  160.1531 H   0  0  0  0  0  0  0  0  0  0  0  0
  146.4800  138.2874  162.0897 H   0  0  0  0  0  0  0  0  0  0  0  0
  145.4198  136.9843  162.5542 H   0  0  0  0  0  0  0  0  0  0  0  0
  148.4718  136.8688  162.4926 H   0  0  0  0  0  0  0  0  0  0  0  0
  147.4613  136.8808  163.9150 H   0  0  0  0  0  0  0  0  0  0  0  0
  148.2539  134.5824  163.3756 H   0  0  0  0  0  0  0  0  0  0  0  0
  146.5112  134.6819  163.3365 H   0  0  0  0  0  0  0  0  0  0  0  0
  148.3564  134.7901  160.9113 H   0  0  0  0  0  0  0  0  0  0  0  0
  145.3093  134.8273  160.9919 H   0  0  0  0  0  0  0  0  0  0  0  0
  146.2719  134.8025  159.5441 H   0  0  0  0  0  0  0  0  0  0  0  0
  148.8643  137.1149  153.6620 H   0  0  0  0  0  0  0  0  0  0  0  0
  1  2  1  0  0  0  0
  1 24  1  0  0  0  0
  1 25  1  0  0  0  0
  1 26  1  0  0  0  0
  2  3  1  0  0  0  0
  2  4  1  0  0  0  0
  3 27  1  0  0  0  0
  3 28  1  0  0  0  0
  3 29  1  0  0  0  0
  4  9  1  0  0  0  0
  4  5  2  0  0  0  0
  5  6  1  0  0  0  0
  6  7  2  0  0  0  0
  6 30  1  0  0  0  0
  7  8  1  0  0  0  0
  7 44  1  0  0  0  0
  8  9  2  0  0  0  0
  8 31  1  0  0  0  0
  9 10  1  0  0  0  0
 10 11  1  0  0  0  0
 10 32  1  0  0  0  0
 11 12  2  0  0  0  0
 11 13  1  0  0  0  0
 13 14  1  0  0  0  0
 13 33  1  0  0  0  0
 14 23  1  0  0  0  0
 14 15  1  0  0  0  0
 14 34  1  0  0  0  0
 15 16  1  0  0  0  0
 15 35  1  0  0  0  0
 15 36  1  0  0  0  0
 16 17  1  0  0  0  0
 16 37  1  0  0  0  0
 16 38  1  0  0  0  0
 17 18  1  0  0  0  0
 17 39  1  0  0  0  0
 17 40  1  0  0  0  0
 18 19  1  0  0  0  0
 18 23  1  0  0  0  0
 18 41  1  0  0  0  0
 19 20  1  0  0  0  0
 19 21  1  0  0  0  0
 19 22  1  0  0  0  0
 23 42  1  0  0  0  0
 23 43  1  0  0  0  0
M  CHG  1   7   1
M  END
> <s_m_source_file>
AV-unprocessed.smi

> <i_m_source_file_index>
2438

> <i_lp_mmshare_version>
43012

> <i_f3d_flags>
0

> <s_epik_input>
W0NIM11OKFtDSDNdKWMxbltjSF1uW2NIXWMxW05IXUMoPU8pW05IXVtDQEBIXTJbQ0gyXVtDSDJdW0NIMl1bQ0BASF0oQyhGKShGKUYpW0NIMl0y

> <s_epik_cmdline>
J2VwaWtfcHl0aG9uJywgJy1waCcsICc3LjAnLCAnLXRuJywgJzgnLCAnLW1hJywgJzIwMCcsICctbWV0YWxfYmluZGluZycsICctaW1hZScsICc8aW5maWxlLm1hZT4nLCAnLW9tYWUnLCAnPG91dGZpbGUubWFlPic=

> <r_lp_tautomer_probability>
0.999336

> <r_epik_Ionization_Penalty>
2.11643

> <r_epik_Ionization_Penalty_Charging>
2.11639

> <r_epik_Ionization_Penalty_Neutral>
4.47523e-05

> <r_epik_State_Penalty>
2.25369

> <r_epik_Charging_Adjusted_Penalty>
4.37008

> <i_epik_Tot_Q>
1

> <i_epik_Tot_abs_Q>
1

> <r_epik_Metal_State_Penalty>
2.27019

> <b_epik_Metal_Only>
0

> <s_lp_Force_Field>
OPLS_2005

> <r_lp_Energy>
15.0376

> <b_lp_Chiralities_Consistent>
1

> <s_lp_Variant>
AV-unprocessed.smi:2438-5

> <Gold.Version>
5.8.1

> <Gold.Id.Protein>
6NUR|6NUR_protein|mol2

> <Gold.PLP.Fitness>
38.0204

> <Gold.PLP.PLP>
-30.5302

> <Gold.PLP.part.hbond>
-1.0000

> <Gold.PLP.part.metal>
0.0000

> <Gold.PLP.part.buried>
-4.5067

> <Gold.PLP.part.nonpolar>
-24.9439

> <Gold.PLP.part.repulsive>
1.0774

> <Gold.PLP.ligand.clash>
0.0000

> <Gold.PLP.ligand.torsion>
0.9531

> <Gold.PLP.Chemscore.Hbond>
2.0000

> <Gold.PLP.Chemscore.CHOScore>
1.0000

> <Gold.PLP.Chemscore.Metal>
0.0000

> <Gold.Chemscore.Hbonds>
donor molecule, donor type, donor heavy atom, donor atom, acceptor molecule, acceptor atom, score
      L1  H     7    44       P1  7948  2.00
      L1  C     6    30       P1  7957  1.00

> <Gold.PLP.Chemscore.Internal.Correction>
0.3965

> <Gold.Rescore>
     Score         DG    S(hbond)    S(metal)    S(lipo)     H(rot)  DE(clash)    DE(int)     intcor
     11.15     -12.73       0.98        0.00      62.69       1.31       0.02       1.55       ----

> <Gold.Chemscore.Fitness>
11.1532

> <Gold.Chemscore.DG>
-12.7267

> <Gold.Chemscore.ZeroCoef>
-5.4800

> <Gold.Chemscore.Hbond>
0.9760

> <Gold.Chemscore.Metal>
0.0000

> <Gold.Chemscore.Lipo>
62.6910

> <Gold.Chemscore.Internal_Hbond>
0.0000

> <Gold.Chemscore.DEClash>
0.0246

> <Gold.Chemscore.DEInternal>
1.5489

> <Gold.Chemscore.Rot>
1.3078

> <Gold.Chemscore.Internal.Correction>
   9.000000E+99

> <Gold.Chemscore.Hbonds>
donor molecule, donor type, donor heavy atom, donor atom, acceptor molecule, acceptor atom, score
      L1  H     7    44       P1  7948  0.96

> <Gold.Chemscore.Hbond.Weighted>
-3.2599

> <Gold.Chemscore.Metal.Weighted>
-0.0000

> <Gold.Chemscore.Lipo.Weighted>
-7.3348

> <Gold.Chemscore.Internal_Hbond.Weighted>
0.0000

> <Gold.Chemscore.DEClash.Weighted>
0.0246

> <Gold.Chemscore.DEInternal.Weighted>
1.5489

> <Gold.Chemscore.Rot.Weighted>
3.3481

> <Gold.Chemscore.Internal.Correction.Weighted>
   9.000000E+99

> <Gold.Protein.RotatedTorsions>
[ 6907 6896 6895 6894 ] final  139.74 input  -60.11 | X-H torsion
[ 7974 7965 7964 7962 ] final -165.91 input  175.53 | X-H torsion
[ 8008 7997 7996 7995 ] final   86.80 input   59.86 | X-H torsion
[ 10167 10162 10161 10158 ] final -157.25 input  -65.29 | X-H torsion
[ 10718 10713 10712 10709 ] final  167.42 input   66.30 | X-H torsion
[ 10763 10752 10751 10750 ] final  -89.27 input  -60.55 | X-H torsion
[ 11005 11000 10999 10996 ] final  111.58 input  -57.11 | X-H torsion

> <Gold.Protein.ActiveResidues>
 VAL166  LYS551  ARG553  GLY616  TRP617  ASP618  TYR619  PRO620  LYS621  CYS622 
 ASP623  PHE694  ASN695  SER759  ASP760  ASP761  ALA762  ILE779  LEU786  VAL792 
 PHE793  MET794  SER795  GLU796  ALA797  LYS798  CYS799  TRP800  GLU811  SER814 

> <Gold.Protein.RotatedAtoms>
  152.2514  133.5218  159.5327 H   0  0  0  0  0  0  0  0  0  0  0  0  # atno 6907 bound_to 6896
  150.7095  134.0955  159.3956 H   0  0  0  0  0  0  0  0  0  0  0  0  # atno 6908 bound_to 6896
  151.8875  135.0430  160.0545 H   0  0  0  0  0  0  0  0  0  0  0  0  # atno 6909 bound_to 6896
  144.7258  140.2745  143.6245 H   0  0  0  0  0  0  0  0  0  0  0  0  # atno 7974 bound_to 7965
  155.9674  140.3388  155.6545 H   0  0  0  0  0  0  0  0  0  0  0  0  # atno 8008 bound_to 7997
  155.6719  140.0728  157.2535 H   0  0  0  0  0  0  0  0  0  0  0  0  # atno 8009 bound_to 7997
  154.4158  140.1690  156.1876 H   0  0  0  0  0  0  0  0  0  0  0  0  # atno 8010 bound_to 7997
  139.6785  143.9621  152.2324 H   0  0  0  0  0  0  0  0  0  0  0  0  # atno 10167 bound_to 10162
  157.0518  131.0315  151.2678 H   0  0  0  0  0  0  0  0  0  0  0  0  # atno 10718 bound_to 10713
  154.6534  135.5347  153.7929 H   0  0  0  0  0  0  0  0  0  0  0  0  # atno 10763 bound_to 10752
  153.0399  135.6488  154.0982 H   0  0  0  0  0  0  0  0  0  0  0  0  # atno 10764 bound_to 10752
  154.0897  135.2941  155.3254 H   0  0  0  0  0  0  0  0  0  0  0  0  # atno 10765 bound_to 10752
  139.8907  134.9511  156.6454 H   0  0  0  0  0  0  0  0  0  0  0  0  # atno 11005 bound_to 11000
  145.8010  139.1964  143.2048 LP  0  0  0  0  0  0  0  0  0  0  0  0  # atno 17320 bound_to 7965
  146.0676  140.7903  142.9704 LP  0  0  0  0  0  0  0  0  0  0  0  0  # atno 17321 bound_to 7965
  139.9405  144.6684  150.8271 LP  0  0  0  0  0  0  0  0  0  0  0  0  # atno 17342 bound_to 10162
  140.7644  143.3247  151.2542 LP  0  0  0  0  0  0  0  0  0  0  0  0  # atno 17343 bound_to 10162
  157.5024  130.7888  149.7618 LP  0  0  0  0  0  0  0  0  0  0  0  0  # atno 17370 bound_to 10713
  156.0005  130.3883  150.2624 LP  0  0  0  0  0  0  0  0  0  0  0  0  # atno 17371 bound_to 10713
  140.7561  133.8856  155.8383 LP  0  0  0  0  0  0  0  0  0  0  0  0  # atno 17394 bound_to 11000
  140.9961  134.1214  157.4362 LP  0  0  0  0  0  0  0  0  0  0  0  0  # atno 17395 bound_to 11000

$$$$
