#       Name:                AV-unprocessed.smi:2484
#       Creating user name   scv26
#       Creation time:       Fri Mar 27 13:42:40 2020


#       File generated by GOLD software.
#

@<TRIPOS>MOLECULE
AV-unprocessed.smi:2484
    51    52     1
SMALL
NO_CHARGES


@<TRIPOS>ATOM
      1 ****        -4.0892   0.5747   1.6478 C.3            1 S1                 0.0000
      2 ****        -3.3802  -0.7999   1.6427 C.3            1 S1                 0.0000
      3 ****        -1.9253  -0.6059   1.5721 N.am           1 S1                 0.0000
      4 ****        -1.2031  -0.0745   0.5705 C.2            1 S1                 0.0000
      5 ****        -1.6893   0.3568  -0.4748 O.2            1 S1                 0.0000
      6 ****         0.1078  -0.0757   0.8690 N.am           1 S1                 0.0000
      7 ****         1.1923   0.3216   0.0430 C.ar           1 S1                 0.0000
      8 ****         2.4681   0.2358   0.6357 C.ar           1 S1                 0.0000
      9 ****         3.5889   0.5984  -0.1302 C.ar           1 S1                 0.0000
     10 ****         3.3673   1.0281  -1.4582 C.ar           1 S1                 0.0000
     11 ****         4.5033   1.4387  -2.4122 C.3            1 S1                 0.0000
     12 ****         5.8944   1.3572  -1.7438 C.3            1 S1                 0.0000
     13 ****         4.2967   2.8962  -2.8747 C.3            1 S1                 0.0000
     14 ****         4.5195   0.4975  -3.6347 C.3            1 S1                 0.0000
     15 ****         2.1146   1.0920  -1.9719 N.ar           1 S1                 0.0000
     16 ****         1.0529   0.7478  -1.2374 N.ar           1 S1                 0.0000
     17 ****        -3.6542  -1.5566   2.9632 C.3            1 S1                 0.0000
     18 ****        -5.0792  -2.1322   3.0427 C.3            1 S1                 0.0000
     19 ****        -5.3285  -2.9693   1.9221 O.3            1 S1                 0.0000
     20 ****        -5.2734  -2.2604   0.6919 C.3            1 S1                 0.0000
     21 ****        -3.8608  -1.6926   0.4694 C.3            1 S1                 0.0000
     22 ****        -5.1655   0.4789   1.7868 H              1 S1                 0.0000
     23 ****        -3.9399   1.1126   0.7116 H              1 S1                 0.0000
     24 ****        -3.7146   1.2081   2.4528 H              1 S1                 0.0000
     25 ****        -1.4097  -0.9231   2.3799 H              1 S1                 0.0000
     26 ****         0.3620  -0.4281   1.7798 H              1 S1                 0.0000
     27 ****         2.5899  -0.1035   1.6540 H              1 S1                 0.0000
     28 ****         4.5726   0.5359   0.3083 H              1 S1                 0.0000
     29 ****         6.6831   1.6531  -2.4366 H              1 S1                 0.0000
     30 ****         6.1254   0.3436  -1.4140 H              1 S1                 0.0000
     31 ****         5.9654   2.0183  -0.8792 H              1 S1                 0.0000
     32 ****         4.2743   3.5809  -2.0263 H              1 S1                 0.0000
     33 ****         3.3612   3.0196  -3.4211 H              1 S1                 0.0000
     34 ****         5.0994   3.2208  -3.5378 H              1 S1                 0.0000
     35 ****         5.3255   0.7534  -4.3233 H              1 S1                 0.0000
     36 ****         3.5875   0.5492  -4.1987 H              1 S1                 0.0000
     37 ****         4.6624  -0.5406  -3.3323 H              1 S1                 0.0000
     38 ****        -2.9549  -2.3896   3.0556 H              1 S1                 0.0000
     39 ****        -3.4662  -0.9097   3.8212 H              1 S1                 0.0000
     40 ****        -5.1875  -2.7264   3.9502 H              1 S1                 0.0000
     41 ****        -5.8274  -1.3407   3.0972 H              1 S1                 0.0000
     42 ****        -5.5279  -2.9461  -0.1166 H              1 S1                 0.0000
     43 ****        -6.0244  -1.4694   0.6784 H              1 S1                 0.0000
     44 ****        -3.8390  -1.1443  -0.4725 H              1 S1                 0.0000
     45 ****        -3.1746  -2.5322   0.3482 H              1 S1                 0.0000
     46 ****        -2.6786   0.3238  -0.6170 LP             1 S1                 0.0000
     47 ****        -1.0950   0.7403  -1.1817 LP             1 S1                 0.0000
     48 ****         1.9832   1.4011  -2.9138 LP             1 S1                 0.0000
     49 ****         0.1388   0.8054  -1.6388 LP             1 S1                 0.0000
     50 ****        -6.2381  -3.3731   2.0193 LP             1 S1                 0.0000
     51 ****        -4.6414  -3.6956   1.9050 LP             1 S1                 0.0000
@<TRIPOS>BOND
    1    1    2 1     
    2    1   22 1     
    3    1   23 1     
    4    1   24 1     
    5    2   21 1     
    6    2    3 1     
    7    2   17 1     
    8    3    4 am    
    9    3   25 1     
   10    4    5 2     
   11    4    6 am    
   12    6    7 1     
   13    6   26 1     
   14    7   16 ar    
   15    7    8 ar    
   16    8    9 ar    
   17    8   27 1     
   18    9   10 ar    
   19    9   28 1     
   20   10   11 1     
   21   10   15 ar    
   22   11   12 1     
   23   11   13 1     
   24   11   14 1     
   25   12   29 1     
   26   12   30 1     
   27   12   31 1     
   28   13   32 1     
   29   13   33 1     
   30   13   34 1     
   31   14   35 1     
   32   14   36 1     
   33   14   37 1     
   34   15   16 ar    
   35   17   18 1     
   36   17   38 1     
   37   17   39 1     
   38   18   19 1     
   39   18   40 1     
   40   18   41 1     
   41   19   20 1     
   42   20   21 1     
   43   20   42 1     
   44   20   43 1     
   45   21   44 1     
   46   21   45 1     
   47    5   46 1     
   48    5   47 1     
   49   15   48 1     
   50   16   49 1     
   51   19   50 1     
   52   19   51 1     
@<TRIPOS>SUBSTRUCTURE
      1 S1             1
@<TRIPOS>SET
LONE_PAIRS      STATIC     ATOMS    <user>   **** ""
6 46 47 48 49 50 51
DONOR_HYDROGENS      STATIC     ATOMS    <user>   **** ""
2 25 26
ATOM$BLUE        STATIC     ATOMS    COLORGROUP SYSTEM
6 46 47 48 49 50 51
ATOM$RED        STATIC     ATOMS    COLORGROUP SYSTEM
2 25 26
