AV-unprocessed.smi:2741|AV-procd|sdf|10558|dock5
  -GOLD-   2272015 13D 1   1.00000     0.00000
 Structure written by MMmdl.
 39 40  0  0  0  0  0  0  0  0  1 V2000
  152.7178  139.5510  156.8809 O   0  0  0  0  0  0  0  0  0  0  0  0
  152.3212  139.7250  158.0341 C   0  0  0  0  0  0  0  0  0  0  0  0
  153.3146  139.8393  159.1989 C   0  0  0  0  0  0  0  0  0  0  0  0
  153.1843  141.0969  159.9539 N   0  0  0  0  0  0  0  0  0  0  0  0
  152.9917  142.2775  159.2096 C   0  0  0  0  0  0  0  0  0  0  0  0
  152.8711  143.4918  159.7797 C   0  0  0  0  0  0  0  0  0  0  0  0
  152.6128  144.7413  158.9519 C   0  0  0  0  0  0  0  0  0  0  0  0
  152.6965  145.8406  159.7016 F   0  0  0  0  0  0  0  0  0  0  0  0
  153.5160  144.8335  157.9769 F   0  0  0  0  0  0  0  0  0  0  0  0
  151.4021  144.7063  158.3936 F   0  0  0  0  0  0  0  0  0  0  0  0
  152.9147  143.5318  161.2283 C   0  0  0  0  0  0  0  0  0  0  0  0
  153.0923  142.4113  161.9553 C   0  0  0  0  0  0  0  0  0  0  0  0
  153.2469  141.1011  161.3194 C   0  0  0  0  0  0  0  0  0  0  0  0
  153.4192  140.0716  161.9728 O   0  0  0  0  0  0  0  0  0  0  0  0
  151.0245  139.8491  158.3544 N   0  0  0  0  0  0  0  0  0  0  0  0
  149.9152  139.7923  157.4084 C   0  0  0  0  0  0  0  0  0  0  0  0
  149.9378  140.9728  156.4178 C   0  0  2  0  0  0  0  0  0  0  0  0
  148.5550  141.3625  155.8721 C   0  0  0  0  0  0  0  0  0  0  0  0
  148.8482  141.9946  154.5146 C   0  0  0  0  0  0  0  0  0  0  0  0
  149.9672  141.1157  153.9581 C   0  0  1  0  0  0  0  0  0  0  0  0
  150.7219  141.7826  152.9686 O   0  0  0  0  0  0  0  0  0  0  0  0
  150.8164  140.7207  155.1761 C   0  0  0  0  0  0  0  0  0  0  0  0
  153.1662  138.9800  159.8543 H   0  0  0  0  0  0  0  0  0  0  0  0
  154.3337  139.7350  158.8208 H   0  0  0  0  0  0  0  0  0  0  0  0
  152.9525  142.1335  158.1395 H   0  0  0  0  0  0  0  0  0  0  0  0
  152.8081  144.4766  161.7406 H   0  0  0  0  0  0  0  0  0  0  0  0
  153.1225  142.4788  163.0329 H   0  0  0  0  0  0  0  0  0  0  0  0
  150.7877  139.9959  159.3249 H   0  0  0  0  0  0  0  0  0  0  0  0
  149.9327  138.8435  156.8690 H   0  0  0  0  0  0  0  0  0  0  0  0
  148.9866  139.8032  157.9798 H   0  0  0  0  0  0  0  0  0  0  0  0
  150.3462  141.8466  156.9281 H   0  0  0  0  0  0  0  0  0  0  0  0
  147.9391  140.4732  155.7317 H   0  0  0  0  0  0  0  0  0  0  0  0
  148.0170  142.0368  156.5393 H   0  0  0  0  0  0  0  0  0  0  0  0
  147.9732  142.0279  153.8647 H   0  0  0  0  0  0  0  0  0  0  0  0
  149.2014  143.0173  154.6568 H   0  0  0  0  0  0  0  0  0  0  0  0
  149.5294  140.2173  153.5200 H   0  0  0  0  0  0  0  0  0  0  0  0
  150.8036  141.2140  152.2180 H   0  0  0  0  0  0  0  0  0  0  0  0
  151.7208  141.3274  155.2426 H   0  0  0  0  0  0  0  0  0  0  0  0
  151.1355  139.6806  155.0973 H   0  0  0  0  0  0  0  0  0  0  0  0
  1  2  2  0  0  0  0
  2  3  1  0  0  0  0
  2 15  1  0  0  0  0
  3  4  1  0  0  0  0
  3 23  1  0  0  0  0
  3 24  1  0  0  0  0
  4 13  1  0  0  0  0
  4  5  1  0  0  0  0
  5  6  2  0  0  0  0
  5 25  1  0  0  0  0
  6  7  1  0  0  0  0
  6 11  1  0  0  0  0
  7  8  1  0  0  0  0
  7  9  1  0  0  0  0
  7 10  1  0  0  0  0
 11 12  2  0  0  0  0
 11 26  1  0  0  0  0
 12 13  1  0  0  0  0
 12 27  1  0  0  0  0
 13 14  2  0  0  0  0
 15 16  1  0  0  0  0
 15 28  1  0  0  0  0
 16 17  1  0  0  0  0
 16 29  1  0  0  0  0
 16 30  1  0  0  0  0
 17 22  1  0  0  0  0
 17 18  1  0  0  0  0
 17 31  1  0  0  0  0
 18 19  1  0  0  0  0
 18 32  1  0  0  0  0
 18 33  1  0  0  0  0
 19 20  1  0  0  0  0
 19 34  1  0  0  0  0
 19 35  1  0  0  0  0
 20 21  1  0  0  0  0
 20 22  1  0  0  0  0
 20 36  1  0  0  0  0
 21 37  1  0  0  0  0
 22 38  1  0  0  0  0
 22 39  1  0  0  0  0
M  END
> <s_m_source_file>
AV-unprocessed.smi

> <i_m_source_file_index>
2741

> <i_lp_mmshare_version>
43012

> <i_f3d_flags>
0

> <s_epik_input>
W09IXVtDQEBIXShbQ0gyXTEpW0NIMl1bQ0gyXVtDQEhdMVtDSDJdW05IXUMoPU8pW0NIMl1uMltjSF1jKEMoRikoRilGKVtjSF1bY0hdYzI9Tw==

> <s_epik_cmdline>
J2VwaWtfcHl0aG9uJywgJy1waCcsICc3LjAnLCAnLXRuJywgJzgnLCAnLW1hJywgJzIwMCcsICctbWV0YWxfYmluZGluZycsICctaW1hZScsICc8aW5maWxlLm1hZT4nLCAnLW9tYWUnLCAnPG91dGZpbGUubWFlPic=

> <r_lp_tautomer_probability>
1

> <r_epik_Ionization_Penalty>
1.17551e-06

> <r_epik_Ionization_Penalty_Charging>
1.78841e-08

> <r_epik_Ionization_Penalty_Neutral>
1.15762e-06

> <r_epik_State_Penalty>
-0

> <r_epik_Charging_Adjusted_Penalty>
1.78841e-08

> <i_epik_Tot_Q>
0

> <i_epik_Tot_abs_Q>
0

> <r_epik_Metal_State_Penalty>
-0

> <b_epik_Metal_Only>
0

> <s_lp_Force_Field>
OPLS_2005

> <r_lp_Energy>
33.5858

> <b_lp_Chiralities_Consistent>
1

> <s_lp_Variant>
AV-unprocessed.smi:2741-1

> <Gold.Version>
5.8.1

> <Gold.Id.Protein>
6NUR|6NUR_protein|mol2

> <Gold.PLP.Fitness>
57.7407

> <Gold.PLP.PLP>
-51.9671

> <Gold.PLP.part.hbond>
-3.9113

> <Gold.PLP.part.metal>
0.0000

> <Gold.PLP.part.buried>
-6.2659

> <Gold.PLP.part.nonpolar>
-40.9050

> <Gold.PLP.part.repulsive>
0.1385

> <Gold.PLP.ligand.clash>
0.0000

> <Gold.PLP.ligand.torsion>
0.8401

> <Gold.PLP.Chemscore.Hbond>
2.4652

> <Gold.PLP.Chemscore.CHOScore>
0.0000

> <Gold.PLP.Chemscore.Metal>
0.0000

> <Gold.Chemscore.Hbonds>
donor molecule, donor type, donor heavy atom, donor atom, acceptor molecule, acceptor atom, score
      L1  H    21    37       P1  7957  0.77
      P1  H  7997  8010       L1     1  1.00
      P1  H  8011  8017       L1    21  0.04

> <Gold.PLP.Chemscore.Internal.Correction>
0.0582

> <Gold.Rescore>
     Score         DG    S(hbond)    S(metal)    S(lipo)     H(rot)  DE(clash)    DE(int)     intcor
     14.09     -15.92       1.91        0.00      88.83       2.48       0.01       1.82       ----

> <Gold.Chemscore.Fitness>
14.0907

> <Gold.Chemscore.DG>
-15.9171

> <Gold.Chemscore.ZeroCoef>
-5.4800

> <Gold.Chemscore.Hbond>
1.9144

> <Gold.Chemscore.Metal>
0.0000

> <Gold.Chemscore.Lipo>
88.8340

> <Gold.Chemscore.Internal_Hbond>
0.0000

> <Gold.Chemscore.DEClash>
0.0108

> <Gold.Chemscore.DEInternal>
1.8156

> <Gold.Chemscore.Rot>
2.4807

> <Gold.Chemscore.Internal.Correction>
   9.000000E+99

> <Gold.Chemscore.Hbonds>
donor molecule, donor type, donor heavy atom, donor atom, acceptor molecule, acceptor atom, score
      L1  H    21    37       P1  7957  0.62
      P1  H  7997  8010       L1     1  0.93

> <Gold.Chemscore.Hbond.Weighted>
-6.3942

> <Gold.Chemscore.Metal.Weighted>
-0.0000

> <Gold.Chemscore.Lipo.Weighted>
-10.3936

> <Gold.Chemscore.Internal_Hbond.Weighted>
0.0000

> <Gold.Chemscore.DEClash.Weighted>
0.0108

> <Gold.Chemscore.DEInternal.Weighted>
1.8156

> <Gold.Chemscore.Rot.Weighted>
6.3507

> <Gold.Chemscore.Internal.Correction.Weighted>
   9.000000E+99

> <Gold.Protein.RotatedTorsions>
[ 6907 6896 6895 6894 ] final -118.35 input  -60.11 | X-H torsion
[ 7974 7965 7964 7962 ] final -133.03 input  175.53 | X-H torsion
[ 8008 7997 7996 7995 ] final   65.10 input   59.86 | X-H torsion
[ 10167 10162 10161 10158 ] final  175.73 input  -65.29 | X-H torsion
[ 10718 10713 10712 10709 ] final -155.88 input   66.30 | X-H torsion
[ 10763 10752 10751 10750 ] final -178.29 input  -60.55 | X-H torsion
[ 11005 11000 10999 10996 ] final  -96.05 input  -57.11 | X-H torsion

> <Gold.Protein.ActiveResidues>
 VAL166  LYS551  ARG553  GLY616  TRP617  ASP618  TYR619  PRO620  LYS621  CYS622 
 ASP623  PHE694  ASN695  SER759  ASP760  ASP761  ALA762  ILE779  LEU786  VAL792 
 PHE793  MET794  SER795  GLU796  ALA797  LYS798  CYS799  TRP800  GLU811  SER814 

> <Gold.Protein.RotatedAtoms>
  150.8212  133.8249  159.3137 H   0  0  0  0  0  0  0  0  0  0  0  0  # atno 6907 bound_to 6896
  151.6006  135.1046  160.0069 H   0  0  0  0  0  0  0  0  0  0  0  0  # atno 6908 bound_to 6896
  152.4301  133.7222  159.6596 H   0  0  0  0  0  0  0  0  0  0  0  0  # atno 6909 bound_to 6896
  144.9231  140.7038  143.4953 H   0  0  0  0  0  0  0  0  0  0  0  0  # atno 7974 bound_to 7965
  155.6565  140.3497  155.4767 H   0  0  0  0  0  0  0  0  0  0  0  0  # atno 8008 bound_to 7997
  155.9804  140.1173  157.0755 H   0  0  0  0  0  0  0  0  0  0  0  0  # atno 8009 bound_to 7997
  154.4190  140.1139  156.5414 H   0  0  0  0  0  0  0  0  0  0  0  0  # atno 8010 bound_to 7997
  139.5188  144.2997  152.0390 H   0  0  0  0  0  0  0  0  0  0  0  0  # atno 10167 bound_to 10162
  156.5189  130.8469  151.2674 H   0  0  0  0  0  0  0  0  0  0  0  0  # atno 10718 bound_to 10713
  154.5496  135.2812  155.1021 H   0  0  0  0  0  0  0  0  0  0  0  0  # atno 10763 bound_to 10752
  154.2472  135.6346  153.5231 H   0  0  0  0  0  0  0  0  0  0  0  0  # atno 10764 bound_to 10752
  152.9999  135.5574  154.6058 H   0  0  0  0  0  0  0  0  0  0  0  0  # atno 10765 bound_to 10752
  141.1423  133.8070  157.0519 H   0  0  0  0  0  0  0  0  0  0  0  0  # atno 11005 bound_to 11000
  145.3264  139.1773  143.4560 LP  0  0  0  0  0  0  0  0  0  0  0  0  # atno 17320 bound_to 7965
  146.3213  140.3288  142.8639 LP  0  0  0  0  0  0  0  0  0  0  0  0  # atno 17321 bound_to 7965
  140.2445  144.4234  150.6246 LP  0  0  0  0  0  0  0  0  0  0  0  0  # atno 17342 bound_to 10162
  140.6267  143.2182  151.6581 LP  0  0  0  0  0  0  0  0  0  0  0  0  # atno 17343 bound_to 10162
  157.7440  130.9924  150.2636 LP  0  0  0  0  0  0  0  0  0  0  0  0  # atno 17370 bound_to 10713
  156.3169  130.3780  149.7610 LP  0  0  0  0  0  0  0  0  0  0  0  0  # atno 17371 bound_to 10713
  140.0626  134.9746  157.1331 LP  0  0  0  0  0  0  0  0  0  0  0  0  # atno 17394 bound_to 11000
  140.3826  134.2271  155.7170 LP  0  0  0  0  0  0  0  0  0  0  0  0  # atno 17395 bound_to 11000

$$$$
