AV-unprocessed.smi:861|AV-procd|sdf|3970|dock4
  -GOLD-   22720 1443D 1   1.00000     0.00000
 Structure written by MMmdl.
 43 44  0  0  0  0  0  0  0  0  1 V2000
  144.9314  144.2735  153.3723 C   0  0  0  0  0  0  0  0  0  0  0  0
  145.0544  143.1871  154.4538 C   0  0  0  0  0  0  0  0  0  0  0  0
  144.3491  143.6339  155.7434 C   0  0  0  0  0  0  0  0  0  0  0  0
  146.5208  142.8035  154.7376 C   0  0  0  0  0  0  0  0  0  0  0  0
  146.9877  141.5399  153.9889 C   0  0  0  0  0  0  0  0  0  0  0  0
  148.0340  140.7733  154.6640 N   0  0  0  0  0  0  0  0  0  0  0  0
  148.6666  139.8333  153.7455 C   0  0  0  0  0  0  0  0  0  0  0  0
  149.7778  139.0198  154.4296 C   0  0  0  0  0  0  0  0  0  0  0  0
  150.7381  139.9078  154.9920 O   0  0  0  0  0  0  0  0  0  0  0  0
  150.1745  140.8077  155.9421 C   0  0  1  0  0  0  0  0  0  0  0  0
  151.3063  141.6900  156.4883 C   0  0  0  0  0  0  0  0  0  0  0  0
  150.7914  142.8837  157.1455 N   0  0  0  0  0  0  0  0  0  0  0  0
  151.2691  143.2774  158.4020 C   0  0  0  0  0  0  0  0  0  0  0  0
  151.6382  144.6230  158.5980 C   0  0  0  0  0  0  0  0  0  0  0  0
  152.1154  144.9903  159.8680 C   0  0  0  0  0  0  0  0  0  0  0  0
  152.1868  143.9821  160.8464 C   0  0  0  0  0  0  0  0  0  0  0  0
  151.8179  142.7042  160.6036 N   0  0  0  0  0  0  0  0  0  0  0  0
  151.3640  142.3563  159.3939 N   0  0  0  0  0  0  0  0  0  0  0  0
  149.0642  141.6273  155.2501 C   0  0  0  0  0  0  0  0  0  0  0  0
  145.4663  145.1797  153.6581 H   0  0  0  0  0  0  0  0  0  0  0  0
  143.8882  144.5432  153.2054 H   0  0  0  0  0  0  0  0  0  0  0  0
  145.3315  143.9370  152.4163 H   0  0  0  0  0  0  0  0  0  0  0  0
  144.5361  142.2971  154.0950 H   0  0  0  0  0  0  0  0  0  0  0  0
  144.8149  144.5272  156.1604 H   0  0  0  0  0  0  0  0  0  0  0  0
  144.3852  142.8535  156.5038 H   0  0  0  0  0  0  0  0  0  0  0  0
  143.2987  143.8618  155.5589 H   0  0  0  0  0  0  0  0  0  0  0  0
  147.1632  143.6497  154.4933 H   0  0  0  0  0  0  0  0  0  0  0  0
  146.6380  142.6310  155.8085 H   0  0  0  0  0  0  0  0  0  0  0  0
  146.1181  140.8953  153.8537 H   0  0  0  0  0  0  0  0  0  0  0  0
  147.3230  141.8060  152.9858 H   0  0  0  0  0  0  0  0  0  0  0  0
  147.9184  139.1509  153.3406 H   0  0  0  0  0  0  0  0  0  0  0  0
  149.0885  140.3734  152.8964 H   0  0  0  0  0  0  0  0  0  0  0  0
  149.3642  138.3770  155.2081 H   0  0  0  0  0  0  0  0  0  0  0  0
  150.2724  138.3709  153.7070 H   0  0  0  0  0  0  0  0  0  0  0  0
  149.7497  140.2236  156.7609 H   0  0  0  0  0  0  0  0  0  0  0  0
  151.8916  141.1232  157.2136 H   0  0  0  0  0  0  0  0  0  0  0  0
  151.9828  141.9722  155.6805 H   0  0  0  0  0  0  0  0  0  0  0  0
  150.1029  143.4469  156.6679 H   0  0  0  0  0  0  0  0  0  0  0  0
  151.5600  145.3503  157.8032 H   0  0  0  0  0  0  0  0  0  0  0  0
  152.4151  146.0049  160.0840 H   0  0  0  0  0  0  0  0  0  0  0  0
  152.5451  144.2029  161.8408 H   0  0  0  0  0  0  0  0  0  0  0  0
  149.5059  142.2572  154.4762 H   0  0  0  0  0  0  0  0  0  0  0  0
  148.6190  142.2995  155.9825 H   0  0  0  0  0  0  0  0  0  0  0  0
  1  2  1  0  0  0  0
  1 20  1  0  0  0  0
  1 21  1  0  0  0  0
  1 22  1  0  0  0  0
  2  3  1  0  0  0  0
  2  4  1  0  0  0  0
  2 23  1  0  0  0  0
  3 24  1  0  0  0  0
  3 25  1  0  0  0  0
  3 26  1  0  0  0  0
  4  5  1  0  0  0  0
  4 27  1  0  0  0  0
  4 28  1  0  0  0  0
  5  6  1  0  0  0  0
  5 29  1  0  0  0  0
  5 30  1  0  0  0  0
  6 19  1  0  0  0  0
  6  7  1  0  0  0  0
  7  8  1  0  0  0  0
  7 31  1  0  0  0  0
  7 32  1  0  0  0  0
  8  9  1  0  0  0  0
  8 33  1  0  0  0  0
  8 34  1  0  0  0  0
  9 10  1  0  0  0  0
 10 11  1  0  0  0  0
 10 19  1  0  0  0  0
 10 35  1  0  0  0  0
 11 12  1  0  0  0  0
 11 36  1  0  0  0  0
 11 37  1  0  0  0  0
 12 13  1  0  0  0  0
 12 38  1  0  0  0  0
 13 18  1  0  0  0  0
 13 14  2  0  0  0  0
 14 15  1  0  0  0  0
 14 39  1  0  0  0  0
 15 16  2  0  0  0  0
 15 40  1  0  0  0  0
 16 17  1  0  0  0  0
 16 41  1  0  0  0  0
 17 18  2  0  0  0  0
 19 42  1  0  0  0  0
 19 43  1  0  0  0  0
M  END
> <s_m_source_file>
AV-unprocessed.smi

> <i_m_source_file_index>
861

> <i_lp_mmshare_version>
43012

> <i_f3d_flags>
0

> <s_epik_input>
W0NIM11bQ0hdKFtDSDNdKVtDSDJdW0NIMl1OMVtDSDJdW0NIMl1PW0NASF0oW0NIMl0xKVtDSDJdW05IXWMyW2NIXVtjSF1bY0hdbm4y

> <s_epik_cmdline>
J2VwaWtfcHl0aG9uJywgJy1waCcsICc3LjAnLCAnLXRuJywgJzgnLCAnLW1hJywgJzIwMCcsICctbWV0YWxfYmluZGluZycsICctaW1hZScsICc8aW5maWxlLm1hZT4nLCAnLW9tYWUnLCAnPG91dGZpbGUubWFlPic=

> <r_lp_tautomer_probability>
0.999978

> <r_epik_Ionization_Penalty>
1.1508

> <r_epik_Ionization_Penalty_Charging>
0

> <r_epik_Ionization_Penalty_Neutral>
1.1508

> <r_epik_State_Penalty>
1.22808

> <r_epik_Charging_Adjusted_Penalty>
1.22808

> <i_epik_Tot_Q>
0

> <i_epik_Tot_abs_Q>
0

> <r_epik_Metal_State_Penalty>
1.22149

> <b_epik_Metal_Only>
0

> <s_lp_Force_Field>
OPLS_2005

> <r_lp_Energy>
29.6071

> <b_lp_Chiralities_Consistent>
1

> <s_lp_Variant>
AV-unprocessed.smi:861-5

> <Gold.Version>
5.8.1

> <Gold.Id.Protein>
6NUR|6NUR_protein|mol2

> <Gold.PLP.Fitness>
45.3634

> <Gold.PLP.PLP>
-42.2432

> <Gold.PLP.part.hbond>
-3.3678

> <Gold.PLP.part.metal>
0.0000

> <Gold.PLP.part.buried>
-1.3829

> <Gold.PLP.part.nonpolar>
-38.4653

> <Gold.PLP.part.repulsive>
0.2475

> <Gold.PLP.ligand.clash>
0.0000

> <Gold.PLP.ligand.torsion>
1.4936

> <Gold.PLP.Chemscore.Hbond>
2.0062

> <Gold.PLP.Chemscore.CHOScore>
0.0000

> <Gold.PLP.Chemscore.Metal>
0.0000

> <Gold.Chemscore.Hbonds>
donor molecule, donor type, donor heavy atom, donor atom, acceptor molecule, acceptor atom, score
      L1  H    12    38       P1  8028  1.00
      P1  H  7989  7998       L1     9  1.00

> <Gold.PLP.Chemscore.Internal.Correction>
0.0888

> <Gold.Rescore>
     Score         DG    S(hbond)    S(metal)    S(lipo)     H(rot)  DE(clash)    DE(int)     intcor
     16.05     -19.00       1.46        0.00     110.17       1.66       1.63       1.32       ----

> <Gold.Chemscore.Fitness>
16.0496

> <Gold.Chemscore.DG>
-19.0044

> <Gold.Chemscore.ZeroCoef>
-5.4800

> <Gold.Chemscore.Hbond>
1.4617

> <Gold.Chemscore.Metal>
0.0000

> <Gold.Chemscore.Lipo>
110.1672

> <Gold.Chemscore.Internal_Hbond>
0.0000

> <Gold.Chemscore.DEClash>
1.6310

> <Gold.Chemscore.DEInternal>
1.3238

> <Gold.Chemscore.Rot>
1.6591

> <Gold.Chemscore.Internal.Correction>
   9.000000E+99

> <Gold.Chemscore.Hbonds>
donor molecule, donor type, donor heavy atom, donor atom, acceptor molecule, acceptor atom, score
      L1  H    12    38       P1  8028  0.94
      P1  H  7989  7998       L1     9  0.52

> <Gold.Chemscore.Hbond.Weighted>
-4.8822

> <Gold.Chemscore.Metal.Weighted>
-0.0000

> <Gold.Chemscore.Lipo.Weighted>
-12.8896

> <Gold.Chemscore.Internal_Hbond.Weighted>
0.0000

> <Gold.Chemscore.DEClash.Weighted>
1.6310

> <Gold.Chemscore.DEInternal.Weighted>
1.3238

> <Gold.Chemscore.Rot.Weighted>
4.2474

> <Gold.Chemscore.Internal.Correction.Weighted>
   9.000000E+99

> <Gold.Protein.RotatedTorsions>
[ 6907 6896 6895 6894 ] final    5.27 input  -60.11 | X-H torsion
[ 7974 7965 7964 7962 ] final  -90.70 input  175.53 | X-H torsion
[ 8008 7997 7996 7995 ] final    9.22 input   59.86 | X-H torsion
[ 10167 10162 10161 10158 ] final -152.81 input  -65.29 | X-H torsion
[ 10718 10713 10712 10709 ] final  121.18 input   66.30 | X-H torsion
[ 10763 10752 10751 10750 ] final  -56.76 input  -60.55 | X-H torsion
[ 11005 11000 10999 10996 ] final  -61.39 input  -57.11 | X-H torsion

> <Gold.Protein.ActiveResidues>
 VAL166  LYS551  ARG553  GLY616  TRP617  ASP618  TYR619  PRO620  LYS621  CYS622 
 ASP623  PHE694  ASN695  SER759  ASP760  ASP761  ALA762  ILE779  LEU786  VAL792 
 PHE793  MET794  SER795  GLU796  ALA797  LYS798  CYS799  TRP800  GLU811  SER814 

> <Gold.Protein.RotatedAtoms>
  151.6548  135.0997  160.0167 H   0  0  0  0  0  0  0  0  0  0  0  0  # atno 6907 bound_to 6896
  152.3980  133.6772  159.6301 H   0  0  0  0  0  0  0  0  0  0  0  0  # atno 6908 bound_to 6896
  150.7884  133.8757  159.3312 H   0  0  0  0  0  0  0  0  0  0  0  0  # atno 6909 bound_to 6896
  145.4230  140.9552  143.2170 H   0  0  0  0  0  0  0  0  0  0  0  0  # atno 7974 bound_to 7965
  154.7772  140.2812  155.6092 H   0  0  0  0  0  0  0  0  0  0  0  0  # atno 8008 bound_to 7997
  156.2944  140.2630  156.2517 H   0  0  0  0  0  0  0  0  0  0  0  0  # atno 8009 bound_to 7997
  154.9828  140.0374  157.2275 H   0  0  0  0  0  0  0  0  0  0  0  0  # atno 8010 bound_to 7997
  139.7149  143.9049  152.2482 H   0  0  0  0  0  0  0  0  0  0  0  0  # atno 10167 bound_to 10162
  157.5836  131.1072  150.8138 H   0  0  0  0  0  0  0  0  0  0  0  0  # atno 10718 bound_to 10713
  154.2118  135.6393  153.5117 H   0  0  0  0  0  0  0  0  0  0  0  0  # atno 10763 bound_to 10752
  152.9988  135.5475  154.6207 H   0  0  0  0  0  0  0  0  0  0  0  0  # atno 10764 bound_to 10752
  154.5646  135.2911  155.0860 H   0  0  0  0  0  0  0  0  0  0  0  0  # atno 10765 bound_to 10752
  141.1322  133.6630  156.5368 H   0  0  0  0  0  0  0  0  0  0  0  0  # atno 11005 bound_to 11000
  144.8233  139.5754  143.6977 LP  0  0  0  0  0  0  0  0  0  0  0  0  # atno 17320 bound_to 7965
  146.2647  139.6491  142.9338 LP  0  0  0  0  0  0  0  0  0  0  0  0  # atno 17321 bound_to 7965
  139.8928  144.6956  150.8751 LP  0  0  0  0  0  0  0  0  0  0  0  0  # atno 17342 bound_to 10162
  140.7741  143.3573  151.1896 LP  0  0  0  0  0  0  0  0  0  0  0  0  # atno 17343 bound_to 10162
  156.8578  130.5102  149.5306 LP  0  0  0  0  0  0  0  0  0  0  0  0  # atno 17370 bound_to 10713
  156.0884  130.5876  150.9689 LP  0  0  0  0  0  0  0  0  0  0  0  0  # atno 17371 bound_to 10713
  140.4172  134.7220  157.4869 LP  0  0  0  0  0  0  0  0  0  0  0  0  # atno 17394 bound_to 11000
  140.0386  134.6301  155.9011 LP  0  0  0  0  0  0  0  0  0  0  0  0  # atno 17395 bound_to 11000

$$$$
