AV-unprocessed.smi:2718|AV-procd|sdf|10493|dock5
  -GOLD-   2272014543D 1   1.00000     0.00000
 Structure written by MMmdl.
 47 48  0  0  0  0  0  0  0  0  1 V2000
  151.9876  144.7995  158.7504 C   0  0  0  0  0  0  0  0  0  0  0  0
  152.1703  143.3192  158.4801 C   0  0  0  0  0  0  0  0  0  0  0  0
  153.2463  142.6488  159.3162 C   0  0  0  0  0  0  0  0  0  0  0  0
  151.4265  142.6710  157.5636 C   0  0  0  0  0  0  0  0  0  0  0  0
  151.5146  141.2304  157.2071 C   0  0  1  0  0  0  0  0  0  0  0  0
  150.3652  140.2865  157.5118 C   0  0  2  0  0  0  0  0  0  0  0  0
  150.6720  138.9037  157.9954 C   0  0  0  0  0  0  0  0  0  0  0  0
  151.8047  138.4206  158.0053 O   0  0  0  0  0  0  0  0  0  0  0  0
  149.5898  138.2367  158.4223 N   0  0  0  0  0  0  0  0  0  0  0  0
  149.5772  136.8763  158.9546 C   0  0  0  0  0  0  0  0  0  0  0  0
  148.1599  136.2708  159.0882 C   0  0  1  0  0  0  0  0  0  0  0  0
  148.0305  134.9517  158.3134 C   0  0  0  0  0  0  0  0  0  0  0  0
  147.7144  136.1178  160.5183 C   0  0  0  0  0  0  0  0  0  0  0  0
  148.4266  136.5525  161.5666 N   0  0  0  0  0  0  0  0  0  0  0  0
  147.6875  136.2221  162.6842 N   0  0  0  0  0  0  0  0  0  0  0  0
  146.6099  135.6053  162.2023 C   0  0  0  0  0  0  0  0  0  0  0  0
  146.5666  135.4979  160.8661 N   0  0  0  0  0  0  0  0  0  0  0  0
  145.5488  134.8704  160.0466 C   0  0  0  0  0  0  0  0  0  0  0  0
  150.6922  140.6508  156.0684 C   0  0  0  0  0  0  0  0  0  0  0  0
  149.6779  141.4960  155.3126 C   0  0  0  0  0  0  0  0  0  0  0  0
  151.3666  139.6894  155.0983 C   0  0  0  0  0  0  0  0  0  0  0  0
  151.7176  144.9631  159.7941 H   0  0  0  0  0  0  0  0  0  0  0  0
  151.2026  145.2281  158.1264 H   0  0  0  0  0  0  0  0  0  0  0  0
  152.9136  145.3370  158.5461 H   0  0  0  0  0  0  0  0  0  0  0  0
  154.2152  143.1063  159.1154 H   0  0  0  0  0  0  0  0  0  0  0  0
  153.3310  141.5819  159.1119 H   0  0  0  0  0  0  0  0  0  0  0  0
  153.0260  142.7688  160.3771 H   0  0  0  0  0  0  0  0  0  0  0  0
  150.6797  143.2306  157.0192 H   0  0  0  0  0  0  0  0  0  0  0  0
  152.5255  140.8480  157.3387 H   0  0  0  0  0  0  0  0  0  0  0  0
  149.4552  140.7277  157.9164 H   0  0  0  0  0  0  0  0  0  0  0  0
  148.6982  138.7087  158.3729 H   0  0  0  0  0  0  0  0  0  0  0  0
  150.2137  136.2323  158.3458 H   0  0  0  0  0  0  0  0  0  0  0  0
  150.0432  136.9241  159.9393 H   0  0  0  0  0  0  0  0  0  0  0  0
  147.4825  136.9714  158.6016 H   0  0  0  0  0  0  0  0  0  0  0  0
  147.0048  134.5829  158.3384 H   0  0  0  0  0  0  0  0  0  0  0  0
  148.6728  134.1784  158.7357 H   0  0  0  0  0  0  0  0  0  0  0  0
  148.3091  135.0818  157.2675 H   0  0  0  0  0  0  0  0  0  0  0  0
  145.8333  135.2151  162.8437 H   0  0  0  0  0  0  0  0  0  0  0  0
  144.7185  134.5363  160.6691 H   0  0  0  0  0  0  0  0  0  0  0  0
  145.9742  134.0102  159.5294 H   0  0  0  0  0  0  0  0  0  0  0  0
  145.1729  135.5809  159.3109 H   0  0  0  0  0  0  0  0  0  0  0  0
  148.9411  140.8566  154.8257 H   0  0  0  0  0  0  0  0  0  0  0  0
  150.1752  142.0971  154.5509 H   0  0  0  0  0  0  0  0  0  0  0  0
  149.1478  142.1702  155.9858 H   0  0  0  0  0  0  0  0  0  0  0  0
  150.6538  138.9401  154.7539 H   0  0  0  0  0  0  0  0  0  0  0  0
  152.2131  139.1818  155.5594 H   0  0  0  0  0  0  0  0  0  0  0  0
  151.7446  140.2304  154.2306 H   0  0  0  0  0  0  0  0  0  0  0  0
  1  2  1  0  0  0  0
  1 22  1  0  0  0  0
  1 23  1  0  0  0  0
  1 24  1  0  0  0  0
  2  3  1  0  0  0  0
  2  4  2  0  0  0  0
  3 25  1  0  0  0  0
  3 26  1  0  0  0  0
  3 27  1  0  0  0  0
  4  5  1  0  0  0  0
  4 28  1  0  0  0  0
  5 19  1  0  0  0  0
  5  6  1  0  0  0  0
  5 29  1  0  0  0  0
  6  7  1  0  0  0  0
  6 19  1  0  0  0  0
  6 30  1  0  0  0  0
  7  8  2  0  0  0  0
  7  9  1  0  0  0  0
  9 10  1  0  0  0  0
  9 31  1  0  0  0  0
 10 11  1  0  0  0  0
 10 32  1  0  0  0  0
 10 33  1  0  0  0  0
 11 12  1  0  0  0  0
 11 13  1  0  0  0  0
 11 34  1  0  0  0  0
 12 35  1  0  0  0  0
 12 36  1  0  0  0  0
 12 37  1  0  0  0  0
 13 17  1  0  0  0  0
 13 14  2  0  0  0  0
 14 15  1  0  0  0  0
 15 16  2  0  0  0  0
 16 17  1  0  0  0  0
 16 38  1  0  0  0  0
 17 18  1  0  0  0  0
 18 39  1  0  0  0  0
 18 40  1  0  0  0  0
 18 41  1  0  0  0  0
 19 20  1  0  0  0  0
 19 21  1  0  0  0  0
 20 42  1  0  0  0  0
 20 43  1  0  0  0  0
 20 44  1  0  0  0  0
 21 45  1  0  0  0  0
 21 46  1  0  0  0  0
 21 47  1  0  0  0  0
M  END
> <s_m_source_file>
AV-unprocessed.smi

> <i_m_source_file_index>
2718

> <i_lp_mmshare_version>
43012

> <i_f3d_flags>
0

> <s_epik_input>
W0NIM11DKFtDSDNdKT1bQ0hdW0NAQEhdKEMxKFtDSDNdKVtDSDNdKVtDQEhdMUMoPU8pW05IXVtDSDJdW0NASF0oW0NIM10pYzJubltjSF1uMltDSDNd

> <s_epik_cmdline>
J2VwaWtfcHl0aG9uJywgJy1waCcsICc3LjAnLCAnLXRuJywgJzgnLCAnLW1hJywgJzIwMCcsICctbWV0YWxfYmluZGluZycsICctaW1hZScsICc8aW5maWxlLm1hZT4nLCAnLW9tYWUnLCAnPG91dGZpbGUubWFlPic=

> <r_lp_tautomer_probability>
1

> <r_epik_Ionization_Penalty>
0.000449586

> <r_epik_Ionization_Penalty_Charging>
0

> <r_epik_Ionization_Penalty_Neutral>
0.000449586

> <r_epik_State_Penalty>
0.000243372

> <r_epik_Charging_Adjusted_Penalty>
0.000243372

> <i_epik_Tot_Q>
0

> <i_epik_Tot_abs_Q>
0

> <r_epik_Metal_State_Penalty>
-0

> <b_epik_Metal_Only>
0

> <s_lp_Force_Field>
OPLS_2005

> <r_lp_Energy>
15.3902

> <b_lp_Chiralities_Consistent>
1

> <s_lp_Variant>
AV-unprocessed.smi:2718-8

> <Gold.Version>
5.8.1

> <Gold.Id.Protein>
6NUR|6NUR_protein|mol2

> <Gold.PLP.Fitness>
41.9384

> <Gold.PLP.PLP>
-40.8291

> <Gold.PLP.part.hbond>
-1.0995

> <Gold.PLP.part.metal>
0.0000

> <Gold.PLP.part.buried>
-5.8075

> <Gold.PLP.part.nonpolar>
-35.1542

> <Gold.PLP.part.repulsive>
0.2141

> <Gold.PLP.ligand.clash>
0.0000

> <Gold.PLP.ligand.torsion>
1.0744

> <Gold.PLP.Chemscore.Hbond>
1.0000

> <Gold.PLP.Chemscore.CHOScore>
0.0000

> <Gold.PLP.Chemscore.Metal>
0.0000

> <Gold.Chemscore.Hbonds>
donor molecule, donor type, donor heavy atom, donor atom, acceptor molecule, acceptor atom, score
      P1  H  6931  6943       L1    14  1.00

> <Gold.PLP.Chemscore.Internal.Correction>
0.2581

> <Gold.Rescore>
     Score         DG    S(hbond)    S(metal)    S(lipo)     H(rot)  DE(clash)    DE(int)     intcor
     13.73     -14.68       0.98        0.00      93.51       1.95       0.00       0.96       ----

> <Gold.Chemscore.Fitness>
13.7255

> <Gold.Chemscore.DG>
-14.6824

> <Gold.Chemscore.ZeroCoef>
-5.4800

> <Gold.Chemscore.Hbond>
0.9766

> <Gold.Chemscore.Metal>
0.0000

> <Gold.Chemscore.Lipo>
93.5142

> <Gold.Chemscore.Internal_Hbond>
0.0000

> <Gold.Chemscore.DEClash>
0.0004

> <Gold.Chemscore.DEInternal>
0.9564

> <Gold.Chemscore.Rot>
1.9533

> <Gold.Chemscore.Internal.Correction>
   9.000000E+99

> <Gold.Chemscore.Hbonds>
donor molecule, donor type, donor heavy atom, donor atom, acceptor molecule, acceptor atom, score
      P1  H  6931  6943       L1    14  0.45

> <Gold.Chemscore.Hbond.Weighted>
-3.2618

> <Gold.Chemscore.Metal.Weighted>
-0.0000

> <Gold.Chemscore.Lipo.Weighted>
-10.9412

> <Gold.Chemscore.Internal_Hbond.Weighted>
0.0000

> <Gold.Chemscore.DEClash.Weighted>
0.0004

> <Gold.Chemscore.DEInternal.Weighted>
0.9564

> <Gold.Chemscore.Rot.Weighted>
5.0005

> <Gold.Chemscore.Internal.Correction.Weighted>
   9.000000E+99

> <Gold.Protein.RotatedTorsions>
[ 6907 6896 6895 6894 ] final  137.79 input  -60.11 | X-H torsion
[ 7974 7965 7964 7962 ] final  -20.25 input  175.53 | X-H torsion
[ 8008 7997 7996 7995 ] final  -58.02 input   59.86 | X-H torsion
[ 10167 10162 10161 10158 ] final   45.58 input  -65.29 | X-H torsion
[ 10718 10713 10712 10709 ] final -161.17 input   66.30 | X-H torsion
[ 10763 10752 10751 10750 ] final  103.05 input  -60.55 | X-H torsion
[ 11005 11000 10999 10996 ] final -149.54 input  -57.11 | X-H torsion

> <Gold.Protein.ActiveResidues>
 VAL166  LYS551  ARG553  GLY616  TRP617  ASP618  TYR619  PRO620  LYS621  CYS622 
 ASP623  PHE694  ASN695  SER759  ASP760  ASP761  ALA762  ILE779  LEU786  VAL792 
 PHE793  MET794  SER795  GLU796  ALA797  LYS798  CYS799  TRP800  GLU811  SER814 

> <Gold.Protein.RotatedAtoms>
  152.2741  133.5409  159.5456 H   0  0  0  0  0  0  0  0  0  0  0  0  # atno 6907 bound_to 6896
  150.7170  134.0657  159.3855 H   0  0  0  0  0  0  0  0  0  0  0  0  # atno 6908 bound_to 6896
  151.8570  135.0537  160.0516 H   0  0  0  0  0  0  0  0  0  0  0  0  # atno 6909 bound_to 6896
  146.1798  140.4175  142.8499 H   0  0  0  0  0  0  0  0  0  0  0  0  # atno 7974 bound_to 7965
  154.4291  140.1093  156.5890 H   0  0  0  0  0  0  0  0  0  0  0  0  # atno 8008 bound_to 7997
  155.6032  140.3493  155.4581 H   0  0  0  0  0  0  0  0  0  0  0  0  # atno 8009 bound_to 7997
  156.0157  140.1228  157.0398 H   0  0  0  0  0  0  0  0  0  0  0  0  # atno 8010 bound_to 7997
  140.3227  144.2685  150.6180 H   0  0  0  0  0  0  0  0  0  0  0  0  # atno 10167 bound_to 10162
  156.5925  130.8776  151.2893 H   0  0  0  0  0  0  0  0  0  0  0  0  # atno 10718 bound_to 10713
  153.3475  135.3990  155.1620 H   0  0  0  0  0  0  0  0  0  0  0  0  # atno 10763 bound_to 10752
  154.8656  135.3648  154.5265 H   0  0  0  0  0  0  0  0  0  0  0  0  # atno 10764 bound_to 10752
  153.5714  135.7079  153.5563 H   0  0  0  0  0  0  0  0  0  0  0  0  # atno 10765 bound_to 10752
  140.7496  134.3421  157.5129 H   0  0  0  0  0  0  0  0  0  0  0  0  # atno 11005 bound_to 11000
  144.8296  140.6686  143.6299 LP  0  0  0  0  0  0  0  0  0  0  0  0  # atno 17320 bound_to 7965
  145.4108  139.1580  143.4127 LP  0  0  0  0  0  0  0  0  0  0  0  0  # atno 17321 bound_to 7965
  140.5469  143.2213  151.7992 LP  0  0  0  0  0  0  0  0  0  0  0  0  # atno 17342 bound_to 10162
  139.4871  144.4528  151.9634 LP  0  0  0  0  0  0  0  0  0  0  0  0  # atno 17343 bound_to 10162
  157.7300  130.9679  150.1813 LP  0  0  0  0  0  0  0  0  0  0  0  0  # atno 17370 bound_to 10713
  156.2537  130.3703  149.8204 LP  0  0  0  0  0  0  0  0  0  0  0  0  # atno 17371 bound_to 10713
  139.8790  134.9133  156.3082 LP  0  0  0  0  0  0  0  0  0  0  0  0  # atno 17394 bound_to 11000
  140.9763  133.7296  156.0606 LP  0  0  0  0  0  0  0  0  0  0  0  0  # atno 17395 bound_to 11000

$$$$
