AV-unprocessed.smi:1600|AV-procd|sdf|6429|dock9
  -GOLD-   22720 7 73D 1   1.00000     0.00000
 Structure written by MMmdl.
 46 47  0  0  0  0  0  0  0  0  2 V2000
  151.2727  142.1390  156.2939 C   0  0  0  0  0  0  0  0  0  0  0  0
  151.2983  140.7252  155.7926 C   0  0  0  0  0  0  0  0  0  0  0  0
  150.1906  139.8908  155.4636 C   0  0  0  0  0  0  0  0  0  0  0  0
  150.7957  138.7292  155.0678 C   0  0  0  0  0  0  0  0  0  0  0  0
  150.2257  137.5697  154.6437 N   0  0  0  0  0  0  0  0  0  0  0  0
  150.3012  136.3462  155.1960 C   0  0  0  0  0  0  0  0  0  0  0  0
  150.9309  136.0582  156.2139 O   0  0  0  0  0  0  0  0  0  0  0  0
  149.5923  135.4515  154.4925 N   0  0  0  0  0  0  0  0  0  0  0  0
  149.4480  134.0410  154.8385 C   0  0  0  0  0  0  0  0  0  0  0  0
  148.7824  133.2280  153.7113 C   0  0  2  0  0  0  0  0  0  0  0  0
  147.3805  133.6956  153.3226 C   0  0  0  0  0  0  0  0  0  0  0  0
  146.7029  132.4499  152.7350 C   0  0  0  0  0  0  0  0  0  0  0  0
  147.5554  131.2831  153.0783 N   0  3  2  0  0  0  0  0  0  0  0  0
  146.8158  130.0458  153.4572 C   0  0  0  0  0  0  0  0  0  0  0  0
  147.7726  128.8695  153.7314 C   0  0  0  0  0  0  0  0  0  0  0  0
  145.8087  129.6445  152.3624 C   0  0  0  0  0  0  0  0  0  0  0  0
  148.5501  131.7607  154.0633 C   0  0  0  0  0  0  0  0  0  0  0  0
  152.1610  138.8834  155.1645 N   0  0  0  0  0  0  0  0  0  0  0  0
  153.2197  137.9393  154.8638 C   0  0  0  0  0  0  0  0  0  0  0  0
  152.4670  140.1197  155.6140 N   0  0  0  0  0  0  0  0  0  0  0  0
  150.2515  142.5147  156.3618 H   0  0  0  0  0  0  0  0  0  0  0  0
  151.8261  142.8021  155.6284 H   0  0  0  0  0  0  0  0  0  0  0  0
  151.7191  142.2118  157.2860 H   0  0  0  0  0  0  0  0  0  0  0  0
  149.1384  140.1260  155.5177 H   0  0  0  0  0  0  0  0  0  0  0  0
  149.6591  137.6496  153.8123 H   0  0  0  0  0  0  0  0  0  0  0  0
  149.1038  135.7717  153.6689 H   0  0  0  0  0  0  0  0  0  0  0  0
  150.4251  133.6199  155.0810 H   0  0  0  0  0  0  0  0  0  0  0  0
  148.8525  133.9772  155.7497 H   0  0  0  0  0  0  0  0  0  0  0  0
  149.4129  133.2612  152.8209 H   0  0  0  0  0  0  0  0  0  0  0  0
  146.8350  134.0217  154.2095 H   0  0  0  0  0  0  0  0  0  0  0  0
  147.3997  134.5307  152.6214 H   0  0  0  0  0  0  0  0  0  0  0  0
  145.6957  132.3534  153.1432 H   0  0  0  0  0  0  0  0  0  0  0  0
  146.6166  132.5202  151.6503 H   0  0  0  0  0  0  0  0  0  0  0  0
  146.2617  130.2499  154.3750 H   0  0  0  0  0  0  0  0  0  0  0  0
  147.2162  127.9598  153.9597 H   0  0  0  0  0  0  0  0  0  0  0  0
  148.4233  129.0606  154.5849 H   0  0  0  0  0  0  0  0  0  0  0  0
  148.4041  128.6610  152.8670 H   0  0  0  0  0  0  0  0  0  0  0  0
  145.2817  128.7292  152.6339 H   0  0  0  0  0  0  0  0  0  0  0  0
  146.3097  129.4653  151.4104 H   0  0  0  0  0  0  0  0  0  0  0  0
  145.0496  130.4093  152.1998 H   0  0  0  0  0  0  0  0  0  0  0  0
  149.4727  131.1809  154.0216 H   0  0  0  0  0  0  0  0  0  0  0  0
  148.1386  131.6765  155.0709 H   0  0  0  0  0  0  0  0  0  0  0  0
  153.0468  137.4918  153.8846 H   0  0  0  0  0  0  0  0  0  0  0  0
  153.2341  137.1535  155.6196 H   0  0  0  0  0  0  0  0  0  0  0  0
  154.1888  138.4405  154.8534 H   0  0  0  0  0  0  0  0  0  0  0  0
  148.0809  131.0686  152.2427 H   0  0  0  0  0  0  0  0  0  0  0  0
  1  2  1  0  0  0  0
  1 21  1  0  0  0  0
  1 22  1  0  0  0  0
  1 23  1  0  0  0  0
  2 20  2  0  0  0  0
  2  3  1  0  0  0  0
  3  4  2  0  0  0  0
  3 24  1  0  0  0  0
  4  5  1  0  0  0  0
  4 18  1  0  0  0  0
  5  6  1  0  0  0  0
  5 25  1  0  0  0  0
  6  7  2  0  0  0  0
  6  8  1  0  0  0  0
  8  9  1  0  0  0  0
  8 26  1  0  0  0  0
  9 10  1  0  0  0  0
  9 27  1  0  0  0  0
  9 28  1  0  0  0  0
 10 17  1  0  0  0  0
 10 11  1  0  0  0  0
 10 29  1  0  0  0  0
 11 12  1  0  0  0  0
 11 30  1  0  0  0  0
 11 31  1  0  0  0  0
 12 13  1  0  0  0  0
 12 32  1  0  0  0  0
 12 33  1  0  0  0  0
 13 14  1  0  0  0  0
 13 17  1  0  0  0  0
 13 46  1  0  0  0  0
 14 15  1  0  0  0  0
 14 16  1  0  0  0  0
 14 34  1  0  0  0  0
 15 35  1  0  0  0  0
 15 36  1  0  0  0  0
 15 37  1  0  0  0  0
 16 38  1  0  0  0  0
 16 39  1  0  0  0  0
 16 40  1  0  0  0  0
 17 41  1  0  0  0  0
 17 42  1  0  0  0  0
 18 19  1  0  0  0  0
 18 20  1  0  0  0  0
 19 43  1  0  0  0  0
 19 44  1  0  0  0  0
 19 45  1  0  0  0  0
M  CHG  1  13   1
M  END
> <s_m_source_file>
AV-unprocessed.smi

> <i_m_source_file_index>
1600

> <i_lp_mmshare_version>
43012

> <i_f3d_flags>
0

> <s_epik_input>
W0NIM11jMVtjSF1jKG4objEpW0NIM10pW05IXUMoPU8pW05IXVtDSDJdW0NAQEhdMltDSDJdW0NIMl1OKFtDSDJdMilbQ0hdKFtDSDNdKVtDSDNd

> <s_epik_cmdline>
J2VwaWtfcHl0aG9uJywgJy1waCcsICc3LjAnLCAnLXRuJywgJzgnLCAnLW1hJywgJzIwMCcsICctbWV0YWxfYmluZGluZycsICctaW1hZScsICc8aW5maWxlLm1hZT4nLCAnLW9tYWUnLCAnPG91dGZpbGUubWFlPic=

> <r_lp_tautomer_probability>
1

> <r_epik_Ionization_Penalty>
0.000297652

> <r_epik_Ionization_Penalty_Charging>
0.000213653

> <r_epik_Ionization_Penalty_Neutral>
8.3999e-05

> <r_epik_State_Penalty>
-0

> <r_epik_Charging_Adjusted_Penalty>
0.000213653

> <i_epik_Tot_Q>
1

> <i_epik_Tot_abs_Q>
1

> <r_epik_Metal_State_Penalty>
-0

> <b_epik_Metal_Only>
0

> <s_lp_Force_Field>
OPLS_2005

> <r_lp_Energy>
32.0246

> <b_lp_Chiralities_Consistent>
1

> <s_lp_Variant>
AV-unprocessed.smi:1600-3

> <Gold.Version>
5.8.1

> <Gold.Id.Protein>
6NUR|6NUR_protein|mol2

> <Gold.PLP.Fitness>
48.6289

> <Gold.PLP.PLP>
-37.9499

> <Gold.PLP.part.hbond>
-5.6289

> <Gold.PLP.part.metal>
0.0000

> <Gold.PLP.part.buried>
-1.1708

> <Gold.PLP.part.nonpolar>
-31.4366

> <Gold.PLP.part.repulsive>
0.1559

> <Gold.PLP.ligand.clash>
0.0000

> <Gold.PLP.ligand.torsion>
0.6424

> <Gold.PLP.Chemscore.Hbond>
3.9794

> <Gold.PLP.Chemscore.CHOScore>
0.0000

> <Gold.PLP.Chemscore.Metal>
0.0000

> <Gold.Chemscore.Hbonds>
donor molecule, donor type, donor heavy atom, donor atom, acceptor molecule, acceptor atom, score
      L1  H     8    26       P1  7948  1.00
      L1  H    13    46       P1 10747  0.68
      P1  H  7997  8010       L1    20  1.00

> <Gold.PLP.Chemscore.Internal.Correction>
0.0256

> <Gold.Rescore>
     Score         DG    S(hbond)    S(metal)    S(lipo)     H(rot)  DE(clash)    DE(int)     intcor
     20.20     -22.10       3.26        0.00      80.47       1.44       1.02       0.87       ----

> <Gold.Chemscore.Fitness>
20.2037

> <Gold.Chemscore.DG>
-22.1017

> <Gold.Chemscore.ZeroCoef>
-5.4800

> <Gold.Chemscore.Hbond>
3.2590

> <Gold.Chemscore.Metal>
0.0000

> <Gold.Chemscore.Lipo>
80.4710

> <Gold.Chemscore.Internal_Hbond>
0.0000

> <Gold.Chemscore.DEClash>
1.0237

> <Gold.Chemscore.DEInternal>
0.8744

> <Gold.Chemscore.Rot>
1.4369

> <Gold.Chemscore.Internal.Correction>
   9.000000E+99

> <Gold.Chemscore.Hbonds>
donor molecule, donor type, donor heavy atom, donor atom, acceptor molecule, acceptor atom, score
      L1  H     5    25       P1  7948  0.02
      L1  H     8    26       P1  7948  0.80
      L1  H    13    46       P1 10747  0.67
      P1  H  7997  8010       L1    20  0.68

> <Gold.Chemscore.Hbond.Weighted>
-10.8851

> <Gold.Chemscore.Metal.Weighted>
-0.0000

> <Gold.Chemscore.Lipo.Weighted>
-9.4151

> <Gold.Chemscore.Internal_Hbond.Weighted>
0.0000

> <Gold.Chemscore.DEClash.Weighted>
1.0237

> <Gold.Chemscore.DEInternal.Weighted>
0.8744

> <Gold.Chemscore.Rot.Weighted>
3.6785

> <Gold.Chemscore.Internal.Correction.Weighted>
   9.000000E+99

> <Gold.Protein.RotatedTorsions>
[ 6907 6896 6895 6894 ] final   73.40 input  -60.11 | X-H torsion
[ 7974 7965 7964 7962 ] final -124.25 input  175.53 | X-H torsion
[ 8008 7997 7996 7995 ] final   96.05 input   59.86 | X-H torsion
[ 10167 10162 10161 10158 ] final  -55.68 input  -65.29 | X-H torsion
[ 10718 10713 10712 10709 ] final -165.81 input   66.30 | X-H torsion
[ 10763 10752 10751 10750 ] final  -32.22 input  -60.55 | X-H torsion
[ 11005 11000 10999 10996 ] final -153.74 input  -57.11 | X-H torsion

> <Gold.Protein.ActiveResidues>
 VAL166  LYS551  ARG553  GLY616  TRP617  ASP618  TYR619  PRO620  LYS621  CYS622 
 ASP623  PHE694  ASN695  SER759  ASP760  ASP761  ALA762  ILE779  LEU786  VAL792 
 PHE793  MET794  SER795  GLU796  ALA797  LYS798  CYS799  TRP800  GLU811  SER814 

> <Gold.Protein.RotatedAtoms>
  152.4921  134.4428  159.9548 H   0  0  0  0  0  0  0  0  0  0  0  0  # atno 6907 bound_to 6896
  151.4413  133.3636  159.2790 H   0  0  0  0  0  0  0  0  0  0  0  0  # atno 6908 bound_to 6896
  150.9085  134.8525  159.7469 H   0  0  0  0  0  0  0  0  0  0  0  0  # atno 6909 bound_to 6896
  145.0101  140.7898  143.4444 H   0  0  0  0  0  0  0  0  0  0  0  0  # atno 7974 bound_to 7965
  156.0755  140.3278  155.7629 H   0  0  0  0  0  0  0  0  0  0  0  0  # atno 8008 bound_to 7997
  155.5237  140.0587  157.2919 H   0  0  0  0  0  0  0  0  0  0  0  0  # atno 8009 bound_to 7997
  154.4553  140.1939  156.0415 H   0  0  0  0  0  0  0  0  0  0  0  0  # atno 8010 bound_to 7997
  140.6361  143.2483  151.5114 H   0  0  0  0  0  0  0  0  0  0  0  0  # atno 10167 bound_to 10162
  156.6588  130.9037  151.3025 H   0  0  0  0  0  0  0  0  0  0  0  0  # atno 10718 bound_to 10713
  153.8102  135.6883  153.4842 H   0  0  0  0  0  0  0  0  0  0  0  0  # atno 10763 bound_to 10752
  153.1633  135.4571  154.9801 H   0  0  0  0  0  0  0  0  0  0  0  0  # atno 10764 bound_to 10752
  154.7971  135.3323  154.7583 H   0  0  0  0  0  0  0  0  0  0  0  0  # atno 10765 bound_to 10752
  140.7049  134.3897  157.5205 H   0  0  0  0  0  0  0  0  0  0  0  0  # atno 11005 bound_to 11000
  145.2035  139.2240  143.5180 LP  0  0  0  0  0  0  0  0  0  0  0  0  # atno 17320 bound_to 7965
  146.3468  140.1858  142.8589 LP  0  0  0  0  0  0  0  0  0  0  0  0  # atno 17321 bound_to 7965
  139.5571  144.2248  152.1631 LP  0  0  0  0  0  0  0  0  0  0  0  0  # atno 17342 bound_to 10162
  140.1505  144.5119  150.6690 LP  0  0  0  0  0  0  0  0  0  0  0  0  # atno 17343 bound_to 10162
  157.7117  130.9448  150.1111 LP  0  0  0  0  0  0  0  0  0  0  0  0  # atno 17370 bound_to 10713
  156.2027  130.3661  149.8768 LP  0  0  0  0  0  0  0  0  0  0  0  0  # atno 17371 bound_to 10713
  139.8887  134.8850  156.2461 LP  0  0  0  0  0  0  0  0  0  0  0  0  # atno 17394 bound_to 11000
  141.0133  133.7083  156.1147 LP  0  0  0  0  0  0  0  0  0  0  0  0  # atno 17395 bound_to 11000

$$$$
