AV-unprocessed.smi:221|AV-procd|sdf|1689|dock1
  -GOLD-   2262020133D 1   1.00000     0.00000
 Structure written by MMmdl.
 50 53  0  0  0  0  0  0  0  0  1 V2000
  152.0503  138.9705  157.4119 N   0  0  0  0  0  0  0  0  0  0  0  0
  152.9132  139.7216  158.1045 C   0  0  0  0  0  0  0  0  0  0  0  0
  154.1250  139.5249  158.0474 O   0  0  0  0  0  0  0  0  0  0  0  0
  152.3663  140.8547  158.9956 C   0  0  1  0  0  0  0  0  0  0  0  0
  153.5075  141.5696  159.7378 C   0  0  0  0  0  0  0  0  0  0  0  0
  152.9470  142.9592  160.0197 C   0  0  2  0  0  0  0  0  0  0  0  0
  152.1730  142.9155  161.1053 F   0  0  0  0  0  0  0  0  0  0  0  0
  152.0835  143.2444  158.7915 C   0  0  0  0  0  0  0  0  0  0  0  0
  151.6853  141.9393  158.2741 N   0  0  0  0  0  0  0  0  0  0  0  0
  150.4340  141.7973  157.7577 C   0  0  0  0  0  0  0  0  0  0  0  0
  149.3531  142.0774  158.5332 N   0  0  0  0  0  0  0  0  0  0  0  0
  148.1158  141.9445  158.0478 C   0  0  0  0  0  0  0  0  0  0  0  0
  147.7356  141.5454  156.8336 N   0  0  0  0  0  0  0  0  0  0  0  0
  148.8120  141.2478  156.0516 C   0  0  0  0  0  0  0  0  0  0  0  0
  150.1819  141.3459  156.4292 C   0  0  0  0  0  0  0  0  0  0  0  0
  150.9896  140.9483  155.3689 N   0  0  0  0  0  0  0  0  0  0  0  0
  150.1480  140.6450  154.4190 C   0  0  0  0  0  0  0  0  0  0  0  0
  148.8196  140.7872  154.7465 N   0  0  0  0  0  0  0  0  0  0  0  0
  147.6821  140.5216  153.8836 C   0  0  0  0  0  0  0  0  0  0  0  0
  147.7574  139.1230  153.2106 C   0  0  2  0  0  0  0  0  0  0  0  0
  146.7955  139.0413  152.0057 C   0  0  0  0  0  0  0  0  0  0  0  0
  147.3358  138.2418  150.9742 O   0  0  0  0  0  0  0  0  0  0  0  0
  147.5537  137.9468  154.2047 C   0  0  2  0  0  0  0  0  0  0  0  0
  146.1805  137.8937  154.8802 C   0  0  0  0  0  0  0  0  0  0  0  0
  146.5063  137.6059  156.3425 C   0  0  0  0  0  0  0  0  0  0  0  0
  147.7590  138.2429  156.5241 O   0  0  0  0  0  0  0  0  0  0  0  0
  148.5432  137.9390  155.3808 C   0  0  0  0  0  0  0  0  0  0  0  0
  151.6851  140.4281  159.7340 H   0  0  0  0  0  0  0  0  0  0  0  0
  153.7158  143.7128  160.1925 H   0  0  0  0  0  0  0  0  0  0  0  0
  152.3932  138.2201  156.8299 H   0  0  0  0  0  0  0  0  0  0  0  0
  151.0594  139.1519  157.4795 H   0  0  0  0  0  0  0  0  0  0  0  0
  153.8111  141.0478  160.6461 H   0  0  0  0  0  0  0  0  0  0  0  0
  154.3882  141.6620  159.0993 H   0  0  0  0  0  0  0  0  0  0  0  0
  151.2363  143.8830  159.0477 H   0  0  0  0  0  0  0  0  0  0  0  0
  152.6690  143.7527  158.0247 H   0  0  0  0  0  0  0  0  0  0  0  0
  147.3162  142.1929  158.7298 H   0  0  0  0  0  0  0  0  0  0  0  0
  150.4740  140.2990  153.4488 H   0  0  0  0  0  0  0  0  0  0  0  0
  146.7730  140.6386  154.4725 H   0  0  0  0  0  0  0  0  0  0  0  0
  147.6451  141.3143  153.1355 H   0  0  0  0  0  0  0  0  0  0  0  0
  148.7622  139.0032  152.8010 H   0  0  0  0  0  0  0  0  0  0  0  0
  145.8243  138.6437  152.3015 H   0  0  0  0  0  0  0  0  0  0  0  0
  146.6210  140.0362  151.5941 H   0  0  0  0  0  0  0  0  0  0  0  0
  147.8189  137.5301  151.3662 H   0  0  0  0  0  0  0  0  0  0  0  0
  147.7046  137.0123  153.6624 H   0  0  0  0  0  0  0  0  0  0  0  0
  145.6588  138.8475  154.8048 H   0  0  0  0  0  0  0  0  0  0  0  0
  145.5300  137.1337  154.4465 H   0  0  0  0  0  0  0  0  0  0  0  0
  145.7525  137.9955  157.0270 H   0  0  0  0  0  0  0  0  0  0  0  0
  146.6109  136.5337  156.5169 H   0  0  0  0  0  0  0  0  0  0  0  0
  148.9768  136.9457  155.5059 H   0  0  0  0  0  0  0  0  0  0  0  0
  149.3671  138.6422  155.2626 H   0  0  0  0  0  0  0  0  0  0  0  0
  1  2  1  0  0  0  0
  1 30  1  0  0  0  0
  1 31  1  0  0  0  0
  2  3  2  0  0  0  0
  2  4  1  0  0  0  0
  4 28  1  0  0  0  0
  4  9  1  0  0  0  0
  4  5  1  0  0  0  0
  5  6  1  0  0  0  0
  5 32  1  0  0  0  0
  5 33  1  0  0  0  0
  6 29  1  0  0  0  0
  6  7  1  0  0  0  0
  6  8  1  0  0  0  0
  8  9  1  0  0  0  0
  8 34  1  0  0  0  0
  8 35  1  0  0  0  0
  9 10  1  0  0  0  0
 10 15  1  0  0  0  0
 10 11  2  0  0  0  0
 11 12  1  0  0  0  0
 12 13  2  0  0  0  0
 12 36  1  0  0  0  0
 13 14  1  0  0  0  0
 14 18  1  0  0  0  0
 14 15  2  0  0  0  0
 15 16  1  0  0  0  0
 16 17  2  0  0  0  0
 17 18  1  0  0  0  0
 17 37  1  0  0  0  0
 18 19  1  0  0  0  0
 19 20  1  0  0  0  0
 19 38  1  0  0  0  0
 19 39  1  0  0  0  0
 20 21  1  0  0  0  0
 20 23  1  0  0  0  0
 20 40  1  0  0  0  0
 21 22  1  0  0  0  0
 21 41  1  0  0  0  0
 21 42  1  0  0  0  0
 22 43  1  0  0  0  0
 23 27  1  0  0  0  0
 23 24  1  0  0  0  0
 23 44  1  0  0  0  0
 24 25  1  0  0  0  0
 24 45  1  0  0  0  0
 24 46  1  0  0  0  0
 25 26  1  0  0  0  0
 25 47  1  0  0  0  0
 25 48  1  0  0  0  0
 26 27  1  0  0  0  0
 27 49  1  0  0  0  0
 27 50  1  0  0  0  0
M  END
> <s_m_source_file>
AV-unprocessed.smi

> <i_m_source_file_index>
221

> <i_lp_mmshare_version>
43012

> <i_f3d_flags>
0

> <s_epik_input>
W05IMl1DKD1PKVtDQEBIXTFbQ0gyXVtDQEBIXShGKVtDSDJdTjFjKG5bY0hdbjIpYyhjMjMpbltjSF1uM1tDSDJdW0NASF0oW0NIMl1bT0hdKVtDQEBIXTRbQ0gyXVtDSDJdT1tDSDJdNA==

> <s_epik_cmdline>
J2VwaWtfcHl0aG9uJywgJy1waCcsICc3LjAnLCAnLXRuJywgJzgnLCAnLW1hJywgJzIwMCcsICctbWV0YWxfYmluZGluZycsICctaW1hZScsICc8aW5maWxlLm1hZT4nLCAnLW9tYWUnLCAnPG91dGZpbGUubWFlPic=

> <r_lp_tautomer_probability>
1

> <r_epik_Ionization_Penalty>
0.000818822

> <r_epik_Ionization_Penalty_Charging>
0

> <r_epik_Ionization_Penalty_Neutral>
0.000818822

> <r_epik_State_Penalty>
0.000440551

> <r_epik_Charging_Adjusted_Penalty>
0.000440551

> <i_epik_Tot_Q>
0

> <i_epik_Tot_abs_Q>
0

> <r_epik_Metal_State_Penalty>
-0

> <b_epik_Metal_Only>
0

> <s_lp_Force_Field>
OPLS_2005

> <r_lp_Energy>
52.2348

> <b_lp_Chiralities_Consistent>
1

> <s_lp_Variant>
AV-unprocessed.smi:221-4

> <Gold.Version>
5.8.1

> <Gold.Id.Protein>
6NUR|6NUR_protein|mol2

> <Gold.PLP.Fitness>
51.9573

> <Gold.PLP.PLP>
-43.5557

> <Gold.PLP.part.hbond>
-4.7088

> <Gold.PLP.part.metal>
0.0000

> <Gold.PLP.part.buried>
-0.0810

> <Gold.PLP.part.nonpolar>
-38.7273

> <Gold.PLP.part.repulsive>
0.3910

> <Gold.PLP.ligand.clash>
0.0000

> <Gold.PLP.ligand.torsion>
1.8943

> <Gold.PLP.Chemscore.Hbond>
2.7800

> <Gold.PLP.Chemscore.CHOScore>
0.9974

> <Gold.PLP.Chemscore.Metal>
0.0000

> <Gold.Chemscore.Hbonds>
donor molecule, donor type, donor heavy atom, donor atom, acceptor molecule, acceptor atom, score
      L1  H    22    43       P1  7948  1.00
      P1  H  7997  8010       L1     3  0.21
      L1  C    17    37       P1  7957  1.00

> <Gold.PLP.Chemscore.Internal.Correction>
0.8580

> <Gold.Rescore>
     Score         DG    S(hbond)    S(metal)    S(lipo)     H(rot)  DE(clash)    DE(int)     intcor
      9.67     -12.98       2.30        0.00      70.81       3.31       0.10       3.20       ----

> <Gold.Chemscore.Fitness>
9.6732

> <Gold.Chemscore.DG>
-12.9770

> <Gold.Chemscore.ZeroCoef>
-5.4800

> <Gold.Chemscore.Hbond>
2.3002

> <Gold.Chemscore.Metal>
0.0000

> <Gold.Chemscore.Lipo>
70.8137

> <Gold.Chemscore.Internal_Hbond>
0.0000

> <Gold.Chemscore.DEClash>
0.1036

> <Gold.Chemscore.DEInternal>
3.2002

> <Gold.Chemscore.Rot>
3.3089

> <Gold.Chemscore.Internal.Correction>
   9.000000E+99

> <Gold.Chemscore.Hbonds>
donor molecule, donor type, donor heavy atom, donor atom, acceptor molecule, acceptor atom, score
      L1  H    22    43       P1  7948  1.00
      P1  H  7997  8010       L1     3  0.21

> <Gold.Chemscore.Hbond.Weighted>
-7.6827

> <Gold.Chemscore.Metal.Weighted>
-0.0000

> <Gold.Chemscore.Lipo.Weighted>
-8.2852

> <Gold.Chemscore.Internal_Hbond.Weighted>
0.0000

> <Gold.Chemscore.DEClash.Weighted>
0.1036

> <Gold.Chemscore.DEInternal.Weighted>
3.2002

> <Gold.Chemscore.Rot.Weighted>
8.4709

> <Gold.Chemscore.Internal.Correction.Weighted>
   9.000000E+99

> <Gold.Protein.RotatedTorsions>
[ 6907 6896 6895 6894 ] final  169.28 input  -60.11 | X-H torsion
[ 7974 7965 7964 7962 ] final  -95.63 input  175.53 | X-H torsion
[ 8008 7997 7996 7995 ] final   11.28 input   59.86 | X-H torsion
[ 10167 10162 10161 10158 ] final   35.40 input  -65.29 | X-H torsion
[ 10718 10713 10712 10709 ] final -116.79 input   66.30 | X-H torsion
[ 10763 10752 10751 10750 ] final    5.36 input  -60.55 | X-H torsion
[ 11005 11000 10999 10996 ] final  128.10 input  -57.11 | X-H torsion

> <Gold.Protein.ActiveResidues>
 VAL166  LYS551  ARG553  GLY616  TRP617  ASP618  TYR619  PRO620  LYS621  CYS622 
 ASP623  PHE694  ASN695  SER759  ASP760  ASP761  ALA762  ILE779  LEU786  VAL792 
 PHE793  MET794  SER795  GLU796  ALA797  LYS798  CYS799  TRP800  GLU811  SER814 

> <Gold.Protein.RotatedAtoms>
  151.8344  133.3413  159.3623 H   0  0  0  0  0  0  0  0  0  0  0  0  # atno 6907 bound_to 6896
  150.7254  134.5451  159.5776 H   0  0  0  0  0  0  0  0  0  0  0  0  # atno 6908 bound_to 6896
  152.2912  134.7720  160.0428 H   0  0  0  0  0  0  0  0  0  0  0  0  # atno 6909 bound_to 6896
  145.3576  140.9486  143.2519 H   0  0  0  0  0  0  0  0  0  0  0  0  # atno 7974 bound_to 7965
  154.8048  140.2858  155.5895 H   0  0  0  0  0  0  0  0  0  0  0  0  # atno 8008 bound_to 7997
  156.2981  140.2579  156.2853 H   0  0  0  0  0  0  0  0  0  0  0  0  # atno 8009 bound_to 7997
  154.9516  140.0379  157.2136 H   0  0  0  0  0  0  0  0  0  0  0  0  # atno 8010 bound_to 7997
  140.4225  144.1439  150.6149 H   0  0  0  0  0  0  0  0  0  0  0  0  # atno 10167 bound_to 10162
  156.0988  130.6155  150.9081 H   0  0  0  0  0  0  0  0  0  0  0  0  # atno 10718 bound_to 10713
  153.2603  135.6922  153.7585 H   0  0  0  0  0  0  0  0  0  0  0  0  # atno 10763 bound_to 10752
  153.6646  135.3354  155.3137 H   0  0  0  0  0  0  0  0  0  0  0  0  # atno 10764 bound_to 10752
  154.8428  135.4485  154.1592 H   0  0  0  0  0  0  0  0  0  0  0  0  # atno 10765 bound_to 10752
  139.9542  134.9616  156.8952 H   0  0  0  0  0  0  0  0  0  0  0  0  # atno 11005 bound_to 11000
  144.8671  139.5092  143.6785 LP  0  0  0  0  0  0  0  0  0  0  0  0  # atno 17320 bound_to 7965
  146.2941  139.7226  142.9139 LP  0  0  0  0  0  0  0  0  0  0  0  0  # atno 17321 bound_to 7965
  140.4518  143.2484  151.9338 LP  0  0  0  0  0  0  0  0  0  0  0  0  # atno 17342 bound_to 10162
  139.4783  144.5555  151.8320 LP  0  0  0  0  0  0  0  0  0  0  0  0  # atno 17343 bound_to 10162
  157.6155  131.0933  150.8719 LP  0  0  0  0  0  0  0  0  0  0  0  0  # atno 17370 bound_to 10713
  156.8851  130.5193  149.5289 LP  0  0  0  0  0  0  0  0  0  0  0  0  # atno 17371 bound_to 10713
  140.5647  134.0501  155.7410 LP  0  0  0  0  0  0  0  0  0  0  0  0  # atno 17394 bound_to 11000
  141.1211  133.9460  157.2727 LP  0  0  0  0  0  0  0  0  0  0  0  0  # atno 17395 bound_to 11000

$$$$
