AV-unprocessed.smi:1554|AV-procd|sdf|6257|dock8
  -GOLD-   22720 6443D 1   1.00000     0.00000
 Structure written by MMmdl.
 49 51  0  0  0  0  0  0  0  0  3 V2000
  152.8890  144.4847  160.0774 C   0  0  0  0  0  0  0  0  0  0  0  0
  152.4877  143.3922  159.1009 C   0  0  0  0  0  0  0  0  0  0  0  0
  151.4857  143.6757  158.1459 C   0  0  0  0  0  0  0  0  0  0  0  0
  151.1426  142.6570  157.2648 C   0  0  0  0  0  0  0  0  0  0  0  0
  150.2102  142.6235  156.2263 N   0  3  0  0  0  0  0  0  0  0  0  0
  150.2310  141.3966  155.6361 C   0  0  0  0  0  0  0  0  0  0  0  0
  151.1635  140.6447  156.2823 N   0  0  0  0  0  0  0  0  0  0  0  0
  151.5767  139.2541  156.0411 C   0  0  0  0  0  0  0  0  0  0  0  0
  150.5102  138.4332  155.2886 C   0  0  1  0  0  0  0  0  0  0  0  0
  150.3913  138.9082  153.9610 O   0  0  0  0  0  0  0  0  0  0  0  0
  150.8666  136.9336  155.2476 C   0  0  0  0  0  0  0  0  0  0  0  0
  149.6726  136.0645  155.0846 N   0  3  1  0  0  0  0  0  0  0  0  0
  149.9955  134.6251  155.2273 C   0  0  0  0  0  0  0  0  0  0  0  0
  148.7423  133.7670  154.9887 C   0  0  0  0  0  0  0  0  0  0  0  0
  147.7167  134.1614  155.8915 O   0  0  0  0  0  0  0  0  0  0  0  0
  147.3282  135.5183  155.7075 C   0  0  1  0  0  0  0  0  0  0  0  0
  146.1627  135.8161  156.6573 C   0  0  0  0  0  0  0  0  0  0  0  0
  148.5419  136.4303  155.9736 C   0  0  0  0  0  0  0  0  0  0  0  0
  151.7570  141.3901  157.3091 C   0  0  0  0  0  0  0  0  0  0  0  0
  152.7450  141.0943  158.2458 C   0  0  0  0  0  0  0  0  0  0  0  0
  153.1086  142.1172  159.1507 C   0  0  0  0  0  0  0  0  0  0  0  0
  154.1845  141.8229  160.1822 C   0  0  0  0  0  0  0  0  0  0  0  0
  152.3331  145.4053  159.8969 H   0  0  0  0  0  0  0  0  0  0  0  0
  153.9508  144.7133  159.9817 H   0  0  0  0  0  0  0  0  0  0  0  0
  152.6923  144.1723  161.1031 H   0  0  0  0  0  0  0  0  0  0  0  0
  151.0082  144.6439  158.1025 H   0  0  0  0  0  0  0  0  0  0  0  0
  149.6175  141.0786  154.8055 H   0  0  0  0  0  0  0  0  0  0  0  0
  152.5317  139.2458  155.5152 H   0  0  0  0  0  0  0  0  0  0  0  0
  151.7648  138.8060  157.0176 H   0  0  0  0  0  0  0  0  0  0  0  0
  149.5520  138.5816  155.7858 H   0  0  0  0  0  0  0  0  0  0  0  0
  149.6168  138.5314  153.5721 H   0  0  0  0  0  0  0  0  0  0  0  0
  151.5588  136.7655  154.4208 H   0  0  0  0  0  0  0  0  0  0  0  0
  151.4011  136.6411  156.1528 H   0  0  0  0  0  0  0  0  0  0  0  0
  150.7705  134.3449  154.5129 H   0  0  0  0  0  0  0  0  0  0  0  0
  150.3939  134.4365  156.2254 H   0  0  0  0  0  0  0  0  0  0  0  0
  148.3947  133.8609  153.9586 H   0  0  0  0  0  0  0  0  0  0  0  0
  148.9714  132.7139  155.1522 H   0  0  0  0  0  0  0  0  0  0  0  0
  146.9827  135.6562  154.6814 H   0  0  0  0  0  0  0  0  0  0  0  0
  145.8162  136.8438  156.5442 H   0  0  0  0  0  0  0  0  0  0  0  0
  146.4540  135.6734  157.6984 H   0  0  0  0  0  0  0  0  0  0  0  0
  145.3176  135.1575  156.4553 H   0  0  0  0  0  0  0  0  0  0  0  0
  148.8548  136.3435  157.0156 H   0  0  0  0  0  0  0  0  0  0  0  0
  148.2535  137.4686  155.8136 H   0  0  0  0  0  0  0  0  0  0  0  0
  153.2222  140.1268  158.2847 H   0  0  0  0  0  0  0  0  0  0  0  0
  154.5342  140.7925  160.1116 H   0  0  0  0  0  0  0  0  0  0  0  0
  153.8010  141.9744  161.1915 H   0  0  0  0  0  0  0  0  0  0  0  0
  155.0438  142.4776  160.0354 H   0  0  0  0  0  0  0  0  0  0  0  0
  149.3554  136.1901  154.1336 H   0  0  0  0  0  0  0  0  0  0  0  0
  149.6028  143.3808  155.9398 H   0  0  0  0  0  0  0  0  0  0  0  0
  1  2  1  0  0  0  0
  1 23  1  0  0  0  0
  1 24  1  0  0  0  0
  1 25  1  0  0  0  0
  2 21  1  0  0  0  0
  2  3  2  0  0  0  0
  3  4  1  0  0  0  0
  3 26  1  0  0  0  0
  4 19  2  0  0  0  0
  4  5  1  0  0  0  0
  5  6  2  0  0  0  0
  5 49  1  0  0  0  0
  6  7  1  0  0  0  0
  6 27  1  0  0  0  0
  7  8  1  0  0  0  0
  7 19  1  0  0  0  0
  8  9  1  0  0  0  0
  8 28  1  0  0  0  0
  8 29  1  0  0  0  0
  9 10  1  0  0  0  0
  9 11  1  0  0  0  0
  9 30  1  0  0  0  0
 10 31  1  0  0  0  0
 11 12  1  0  0  0  0
 11 32  1  0  0  0  0
 11 33  1  0  0  0  0
 12 18  1  0  0  0  0
 12 13  1  0  0  0  0
 12 48  1  0  0  0  0
 13 14  1  0  0  0  0
 13 34  1  0  0  0  0
 13 35  1  0  0  0  0
 14 15  1  0  0  0  0
 14 36  1  0  0  0  0
 14 37  1  0  0  0  0
 15 16  1  0  0  0  0
 16 17  1  0  0  0  0
 16 18  1  0  0  0  0
 16 38  1  0  0  0  0
 17 39  1  0  0  0  0
 17 40  1  0  0  0  0
 17 41  1  0  0  0  0
 18 42  1  0  0  0  0
 18 43  1  0  0  0  0
 19 20  1  0  0  0  0
 20 21  2  0  0  0  0
 20 44  1  0  0  0  0
 21 22  1  0  0  0  0
 22 45  1  0  0  0  0
 22 46  1  0  0  0  0
 22 47  1  0  0  0  0
M  CHG  1   5   1
M  CHG  1  12   1
M  END
> <s_m_source_file>
AV-unprocessed.smi

> <i_m_source_file_index>
1554

> <i_lp_mmshare_version>
43012

> <i_f3d_flags>
0

> <s_epik_input>
W0NIM11jKFtjSF0xKWMoW0NIM10pW2NIXWMoYzEyKW4oW2NIXW4yKVtDSDJdW0NASF0oW09IXSlbQ0gyXU4zW0NIMl1bQ0gyXU9bQ0BASF0oW0NIM10pW0NIMl0z

> <s_epik_cmdline>
J2VwaWtfcHl0aG9uJywgJy1waCcsICc3LjAnLCAnLXRuJywgJzgnLCAnLW1hJywgJzIwMCcsICctbWV0YWxfYmluZGluZycsICctaW1hZScsICc8aW5maWxlLm1hZT4nLCAnLW9tYWUnLCAnPG91dGZpbGUubWFlPic=

> <r_epik_Ionization_Penalty>
1.8848

> <r_epik_Ionization_Penalty_Charging>
1.88479

> <r_epik_Ionization_Penalty_Neutral>
1.42224e-05

> <r_epik_State_Penalty>
1.94551

> <r_epik_Charging_Adjusted_Penalty>
3.8303

> <i_epik_Tot_Q>
2

> <i_epik_Tot_abs_Q>
2

> <r_epik_Metal_State_Penalty>
5.95849

> <b_epik_Metal_Only>
0

> <s_lp_Force_Field>
OPLS_2005

> <r_lp_Energy>
30.3036

> <b_lp_Chiralities_Consistent>
1

> <s_lp_Variant>
AV-unprocessed.smi:1554-18

> <Gold.Version>
5.8.1

> <Gold.Id.Protein>
6NUR|6NUR_protein|mol2

> <Gold.PLP.Fitness>
56.0252

> <Gold.PLP.PLP>
-42.3338

> <Gold.PLP.part.hbond>
-4.0000

> <Gold.PLP.part.metal>
0.0000

> <Gold.PLP.part.buried>
-3.3768

> <Gold.PLP.part.nonpolar>
-35.0966

> <Gold.PLP.part.repulsive>
0.2062

> <Gold.PLP.ligand.clash>
0.0000

> <Gold.PLP.ligand.torsion>
0.6765

> <Gold.PLP.Chemscore.Hbond>
5.0000

> <Gold.PLP.Chemscore.CHOScore>
0.0000

> <Gold.PLP.Chemscore.Metal>
0.0000

> <Gold.Chemscore.Hbonds>
donor molecule, donor type, donor heavy atom, donor atom, acceptor molecule, acceptor atom, score
      L1  H     5    49       P1  8028  2.00
      L1  H    12    48       P1  7948  0.75
      P1  H  7989  7998       L1    10  0.19

> <Gold.PLP.Chemscore.Internal.Correction>
0.0445

> <Gold.Rescore>
     Score         DG    S(hbond)    S(metal)    S(lipo)     H(rot)  DE(clash)    DE(int)     intcor
     20.29     -23.01       3.13        0.00     106.53       2.11       0.54       2.17       ----

> <Gold.Chemscore.Fitness>
20.2903

> <Gold.Chemscore.DG>
-23.0053

> <Gold.Chemscore.ZeroCoef>
-5.4800

> <Gold.Chemscore.Hbond>
3.1344

> <Gold.Chemscore.Metal>
0.0000

> <Gold.Chemscore.Lipo>
106.5278

> <Gold.Chemscore.Internal_Hbond>
0.0000

> <Gold.Chemscore.DEClash>
0.5424

> <Gold.Chemscore.DEInternal>
2.1725

> <Gold.Chemscore.Rot>
2.1122

> <Gold.Chemscore.Internal.Correction>
   9.000000E+99

> <Gold.Chemscore.Hbonds>
donor molecule, donor type, donor heavy atom, donor atom, acceptor molecule, acceptor atom, score
      L1  H     5    49       P1  8028  0.94
      L1  H    12    48       P1  7948  0.32
      P1  H  7989  7998       L1    10  0.19

> <Gold.Chemscore.Hbond.Weighted>
-10.4688

> <Gold.Chemscore.Metal.Weighted>
-0.0000

> <Gold.Chemscore.Lipo.Weighted>
-12.4638

> <Gold.Chemscore.Internal_Hbond.Weighted>
0.0000

> <Gold.Chemscore.DEClash.Weighted>
0.5424

> <Gold.Chemscore.DEInternal.Weighted>
2.1725

> <Gold.Chemscore.Rot.Weighted>
5.4073

> <Gold.Chemscore.Internal.Correction.Weighted>
   9.000000E+99

> <Gold.Protein.RotatedTorsions>
[ 6907 6896 6895 6894 ] final  -54.27 input  -60.11 | X-H torsion
[ 7974 7965 7964 7962 ] final   90.17 input  175.53 | X-H torsion
[ 8008 7997 7996 7995 ] final  -71.48 input   59.86 | X-H torsion
[ 10167 10162 10161 10158 ] final   62.53 input  -65.29 | X-H torsion
[ 10718 10713 10712 10709 ] final  -74.60 input   66.30 | X-H torsion
[ 10763 10752 10751 10750 ] final    1.20 input  -60.55 | X-H torsion
[ 11005 11000 10999 10996 ] final   20.24 input  -57.11 | X-H torsion

> <Gold.Protein.ActiveResidues>
 VAL166  LYS551  ARG553  GLY616  TRP617  ASP618  TYR619  PRO620  LYS621  CYS622 
 ASP623  PHE694  ASN695  SER759  ASP760  ASP761  ALA762  ILE779  LEU786  VAL792 
 PHE793  MET794  SER795  GLU796  ALA797  LYS798  CYS799  TRP800  GLU811  SER814 

> <Gold.Protein.RotatedAtoms>
  150.8352  134.7623  159.6886 H   0  0  0  0  0  0  0  0  0  0  0  0  # atno 6907 bound_to 6896
  152.4450  134.5509  159.9876 H   0  0  0  0  0  0  0  0  0  0  0  0  # atno 6908 bound_to 6896
  151.5661  133.3358  159.3016 H   0  0  0  0  0  0  0  0  0  0  0  0  # atno 6909 bound_to 6896
  145.5226  139.2280  143.2663 H   0  0  0  0  0  0  0  0  0  0  0  0  # atno 7974 bound_to 7965
  154.5091  140.0815  156.7954 H   0  0  0  0  0  0  0  0  0  0  0  0  # atno 8008 bound_to 7997
  155.3825  140.3428  155.4229 H   0  0  0  0  0  0  0  0  0  0  0  0  # atno 8009 bound_to 7997
  156.1552  140.1571  156.8692 H   0  0  0  0  0  0  0  0  0  0  0  0  # atno 8010 bound_to 7997
  140.1429  144.4536  150.6801 H   0  0  0  0  0  0  0  0  0  0  0  0  # atno 10167 bound_to 10162
  156.0237  130.4421  150.2917 H   0  0  0  0  0  0  0  0  0  0  0  0  # atno 10718 bound_to 10713
  153.3110  135.6963  153.7115 H   0  0  0  0  0  0  0  0  0  0  0  0  # atno 10763 bound_to 10752
  153.5992  135.3465  155.2940 H   0  0  0  0  0  0  0  0  0  0  0  0  # atno 10764 bound_to 10752
  154.8575  135.4336  154.2249 H   0  0  0  0  0  0  0  0  0  0  0  0  # atno 10765 bound_to 10752
  140.4049  134.1680  155.7665 H   0  0  0  0  0  0  0  0  0  0  0  0  # atno 11005 bound_to 11000
  146.2096  140.6038  142.9065 LP  0  0  0  0  0  0  0  0  0  0  0  0  # atno 17320 bound_to 7965
  144.7668  140.5549  143.6697 LP  0  0  0  0  0  0  0  0  0  0  0  0  # atno 17321 bound_to 7965
  140.6749  143.2301  151.5532 LP  0  0  0  0  0  0  0  0  0  0  0  0  # atno 17342 bound_to 10162
  139.5463  144.2512  152.1448 LP  0  0  0  0  0  0  0  0  0  0  0  0  # atno 17343 bound_to 10162
  157.1020  131.0198  151.3082 LP  0  0  0  0  0  0  0  0  0  0  0  0  # atno 17370 bound_to 10713
  157.4772  130.7744  149.7379 LP  0  0  0  0  0  0  0  0  0  0  0  0  # atno 17371 bound_to 10713
  141.1843  133.8347  157.1144 LP  0  0  0  0  0  0  0  0  0  0  0  0  # atno 17394 bound_to 11000
  140.0310  134.9901  157.0779 LP  0  0  0  0  0  0  0  0  0  0  0  0  # atno 17395 bound_to 11000

$$$$
