AV-unprocessed.smi:723|AV-procd|sdf|3506|dock6
  -GOLD-   22720 0503D 1   1.00000     0.00000
 Structure written by MMmdl.
 42 44  0  0  0  0  0  0  0  0  1 V2000
  152.6693  142.4364  159.0724 C   0  0  0  0  0  0  0  0  0  0  0  0
  151.7661  142.8516  158.0626 O   0  0  0  0  0  0  0  0  0  0  0  0
  150.9803  141.7811  157.5666 C   0  0  0  0  0  0  0  0  0  0  0  0
  151.8950  140.7759  156.8552 C   0  0  0  0  0  0  0  0  0  0  0  0
  151.1547  139.9367  155.9329 N   0  0  0  0  0  0  0  0  0  0  0  0
  151.0383  138.5606  155.9367 C   0  0  0  0  0  0  0  0  0  0  0  0
  150.2446  138.2545  154.8675 C   0  0  0  0  0  0  0  0  0  0  0  0
  149.8063  136.9879  154.4052 N   0  0  0  0  0  0  0  0  0  0  0  0
  149.6450  135.8665  155.1267 C   0  0  0  0  0  0  0  0  0  0  0  0
  149.8547  135.7669  156.3359 O   0  0  0  0  0  0  0  0  0  0  0  0
  149.2229  134.8543  154.3578 N   0  0  0  0  0  0  0  0  0  0  0  0
  148.9532  133.5242  154.8053 C   0  0  2  0  0  0  0  0  0  0  0  0
  148.4995  132.4830  153.7970 C   0  0  2  0  0  0  0  0  0  0  0  0
  148.1748  132.7844  152.3414 C   0  0  0  0  0  0  0  0  0  0  0  0
  146.6999  132.4678  152.0243 C   0  0  0  0  0  0  0  0  0  0  0  0
  145.6911  133.0079  153.0708 C   0  0  0  0  0  0  0  0  0  0  0  0
  146.3396  133.7901  154.2295 C   0  0  0  0  0  0  0  0  0  0  0  0
  147.5193  133.0234  154.8081 C   0  0  2  0  0  0  0  0  0  0  0  0
  149.9178  139.4948  154.2600 C   0  0  0  0  0  0  0  0  0  0  0  0
  150.4703  140.5073  154.9106 N   0  0  0  0  0  0  0  0  0  0  0  0
  153.2428  143.2929  159.4265 H   0  0  0  0  0  0  0  0  0  0  0  0
  153.3724  141.6942  158.6918 H   0  0  0  0  0  0  0  0  0  0  0  0
  152.1388  142.0113  159.9256 H   0  0  0  0  0  0  0  0  0  0  0  0
  150.4519  141.2945  158.3883 H   0  0  0  0  0  0  0  0  0  0  0  0
  150.2306  142.1613  156.8707 H   0  0  0  0  0  0  0  0  0  0  0  0
  152.6720  141.3016  156.2987 H   0  0  0  0  0  0  0  0  0  0  0  0
  152.4011  140.1386  157.5819 H   0  0  0  0  0  0  0  0  0  0  0  0
  151.5223  137.9458  156.6811 H   0  0  0  0  0  0  0  0  0  0  0  0
  149.5928  136.9297  153.4203 H   0  0  0  0  0  0  0  0  0  0  0  0
  149.0793  135.0353  153.3752 H   0  0  0  0  0  0  0  0  0  0  0  0
  149.5758  133.1496  155.6166 H   0  0  0  0  0  0  0  0  0  0  0  0
  148.8241  131.4588  153.9715 H   0  0  0  0  0  0  0  0  0  0  0  0
  148.3686  133.8346  152.1256 H   0  0  0  0  0  0  0  0  0  0  0  0
  148.8409  132.2112  151.6959 H   0  0  0  0  0  0  0  0  0  0  0  0
  146.4516  132.8563  151.0362 H   0  0  0  0  0  0  0  0  0  0  0  0
  146.5814  131.3860  151.9534 H   0  0  0  0  0  0  0  0  0  0  0  0
  144.9468  133.6351  152.5794 H   0  0  0  0  0  0  0  0  0  0  0  0
  145.1381  132.1648  153.4867 H   0  0  0  0  0  0  0  0  0  0  0  0
  146.6672  134.7638  153.8660 H   0  0  0  0  0  0  0  0  0  0  0  0
  145.6129  133.9849  155.0187 H   0  0  0  0  0  0  0  0  0  0  0  0
  147.2446  132.3278  155.5990 H   0  0  0  0  0  0  0  0  0  0  0  0
  149.3106  139.6906  153.3884 H   0  0  0  0  0  0  0  0  0  0  0  0
  1  2  1  0  0  0  0
  1 21  1  0  0  0  0
  1 22  1  0  0  0  0
  1 23  1  0  0  0  0
  2  3  1  0  0  0  0
  3  4  1  0  0  0  0
  3 24  1  0  0  0  0
  3 25  1  0  0  0  0
  4  5  1  0  0  0  0
  4 26  1  0  0  0  0
  4 27  1  0  0  0  0
  5 20  1  0  0  0  0
  5  6  1  0  0  0  0
  6  7  2  0  0  0  0
  6 28  1  0  0  0  0
  7  8  1  0  0  0  0
  7 19  1  0  0  0  0
  8  9  1  0  0  0  0
  8 29  1  0  0  0  0
  9 10  2  0  0  0  0
  9 11  1  0  0  0  0
 11 12  1  0  0  0  0
 11 30  1  0  0  0  0
 12 18  1  0  0  0  0
 12 13  1  0  0  0  0
 12 31  1  0  0  0  0
 13 18  1  0  0  0  0
 13 14  1  0  0  0  0
 13 32  1  0  0  0  0
 14 15  1  0  0  0  0
 14 33  1  0  0  0  0
 14 34  1  0  0  0  0
 15 16  1  0  0  0  0
 15 35  1  0  0  0  0
 15 36  1  0  0  0  0
 16 17  1  0  0  0  0
 16 37  1  0  0  0  0
 16 38  1  0  0  0  0
 17 18  1  0  0  0  0
 17 39  1  0  0  0  0
 17 40  1  0  0  0  0
 18 41  1  0  0  0  0
 19 20  2  0  0  0  0
 19 42  1  0  0  0  0
M  END
> <s_m_source_file>
AV-unprocessed.smi

> <i_m_source_file_index>
723

> <i_lp_mmshare_version>
43012

> <i_f3d_flags>
0

> <s_epik_input>
W0NIM11PW0NIMl1bQ0gyXW4xW2NIXWMoW2NIXW4xKVtOSF1DKD1PKVtOSF1bQ0BIXTJbQ0BASF0oW0NAQEhdMjMpW0NIMl1bQ0gyXVtDSDJdW0NIMl0z

> <s_epik_cmdline>
J2VwaWtfcHl0aG9uJywgJy1waCcsICc3LjAnLCAnLXRuJywgJzgnLCAnLW1hJywgJzIwMCcsICctbWV0YWxfYmluZGluZycsICctaW1hZScsICc8aW5maWxlLm1hZT4nLCAnLW9tYWUnLCAnPG91dGZpbGUubWFlPic=

> <r_lp_tautomer_probability>
1

> <r_epik_Ionization_Penalty>
0.00031755

> <r_epik_Ionization_Penalty_Charging>
0

> <r_epik_Ionization_Penalty_Neutral>
0.00031755

> <r_epik_State_Penalty>
-0

> <r_epik_Charging_Adjusted_Penalty>
0

> <i_epik_Tot_Q>
0

> <i_epik_Tot_abs_Q>
0

> <r_epik_Metal_State_Penalty>
-0

> <b_epik_Metal_Only>
0

> <s_lp_Force_Field>
OPLS_2005

> <r_lp_Energy>
44.2387

> <b_lp_Chiralities_Consistent>
1

> <s_lp_Variant>
AV-unprocessed.smi:723-2

> <Gold.Version>
5.8.1

> <Gold.Id.Protein>
6NUR|6NUR_protein|mol2

> <Gold.PLP.Fitness>
39.7309

> <Gold.PLP.PLP>
-29.3171

> <Gold.PLP.part.hbond>
-3.0000

> <Gold.PLP.part.metal>
0.0000

> <Gold.PLP.part.buried>
-2.0379

> <Gold.PLP.part.nonpolar>
-25.0477

> <Gold.PLP.part.repulsive>
0.1891

> <Gold.PLP.ligand.clash>
0.0000

> <Gold.PLP.ligand.torsion>
0.2891

> <Gold.PLP.Chemscore.Hbond>
2.6448

> <Gold.PLP.Chemscore.CHOScore>
1.0000

> <Gold.PLP.Chemscore.Metal>
0.0000

> <Gold.Chemscore.Hbonds>
donor molecule, donor type, donor heavy atom, donor atom, acceptor molecule, acceptor atom, score
      L1  H     8    29       P1  7948  1.00
      L1  H    11    30       P1  7948  0.95
      P1  H  7989  7998       L1    20  0.60
      L1  C    19    42       P1  7957  1.00

> <Gold.PLP.Chemscore.Internal.Correction>
0.0577

> <Gold.Rescore>
     Score         DG    S(hbond)    S(metal)    S(lipo)     H(rot)  DE(clash)    DE(int)     intcor
     15.01     -16.34       1.84        0.00      74.41       1.56       0.18       1.15       ----

> <Gold.Chemscore.Fitness>
15.0056

> <Gold.Chemscore.DG>
-16.3364

> <Gold.Chemscore.ZeroCoef>
-5.4800

> <Gold.Chemscore.Hbond>
1.8417

> <Gold.Chemscore.Metal>
0.0000

> <Gold.Chemscore.Lipo>
74.4053

> <Gold.Chemscore.Internal_Hbond>
0.0000

> <Gold.Chemscore.DEClash>
0.1784

> <Gold.Chemscore.DEInternal>
1.1525

> <Gold.Chemscore.Rot>
1.5627

> <Gold.Chemscore.Internal.Correction>
   9.000000E+99

> <Gold.Chemscore.Hbonds>
donor molecule, donor type, donor heavy atom, donor atom, acceptor molecule, acceptor atom, score
      L1  H     8    29       P1  7948  0.74
      L1  H    11    30       P1  7948  0.21
      P1  H  7989  7998       L1    20  0.03

> <Gold.Chemscore.Hbond.Weighted>
-6.1514

> <Gold.Chemscore.Metal.Weighted>
-0.0000

> <Gold.Chemscore.Lipo.Weighted>
-8.7054

> <Gold.Chemscore.Internal_Hbond.Weighted>
0.0000

> <Gold.Chemscore.DEClash.Weighted>
0.1784

> <Gold.Chemscore.DEInternal.Weighted>
1.1525

> <Gold.Chemscore.Rot.Weighted>
4.0005

> <Gold.Chemscore.Internal.Correction.Weighted>
   9.000000E+99

> <Gold.Protein.RotatedTorsions>
[ 6907 6896 6895 6894 ] final  161.66 input  -60.11 | X-H torsion
[ 7974 7965 7964 7962 ] final -168.13 input  175.53 | X-H torsion
[ 8008 7997 7996 7995 ] final -129.63 input   59.86 | X-H torsion
[ 10167 10162 10161 10158 ] final  164.24 input  -65.29 | X-H torsion
[ 10718 10713 10712 10709 ] final -127.04 input   66.30 | X-H torsion
[ 10763 10752 10751 10750 ] final  -27.18 input  -60.55 | X-H torsion
[ 11005 11000 10999 10996 ] final -162.20 input  -57.11 | X-H torsion

> <Gold.Protein.ActiveResidues>
 VAL166  LYS551  ARG553  GLY616  TRP617  ASP618  TYR619  PRO620  LYS621  CYS622 
 ASP623  PHE694  ASN695  SER759  ASP760  ASP761  ALA762  ILE779  LEU786  VAL792 
 PHE793  MET794  SER795  GLU796  ALA797  LYS798  CYS799  TRP800  GLU811  SER814 

> <Gold.Protein.RotatedAtoms>
  151.9522  133.3669  159.4004 H   0  0  0  0  0  0  0  0  0  0  0  0  # atno 6907 bound_to 6896
  150.6978  134.4328  159.5265 H   0  0  0  0  0  0  0  0  0  0  0  0  # atno 6908 bound_to 6896
  152.2003  134.8594  160.0559 H   0  0  0  0  0  0  0  0  0  0  0  0  # atno 6909 bound_to 6896
  144.7209  140.2416  143.6291 H   0  0  0  0  0  0  0  0  0  0  0  0  # atno 7974 bound_to 7965
  155.2824  140.0444  157.3016 H   0  0  0  0  0  0  0  0  0  0  0  0  # atno 8008 bound_to 7997
  154.5589  140.2340  155.8335 H   0  0  0  0  0  0  0  0  0  0  0  0  # atno 8009 bound_to 7997
  156.2030  140.3020  155.9575 H   0  0  0  0  0  0  0  0  0  0  0  0  # atno 8010 bound_to 7997
  139.4886  144.4255  151.9135 H   0  0  0  0  0  0  0  0  0  0  0  0  # atno 10167 bound_to 10162
  156.1820  130.6738  151.0317 H   0  0  0  0  0  0  0  0  0  0  0  0  # atno 10718 bound_to 10713
  153.7279  135.6940  153.4996 H   0  0  0  0  0  0  0  0  0  0  0  0  # atno 10763 bound_to 10752
  153.2157  135.4387  155.0430 H   0  0  0  0  0  0  0  0  0  0  0  0  # atno 10764 bound_to 10752
  154.8263  135.3448  154.6810 H   0  0  0  0  0  0  0  0  0  0  0  0  # atno 10765 bound_to 10752
  140.6119  134.4841  157.5216 H   0  0  0  0  0  0  0  0  0  0  0  0  # atno 11005 bound_to 11000
  145.8314  139.2088  143.1880 LP  0  0  0  0  0  0  0  0  0  0  0  0  # atno 17320 bound_to 7965
  146.0427  140.8149  142.9820 LP  0  0  0  0  0  0  0  0  0  0  0  0  # atno 17321 bound_to 7965
  140.3701  144.2866  150.5921 LP  0  0  0  0  0  0  0  0  0  0  0  0  # atno 17342 bound_to 10162
  140.5327  143.2240  151.8213 LP  0  0  0  0  0  0  0  0  0  0  0  0  # atno 17343 bound_to 10162
  157.6874  131.0820  150.7204 LP  0  0  0  0  0  0  0  0  0  0  0  0  # atno 17370 bound_to 10713
  156.7261  130.4695  149.5511 LP  0  0  0  0  0  0  0  0  0  0  0  0  # atno 17371 bound_to 10713
  139.9189  134.8190  156.1276 LP  0  0  0  0  0  0  0  0  0  0  0  0  # atno 17394 bound_to 11000
  141.0802  133.6757  156.2321 LP  0  0  0  0  0  0  0  0  0  0  0  0  # atno 17395 bound_to 11000

$$$$
