AV-unprocessed.smi:1376|AV-procd|sdf|5592|dock3
  -GOLD-   22720 5193D 1   1.00000     0.00000
 Structure written by MMmdl.
 42 43  0  0  0  0  0  0  0  0  1 V2000
  151.6234  141.0663  157.4960 O   0  0  0  0  0  0  0  0  0  0  0  0
  151.2381  142.2329  157.4058 C   0  0  0  0  0  0  0  0  0  0  0  0
  152.0905  143.3900  157.9467 C   0  0  0  0  0  0  0  0  0  0  0  0
  152.3185  143.3176  159.3995 N   0  0  0  0  0  0  0  0  0  0  0  0
  152.9572  142.1615  159.8903 C   0  0  0  0  0  0  0  0  0  0  0  0
  153.2080  141.9899  161.1977 C   0  0  0  0  0  0  0  0  0  0  0  0
  152.8051  143.0316  162.1124 C   0  0  0  0  0  0  0  0  0  0  0  0
  152.1894  144.1395  161.6540 C   0  0  0  0  0  0  0  0  0  0  0  0
  151.9095  144.3293  160.2258 C   0  0  0  0  0  0  0  0  0  0  0  0
  151.3420  145.3354  159.7992 O   0  0  0  0  0  0  0  0  0  0  0  0
  150.0800  142.5800  156.8240 N   0  0  0  0  0  0  0  0  0  0  0  0
  149.1215  141.6496  156.2352 C   0  0  2  0  0  0  0  0  0  0  0  0
  149.5090  141.3201  154.7798 C   0  0  0  0  0  0  0  0  0  0  0  0
  148.4718  140.3977  154.1212 C   0  0  0  0  0  0  0  0  0  0  0  0
  147.0611  141.0013  154.1987 C   0  0  0  0  0  0  0  0  0  0  0  0
  146.6644  141.3165  155.6510 C   0  0  2  0  0  0  0  0  0  0  0  0
  145.3790  141.9230  155.6158 O   0  0  0  0  0  0  0  0  0  0  0  0
  145.2668  143.0246  154.7246 C   0  0  0  0  0  0  0  0  0  0  0  0
  144.1605  143.9648  155.2183 C   0  0  0  0  0  0  0  0  0  0  0  0
  143.9841  144.9414  154.3290 F   0  0  0  0  0  0  0  0  0  0  0  0
  143.0147  143.2977  155.3542 F   0  0  0  0  0  0  0  0  0  0  0  0
  144.5043  144.5069  156.3862 F   0  0  0  0  0  0  0  0  0  0  0  0
  147.7051  142.2507  156.3035 C   0  0  0  0  0  0  0  0  0  0  0  0
  153.0418  143.3894  157.4127 H   0  0  0  0  0  0  0  0  0  0  0  0
  151.6184  144.3390  157.6855 H   0  0  0  0  0  0  0  0  0  0  0  0
  153.2186  141.4273  159.1420 H   0  0  0  0  0  0  0  0  0  0  0  0
  153.6935  141.0940  161.5561 H   0  0  0  0  0  0  0  0  0  0  0  0
  152.9967  142.9212  163.1695 H   0  0  0  0  0  0  0  0  0  0  0  0
  151.8939  144.9080  162.3534 H   0  0  0  0  0  0  0  0  0  0  0  0
  149.8445  143.5612  156.7865 H   0  0  0  0  0  0  0  0  0  0  0  0
  149.1203  140.7255  156.8166 H   0  0  0  0  0  0  0  0  0  0  0  0
  149.5927  142.2415  154.2016 H   0  0  0  0  0  0  0  0  0  0  0  0
  150.4908  140.8459  154.7483 H   0  0  0  0  0  0  0  0  0  0  0  0
  148.7424  140.2178  153.0807 H   0  0  0  0  0  0  0  0  0  0  0  0
  148.4811  139.4255  154.6157 H   0  0  0  0  0  0  0  0  0  0  0  0
  147.0221  141.9127  153.6005 H   0  0  0  0  0  0  0  0  0  0  0  0
  146.3404  140.3119  153.7577 H   0  0  0  0  0  0  0  0  0  0  0  0
  146.6152  140.3758  156.2028 H   0  0  0  0  0  0  0  0  0  0  0  0
  146.2130  143.5659  154.6754 H   0  0  0  0  0  0  0  0  0  0  0  0
  145.0333  142.6832  153.7160 H   0  0  0  0  0  0  0  0  0  0  0  0
  147.4471  142.4399  157.3452 H   0  0  0  0  0  0  0  0  0  0  0  0
  147.6890  143.2184  155.7997 H   0  0  0  0  0  0  0  0  0  0  0  0
  1  2  2  0  0  0  0
  2  3  1  0  0  0  0
  2 11  1  0  0  0  0
  3  4  1  0  0  0  0
  3 24  1  0  0  0  0
  3 25  1  0  0  0  0
  4  9  1  0  0  0  0
  4  5  1  0  0  0  0
  5  6  2  0  0  0  0
  5 26  1  0  0  0  0
  6  7  1  0  0  0  0
  6 27  1  0  0  0  0
  7  8  2  0  0  0  0
  7 28  1  0  0  0  0
  8  9  1  0  0  0  0
  8 29  1  0  0  0  0
  9 10  2  0  0  0  0
 11 12  1  0  0  0  0
 11 30  1  0  0  0  0
 12 23  1  0  0  0  0
 12 13  1  0  0  0  0
 12 31  1  0  0  0  0
 13 14  1  0  0  0  0
 13 32  1  0  0  0  0
 13 33  1  0  0  0  0
 14 15  1  0  0  0  0
 14 34  1  0  0  0  0
 14 35  1  0  0  0  0
 15 16  1  0  0  0  0
 15 36  1  0  0  0  0
 15 37  1  0  0  0  0
 16 17  1  0  0  0  0
 16 23  1  0  0  0  0
 16 38  1  0  0  0  0
 17 18  1  0  0  0  0
 18 19  1  0  0  0  0
 18 39  1  0  0  0  0
 18 40  1  0  0  0  0
 19 20  1  0  0  0  0
 19 21  1  0  0  0  0
 19 22  1  0  0  0  0
 23 41  1  0  0  0  0
 23 42  1  0  0  0  0
M  END
> <s_m_source_file>
AV-unprocessed.smi

> <i_m_source_file_index>
1376

> <i_lp_mmshare_version>
43012

> <i_f3d_flags>
0

> <s_epik_input>
Tz1jMVtjSF1bY0hdW2NIXVtjSF1uMVtDSDJdQyg9TylbTkhdW0NAQEhdMltDSDJdW0NIMl1bQ0gyXVtDQEhdKFtDSDJdMilPW0NIMl1DKEYpKEYpRg==

> <s_epik_cmdline>
J2VwaWtfcHl0aG9uJywgJy1waCcsICc3LjAnLCAnLXRuJywgJzgnLCAnLW1hJywgJzIwMCcsICctbWV0YWxfYmluZGluZycsICctaW1hZScsICc8aW5maWxlLm1hZT4nLCAnLW9tYWUnLCAnPG91dGZpbGUubWFlPic=

> <r_lp_tautomer_probability>
1

> <r_epik_Ionization_Penalty>
4.08567e-07

> <r_epik_Ionization_Penalty_Charging>
3.90028e-07

> <r_epik_Ionization_Penalty_Neutral>
1.85393e-08

> <r_epik_State_Penalty>
-0

> <r_epik_Charging_Adjusted_Penalty>
3.90028e-07

> <i_epik_Tot_Q>
0

> <i_epik_Tot_abs_Q>
0

> <r_epik_Metal_State_Penalty>
-0

> <b_epik_Metal_Only>
0

> <s_lp_Force_Field>
OPLS_2005

> <r_lp_Energy>
18.479

> <b_lp_Chiralities_Consistent>
1

> <s_lp_Variant>
AV-unprocessed.smi:1376-3

> <Gold.Version>
5.8.1

> <Gold.Id.Protein>
6NUR|6NUR_protein|mol2

> <Gold.PLP.Fitness>
48.8686

> <Gold.PLP.PLP>
-47.6101

> <Gold.PLP.part.hbond>
-1.0000

> <Gold.PLP.part.metal>
0.0000

> <Gold.PLP.part.buried>
-3.1033

> <Gold.PLP.part.nonpolar>
-42.8796

> <Gold.PLP.part.repulsive>
0.3013

> <Gold.PLP.ligand.clash>
0.0000

> <Gold.PLP.ligand.torsion>
0.5705

> <Gold.PLP.Chemscore.Hbond>
0.7840

> <Gold.PLP.Chemscore.CHOScore>
0.0000

> <Gold.PLP.Chemscore.Metal>
0.0000

> <Gold.Chemscore.Hbonds>
donor molecule, donor type, donor heavy atom, donor atom, acceptor molecule, acceptor atom, score
      L1  H    11    30       P1  8028  0.77

> <Gold.PLP.Chemscore.Internal.Correction>
0.0476

> <Gold.Rescore>
     Score         DG    S(hbond)    S(metal)    S(lipo)     H(rot)  DE(clash)    DE(int)     intcor
     12.47     -14.32       0.83        0.00      99.53       2.18       1.18       0.67       ----

> <Gold.Chemscore.Fitness>
12.4702

> <Gold.Chemscore.DG>
-14.3195

> <Gold.Chemscore.ZeroCoef>
-5.4800

> <Gold.Chemscore.Hbond>
0.8308

> <Gold.Chemscore.Metal>
0.0000

> <Gold.Chemscore.Lipo>
99.5292

> <Gold.Chemscore.Internal_Hbond>
0.0000

> <Gold.Chemscore.DEClash>
1.1756

> <Gold.Chemscore.DEInternal>
0.6737

> <Gold.Chemscore.Rot>
2.1797

> <Gold.Chemscore.Internal.Correction>
   9.000000E+99

> <Gold.Chemscore.Hbonds>
donor molecule, donor type, donor heavy atom, donor atom, acceptor molecule, acceptor atom, score
      L1  H    11    30       P1  8028  0.78

> <Gold.Chemscore.Hbond.Weighted>
-2.7748

> <Gold.Chemscore.Metal.Weighted>
-0.0000

> <Gold.Chemscore.Lipo.Weighted>
-11.6449

> <Gold.Chemscore.Internal_Hbond.Weighted>
0.0000

> <Gold.Chemscore.DEClash.Weighted>
1.1756

> <Gold.Chemscore.DEInternal.Weighted>
0.6737

> <Gold.Chemscore.Rot.Weighted>
5.5802

> <Gold.Chemscore.Internal.Correction.Weighted>
   9.000000E+99

> <Gold.Protein.RotatedTorsions>
[ 6907 6896 6895 6894 ] final  104.37 input  -60.11 | X-H torsion
[ 7974 7965 7964 7962 ] final   -1.62 input  175.53 | X-H torsion
[ 8008 7997 7996 7995 ] final  -81.13 input   59.86 | X-H torsion
[ 10167 10162 10161 10158 ] final  120.46 input  -65.29 | X-H torsion
[ 10718 10713 10712 10709 ] final   -2.06 input   66.30 | X-H torsion
[ 10763 10752 10751 10750 ] final -173.70 input  -60.55 | X-H torsion
[ 11005 11000 10999 10996 ] final   52.15 input  -57.11 | X-H torsion

> <Gold.Protein.ActiveResidues>
 VAL166  LYS551  ARG553  GLY616  TRP617  ASP618  TYR619  PRO620  LYS621  CYS622 
 ASP623  PHE694  ASN695  SER759  ASP760  ASP761  ALA762  ILE779  LEU786  VAL792 
 PHE793  MET794  SER795  GLU796  ALA797  LYS798  CYS799  TRP800  GLU811  SER814 

> <Gold.Protein.RotatedAtoms>
  152.5266  133.9687  159.7751 H   0  0  0  0  0  0  0  0  0  0  0  0  # atno 6907 bound_to 6896
  150.9963  133.6092  159.2708 H   0  0  0  0  0  0  0  0  0  0  0  0  # atno 6908 bound_to 6896
  151.3217  135.0826  159.9361 H   0  0  0  0  0  0  0  0  0  0  0  0  # atno 6909 bound_to 6896
  146.2415  140.1448  142.8335 H   0  0  0  0  0  0  0  0  0  0  0  0  # atno 7974 bound_to 7965
  154.5952  140.0652  156.9293 H   0  0  0  0  0  0  0  0  0  0  0  0  # atno 8008 bound_to 7997
  155.2227  140.3331  155.4295 H   0  0  0  0  0  0  0  0  0  0  0  0  # atno 8009 bound_to 7997
  156.2282  140.1829  156.7293 H   0  0  0  0  0  0  0  0  0  0  0  0  # atno 8010 bound_to 7997
  139.5981  144.7048  151.3128 H   0  0  0  0  0  0  0  0  0  0  0  0  # atno 10167 bound_to 10162
  156.7964  130.5378  149.5728 H   0  0  0  0  0  0  0  0  0  0  0  0  # atno 10718 bound_to 10713
  154.6048  135.2858  155.0496 H   0  0  0  0  0  0  0  0  0  0  0  0  # atno 10763 bound_to 10752
  154.1748  135.6466  153.5022 H   0  0  0  0  0  0  0  0  0  0  0  0  # atno 10764 bound_to 10752
  153.0171  135.5409  154.6780 H   0  0  0  0  0  0  0  0  0  0  0  0  # atno 10765 bound_to 10752
  140.0873  134.5256  155.8886 H   0  0  0  0  0  0  0  0  0  0  0  0  # atno 11005 bound_to 11000
  145.0217  140.8799  143.5163 LP  0  0  0  0  0  0  0  0  0  0  0  0  # atno 17320 bound_to 7965
  145.1497  139.2522  143.5447 LP  0  0  0  0  0  0  0  0  0  0  0  0  # atno 17321 bound_to 7965
  140.7228  143.7089  150.7785 LP  0  0  0  0  0  0  0  0  0  0  0  0  # atno 17342 bound_to 10162
  140.0659  143.5108  152.2604 LP  0  0  0  0  0  0  0  0  0  0  0  0  # atno 17343 bound_to 10162
  156.1128  130.6052  151.0073 LP  0  0  0  0  0  0  0  0  0  0  0  0  # atno 17370 bound_to 10713
  157.6575  131.0887  150.7914 LP  0  0  0  0  0  0  0  0  0  0  0  0  # atno 17371 bound_to 10713
  141.2067  133.6657  156.6257 LP  0  0  0  0  0  0  0  0  0  0  0  0  # atno 17394 bound_to 11000
  140.3401  134.7856  157.4391 LP  0  0  0  0  0  0  0  0  0  0  0  0  # atno 17395 bound_to 11000

$$$$
