AV-unprocessed.smi:164|AV-procd|sdf|1383|dock3
  -GOLD-   2262019113D 1   1.00000     0.00000
 Structure written by MMmdl.
 53 55  0  0  0  0  0  0  0  0  1 V2000
  151.8302  144.5445  160.7159 C   0  0  0  0  0  0  0  0  0  0  0  0
  152.3995  143.1662  160.4258 C   0  0  0  0  0  0  0  0  0  0  0  0
  153.1618  142.5196  161.4200 C   0  0  0  0  0  0  0  0  0  0  0  0
  153.7078  141.2459  161.1833 C   0  0  0  0  0  0  0  0  0  0  0  0
  153.4893  140.5999  159.9512 C   0  0  0  0  0  0  0  0  0  0  0  0
  154.0881  139.2271  159.7059 C   0  0  0  0  0  0  0  0  0  0  0  0
  152.7131  141.2333  158.9533 C   0  0  0  0  0  0  0  0  0  0  0  0
  152.5034  140.5901  157.7607 O   0  0  0  0  0  0  0  0  0  0  0  0
  151.6490  139.4602  157.8659 C   0  0  0  0  0  0  0  0  0  0  0  0
  150.9202  139.2623  156.5272 C   0  0  1  0  0  0  0  0  0  0  0  0
  151.8673  139.4895  155.5022 O   0  0  0  0  0  0  0  0  0  0  0  0
  150.3803  137.8219  156.3768 C   0  0  0  0  0  0  0  0  0  0  0  0
  149.2792  137.5224  157.2785 N   0  0  0  0  0  0  0  0  0  0  0  0
  147.9694  137.8389  156.8407 C   0  0  0  0  0  0  0  0  0  0  0  0
  147.7547  138.3701  155.7493 O   0  0  0  0  0  0  0  0  0  0  0  0
  146.9121  137.4694  157.7751 C   0  0  0  0  0  0  0  0  0  0  0  0
  145.6291  137.7111  157.4569 F   0  0  0  0  0  0  0  0  0  0  0  0
  147.2002  136.8796  158.9553 C   0  0  0  0  0  0  0  0  0  0  0  0
  148.4903  136.5964  159.3654 N   0  0  0  0  0  0  0  0  0  0  0  0
  148.7058  135.8836  160.6804 C   0  0  2  0  0  0  0  0  0  0  0  0
  148.0412  134.4955  160.7469 C   0  0  0  0  0  0  0  0  0  0  0  0
  147.1111  134.6206  161.9424 C   0  0  0  0  0  0  0  0  0  0  0  0
  147.7133  135.7850  162.7213 C   0  0  0  0  0  0  0  0  0  0  0  0
  148.1643  136.6628  161.7019 O   0  0  0  0  0  0  0  0  0  0  0  0
  149.5773  136.8873  158.5079 C   0  0  0  0  0  0  0  0  0  0  0  0
  150.7315  136.5888  158.8204 O   0  0  0  0  0  0  0  0  0  0  0  0
  152.1800  142.5273  159.1796 C   0  0  0  0  0  0  0  0  0  0  0  0
  151.3759  143.2263  158.0913 C   0  0  0  0  0  0  0  0  0  0  0  0
  151.9705  144.8202  161.7616 H   0  0  0  0  0  0  0  0  0  0  0  0
  150.7608  144.5731  160.5057 H   0  0  0  0  0  0  0  0  0  0  0  0
  152.3261  145.2965  160.1018 H   0  0  0  0  0  0  0  0  0  0  0  0
  153.3362  143.0013  162.3712 H   0  0  0  0  0  0  0  0  0  0  0  0
  154.2955  140.7673  161.9527 H   0  0  0  0  0  0  0  0  0  0  0  0
  154.5662  139.1854  158.7269 H   0  0  0  0  0  0  0  0  0  0  0  0
  153.3110  138.4636  159.7417 H   0  0  0  0  0  0  0  0  0  0  0  0
  154.8403  138.9827  160.4563 H   0  0  0  0  0  0  0  0  0  0  0  0
  152.1924  138.5590  158.1574 H   0  0  0  0  0  0  0  0  0  0  0  0
  150.9246  139.6609  158.6562 H   0  0  0  0  0  0  0  0  0  0  0  0
  150.1070  139.9849  156.4477 H   0  0  0  0  0  0  0  0  0  0  0  0
  152.6501  138.9993  155.7019 H   0  0  0  0  0  0  0  0  0  0  0  0
  150.0779  137.5917  155.3538 H   0  0  0  0  0  0  0  0  0  0  0  0
  151.1549  137.0849  156.5958 H   0  0  0  0  0  0  0  0  0  0  0  0
  146.3768  136.6210  159.6049 H   0  0  0  0  0  0  0  0  0  0  0  0
  149.7866  135.8188  160.8146 H   0  0  0  0  0  0  0  0  0  0  0  0
  147.5190  134.2352  159.8256 H   0  0  0  0  0  0  0  0  0  0  0  0
  148.8149  133.7486  160.9278 H   0  0  0  0  0  0  0  0  0  0  0  0
  146.1047  134.8768  161.6106 H   0  0  0  0  0  0  0  0  0  0  0  0
  147.0484  133.7048  162.5306 H   0  0  0  0  0  0  0  0  0  0  0  0
  146.9925  136.2697  163.3798 H   0  0  0  0  0  0  0  0  0  0  0  0
  148.5630  135.4547  163.3209 H   0  0  0  0  0  0  0  0  0  0  0  0
  151.5061  142.7573  157.1162 H   0  0  0  0  0  0  0  0  0  0  0  0
  151.6847  144.2662  157.9864 H   0  0  0  0  0  0  0  0  0  0  0  0
  150.3141  143.2051  158.3375 H   0  0  0  0  0  0  0  0  0  0  0  0
  1  2  1  0  0  0  0
  1 29  1  0  0  0  0
  1 30  1  0  0  0  0
  1 31  1  0  0  0  0
  2 27  1  0  0  0  0
  2  3  2  0  0  0  0
  3  4  1  0  0  0  0
  3 32  1  0  0  0  0
  4  5  2  0  0  0  0
  4 33  1  0  0  0  0
  5  6  1  0  0  0  0
  5  7  1  0  0  0  0
  6 34  1  0  0  0  0
  6 35  1  0  0  0  0
  6 36  1  0  0  0  0
  7  8  1  0  0  0  0
  7 27  2  0  0  0  0
  8  9  1  0  0  0  0
  9 10  1  0  0  0  0
  9 37  1  0  0  0  0
  9 38  1  0  0  0  0
 10 11  1  0  0  0  0
 10 12  1  0  0  0  0
 10 39  1  0  0  0  0
 11 40  1  0  0  0  0
 12 13  1  0  0  0  0
 12 41  1  0  0  0  0
 12 42  1  0  0  0  0
 13 25  1  0  0  0  0
 13 14  1  0  0  0  0
 14 15  2  0  0  0  0
 14 16  1  0  0  0  0
 16 17  1  0  0  0  0
 16 18  2  0  0  0  0
 18 19  1  0  0  0  0
 18 43  1  0  0  0  0
 19 20  1  0  0  0  0
 19 25  1  0  0  0  0
 20 24  1  0  0  0  0
 20 21  1  0  0  0  0
 20 44  1  0  0  0  0
 21 22  1  0  0  0  0
 21 45  1  0  0  0  0
 21 46  1  0  0  0  0
 22 23  1  0  0  0  0
 22 47  1  0  0  0  0
 22 48  1  0  0  0  0
 23 24  1  0  0  0  0
 23 49  1  0  0  0  0
 23 50  1  0  0  0  0
 25 26  2  0  0  0  0
 27 28  1  0  0  0  0
 28 51  1  0  0  0  0
 28 52  1  0  0  0  0
 28 53  1  0  0  0  0
M  END
> <s_m_source_file>
AV-unprocessed.smi

> <i_m_source_file_index>
164

> <i_lp_mmshare_version>
43012

> <i_f3d_flags>
0

> <s_epik_input>
W0NIM11jMVtjSF1bY0hdYyhbQ0gzXSljKGMxW0NIM10pT1tDSDJdW0NASF0oW09IXSlbQ0gyXW4yYyg9TyljKEYpW2NIXW4oYzI9TylbQ0BASF0zW0NIMl1bQ0gyXVtDSDJdTzM=

> <s_epik_cmdline>
J2VwaWtfcHl0aG9uJywgJy1waCcsICc3LjAnLCAnLXRuJywgJzgnLCAnLW1hJywgJzIwMCcsICctbWV0YWxfYmluZGluZycsICctaW1hZScsICc8aW5maWxlLm1hZT4nLCAnLW9tYWUnLCAnPG91dGZpbGUubWFlPic=

> <r_lp_tautomer_probability>
1

> <r_epik_Ionization_Penalty>
1.45842e-07

> <r_epik_Ionization_Penalty_Charging>
2.86622e-08

> <r_epik_Ionization_Penalty_Neutral>
1.1718e-07

> <r_epik_State_Penalty>
-0

> <r_epik_Charging_Adjusted_Penalty>
2.86622e-08

> <i_epik_Tot_Q>
0

> <i_epik_Tot_abs_Q>
0

> <r_epik_Metal_State_Penalty>
-0

> <b_epik_Metal_Only>
0

> <s_epik_Chemistry_Notes>
This compound contains an acetal/aminal-like group ( X-CH(R)-Y where X, Y are N, S, or O) that may be acid/base labile, releasing an aldehyde.

> <s_lp_Force_Field>
OPLS_2005

> <r_lp_Energy>
41.2459

> <b_lp_Chiralities_Consistent>
1

> <s_lp_Variant>
AV-unprocessed.smi:164-2

> <Gold.Version>
5.8.1

> <Gold.Id.Protein>
6NUR|6NUR_protein|mol2

> <Gold.PLP.Fitness>
58.6498

> <Gold.PLP.PLP>
-49.8881

> <Gold.PLP.part.hbond>
-4.0000

> <Gold.PLP.part.metal>
0.0000

> <Gold.PLP.part.buried>
-5.2842

> <Gold.PLP.part.nonpolar>
-39.2351

> <Gold.PLP.part.repulsive>
0.0333

> <Gold.PLP.ligand.clash>
0.0000

> <Gold.PLP.ligand.torsion>
0.8490

> <Gold.PLP.Chemscore.Hbond>
3.3806

> <Gold.PLP.Chemscore.CHOScore>
0.0000

> <Gold.PLP.Chemscore.Metal>
0.0000

> <Gold.Chemscore.Hbonds>
donor molecule, donor type, donor heavy atom, donor atom, acceptor molecule, acceptor atom, score
      P1  H  6896  6909       L1    26  0.94
      P1  H  6931  6943       L1    24  1.00
      P1  H  7997  8008       L1     8  0.44

> <Gold.PLP.Chemscore.Internal.Correction>
0.3180

> <Gold.Rescore>
     Score         DG    S(hbond)    S(metal)    S(lipo)     H(rot)  DE(clash)    DE(int)     intcor
     21.36     -22.94       2.90        0.00     126.33       2.73       0.00       1.58       ----

> <Gold.Chemscore.Fitness>
21.3581

> <Gold.Chemscore.DG>
-22.9417

> <Gold.Chemscore.ZeroCoef>
-5.4800

> <Gold.Chemscore.Hbond>
2.8964

> <Gold.Chemscore.Metal>
0.0000

> <Gold.Chemscore.Lipo>
126.3282

> <Gold.Chemscore.Internal_Hbond>
0.0000

> <Gold.Chemscore.DEClash>
0.0004

> <Gold.Chemscore.DEInternal>
1.5832

> <Gold.Chemscore.Rot>
2.7315

> <Gold.Chemscore.Internal.Correction>
   9.000000E+99

> <Gold.Chemscore.Hbonds>
donor molecule, donor type, donor heavy atom, donor atom, acceptor molecule, acceptor atom, score
      P1  H  6896  6909       L1    26  0.84
      P1  H  6931  6943       L1    24  0.85
      P1  H  7989  7998       L1    11  0.06
      P1  H  7997  8008       L1     8  0.26

> <Gold.Chemscore.Hbond.Weighted>
-9.6738

> <Gold.Chemscore.Metal.Weighted>
-0.0000

> <Gold.Chemscore.Lipo.Weighted>
-14.7804

> <Gold.Chemscore.Internal_Hbond.Weighted>
0.0000

> <Gold.Chemscore.DEClash.Weighted>
0.0004

> <Gold.Chemscore.DEInternal.Weighted>
1.5832

> <Gold.Chemscore.Rot.Weighted>
6.9925

> <Gold.Chemscore.Internal.Correction.Weighted>
   9.000000E+99

> <Gold.Protein.RotatedTorsions>
[ 6907 6896 6895 6894 ] final   76.77 input  -60.11 | X-H torsion
[ 7974 7965 7964 7962 ] final  -30.80 input  175.53 | X-H torsion
[ 8008 7997 7996 7995 ] final  -72.49 input   59.86 | X-H torsion
[ 10167 10162 10161 10158 ] final -161.16 input  -65.29 | X-H torsion
[ 10718 10713 10712 10709 ] final    9.76 input   66.30 | X-H torsion
[ 10763 10752 10751 10750 ] final  161.37 input  -60.55 | X-H torsion
[ 11005 11000 10999 10996 ] final  172.51 input  -57.11 | X-H torsion

> <Gold.Protein.ActiveResidues>
 VAL166  LYS551  ARG553  GLY616  TRP617  ASP618  TYR619  PRO620  LYS621  CYS622 
 ASP623  PHE694  ASN695  SER759  ASP760  ASP761  ALA762  ILE779  LEU786  VAL792 
 PHE793  MET794  SER795  GLU796  ALA797  LYS798  CYS799  TRP800  GLU811  SER814 

> <Gold.Protein.RotatedAtoms>
  152.5088  134.3918  159.9386 H   0  0  0  0  0  0  0  0  0  0  0  0  # atno 6907 bound_to 6896
  151.3878  133.3793  159.2725 H   0  0  0  0  0  0  0  0  0  0  0  0  # atno 6908 bound_to 6896
  150.9455  134.8881  159.7698 H   0  0  0  0  0  0  0  0  0  0  0  0  # atno 6909 bound_to 6896
  146.1116  140.5586  142.8775 H   0  0  0  0  0  0  0  0  0  0  0  0  # atno 7974 bound_to 7965
  154.5171  140.0796  156.8101 H   0  0  0  0  0  0  0  0  0  0  0  0  # atno 8008 bound_to 7997
  155.3657  140.3420  155.4223 H   0  0  0  0  0  0  0  0  0  0  0  0  # atno 8009 bound_to 7997
  156.1639  140.1597  156.8551 H   0  0  0  0  0  0  0  0  0  0  0  0  # atno 8010 bound_to 7997
  139.6485  144.0127  152.2145 H   0  0  0  0  0  0  0  0  0  0  0  0  # atno 10167 bound_to 10162
  156.9710  130.5969  149.5669 H   0  0  0  0  0  0  0  0  0  0  0  0  # atno 10718 bound_to 10713
  154.2619  135.2768  155.2774 H   0  0  0  0  0  0  0  0  0  0  0  0  # atno 10763 bound_to 10752
  154.5377  135.5712  153.6815 H   0  0  0  0  0  0  0  0  0  0  0  0  # atno 10764 bound_to 10752
  152.9961  135.6243  154.2770 H   0  0  0  0  0  0  0  0  0  0  0  0  # atno 10765 bound_to 10752
  140.3305  134.7361  157.4131 H   0  0  0  0  0  0  0  0  0  0  0  0  # atno 11005 bound_to 11000
  144.7516  140.5206  143.6798 LP  0  0  0  0  0  0  0  0  0  0  0  0  # atno 17320 bound_to 7965
  145.5652  139.1481  143.3319 LP  0  0  0  0  0  0  0  0  0  0  0  0  # atno 17321 bound_to 7965
  139.9835  144.6411  150.7879 LP  0  0  0  0  0  0  0  0  0  0  0  0  # atno 17342 bound_to 10162
  140.7526  143.2994  151.3120 LP  0  0  0  0  0  0  0  0  0  0  0  0  # atno 17343 bound_to 10162
  156.0283  130.5375  150.8465 LP  0  0  0  0  0  0  0  0  0  0  0  0  # atno 17370 bound_to 10713
  157.5592  131.0945  150.9583 LP  0  0  0  0  0  0  0  0  0  0  0  0  # atno 17371 bound_to 10713
  140.0864  134.5660  155.8487 LP  0  0  0  0  0  0  0  0  0  0  0  0  # atno 17394 bound_to 11000
  141.2064  133.6655  156.6242 LP  0  0  0  0  0  0  0  0  0  0  0  0  # atno 17395 bound_to 11000

$$$$
