AV-unprocessed.smi:109|AV-procd|sdf|1036|dock4
  -GOLD-   2262018 53D 1   1.00000     0.00000
 Structure written by MMmdl.
 58 61  0  0  0  0  0  0  0  0  1 V2000
  149.4150  141.1198  153.6563 O   0  0  0  0  0  0  0  0  0  0  0  0
  149.8683  140.5801  154.8790 C   0  0  0  0  0  0  0  0  0  0  0  0
  150.3840  141.7067  155.7884 C   0  0  0  0  0  0  0  0  0  0  0  0
  150.8345  141.2018  157.1776 C   0  0  1  0  0  0  0  0  0  0  0  0
  151.6121  139.9717  157.0297 N   0  0  0  0  0  0  0  0  0  0  0  0
  151.1534  138.7832  157.4823 C   0  0  0  0  0  0  0  0  0  0  0  0
  150.8377  138.5988  158.7905 N   0  0  0  0  0  0  0  0  0  0  0  0
  150.3859  137.4129  159.2075 C   0  0  0  0  0  0  0  0  0  0  0  0
  150.1798  136.3026  158.4965 N   0  0  0  0  0  0  0  0  0  0  0  0
  150.4915  136.4801  157.1800 C   0  0  0  0  0  0  0  0  0  0  0  0
  150.9807  137.6849  156.6010 C   0  0  0  0  0  0  0  0  0  0  0  0
  151.1879  137.5039  155.2407 N   0  0  0  0  0  0  0  0  0  0  0  0
  150.8366  136.2641  155.0315 C   0  0  0  0  0  0  0  0  0  0  0  0
  150.4136  135.5689  156.1434 N   0  0  0  0  0  0  0  0  0  0  0  0
  149.9409  134.1476  156.1872 C   0  0  2  0  0  0  0  0  0  0  0  0
  150.7500  133.4453  157.0844 O   0  0  0  0  0  0  0  0  0  0  0  0
  151.4783  132.4181  156.4133 C   0  0  1  0  0  0  0  0  0  0  0  0
  151.7772  131.2417  157.3596 C   0  0  0  0  0  0  0  0  0  0  0  0
  152.5145  131.6921  158.4762 O   0  0  0  0  0  0  0  0  0  0  0  0
  150.5974  132.0878  155.2013 C   0  0  1  0  0  0  0  0  0  0  0  0
  149.5697  131.1785  155.5651 O   0  0  0  0  0  0  0  0  0  0  0  0
  150.0534  133.4605  154.8176 C   0  0  1  0  0  0  0  0  0  0  0  0
  148.8190  133.3635  154.1319 O   0  0  0  0  0  0  0  0  0  0  0  0
  151.6182  142.2540  158.0108 C   0  0  0  0  0  0  0  0  0  0  0  0
  152.1748  141.6797  159.3319 C   0  0  0  0  0  0  0  0  0  0  0  0
  153.0383  142.7140  160.0724 C   0  0  0  0  0  0  0  0  0  0  0  0
  152.2529  144.0091  160.3327 C   0  0  0  0  0  0  0  0  0  0  0  0
  151.6871  144.5875  159.0261 C   0  0  0  0  0  0  0  0  0  0  0  0
  150.8254  143.5521  158.2844 C   0  0  0  0  0  0  0  0  0  0  0  0
  148.9219  134.1923  156.5738 H   0  0  0  0  0  0  0  0  0  0  0  0
  152.4158  132.8313  156.0416 H   0  0  0  0  0  0  0  0  0  0  0  0
  151.1750  131.6427  154.3904 H   0  0  0  0  0  0  0  0  0  0  0  0
  150.7790  133.9811  154.1927 H   0  0  0  0  0  0  0  0  0  0  0  0
  149.0815  140.4148  153.1224 H   0  0  0  0  0  0  0  0  0  0  0  0
  149.0461  140.0464  155.3568 H   0  0  0  0  0  0  0  0  0  0  0  0
  150.6534  139.8526  154.6717 H   0  0  0  0  0  0  0  0  0  0  0  0
  151.2047  142.2270  155.2930 H   0  0  0  0  0  0  0  0  0  0  0  0
  149.5842  142.4375  155.8997 H   0  0  0  0  0  0  0  0  0  0  0  0
  149.9232  140.9635  157.7276 H   0  0  0  0  0  0  0  0  0  0  0  0
  152.5426  140.0879  156.6548 H   0  0  0  0  0  0  0  0  0  0  0  0
  150.1572  137.3436  160.2606 H   0  0  0  0  0  0  0  0  0  0  0  0
  150.8786  135.8181  154.0484 H   0  0  0  0  0  0  0  0  0  0  0  0
  150.8609  130.7489  157.6857 H   0  0  0  0  0  0  0  0  0  0  0  0
  152.3857  130.4947  156.8487 H   0  0  0  0  0  0  0  0  0  0  0  0
  153.0593  130.9832  158.7822 H   0  0  0  0  0  0  0  0  0  0  0  0
  149.4441  130.5726  154.8502 H   0  0  0  0  0  0  0  0  0  0  0  0
  148.2544  134.0583  154.4345 H   0  0  0  0  0  0  0  0  0  0  0  0
  152.4912  142.5387  157.4219 H   0  0  0  0  0  0  0  0  0  0  0  0
  151.3620  141.3698  159.9880 H   0  0  0  0  0  0  0  0  0  0  0  0
  152.7681  140.7871  159.1309 H   0  0  0  0  0  0  0  0  0  0  0  0
  153.3895  142.2969  161.0165 H   0  0  0  0  0  0  0  0  0  0  0  0
  153.9287  142.9371  159.4831 H   0  0  0  0  0  0  0  0  0  0  0  0
  151.4359  143.8075  161.0267 H   0  0  0  0  0  0  0  0  0  0  0  0
  152.8966  144.7436  160.8173 H   0  0  0  0  0  0  0  0  0  0  0  0
  151.0962  145.4785  159.2395 H   0  0  0  0  0  0  0  0  0  0  0  0
  152.5072  144.9080  158.3824 H   0  0  0  0  0  0  0  0  0  0  0  0
  150.4702  143.9847  157.3487 H   0  0  0  0  0  0  0  0  0  0  0  0
  149.9394  143.3345  158.8814 H   0  0  0  0  0  0  0  0  0  0  0  0
  1  2  1  0  0  0  0
  1 34  1  0  0  0  0
  2  3  1  0  0  0  0
  2 35  1  0  0  0  0
  2 36  1  0  0  0  0
  3  4  1  0  0  0  0
  3 37  1  0  0  0  0
  3 38  1  0  0  0  0
  4  5  1  0  0  0  0
  4 24  1  0  0  0  0
  4 39  1  0  0  0  0
  5  6  1  0  0  0  0
  5 40  1  0  0  0  0
  6 11  1  0  0  0  0
  6  7  2  0  0  0  0
  7  8  1  0  0  0  0
  8  9  2  0  0  0  0
  8 41  1  0  0  0  0
  9 10  1  0  0  0  0
 10 14  1  0  0  0  0
 10 11  2  0  0  0  0
 11 12  1  0  0  0  0
 12 13  2  0  0  0  0
 13 14  1  0  0  0  0
 13 42  1  0  0  0  0
 14 15  1  0  0  0  0
 15 30  1  0  0  0  0
 15 22  1  0  0  0  0
 15 16  1  0  0  0  0
 16 17  1  0  0  0  0
 17 31  1  0  0  0  0
 17 18  1  0  0  0  0
 17 20  1  0  0  0  0
 18 19  1  0  0  0  0
 18 43  1  0  0  0  0
 18 44  1  0  0  0  0
 19 45  1  0  0  0  0
 20 32  1  0  0  0  0
 20 21  1  0  0  0  0
 20 22  1  0  0  0  0
 21 46  1  0  0  0  0
 22 33  1  0  0  0  0
 22 23  1  0  0  0  0
 23 47  1  0  0  0  0
 24 29  1  0  0  0  0
 24 25  1  0  0  0  0
 24 48  1  0  0  0  0
 25 26  1  0  0  0  0
 25 49  1  0  0  0  0
 25 50  1  0  0  0  0
 26 27  1  0  0  0  0
 26 51  1  0  0  0  0
 26 52  1  0  0  0  0
 27 28  1  0  0  0  0
 27 53  1  0  0  0  0
 27 54  1  0  0  0  0
 28 29  1  0  0  0  0
 28 55  1  0  0  0  0
 28 56  1  0  0  0  0
 29 57  1  0  0  0  0
 29 58  1  0  0  0  0
M  END
> <s_m_source_file>
AV-unprocessed.smi

> <i_m_source_file_index>
109

> <i_lp_mmshare_version>
43012

> <i_f3d_flags>
0

> <s_epik_input>
W0NIMl0xW0NIMl1bQ0gyXVtDSDJdW0NIMl1bQ0hdMVtDQEhdKFtDSDJdW0NIMl1bT0hdKVtOSF1jKG5bY0hdbjIpYyhjMjMpbltjSF1uM1tDQEBIXTRPW0NASF0oW0NIMl1bT0hdKVtDQEBIXShbT0hdKVtDQEhdNFtPSF0=

> <s_epik_cmdline>
J2VwaWtfcHl0aG9uJywgJy1waCcsICc3LjAnLCAnLXRuJywgJzgnLCAnLW1hJywgJzIwMCcsICctbWV0YWxfYmluZGluZycsICctaW1hZScsICc8aW5maWxlLm1hZT4nLCAnLW9tYWUnLCAnPG91dGZpbGUubWFlPic=

> <r_lp_tautomer_probability>
1

> <r_epik_Ionization_Penalty>
0.000793976

> <r_epik_Ionization_Penalty_Charging>
0

> <r_epik_Ionization_Penalty_Neutral>
0.000793976

> <r_epik_State_Penalty>
-0

> <r_epik_Charging_Adjusted_Penalty>
0

> <i_epik_Tot_Q>
0

> <i_epik_Tot_abs_Q>
0

> <r_epik_Metal_State_Penalty>
-0

> <b_epik_Metal_Only>
0

> <s_epik_Chemistry_Notes>
This compound contains an acetal/aminal-like group ( X-CH(R)-Y where X, Y are N, S, or O) that may be acid/base labile, releasing an aldehyde.

> <s_lp_Force_Field>
OPLS_2005

> <r_lp_Energy>
57.9321

> <b_lp_Chiralities_Consistent>
1

> <s_lp_Variant>
AV-unprocessed.smi:109-6

> <Gold.Version>
5.8.1

> <Gold.Id.Protein>
6NUR|6NUR_protein|mol2

> <Gold.PLP.Fitness>
59.6232

> <Gold.PLP.PLP>
-48.0414

> <Gold.PLP.part.hbond>
-6.0000

> <Gold.PLP.part.metal>
0.0000

> <Gold.PLP.part.buried>
-6.7134

> <Gold.PLP.part.nonpolar>
-34.3618

> <Gold.PLP.part.repulsive>
0.1800

> <Gold.PLP.ligand.clash>
0.0000

> <Gold.PLP.ligand.torsion>
0.7260

> <Gold.PLP.Chemscore.Hbond>
3.5200

> <Gold.PLP.Chemscore.CHOScore>
0.7221

> <Gold.PLP.Chemscore.Metal>
0.0000

> <Gold.Chemscore.Hbonds>
donor molecule, donor type, donor heavy atom, donor atom, acceptor molecule, acceptor atom, score
      L1  H     1    34       P1  7957  0.47
      P1  H  6896  6908       L1    19  1.00
      P1  H  6896  6909       L1     9  0.98
      P1  H  8011  8017       L1     1  0.98
      L1  C    13    42       P1  7948  0.01
      L1  C    13    42       P1  7949  0.71

> <Gold.PLP.Chemscore.Internal.Correction>
0.3075

> <Gold.Rescore>
     Score         DG    S(hbond)    S(metal)    S(lipo)     H(rot)  DE(clash)    DE(int)     intcor
     12.61     -13.58       2.79        0.00     109.31       5.47       0.14       0.84       ----

> <Gold.Chemscore.Fitness>
12.6080

> <Gold.Chemscore.DG>
-13.5833

> <Gold.Chemscore.ZeroCoef>
-5.4800

> <Gold.Chemscore.Hbond>
2.7868

> <Gold.Chemscore.Metal>
0.0000

> <Gold.Chemscore.Lipo>
109.3069

> <Gold.Chemscore.Internal_Hbond>
0.0000

> <Gold.Chemscore.DEClash>
0.1364

> <Gold.Chemscore.DEInternal>
0.8388

> <Gold.Chemscore.Rot>
5.4662

> <Gold.Chemscore.Internal.Correction>
   9.000000E+99

> <Gold.Chemscore.Hbonds>
donor molecule, donor type, donor heavy atom, donor atom, acceptor molecule, acceptor atom, score
      L1  H     1    34       P1  7957  0.44
      P1  H  6896  6908       L1    19  0.75
      P1  H  6896  6909       L1     9  0.54
      P1  H  8011  8017       L1     1  0.28

> <Gold.Chemscore.Hbond.Weighted>
-9.3079

> <Gold.Chemscore.Metal.Weighted>
-0.0000

> <Gold.Chemscore.Lipo.Weighted>
-12.7889

> <Gold.Chemscore.Internal_Hbond.Weighted>
0.0000

> <Gold.Chemscore.DEClash.Weighted>
0.1364

> <Gold.Chemscore.DEInternal.Weighted>
0.8388

> <Gold.Chemscore.Rot.Weighted>
13.9935

> <Gold.Chemscore.Internal.Correction.Weighted>
   9.000000E+99

> <Gold.Protein.RotatedTorsions>
[ 6907 6896 6895 6894 ] final   62.02 input  -60.11 | X-H torsion
[ 7974 7965 7964 7962 ] final  -29.88 input  175.53 | X-H torsion
[ 8008 7997 7996 7995 ] final  -28.26 input   59.86 | X-H torsion
[ 10167 10162 10161 10158 ] final  -88.95 input  -65.29 | X-H torsion
[ 10718 10713 10712 10709 ] final  170.56 input   66.30 | X-H torsion
[ 10763 10752 10751 10750 ] final  105.14 input  -60.55 | X-H torsion
[ 11005 11000 10999 10996 ] final   -6.32 input  -57.11 | X-H torsion

> <Gold.Protein.ActiveResidues>
 VAL166  LYS551  ARG553  GLY616  TRP617  ASP618  TYR619  PRO620  LYS621  CYS622 
 ASP623  PHE694  ASN695  SER759  ASP760  ASP761  ALA762  ILE779  LEU786  VAL792 
 PHE793  MET794  SER795  GLU796  ALA797  LYS798  CYS799  TRP800  GLU811  SER814 

> <Gold.Protein.RotatedAtoms>
  152.4137  134.6079  160.0017 H   0  0  0  0  0  0  0  0  0  0  0  0  # atno 6907 bound_to 6896
  151.6248  133.3330  159.3104 H   0  0  0  0  0  0  0  0  0  0  0  0  # atno 6908 bound_to 6896
  150.8027  134.7171  159.6681 H   0  0  0  0  0  0  0  0  0  0  0  0  # atno 6909 bound_to 6896
  146.1184  140.5469  142.8746 H   0  0  0  0  0  0  0  0  0  0  0  0  # atno 7974 bound_to 7965
  154.4340  140.1850  156.1061 H   0  0  0  0  0  0  0  0  0  0  0  0  # atno 8008 bound_to 7997
  156.0254  140.3336  155.7057 H   0  0  0  0  0  0  0  0  0  0  0  0  # atno 8009 bound_to 7997
  155.5916  140.0631  157.2748 H   0  0  0  0  0  0  0  0  0  0  0  0  # atno 8010 bound_to 7997
  140.3696  143.2801  151.9516 H   0  0  0  0  0  0  0  0  0  0  0  0  # atno 10167 bound_to 10162
  157.0064  131.0191  151.2816 H   0  0  0  0  0  0  0  0  0  0  0  0  # atno 10718 bound_to 10713
  153.3753  135.3920  155.1818 H   0  0  0  0  0  0  0  0  0  0  0  0  # atno 10763 bound_to 10752
  154.8700  135.3712  154.4925 H   0  0  0  0  0  0  0  0  0  0  0  0  # atno 10764 bound_to 10752
  153.5397  135.7084  153.5703 H   0  0  0  0  0  0  0  0  0  0  0  0  # atno 10765 bound_to 10752
  140.7007  133.8992  155.8681 H   0  0  0  0  0  0  0  0  0  0  0  0  # atno 11005 bound_to 11000
  144.7574  140.5340  143.6759 LP  0  0  0  0  0  0  0  0  0  0  0  0  # atno 17320 bound_to 7965
  145.5518  139.1477  143.3390 LP  0  0  0  0  0  0  0  0  0  0  0  0  # atno 17321 bound_to 7965
  139.4805  144.5919  151.7758 LP  0  0  0  0  0  0  0  0  0  0  0  0  # atno 17342 bound_to 10162
  140.5046  144.1117  150.5979 LP  0  0  0  0  0  0  0  0  0  0  0  0  # atno 17343 bound_to 10162
  157.5353  130.8084  149.7964 LP  0  0  0  0  0  0  0  0  0  0  0  0  # atno 17370 bound_to 10713
  156.0152  130.3816  150.2134 LP  0  0  0  0  0  0  0  0  0  0  0  0  # atno 17371 bound_to 10713
  141.0166  134.0947  157.4166 LP  0  0  0  0  0  0  0  0  0  0  0  0  # atno 17394 bound_to 11000
  139.8897  135.0107  156.6696 LP  0  0  0  0  0  0  0  0  0  0  0  0  # atno 17395 bound_to 11000

$$$$
