AV-unprocessed.smi:2330|AV-procd|sdf|9310|dock5
  -GOLD-   2272012523D 1   1.00000     0.00000
 Structure written by MMmdl.
 42 43  0  0  0  0  0  0  0  0  1 V2000
  151.1180  142.6747  156.7549 C   0  0  0  0  0  0  0  0  0  0  0  0
  150.4856  141.3451  156.3191 C   0  0  2  0  0  0  0  0  0  0  0  0
  151.5464  140.2379  156.1698 C   0  0  0  0  0  0  0  0  0  0  0  0
  150.9183  138.9055  155.7306 C   0  0  0  0  0  0  0  0  0  0  0  0
  150.1124  139.0630  154.4249 C   0  0  1  0  0  0  0  0  0  0  0  0
  149.4607  137.8053  154.0721 N   0  0  0  0  0  0  0  0  0  0  0  0
  148.5662  137.1602  154.8337 C   0  0  0  0  0  0  0  0  0  0  0  0
  148.2090  137.5362  155.9503 O   0  0  0  0  0  0  0  0  0  0  0  0
  148.0867  136.0695  154.2207 N   0  0  0  0  0  0  0  0  0  0  0  0
  147.0339  135.2060  154.7492 C   0  0  0  0  0  0  0  0  0  0  0  0
  146.7103  134.0140  153.8202 C   0  0  2  0  0  0  0  0  0  0  0  0
  147.9674  133.3173  153.2801 C   0  0  0  0  0  0  0  0  0  0  0  0
  145.7416  134.3614  152.7299 C   0  0  0  0  0  0  0  0  0  0  0  0
  145.3296  135.6065  152.4703 N   0  0  0  0  0  0  0  0  0  0  0  0
  144.4105  135.6583  151.4196 C   0  0  0  0  0  0  0  0  0  0  0  0
  144.1213  134.4291  150.8842 C   0  0  0  0  0  0  0  0  0  0  0  0
  145.0000  133.1544  151.6827 S   0  0  0  0  0  0  0  0  0  0  0  0
  149.0544  140.1718  154.5703 C   0  0  0  0  0  0  0  0  0  0  0  0
  149.6883  141.5015  155.0101 C   0  0  0  0  0  0  0  0  0  0  0  0
  151.8326  143.0359  156.0145 H   0  0  0  0  0  0  0  0  0  0  0  0
  151.6464  142.5661  157.7022 H   0  0  0  0  0  0  0  0  0  0  0  0
  150.3583  143.4454  156.8887 H   0  0  0  0  0  0  0  0  0  0  0  0
  149.7898  141.0409  157.1028 H   0  0  0  0  0  0  0  0  0  0  0  0
  152.2970  140.5423  155.4390 H   0  0  0  0  0  0  0  0  0  0  0  0
  152.0745  140.0972  157.1134 H   0  0  0  0  0  0  0  0  0  0  0  0
  151.7033  138.1593  155.6018 H   0  0  0  0  0  0  0  0  0  0  0  0
  150.2681  138.5337  156.5241 H   0  0  0  0  0  0  0  0  0  0  0  0
  150.7938  139.3481  153.6208 H   0  0  0  0  0  0  0  0  0  0  0  0
  149.6848  137.4157  153.1683 H   0  0  0  0  0  0  0  0  0  0  0  0
  148.4415  135.8430  153.3031 H   0  0  0  0  0  0  0  0  0  0  0  0
  147.3804  134.8315  155.7127 H   0  0  0  0  0  0  0  0  0  0  0  0
  146.1353  135.7912  154.9513 H   0  0  0  0  0  0  0  0  0  0  0  0
  146.2060  133.2697  154.4377 H   0  0  0  0  0  0  0  0  0  0  0  0
  147.7073  132.4212  152.7159 H   0  0  0  0  0  0  0  0  0  0  0  0
  148.6284  133.0156  154.0930 H   0  0  0  0  0  0  0  0  0  0  0  0
  148.5327  133.9756  152.6197 H   0  0  0  0  0  0  0  0  0  0  0  0
  144.0102  136.6150  151.1177 H   0  0  0  0  0  0  0  0  0  0  0  0
  143.4479  134.1973  150.0724 H   0  0  0  0  0  0  0  0  0  0  0  0
  148.5285  140.3125  153.6252 H   0  0  0  0  0  0  0  0  0  0  0  0
  148.3015  139.8728  155.3014 H   0  0  0  0  0  0  0  0  0  0  0  0
  148.9079  142.2527  155.1364 H   0  0  0  0  0  0  0  0  0  0  0  0
  150.3449  141.8692  154.2202 H   0  0  0  0  0  0  0  0  0  0  0  0
  1  2  1  0  0  0  0
  1 20  1  0  0  0  0
  1 21  1  0  0  0  0
  1 22  1  0  0  0  0
  2 19  1  0  0  0  0
  2  3  1  0  0  0  0
  2 23  1  0  0  0  0
  3  4  1  0  0  0  0
  3 24  1  0  0  0  0
  3 25  1  0  0  0  0
  4  5  1  0  0  0  0
  4 26  1  0  0  0  0
  4 27  1  0  0  0  0
  5  6  1  0  0  0  0
  5 18  1  0  0  0  0
  5 28  1  0  0  0  0
  6  7  1  0  0  0  0
  6 29  1  0  0  0  0
  7  8  2  0  0  0  0
  7  9  1  0  0  0  0
  9 10  1  0  0  0  0
  9 30  1  0  0  0  0
 10 11  1  0  0  0  0
 10 31  1  0  0  0  0
 10 32  1  0  0  0  0
 11 12  1  0  0  0  0
 11 13  1  0  0  0  0
 11 33  1  0  0  0  0
 12 34  1  0  0  0  0
 12 35  1  0  0  0  0
 12 36  1  0  0  0  0
 13 17  1  0  0  0  0
 13 14  2  0  0  0  0
 14 15  1  0  0  0  0
 15 16  2  0  0  0  0
 15 37  1  0  0  0  0
 16 17  1  0  0  0  0
 16 38  1  0  0  0  0
 18 19  1  0  0  0  0
 18 39  1  0  0  0  0
 18 40  1  0  0  0  0
 19 41  1  0  0  0  0
 19 42  1  0  0  0  0
M  END
> <s_m_source_file>
AV-unprocessed.smi

> <i_m_source_file_index>
2330

> <i_lp_mmshare_version>
43012

> <i_f3d_flags>
0

> <s_epik_input>
W0NIM11bQ0BASF0xW0NIMl1bQ0gyXVtDQEhdKFtDSDJdW0NIMl0xKVtOSF1DKD1PKVtOSF1bQ0gyXVtDQEhdKFtDSDNdKWMybltjSF1bY0hdczI=

> <s_epik_cmdline>
J2VwaWtfcHl0aG9uJywgJy1waCcsICc3LjAnLCAnLXRuJywgJzgnLCAnLW1hJywgJzIwMCcsICctbWV0YWxfYmluZGluZycsICctaW1hZScsICc8aW5maWxlLm1hZT4nLCAnLW9tYWUnLCAnPG91dGZpbGUubWFlPic=

> <r_lp_tautomer_probability>
1

> <r_epik_Ionization_Penalty>
0.000331107

> <r_epik_Ionization_Penalty_Charging>
0

> <r_epik_Ionization_Penalty_Neutral>
0.000331107

> <r_epik_State_Penalty>
-0

> <r_epik_Charging_Adjusted_Penalty>
0

> <i_epik_Tot_Q>
0

> <i_epik_Tot_abs_Q>
0

> <r_epik_Metal_State_Penalty>
-0

> <b_epik_Metal_Only>
0

> <s_lp_Force_Field>
OPLS_2005

> <r_lp_Energy>
-1.82221

> <b_lp_Chiralities_Consistent>
1

> <s_lp_Variant>
AV-unprocessed.smi:2330-1

> <Gold.Version>
5.8.1

> <Gold.Id.Protein>
6NUR|6NUR_protein|mol2

> <Gold.PLP.Fitness>
40.2989

> <Gold.PLP.PLP>
-29.2724

> <Gold.PLP.part.hbond>
-1.8141

> <Gold.PLP.part.metal>
0.0000

> <Gold.PLP.part.buried>
-3.0826

> <Gold.PLP.part.nonpolar>
-25.4994

> <Gold.PLP.part.repulsive>
0.1543

> <Gold.PLP.ligand.clash>
0.0000

> <Gold.PLP.ligand.torsion>
0.2680

> <Gold.PLP.Chemscore.Hbond>
1.8160

> <Gold.PLP.Chemscore.CHOScore>
1.9989

> <Gold.PLP.Chemscore.Metal>
0.0000

> <Gold.Chemscore.Hbonds>
donor molecule, donor type, donor heavy atom, donor atom, acceptor molecule, acceptor atom, score
      L1  H     6    29       P1  7948  0.83
      L1  H     9    30       P1  7948  1.00
      L1  C    15    37       P1 10171  1.00
      L1  C    16    38       P1 10186  1.00

> <Gold.PLP.Chemscore.Internal.Correction>
0.1178

> <Gold.Rescore>
     Score         DG    S(hbond)    S(metal)    S(lipo)     H(rot)  DE(clash)    DE(int)     intcor
     16.02     -17.19       1.83        0.00      79.60       1.45       0.01       1.16       ----

> <Gold.Chemscore.Fitness>
16.0173

> <Gold.Chemscore.DG>
-17.1875

> <Gold.Chemscore.ZeroCoef>
-5.4800

> <Gold.Chemscore.Hbond>
1.8312

> <Gold.Chemscore.Metal>
0.0000

> <Gold.Chemscore.Lipo>
79.5951

> <Gold.Chemscore.Internal_Hbond>
0.0000

> <Gold.Chemscore.DEClash>
0.0060

> <Gold.Chemscore.DEInternal>
1.1642

> <Gold.Chemscore.Rot>
1.4536

> <Gold.Chemscore.Internal.Correction>
   9.000000E+99

> <Gold.Chemscore.Hbonds>
donor molecule, donor type, donor heavy atom, donor atom, acceptor molecule, acceptor atom, score
      L1  H     6    29       P1  7948  0.54
      L1  H     9    30       P1  7948  0.94

> <Gold.Chemscore.Hbond.Weighted>
-6.1160

> <Gold.Chemscore.Metal.Weighted>
-0.0000

> <Gold.Chemscore.Lipo.Weighted>
-9.3126

> <Gold.Chemscore.Internal_Hbond.Weighted>
0.0000

> <Gold.Chemscore.DEClash.Weighted>
0.0060

> <Gold.Chemscore.DEInternal.Weighted>
1.1642

> <Gold.Chemscore.Rot.Weighted>
3.7212

> <Gold.Chemscore.Internal.Correction.Weighted>
   9.000000E+99

> <Gold.Protein.RotatedTorsions>
[ 6907 6896 6895 6894 ] final   19.33 input  -60.11 | X-H torsion
[ 7974 7965 7964 7962 ] final -132.29 input  175.53 | X-H torsion
[ 8008 7997 7996 7995 ] final  -96.82 input   59.86 | X-H torsion
[ 10167 10162 10161 10158 ] final   52.08 input  -65.29 | X-H torsion
[ 10718 10713 10712 10709 ] final  172.01 input   66.30 | X-H torsion
[ 10763 10752 10751 10750 ] final -179.91 input  -60.55 | X-H torsion
[ 11005 11000 10999 10996 ] final  112.59 input  -57.11 | X-H torsion

> <Gold.Protein.ActiveResidues>
 VAL166  LYS551  ARG553  GLY616  TRP617  ASP618  TYR619  PRO620  LYS621  CYS622 
 ASP623  PHE694  ASN695  SER759  ASP760  ASP761  ALA762  ILE779  LEU786  VAL792 
 PHE793  MET794  SER795  GLU796  ALA797  LYS798  CYS799  TRP800  GLU811  SER814 

> <Gold.Protein.RotatedAtoms>
  151.8792  135.0460  160.0486 H   0  0  0  0  0  0  0  0  0  0  0  0  # atno 6907 bound_to 6896
  152.2526  133.5224  159.5343 H   0  0  0  0  0  0  0  0  0  0  0  0  # atno 6908 bound_to 6896
  150.7089  134.0855  159.3955 H   0  0  0  0  0  0  0  0  0  0  0  0  # atno 6909 bound_to 6896
  144.9299  140.7116  143.4912 H   0  0  0  0  0  0  0  0  0  0  0  0  # atno 7974 bound_to 7965
  154.7795  140.0468  157.1116 H   0  0  0  0  0  0  0  0  0  0  0  0  # atno 8008 bound_to 7997
  154.9722  140.3091  155.4963 H   0  0  0  0  0  0  0  0  0  0  0  0  # atno 8009 bound_to 7997
  156.2934  140.2251  156.4815 H   0  0  0  0  0  0  0  0  0  0  0  0  # atno 8010 bound_to 7997
  140.2552  144.3435  150.6335 H   0  0  0  0  0  0  0  0  0  0  0  0  # atno 10167 bound_to 10162
  156.9853  131.0131  151.2871 H   0  0  0  0  0  0  0  0  0  0  0  0  # atno 10718 bound_to 10713
  154.5290  135.2798  155.1197 H   0  0  0  0  0  0  0  0  0  0  0  0  # atno 10763 bound_to 10752
  154.2724  135.6301  153.5319 H   0  0  0  0  0  0  0  0  0  0  0  0  # atno 10764 bound_to 10752
  152.9953  135.5631  154.5799 H   0  0  0  0  0  0  0  0  0  0  0  0  # atno 10765 bound_to 10752
  139.8931  134.9533  156.6610 H   0  0  0  0  0  0  0  0  0  0  0  0  # atno 11005 bound_to 11000
  145.3159  139.1804  143.4614 LP  0  0  0  0  0  0  0  0  0  0  0  0  # atno 17320 bound_to 7965
  146.3242  140.3169  142.8630 LP  0  0  0  0  0  0  0  0  0  0  0  0  # atno 17321 bound_to 7965
  140.6009  143.2167  151.7073 LP  0  0  0  0  0  0  0  0  0  0  0  0  # atno 17342 bound_to 10162
  139.5034  144.3793  152.0392 LP  0  0  0  0  0  0  0  0  0  0  0  0  # atno 17343 bound_to 10162
  157.5497  130.8174  149.8130 LP  0  0  0  0  0  0  0  0  0  0  0  0  # atno 17370 bound_to 10713
  156.0228  130.3789  150.1910 LP  0  0  0  0  0  0  0  0  0  0  0  0  # atno 17371 bound_to 10713
  140.7447  133.8948  155.8303 LP  0  0  0  0  0  0  0  0  0  0  0  0  # atno 17394 bound_to 11000
  141.0049  134.1100  157.4280 LP  0  0  0  0  0  0  0  0  0  0  0  0  # atno 17395 bound_to 11000

$$$$
