AV-unprocessed.smi:512|AV-procd|sdf|2771|dock4
  -GOLD-   2262023243D 1   1.00000     0.00000
 Structure written by MMmdl.
 47 49  0  0  0  0  0  0  0  0  2 V2000
  152.1435  133.3695  158.8753 C   0  0  0  0  0  0  0  0  0  0  0  0
  152.3314  134.8815  159.0184 C   0  0  0  0  0  0  0  0  0  0  0  0
  152.9331  135.3828  157.8371 O   0  0  0  0  0  0  0  0  0  0  0  0
  153.1960  136.7742  157.9041 C   0  0  0  0  0  0  0  0  0  0  0  0
  151.8557  137.5264  157.9397 C   0  0  0  0  0  0  0  0  0  0  0  0
  152.0146  138.9296  158.3130 N   0  0  0  0  0  0  0  0  0  0  0  0
  151.6630  140.0506  157.6175 C   0  0  0  0  0  0  0  0  0  0  0  0
  151.0792  140.0258  156.3434 N   0  0  0  0  0  0  0  0  0  0  0  0
  150.5962  141.2175  155.6464 C   0  0  0  0  0  0  0  0  0  0  0  0
  149.1569  141.0159  155.1327 C   0  0  0  0  0  0  0  0  0  0  0  0
  149.1305  139.9080  154.1790 N   0  0  0  0  0  0  0  0  0  0  0  0
  147.7716  139.7072  153.6974 C   0  0  0  0  0  0  0  0  0  0  0  0
  149.5946  138.7007  154.8604 C   0  0  0  0  0  0  0  0  0  0  0  0
  151.0295  138.9296  155.3749 C   0  0  0  0  0  0  0  0  0  0  0  0
  151.8876  141.1923  158.2732 N   0  0  0  0  0  0  0  0  0  0  0  0
  152.4417  140.7727  159.4704 C   0  0  0  0  0  0  0  0  0  0  0  0
  152.5218  139.4172  159.5239 C   0  0  0  0  0  0  0  0  0  0  0  0
  153.0414  138.6731  160.6942 C   0  0  0  0  0  0  0  0  0  0  0  0
  153.0702  137.4443  160.7059 O   0  0  0  0  0  0  0  0  0  0  0  0
  153.4552  139.5092  161.6984 N   0  5  0  0  0  0  0  0  0  0  0  0
  153.3989  140.8861  161.6810 C   0  0  0  0  0  0  0  0  0  0  0  0
  153.7952  141.5652  162.6291 O   0  0  0  0  0  0  0  0  0  0  0  0
  152.8904  141.5320  160.5852 N   0  0  0  0  0  0  0  0  0  0  0  0
  152.8103  142.9948  160.5415 C   0  0  0  0  0  0  0  0  0  0  0  0
  151.6852  132.9474  159.7699 H   0  0  0  0  0  0  0  0  0  0  0  0
  153.0998  132.8694  158.7204 H   0  0  0  0  0  0  0  0  0  0  0  0
  151.5004  133.1347  158.0269 H   0  0  0  0  0  0  0  0  0  0  0  0
  151.3657  135.3616  159.1829 H   0  0  0  0  0  0  0  0  0  0  0  0
  152.9610  135.0985  159.8827 H   0  0  0  0  0  0  0  0  0  0  0  0
  153.7859  136.9977  158.7932 H   0  0  0  0  0  0  0  0  0  0  0  0
  153.7935  137.0812  157.0458 H   0  0  0  0  0  0  0  0  0  0  0  0
  151.3473  137.4573  156.9809 H   0  0  0  0  0  0  0  0  0  0  0  0
  151.1756  137.0502  158.6454 H   0  0  0  0  0  0  0  0  0  0  0  0
  150.6135  142.0731  156.3219 H   0  0  0  0  0  0  0  0  0  0  0  0
  151.2691  141.4613  154.8228 H   0  0  0  0  0  0  0  0  0  0  0  0
  148.4804  140.8211  155.9668 H   0  0  0  0  0  0  0  0  0  0  0  0
  148.8109  141.9260  154.6415 H   0  0  0  0  0  0  0  0  0  0  0  0
  147.7377  138.8820  152.9855 H   0  0  0  0  0  0  0  0  0  0  0  0
  147.4110  140.6014  153.1878 H   0  0  0  0  0  0  0  0  0  0  0  0
  147.0872  139.4808  154.5164 H   0  0  0  0  0  0  0  0  0  0  0  0
  148.9260  138.4435  155.6834 H   0  0  0  0  0  0  0  0  0  0  0  0
  149.5839  137.8633  154.1618 H   0  0  0  0  0  0  0  0  0  0  0  0
  151.6902  139.1644  154.5391 H   0  0  0  0  0  0  0  0  0  0  0  0
  151.4225  138.0127  155.8019 H   0  0  0  0  0  0  0  0  0  0  0  0
  152.2215  143.3718  161.3786 H   0  0  0  0  0  0  0  0  0  0  0  0
  152.3447  143.3640  159.6281 H   0  0  0  0  0  0  0  0  0  0  0  0
  153.8077  143.4320  160.6005 H   0  0  0  0  0  0  0  0  0  0  0  0
  1  2  1  0  0  0  0
  1 25  1  0  0  0  0
  1 26  1  0  0  0  0
  1 27  1  0  0  0  0
  2  3  1  0  0  0  0
  2 28  1  0  0  0  0
  2 29  1  0  0  0  0
  3  4  1  0  0  0  0
  4  5  1  0  0  0  0
  4 30  1  0  0  0  0
  4 31  1  0  0  0  0
  5  6  1  0  0  0  0
  5 32  1  0  0  0  0
  5 33  1  0  0  0  0
  6 17  1  0  0  0  0
  6  7  1  0  0  0  0
  7  8  1  0  0  0  0
  7 15  2  0  0  0  0
  8 14  1  0  0  0  0
  8  9  1  0  0  0  0
  9 10  1  0  0  0  0
  9 34  1  0  0  0  0
  9 35  1  0  0  0  0
 10 11  1  0  0  0  0
 10 36  1  0  0  0  0
 10 37  1  0  0  0  0
 11 12  1  0  0  0  0
 11 13  1  0  0  0  0
 12 38  1  0  0  0  0
 12 39  1  0  0  0  0
 12 40  1  0  0  0  0
 13 14  1  0  0  0  0
 13 41  1  0  0  0  0
 13 42  1  0  0  0  0
 14 43  1  0  0  0  0
 14 44  1  0  0  0  0
 15 16  1  0  0  0  0
 16 23  1  0  0  0  0
 16 17  2  0  0  0  0
 17 18  1  0  0  0  0
 18 19  2  0  0  0  0
 18 20  1  0  0  0  0
 20 21  1  0  0  0  0
 21 22  2  0  0  0  0
 21 23  1  0  0  0  0
 23 24  1  0  0  0  0
 24 45  1  0  0  0  0
 24 46  1  0  0  0  0
 24 47  1  0  0  0  0
M  CHG  1  20  -1
M  END
> <s_m_source_file>
AV-unprocessed.smi

> <i_m_source_file_index>
512

> <i_lp_mmshare_version>
43012

> <i_f3d_flags>
0

> <s_epik_input>
W0NIM11uMWMoPU8pW25IXWMoPU8pYyhjMTIpbihbQ0gyXVtDSDJdT1tDSDJdW0NIM10pYyhuMilOM1tDSDJdW0NIMl1OKFtDSDNdKVtDSDJdW0NIMl0z

> <s_epik_cmdline>
J2VwaWtfcHl0aG9uJywgJy1waCcsICc3LjAnLCAnLXRuJywgJzgnLCAnLW1hJywgJzIwMCcsICctbWV0YWxfYmluZGluZycsICctaW1hZScsICc8aW5maWxlLm1hZT4nLCAnLW9tYWUnLCAnPG91dGZpbGUubWFlPic=

> <r_epik_Ionization_Penalty>
7.67022

> <r_epik_Ionization_Penalty_Charging>
0.0776929

> <r_epik_Ionization_Penalty_Neutral>
7.59253

> <r_epik_State_Penalty>
7.66971

> <r_epik_Charging_Adjusted_Penalty>
7.7474

> <i_epik_Tot_Q>
-1

> <i_epik_Tot_abs_Q>
1

> <r_epik_Metal_State_Penalty>
3.61867

> <b_epik_Metal_Only>
1

> <s_lp_Force_Field>
OPLS_2005

> <r_lp_Energy>
53.7442

> <b_lp_Chiralities_Consistent>
1

> <s_lp_Variant>
AV-unprocessed.smi:512-4

> <Gold.Version>
5.8.1

> <Gold.Id.Protein>
6NUR|6NUR_protein|mol2

> <Gold.PLP.Fitness>
41.6069

> <Gold.PLP.PLP>
-38.7568

> <Gold.PLP.part.hbond>
-2.0000

> <Gold.PLP.part.metal>
0.0000

> <Gold.PLP.part.buried>
-2.6954

> <Gold.PLP.part.nonpolar>
-32.7327

> <Gold.PLP.part.repulsive>
0.8106

> <Gold.PLP.ligand.clash>
0.0000

> <Gold.PLP.ligand.torsion>
0.1199

> <Gold.PLP.Chemscore.Hbond>
1.0000

> <Gold.PLP.Chemscore.CHOScore>
0.0000

> <Gold.PLP.Chemscore.Metal>
0.0000

> <Gold.PLP.Chemscore.Internal.Correction>
0.0900

> <Gold.Rescore>
     Score         DG    S(hbond)    S(metal)    S(lipo)     H(rot)  DE(clash)    DE(int)     intcor
     10.30     -11.58       0.94        0.00      60.33       1.61       0.02       1.26       ----

> <Gold.Chemscore.Fitness>
10.3002

> <Gold.Chemscore.DG>
-11.5813

> <Gold.Chemscore.ZeroCoef>
-5.4800

> <Gold.Chemscore.Hbond>
0.9445

> <Gold.Chemscore.Metal>
0.0000

> <Gold.Chemscore.Lipo>
60.3327

> <Gold.Chemscore.Internal_Hbond>
0.0000

> <Gold.Chemscore.DEClash>
0.0232

> <Gold.Chemscore.DEInternal>
1.2578

> <Gold.Chemscore.Rot>
1.6064

> <Gold.Chemscore.Internal.Correction>
   9.000000E+99

> <Gold.Chemscore.Hbond.Weighted>
-3.1547

> <Gold.Chemscore.Metal.Weighted>
-0.0000

> <Gold.Chemscore.Lipo.Weighted>
-7.0589

> <Gold.Chemscore.Internal_Hbond.Weighted>
0.0000

> <Gold.Chemscore.DEClash.Weighted>
0.0232

> <Gold.Chemscore.DEInternal.Weighted>
1.2578

> <Gold.Chemscore.Rot.Weighted>
4.1123

> <Gold.Chemscore.Internal.Correction.Weighted>
   9.000000E+99

> <Gold.Protein.RotatedTorsions>
[ 6907 6896 6895 6894 ] final -155.10 input  -60.11 | X-H torsion
[ 7974 7965 7964 7962 ] final  -49.78 input  175.53 | X-H torsion
[ 8008 7997 7996 7995 ] final  105.11 input   59.86 | X-H torsion
[ 10167 10162 10161 10158 ] final  171.02 input  -65.29 | X-H torsion
[ 10718 10713 10712 10709 ] final  -48.35 input   66.30 | X-H torsion
[ 10763 10752 10751 10750 ] final   47.83 input  -60.55 | X-H torsion
[ 11005 11000 10999 10996 ] final  106.99 input  -57.11 | X-H torsion

> <Gold.Protein.ActiveResidues>
 VAL166  LYS551  ARG553  GLY616  TRP617  ASP618  TYR619  PRO620  LYS621  CYS622 
 ASP623  PHE694  ASN695  SER759  ASP760  ASP761  ALA762  ILE779  LEU786  VAL792 
 PHE793  MET794  SER795  GLU796  ALA797  LYS798  CYS799  TRP800  GLU811  SER814 

> <Gold.Protein.RotatedAtoms>
  151.2675  133.4271  159.2619 H   0  0  0  0  0  0  0  0  0  0  0  0  # atno 6907 bound_to 6896
  151.0475  134.9650  159.8204 H   0  0  0  0  0  0  0  0  0  0  0  0  # atno 6908 bound_to 6896
  152.5376  134.2631  159.8995 H   0  0  0  0  0  0  0  0  0  0  0  0  # atno 6909 bound_to 6896
  145.9369  140.7698  142.9572 H   0  0  0  0  0  0  0  0  0  0  0  0  # atno 7974 bound_to 7965
  156.1631  140.3136  155.8841 H   0  0  0  0  0  0  0  0  0  0  0  0  # atno 8008 bound_to 7997
  155.3742  140.0484  157.3062 H   0  0  0  0  0  0  0  0  0  0  0  0  # atno 8009 bound_to 7997
  154.5166  140.2183  155.9066 H   0  0  0  0  0  0  0  0  0  0  0  0  # atno 8010 bound_to 7997
  139.5035  144.3532  151.9901 H   0  0  0  0  0  0  0  0  0  0  0  0  # atno 10167 bound_to 10162
  156.1996  130.4155  149.9259 H   0  0  0  0  0  0  0  0  0  0  0  0  # atno 10718 bound_to 10713
  152.9796  135.5963  154.3827 H   0  0  0  0  0  0  0  0  0  0  0  0  # atno 10763 bound_to 10752
  154.3490  135.2767  155.2384 H   0  0  0  0  0  0  0  0  0  0  0  0  # atno 10764 bound_to 10752
  154.4432  135.6008  153.6198 H   0  0  0  0  0  0  0  0  0  0  0  0  # atno 10765 bound_to 10752
  139.8822  134.9387  156.5751 H   0  0  0  0  0  0  0  0  0  0  0  0  # atno 11005 bound_to 11000
  144.6773  140.2217  143.7365 LP  0  0  0  0  0  0  0  0  0  0  0  0  # atno 17320 bound_to 7965
  145.8352  139.2104  143.1859 LP  0  0  0  0  0  0  0  0  0  0  0  0  # atno 17321 bound_to 7965
  140.2969  144.3691  150.6072 LP  0  0  0  0  0  0  0  0  0  0  0  0  # atno 17342 bound_to 10162
  140.5903  143.2168  151.7264 LP  0  0  0  0  0  0  0  0  0  0  0  0  # atno 17343 bound_to 10162
  156.6973  130.8919  151.3595 LP  0  0  0  0  0  0  0  0  0  0  0  0  # atno 17370 bound_to 10713
  157.6978  130.9300  150.0695 LP  0  0  0  0  0  0  0  0  0  0  0  0  # atno 17371 bound_to 10713
  140.8069  133.8460  155.8775 LP  0  0  0  0  0  0  0  0  0  0  0  0  # atno 17394 bound_to 11000
  140.9542  134.1740  157.4705 LP  0  0  0  0  0  0  0  0  0  0  0  0  # atno 17395 bound_to 11000

$$$$
