AV-unprocessed.smi:1936|AV-procd|sdf|7831|dock5
  -GOLD-   22720 9573D 1   1.00000     0.00000
 Structure written by MMmdl.
 39 40  0  0  0  0  0  0  0  0  2 V2000
  144.8669  138.6828  153.5869 C   0  0  0  0  0  0  0  0  0  0  0  0
  145.9029  138.1048  152.6132 C   0  0  2  0  0  0  0  0  0  0  0  0
  146.6807  139.2276  151.8904 C   0  0  0  0  0  0  0  0  0  0  0  0
  147.6202  139.9527  152.7831 N   0  3  0  0  0  0  0  0  0  0  0  0
  147.0264  141.1686  153.3860 C   0  0  0  0  0  0  0  0  0  0  0  0
  148.0756  141.9085  154.2336 C   0  0  0  0  0  0  0  0  0  0  0  0
  148.5904  141.0337  155.2301 O   0  0  0  0  0  0  0  0  0  0  0  0
  149.2338  139.8987  154.6629 C   0  0  0  0  0  0  0  0  0  0  0  0
  148.2199  139.0938  153.8331 C   0  0  0  0  0  0  0  0  0  0  0  0
  145.2210  137.2288  151.6602 N   0  0  0  0  0  0  0  0  0  0  0  0
  144.6359  136.0527  151.9432 C   0  0  0  0  0  0  0  0  0  0  0  0
  144.6626  135.5366  153.0599 O   0  0  0  0  0  0  0  0  0  0  0  0
  143.9323  135.3344  150.7880 C   0  0  0  0  0  0  0  0  0  0  0  0
  144.3939  133.9647  150.6363 N   0  0  0  0  0  0  0  0  0  0  0  0
  143.6419  132.8187  150.4787 C   0  0  0  0  0  0  0  0  0  0  0  0
  144.5124  131.7713  150.3811 C   0  0  0  0  0  0  0  0  0  0  0  0
  145.7922  132.3840  150.4885 C   0  0  0  0  0  0  0  0  0  0  0  0
  145.7181  133.6965  150.6394 N   0  0  0  0  0  0  0  0  0  0  0  0
  145.3447  139.3096  154.3405 H   0  0  0  0  0  0  0  0  0  0  0  0
  144.3340  137.8887  154.1111 H   0  0  0  0  0  0  0  0  0  0  0  0
  144.1277  139.2937  153.0674 H   0  0  0  0  0  0  0  0  0  0  0  0
  146.5978  137.5124  153.2101 H   0  0  0  0  0  0  0  0  0  0  0  0
  147.2424  138.7752  151.0712 H   0  0  0  0  0  0  0  0  0  0  0  0
  145.9936  139.9385  151.4286 H   0  0  0  0  0  0  0  0  0  0  0  0
  146.6587  141.8304  152.6009 H   0  0  0  0  0  0  0  0  0  0  0  0
  146.1699  140.8918  154.0031 H   0  0  0  0  0  0  0  0  0  0  0  0
  148.8871  142.2843  153.6081 H   0  0  0  0  0  0  0  0  0  0  0  0
  147.6235  142.7723  154.7213 H   0  0  0  0  0  0  0  0  0  0  0  0
  150.0791  140.2120  154.0479 H   0  0  0  0  0  0  0  0  0  0  0  0
  149.6358  139.2818  155.4668 H   0  0  0  0  0  0  0  0  0  0  0  0
  147.4345  138.7029  154.4820 H   0  0  0  0  0  0  0  0  0  0  0  0
  148.7193  138.2358  153.3840 H   0  0  0  0  0  0  0  0  0  0  0  0
  145.1481  137.5681  150.7116 H   0  0  0  0  0  0  0  0  0  0  0  0
  142.8560  135.3296  150.9642 H   0  0  0  0  0  0  0  0  0  0  0  0
  144.1013  135.8697  149.8521 H   0  0  0  0  0  0  0  0  0  0  0  0
  142.5622  132.8431  150.4510 H   0  0  0  0  0  0  0  0  0  0  0  0
  144.2725  130.7263  150.2522 H   0  0  0  0  0  0  0  0  0  0  0  0
  146.7663  131.9176  150.4618 H   0  0  0  0  0  0  0  0  0  0  0  0
  148.3791  140.2708  152.1967 H   0  0  0  0  0  0  0  0  0  0  0  0
  1  2  1  0  0  0  0
  1 19  1  0  0  0  0
  1 20  1  0  0  0  0
  1 21  1  0  0  0  0
  2  3  1  0  0  0  0
  2 10  1  0  0  0  0
  2 22  1  0  0  0  0
  3  4  1  0  0  0  0
  3 23  1  0  0  0  0
  3 24  1  0  0  0  0
  4  9  1  0  0  0  0
  4  5  1  0  0  0  0
  4 39  1  0  0  0  0
  5  6  1  0  0  0  0
  5 25  1  0  0  0  0
  5 26  1  0  0  0  0
  6  7  1  0  0  0  0
  6 27  1  0  0  0  0
  6 28  1  0  0  0  0
  7  8  1  0  0  0  0
  8  9  1  0  0  0  0
  8 29  1  0  0  0  0
  8 30  1  0  0  0  0
  9 31  1  0  0  0  0
  9 32  1  0  0  0  0
 10 11  1  0  0  0  0
 10 33  1  0  0  0  0
 11 12  2  0  0  0  0
 11 13  1  0  0  0  0
 13 14  1  0  0  0  0
 13 34  1  0  0  0  0
 13 35  1  0  0  0  0
 14 18  1  0  0  0  0
 14 15  1  0  0  0  0
 15 16  2  0  0  0  0
 15 36  1  0  0  0  0
 16 17  1  0  0  0  0
 16 37  1  0  0  0  0
 17 18  2  0  0  0  0
 17 38  1  0  0  0  0
M  CHG  1   4   1
M  END
> <s_m_source_file>
AV-unprocessed.smi

> <i_m_source_file_index>
1936

> <i_lp_mmshare_version>
43012

> <i_f3d_flags>
0

> <s_epik_input>
W0NIMl0xW0NIMl1PW0NIMl1bQ0gyXU4xW0NIMl1bQ0BASF0oW0NIM10pW05IXUMoPU8pW0NIMl1uMltjSF1bY0hdW2NIXW4y

> <s_epik_cmdline>
J2VwaWtfcHl0aG9uJywgJy1waCcsICc3LjAnLCAnLXRuJywgJzgnLCAnLW1hJywgJzIwMCcsICctbWV0YWxfYmluZGluZycsICctaW1hZScsICc8aW5maWxlLm1hZT4nLCAnLW9tYWUnLCAnPG91dGZpbGUubWFlPic=

> <r_lp_tautomer_probability>
1

> <r_epik_Ionization_Penalty>
0.748405

> <r_epik_Ionization_Penalty_Charging>
0.748396

> <r_epik_Ionization_Penalty_Neutral>
9.02181e-06

> <r_epik_State_Penalty>
0.775162

> <r_epik_Charging_Adjusted_Penalty>
1.52356

> <i_epik_Tot_Q>
1

> <i_epik_Tot_abs_Q>
1

> <r_epik_Metal_State_Penalty>
0.775167

> <b_epik_Metal_Only>
0

> <s_lp_Force_Field>
OPLS_2005

> <r_lp_Energy>
23.0503

> <b_lp_Chiralities_Consistent>
1

> <s_lp_Variant>
AV-unprocessed.smi:1936-3

> <Gold.Version>
5.8.1

> <Gold.Id.Protein>
6NUR|6NUR_protein|mol2

> <Gold.PLP.Fitness>
42.0758

> <Gold.PLP.PLP>
-32.0738

> <Gold.PLP.part.hbond>
-1.8224

> <Gold.PLP.part.metal>
0.0000

> <Gold.PLP.part.buried>
-0.3993

> <Gold.PLP.part.nonpolar>
-31.2761

> <Gold.PLP.part.repulsive>
0.8532

> <Gold.PLP.ligand.clash>
0.0000

> <Gold.PLP.ligand.torsion>
0.7267

> <Gold.PLP.Chemscore.Hbond>
1.8000

> <Gold.PLP.Chemscore.CHOScore>
1.9997

> <Gold.PLP.Chemscore.Metal>
0.0000

> <Gold.Chemscore.Hbonds>
donor molecule, donor type, donor heavy atom, donor atom, acceptor molecule, acceptor atom, score
      L1  H     4    39       P1  7957  1.00
      L1  H    10    33       P1 10171  0.67
      L1  C    15    36       P1 10186  1.00
      L1  C    17    38       P1 10747  1.00

> <Gold.PLP.Chemscore.Internal.Correction>
0.0563

> <Gold.Rescore>
     Score         DG    S(hbond)    S(metal)    S(lipo)     H(rot)  DE(clash)    DE(int)     intcor
     14.74     -16.00       1.88        0.00      78.62       1.93       0.44       0.82       ----

> <Gold.Chemscore.Fitness>
14.7359

> <Gold.Chemscore.DG>
-15.9981

> <Gold.Chemscore.ZeroCoef>
-5.4800

> <Gold.Chemscore.Hbond>
1.8774

> <Gold.Chemscore.Metal>
0.0000

> <Gold.Chemscore.Lipo>
78.6219

> <Gold.Chemscore.Internal_Hbond>
0.0000

> <Gold.Chemscore.DEClash>
0.4382

> <Gold.Chemscore.DEInternal>
0.8240

> <Gold.Chemscore.Rot>
1.9340

> <Gold.Chemscore.Internal.Correction>
   9.000000E+99

> <Gold.Chemscore.Hbonds>
donor molecule, donor type, donor heavy atom, donor atom, acceptor molecule, acceptor atom, score
      L1  H     4    39       P1  7957  0.97
      L1  H    10    33       P1 10171  0.68

> <Gold.Chemscore.Hbond.Weighted>
-6.2704

> <Gold.Chemscore.Metal.Weighted>
-0.0000

> <Gold.Chemscore.Lipo.Weighted>
-9.1988

> <Gold.Chemscore.Internal_Hbond.Weighted>
0.0000

> <Gold.Chemscore.DEClash.Weighted>
0.4382

> <Gold.Chemscore.DEInternal.Weighted>
0.8240

> <Gold.Chemscore.Rot.Weighted>
4.9510

> <Gold.Chemscore.Internal.Correction.Weighted>
   9.000000E+99

> <Gold.Protein.RotatedTorsions>
[ 6907 6896 6895 6894 ] final  -19.97 input  -60.11 | X-H torsion
[ 7974 7965 7964 7962 ] final  -53.49 input  175.53 | X-H torsion
[ 8008 7997 7996 7995 ] final   37.19 input   59.86 | X-H torsion
[ 10167 10162 10161 10158 ] final   52.04 input  -65.29 | X-H torsion
[ 10718 10713 10712 10709 ] final   74.81 input   66.30 | X-H torsion
[ 10763 10752 10751 10750 ] final  105.32 input  -60.55 | X-H torsion
[ 11005 11000 10999 10996 ] final -133.08 input  -57.11 | X-H torsion

> <Gold.Protein.ActiveResidues>
 VAL166  LYS551  ARG553  GLY616  TRP617  ASP618  TYR619  PRO620  LYS621  CYS622 
 ASP623  PHE694  ASN695  SER759  ASP760  ASP761  ALA762  ILE779  LEU786  VAL792 
 PHE793  MET794  SER795  GLU796  ALA797  LYS798  CYS799  TRP800  GLU811  SER814 

> <Gold.Protein.RotatedAtoms>
  151.2551  135.0635  159.9076 H   0  0  0  0  0  0  0  0  0  0  0  0  # atno 6907 bound_to 6896
  152.5374  134.0290  159.8026 H   0  0  0  0  0  0  0  0  0  0  0  0  # atno 6908 bound_to 6896
  151.0505  133.5579  159.2674 H   0  0  0  0  0  0  0  0  0  0  0  0  # atno 6909 bound_to 6896
  145.8962  140.8031  142.9766 H   0  0  0  0  0  0  0  0  0  0  0  0  # atno 7974 bound_to 7965
  155.1997  140.3315  155.4345 H   0  0  0  0  0  0  0  0  0  0  0  0  # atno 8008 bound_to 7997
  156.2411  140.1896  156.7034 H   0  0  0  0  0  0  0  0  0  0  0  0  # atno 8009 bound_to 7997
  154.6150  140.0603  156.9528 H   0  0  0  0  0  0  0  0  0  0  0  0  # atno 8010 bound_to 7997
  140.2556  144.3430  150.6334 H   0  0  0  0  0  0  0  0  0  0  0  0  # atno 10167 bound_to 10162
  157.6608  130.9696  150.1263 H   0  0  0  0  0  0  0  0  0  0  0  0  # atno 10718 bound_to 10713
  153.3777  135.3914  155.1834 H   0  0  0  0  0  0  0  0  0  0  0  0  # atno 10763 bound_to 10752
  154.8703  135.3718  154.4896 H   0  0  0  0  0  0  0  0  0  0  0  0  # atno 10764 bound_to 10752
  153.5370  135.7085  153.5716 H   0  0  0  0  0  0  0  0  0  0  0  0  # atno 10765 bound_to 10752
  140.9113  134.1564  157.4387 H   0  0  0  0  0  0  0  0  0  0  0  0  # atno 11005 bound_to 11000
  144.6733  140.1607  143.7422 LP  0  0  0  0  0  0  0  0  0  0  0  0  # atno 17320 bound_to 7965
  145.8847  139.2342  143.1585 LP  0  0  0  0  0  0  0  0  0  0  0  0  # atno 17321 bound_to 7965
  140.6006  143.2167  151.7079 LP  0  0  0  0  0  0  0  0  0  0  0  0  # atno 17342 bound_to 10162
  139.5032  144.3798  152.0387 LP  0  0  0  0  0  0  0  0  0  0  0  0  # atno 17343 bound_to 10162
  156.2121  130.3667  149.8657 LP  0  0  0  0  0  0  0  0  0  0  0  0  # atno 17370 bound_to 10713
  156.6533  130.8752  151.3535 LP  0  0  0  0  0  0  0  0  0  0  0  0  # atno 17371 bound_to 10713
  139.8758  134.9937  156.5655 LP  0  0  0  0  0  0  0  0  0  0  0  0  # atno 17394 bound_to 11000
  140.8107  133.8432  155.8807 LP  0  0  0  0  0  0  0  0  0  0  0  0  # atno 17395 bound_to 11000

$$$$
