AV-unprocessed.smi:880|AV-procd|sdf|4034|dock6
  -GOLD-   22720 1523D 1   1.00000     0.00000
 Structure written by MMmdl.
 32 33  0  0  0  0  0  0  0  0  1 V2000
  153.3525  141.7212  161.1638 C   0  0  0  0  0  0  0  0  0  0  0  0
  153.0597  142.9867  160.3425 C   0  0  0  0  0  0  0  0  0  0  0  0
  152.3322  144.0435  161.1865 C   0  0  0  0  0  0  0  0  0  0  0  0
  152.2818  142.6792  159.0867 C   0  0  0  0  0  0  0  0  0  0  0  0
  151.9806  143.5343  157.9859 C   0  0  0  0  0  0  0  0  0  0  0  0
  151.2793  142.7379  157.1272 C   0  0  0  0  0  0  0  0  0  0  0  0
  151.1873  141.4920  157.7086 N   0  0  0  0  0  0  0  0  0  0  0  0
  150.5553  140.2944  157.1832 C   0  0  0  0  0  0  0  0  0  0  0  0
  150.0725  140.5044  155.7465 C   0  0  0  0  0  0  0  0  0  0  0  0
  150.5869  139.8688  154.8266 O   0  0  0  0  0  0  0  0  0  0  0  0
  149.0894  141.4006  155.5720 N   0  0  0  0  0  0  0  0  0  0  0  0
  148.4821  141.7383  154.3264 C   0  0  0  0  0  0  0  0  0  0  0  0
  146.9709  141.7998  154.2767 C   0  0  0  0  0  0  0  0  0  0  0  0
  147.6938  140.6583  153.6170 C   0  0  0  0  0  0  0  0  0  0  0  0
  151.8015  141.4565  158.9108 N   0  0  0  0  0  0  0  0  0  0  0  0
  153.8999  140.9870  160.5719 H   0  0  0  0  0  0  0  0  0  0  0  0
  152.4345  141.2503  161.5171 H   0  0  0  0  0  0  0  0  0  0  0  0
  153.9596  141.9555  162.0385 H   0  0  0  0  0  0  0  0  0  0  0  0
  154.0246  143.4084  160.0567 H   0  0  0  0  0  0  0  0  0  0  0  0
  152.1858  144.9655  160.6229 H   0  0  0  0  0  0  0  0  0  0  0  0
  152.9024  144.2928  162.0819 H   0  0  0  0  0  0  0  0  0  0  0  0
  151.3511  143.6893  161.5044 H   0  0  0  0  0  0  0  0  0  0  0  0
  152.2436  144.5721  157.8442 H   0  0  0  0  0  0  0  0  0  0  0  0
  150.8484  142.9492  156.1596 H   0  0  0  0  0  0  0  0  0  0  0  0
  151.2604  139.4624  157.2203 H   0  0  0  0  0  0  0  0  0  0  0  0
  149.7143  140.0323  157.8265 H   0  0  0  0  0  0  0  0  0  0  0  0
  148.7324  141.8687  156.3927 H   0  0  0  0  0  0  0  0  0  0  0  0
  149.0117  142.4420  153.6857 H   0  0  0  0  0  0  0  0  0  0  0  0
  146.4219  141.5848  155.1917 H   0  0  0  0  0  0  0  0  0  0  0  0
  146.5209  142.5502  153.6301 H   0  0  0  0  0  0  0  0  0  0  0  0
  147.7256  140.6459  152.5292 H   0  0  0  0  0  0  0  0  0  0  0  0
  147.6291  139.6808  154.0913 H   0  0  0  0  0  0  0  0  0  0  0  0
  1  2  1  0  0  0  0
  1 16  1  0  0  0  0
  1 17  1  0  0  0  0
  1 18  1  0  0  0  0
  2  3  1  0  0  0  0
  2  4  1  0  0  0  0
  2 19  1  0  0  0  0
  3 20  1  0  0  0  0
  3 21  1  0  0  0  0
  3 22  1  0  0  0  0
  4 15  2  0  0  0  0
  4  5  1  0  0  0  0
  5  6  2  0  0  0  0
  5 23  1  0  0  0  0
  6  7  1  0  0  0  0
  6 24  1  0  0  0  0
  7  8  1  0  0  0  0
  7 15  1  0  0  0  0
  8  9  1  0  0  0  0
  8 25  1  0  0  0  0
  8 26  1  0  0  0  0
  9 10  2  0  0  0  0
  9 11  1  0  0  0  0
 11 12  1  0  0  0  0
 11 27  1  0  0  0  0
 12 14  1  0  0  0  0
 12 13  1  0  0  0  0
 12 28  1  0  0  0  0
 13 14  1  0  0  0  0
 13 29  1  0  0  0  0
 13 30  1  0  0  0  0
 14 31  1  0  0  0  0
 14 32  1  0  0  0  0
M  END
> <s_m_source_file>
AV-unprocessed.smi

> <i_m_source_file_index>
880

> <i_lp_mmshare_version>
43012

> <i_f3d_flags>
0

> <s_epik_input>
W0NIM11bQ0hdKFtDSDNdKWMxW2NIXVtjSF1uKG4xKVtDSDJdQyg9TylbTkhdW0NIXTJbQ0gyXVtDSDJdMg==

> <s_epik_cmdline>
J2VwaWtfcHl0aG9uJywgJy1waCcsICc3LjAnLCAnLXRuJywgJzgnLCAnLW1hJywgJzIwMCcsICctbWV0YWxfYmluZGluZycsICctaW1hZScsICc8aW5maWxlLm1hZT4nLCAnLW9tYWUnLCAnPG91dGZpbGUubWFlPic=

> <r_lp_tautomer_probability>
1

> <r_epik_Ionization_Penalty>
5.52855e-05

> <r_epik_Ionization_Penalty_Charging>
0

> <r_epik_Ionization_Penalty_Neutral>
5.52855e-05

> <r_epik_State_Penalty>
-0

> <r_epik_Charging_Adjusted_Penalty>
0

> <i_epik_Tot_Q>
0

> <i_epik_Tot_abs_Q>
0

> <r_epik_Metal_State_Penalty>
-0

> <b_epik_Metal_Only>
0

> <s_lp_Force_Field>
OPLS_2005

> <r_lp_Energy>
12.9381

> <b_lp_Chiralities_Consistent>
1

> <s_lp_Variant>
AV-unprocessed.smi:880-1

> <Gold.Version>
5.8.1

> <Gold.Id.Protein>
6NUR|6NUR_protein|mol2

> <Gold.PLP.Fitness>
42.5416

> <Gold.PLP.PLP>
-36.9937

> <Gold.PLP.part.hbond>
-1.6068

> <Gold.PLP.part.metal>
0.0000

> <Gold.PLP.part.buried>
-1.8770

> <Gold.PLP.part.nonpolar>
-33.7413

> <Gold.PLP.part.repulsive>
0.2019

> <Gold.PLP.ligand.clash>
0.0000

> <Gold.PLP.ligand.torsion>
0.2578

> <Gold.PLP.Chemscore.Hbond>
1.0000

> <Gold.PLP.Chemscore.CHOScore>
1.0000

> <Gold.PLP.Chemscore.Metal>
0.0000

> <Gold.Chemscore.Hbonds>
donor molecule, donor type, donor heavy atom, donor atom, acceptor molecule, acceptor atom, score
      P1  H  7989  7998       L1    10  1.00
      L1  C     6    24       P1  8028  0.57

> <Gold.PLP.Chemscore.Internal.Correction>
0.0636

> <Gold.Rescore>
     Score         DG    S(hbond)    S(metal)    S(lipo)     H(rot)  DE(clash)    DE(int)     intcor
     15.78     -15.97       1.00        0.00      94.11       1.50       0.00       0.18       ----

> <Gold.Chemscore.Fitness>
15.7848

> <Gold.Chemscore.DG>
-15.9683

> <Gold.Chemscore.ZeroCoef>
-5.4800

> <Gold.Chemscore.Hbond>
0.9952

> <Gold.Chemscore.Metal>
0.0000

> <Gold.Chemscore.Lipo>
94.1119

> <Gold.Chemscore.Internal_Hbond>
0.0000

> <Gold.Chemscore.DEClash>
0.0048

> <Gold.Chemscore.DEInternal>
0.1787

> <Gold.Chemscore.Rot>
1.5026

> <Gold.Chemscore.Internal.Correction>
   9.000000E+99

> <Gold.Chemscore.Hbonds>
donor molecule, donor type, donor heavy atom, donor atom, acceptor molecule, acceptor atom, score
      P1  H  7989  7998       L1    10  0.94

> <Gold.Chemscore.Hbond.Weighted>
-3.3240

> <Gold.Chemscore.Metal.Weighted>
-0.0000

> <Gold.Chemscore.Lipo.Weighted>
-11.0111

> <Gold.Chemscore.Internal_Hbond.Weighted>
0.0000

> <Gold.Chemscore.DEClash.Weighted>
0.0048

> <Gold.Chemscore.DEInternal.Weighted>
0.1787

> <Gold.Chemscore.Rot.Weighted>
3.8468

> <Gold.Chemscore.Internal.Correction.Weighted>
   9.000000E+99

> <Gold.Protein.RotatedTorsions>
[ 6907 6896 6895 6894 ] final  -58.15 input  -60.11 | X-H torsion
[ 7974 7965 7964 7962 ] final  167.48 input  175.53 | X-H torsion
[ 8008 7997 7996 7995 ] final   79.33 input   59.86 | X-H torsion
[ 10167 10162 10161 10158 ] final -160.62 input  -65.29 | X-H torsion
[ 10718 10713 10712 10709 ] final -161.04 input   66.30 | X-H torsion
[ 10763 10752 10751 10750 ] final  110.19 input  -60.55 | X-H torsion
[ 11005 11000 10999 10996 ] final    0.95 input  -57.11 | X-H torsion

> <Gold.Protein.ActiveResidues>
 VAL166  LYS551  ARG553  GLY616  TRP617  ASP618  TYR619  PRO620  LYS621  CYS622 
 ASP623  PHE694  ASN695  SER759  ASP760  ASP761  ALA762  ILE779  LEU786  VAL792 
 PHE793  MET794  SER795  GLU796  ALA797  LYS798  CYS799  TRP800  GLU811  SER814 

> <Gold.Protein.RotatedAtoms>
  150.8030  134.7136  159.6617 H   0  0  0  0  0  0  0  0  0  0  0  0  # atno 6907 bound_to 6896
  152.4148  134.6058  160.0022 H   0  0  0  0  0  0  0  0  0  0  0  0  # atno 6908 bound_to 6896
  151.6291  133.3296  159.3141 H   0  0  0  0  0  0  0  0  0  0  0  0  # atno 6909 bound_to 6896
  144.7423  139.8768  143.6393 H   0  0  0  0  0  0  0  0  0  0  0  0  # atno 7974 bound_to 7965
  155.8681  140.3450  155.5802 H   0  0  0  0  0  0  0  0  0  0  0  0  # atno 8008 bound_to 7997
  155.7858  140.0865  157.2054 H   0  0  0  0  0  0  0  0  0  0  0  0  # atno 8009 bound_to 7997
  154.4015  140.1492  156.3092 H   0  0  0  0  0  0  0  0  0  0  0  0  # atno 8010 bound_to 7997
  139.6525  144.0057  152.2171 H   0  0  0  0  0  0  0  0  0  0  0  0  # atno 10167 bound_to 10162
  156.5907  130.8769  151.2889 H   0  0  0  0  0  0  0  0  0  0  0  0  # atno 10718 bound_to 10713
  153.4454  135.3756  155.2253 H   0  0  0  0  0  0  0  0  0  0  0  0  # atno 10763 bound_to 10752
  154.8755  135.3873  154.4102 H   0  0  0  0  0  0  0  0  0  0  0  0  # atno 10764 bound_to 10752
  153.4653  135.7087  153.6089 H   0  0  0  0  0  0  0  0  0  0  0  0  # atno 10765 bound_to 10752
  140.6208  133.9663  155.8224 H   0  0  0  0  0  0  0  0  0  0  0  0  # atno 11005 bound_to 11000
  146.1241  139.4263  143.0210 LP  0  0  0  0  0  0  0  0  0  0  0  0  # atno 17320 bound_to 7965
  145.7262  141.0058  143.1376 LP  0  0  0  0  0  0  0  0  0  0  0  0  # atno 17321 bound_to 7965
  139.9775  144.6451  150.7931 LP  0  0  0  0  0  0  0  0  0  0  0  0  # atno 17342 bound_to 10162
  140.7544  143.3027  151.3040 LP  0  0  0  0  0  0  0  0  0  0  0  0  # atno 17343 bound_to 10162
  157.7304  130.9685  150.1833 LP  0  0  0  0  0  0  0  0  0  0  0  0  # atno 17370 bound_to 10713
  156.2552  130.3705  149.8189 LP  0  0  0  0  0  0  0  0  0  0  0  0  # atno 17371 bound_to 10713
  141.0743  134.0158  157.3480 LP  0  0  0  0  0  0  0  0  0  0  0  0  # atno 17394 bound_to 11000
  139.9154  135.0196  156.7860 LP  0  0  0  0  0  0  0  0  0  0  0  0  # atno 17395 bound_to 11000

$$$$
