#       Name:                AV-unprocessed.smi:2185
#       Creating user name   scv26
#       Creation time:       Fri Mar 27 12:07:28 2020


#       File generated by GOLD software.
#

@<TRIPOS>MOLECULE
AV-unprocessed.smi:2185
    41    42     1
SMALL
NO_CHARGES


@<TRIPOS>ATOM
      1 ****        -3.3065   3.0591  -0.4475 C.3            1 S1                 0.0000
      2 ****        -4.6126   1.7734  -0.6007 S.o2           1 S1                 0.0000
      3 ****        -5.4304   1.8041   0.6215 O.2            1 S1                 0.0000
      4 ****        -5.2576   1.9281  -1.9136 O.2            1 S1                 0.0000
      5 ****        -3.7313   0.2728  -0.6128 N.pl3          1 S1                 0.0000
      6 ****        -3.0319  -0.1637  -1.8379 C.3            1 S1                 0.0000
      7 ****        -1.5194   0.1058  -1.7557 C.3            1 S1                 0.0000
      8 ****        -0.9070  -0.5197  -0.4942 C.3            1 S1                 0.0000
      9 ****         0.5151  -0.1969  -0.4224 N.am           1 S1                 0.0000
     10 ****         1.4396  -0.9155   0.2305 C.2            1 S1                 0.0000
     11 ****         1.1815  -1.9420   0.8581 O.2            1 S1                 0.0000
     12 ****         2.6614  -0.3731   0.0896 N.am           1 S1                 0.0000
     13 ****         3.9037  -0.8251   0.6127 C.ar           1 S1                 0.0000
     14 ****         4.0385  -1.7272   1.6963 C.ar           1 S1                 0.0000
     15 ****         5.3311  -2.0820   2.1286 C.ar           1 S1                 0.0000
     16 ****         6.4403  -1.5190   1.4681 C.ar           1 S1                 0.0000
     17 ****         6.3272  -0.6497   0.4422 N.ar           1 S1                 0.0000
     18 ****         5.0850  -0.3141   0.0336 C.ar           1 S1                 0.0000
     19 ****        -1.6523   0.0042   0.7448 C.3            1 S1                 0.0000
     20 ****        -3.1654  -0.2597   0.6433 C.3            1 S1                 0.0000
     21 ****        -3.7763   4.0422  -0.4348 H              1 S1                 0.0000
     22 ****        -2.6281   3.0027  -1.2968 H              1 S1                 0.0000
     23 ****        -2.7560   2.9191   0.4812 H              1 S1                 0.0000
     24 ****        -3.2046  -1.2326  -1.9695 H              1 S1                 0.0000
     25 ****        -3.4571   0.3250  -2.7139 H              1 S1                 0.0000
     26 ****        -1.0311  -0.2969  -2.6439 H              1 S1                 0.0000
     27 ****        -1.3330   1.1794  -1.7670 H              1 S1                 0.0000
     28 ****        -1.0277  -1.6032  -0.5543 H              1 S1                 0.0000
     29 ****         0.8176   0.6318  -0.9132 H              1 S1                 0.0000
     30 ****         2.7182   0.4354  -0.5121 H              1 S1                 0.0000
     31 ****         3.1868  -2.1417   2.2121 H              1 S1                 0.0000
     32 ****         5.4687  -2.7675   2.9517 H              1 S1                 0.0000
     33 ****         7.4448  -1.7689   1.7759 H              1 S1                 0.0000
     34 ****         5.0335   0.3859  -0.7878 H              1 S1                 0.0000
     35 ****        -1.2641  -0.4730   1.6453 H              1 S1                 0.0000
     36 ****        -1.4678   1.0714   0.8642 H              1 S1                 0.0000
     37 ****        -3.6827   0.1653   1.5028 H              1 S1                 0.0000
     38 ****        -3.3493  -1.3341   0.6744 H              1 S1                 0.0000
     39 ****         0.2411  -2.2798   0.8993 LP             1 S1                 0.0000
     40 ****         1.9121  -2.4384   1.3269 LP             1 S1                 0.0000
     41 ****         7.1374  -0.2664  -0.0011 LP             1 S1                 0.0000
@<TRIPOS>BOND
    1    1    2 1     
    2    1   21 1     
    3    1   22 1     
    4    1   23 1     
    5    2    3 2     
    6    2    4 2     
    7    2    5 1     
    8    5   20 1     
    9    5    6 1     
   10    6    7 1     
   11    6   24 1     
   12    6   25 1     
   13    7    8 1     
   14    7   26 1     
   15    7   27 1     
   16    8    9 1     
   17    8   19 1     
   18    8   28 1     
   19    9   10 am    
   20    9   29 1     
   21   10   11 2     
   22   10   12 am    
   23   12   13 1     
   24   12   30 1     
   25   13   18 ar    
   26   13   14 ar    
   27   14   15 ar    
   28   14   31 1     
   29   15   16 ar    
   30   15   32 1     
   31   16   17 ar    
   32   16   33 1     
   33   17   18 ar    
   34   18   34 1     
   35   19   20 1     
   36   19   35 1     
   37   19   36 1     
   38   20   37 1     
   39   20   38 1     
   40   11   39 1     
   41   11   40 1     
   42   17   41 1     
@<TRIPOS>SUBSTRUCTURE
      1 S1             1
@<TRIPOS>SET
LONE_PAIRS      STATIC     ATOMS    <user>   **** ""
5 3 4 39 40 41
DONOR_HYDROGENS      STATIC     ATOMS    <user>   **** ""
2 29 30
ATOM$BLUE        STATIC     ATOMS    COLORGROUP SYSTEM
5 3 4 39 40 41
ATOM$RED        STATIC     ATOMS    COLORGROUP SYSTEM
2 29 30
