AV-unprocessed.smi:1403|AV-procd|sdf|5702|dock7
  -GOLD-   22720 5333D 1   1.00000     0.00000
 Structure written by MMmdl.
 35 36  0  0  0  0  0  0  0  0  2 V2000
  147.3468  134.3194  154.9651 C   0  0  0  0  0  0  0  0  0  0  0  0
  146.3502  135.3095  154.3396 C   0  0  1  0  0  0  0  0  0  0  0  0
  147.0661  136.4669  153.8088 N   0  0  0  0  0  0  0  0  0  0  0  0
  147.1123  137.6821  154.3754 C   0  0  0  0  0  0  0  0  0  0  0  0
  146.5247  137.9645  155.4203 O   0  0  0  0  0  0  0  0  0  0  0  0
  147.9269  138.7450  153.6268 C   0  0  0  0  0  0  0  0  0  0  0  0
  149.2232  139.0211  154.2663 N   0  0  0  0  0  0  0  0  0  0  0  0
  150.1129  137.9457  154.4364 C   0  0  0  0  0  0  0  0  0  0  0  0
  151.3210  138.1071  155.0094 C   0  0  0  0  0  0  0  0  0  0  0  0
  151.6987  139.4408  155.4600 C   0  0  0  0  0  0  0  0  0  0  0  0
  152.7951  139.6055  155.9916 O   0  0  0  0  0  0  0  0  0  0  0  0
  150.8033  140.4532  155.2667 N   0  5  0  0  0  0  0  0  0  0  0  0
  149.5788  140.2748  154.6803 C   0  0  0  0  0  0  0  0  0  0  0  0
  148.7860  141.2027  154.5144 O   0  0  0  0  0  0  0  0  0  0  0  0
  145.5189  134.6536  153.2207 C   0  0  2  0  0  0  0  0  0  0  0  0
  146.3355  134.1370  152.0326 C   0  0  0  0  0  0  0  0  0  0  0  0
  145.3672  134.2129  150.8609 C   0  0  0  0  0  0  0  0  0  0  0  0
  144.1836  135.0173  151.4032 C   0  0  0  0  0  0  0  0  0  0  0  0
  144.6626  135.6027  152.6045 O   0  0  0  0  0  0  0  0  0  0  0  0
  146.8322  133.4544  155.3840 H   0  0  0  0  0  0  0  0  0  0  0  0
  147.9125  134.7843  155.7732 H   0  0  0  0  0  0  0  0  0  0  0  0
  148.0615  133.9556  154.2262 H   0  0  0  0  0  0  0  0  0  0  0  0
  145.6617  135.6462  155.1171 H   0  0  0  0  0  0  0  0  0  0  0  0
  147.5790  136.3290  152.9501 H   0  0  0  0  0  0  0  0  0  0  0  0
  148.0790  138.4390  152.5900 H   0  0  0  0  0  0  0  0  0  0  0  0
  147.3269  139.6541  153.5715 H   0  0  0  0  0  0  0  0  0  0  0  0
  149.7591  136.9933  154.0699 H   0  0  0  0  0  0  0  0  0  0  0  0
  151.9944  137.2713  155.1301 H   0  0  0  0  0  0  0  0  0  0  0  0
  144.9096  133.8434  153.6264 H   0  0  0  0  0  0  0  0  0  0  0  0
  147.1861  134.7933  151.8435 H   0  0  0  0  0  0  0  0  0  0  0  0
  146.7207  133.1304  152.1977 H   0  0  0  0  0  0  0  0  0  0  0  0
  145.8334  134.7147  150.0123 H   0  0  0  0  0  0  0  0  0  0  0  0
  145.0474  133.2236  150.5319 H   0  0  0  0  0  0  0  0  0  0  0  0
  143.8353  135.7769  150.7030 H   0  0  0  0  0  0  0  0  0  0  0  0
  143.3457  134.3582  151.6357 H   0  0  0  0  0  0  0  0  0  0  0  0
  1  2  1  0  0  0  0
  1 20  1  0  0  0  0
  1 21  1  0  0  0  0
  1 22  1  0  0  0  0
  2  3  1  0  0  0  0
  2 15  1  0  0  0  0
  2 23  1  0  0  0  0
  3  4  1  0  0  0  0
  3 24  1  0  0  0  0
  4  5  2  0  0  0  0
  4  6  1  0  0  0  0
  6  7  1  0  0  0  0
  6 25  1  0  0  0  0
  6 26  1  0  0  0  0
  7 13  1  0  0  0  0
  7  8  1  0  0  0  0
  8  9  2  0  0  0  0
  8 27  1  0  0  0  0
  9 10  1  0  0  0  0
  9 28  1  0  0  0  0
 10 11  2  0  0  0  0
 10 12  1  0  0  0  0
 12 13  1  0  0  0  0
 13 14  2  0  0  0  0
 15 19  1  0  0  0  0
 15 16  1  0  0  0  0
 15 29  1  0  0  0  0
 16 17  1  0  0  0  0
 16 30  1  0  0  0  0
 16 31  1  0  0  0  0
 17 18  1  0  0  0  0
 17 32  1  0  0  0  0
 17 33  1  0  0  0  0
 18 19  1  0  0  0  0
 18 34  1  0  0  0  0
 18 35  1  0  0  0  0
M  CHG  1  12  -1
M  END
> <s_m_source_file>
AV-unprocessed.smi

> <i_m_source_file_index>
1403

> <i_lp_mmshare_version>
43012

> <i_f3d_flags>
0

> <s_epik_input>
TzFbQ0gyXVtDSDJdW0NIMl1bQ0BIXTFbQ0BIXShbQ0gzXSlbTkhdQyg9TylbQ0gyXW4yW2NIXVtjSF1jKD1PKVtuSF1jMj1P

> <s_epik_cmdline>
J2VwaWtfcHl0aG9uJywgJy1waCcsICc3LjAnLCAnLXRuJywgJzgnLCAnLW1hJywgJzIwMCcsICctbWV0YWxfYmluZGluZycsICctaW1hZScsICc8aW5maWxlLm1hZT4nLCAnLW9tYWUnLCAnPG91dGZpbGUubWFlPic=

> <r_lp_tautomer_probability>
0.999537

> <r_epik_Ionization_Penalty>
3.07438

> <r_epik_Ionization_Penalty_Charging>
2.82466e-08

> <r_epik_Ionization_Penalty_Neutral>
3.07438

> <r_epik_State_Penalty>
3.07341

> <r_epik_Charging_Adjusted_Penalty>
3.07341

> <i_epik_Tot_Q>
-1

> <i_epik_Tot_abs_Q>
1

> <r_epik_Metal_State_Penalty>
0.45947

> <b_epik_Metal_Only>
1

> <s_lp_Force_Field>
OPLS_2005

> <r_lp_Energy>
26.8934

> <b_lp_Chiralities_Consistent>
1

> <s_lp_Variant>
AV-unprocessed.smi:1403-6

> <Gold.Version>
5.8.1

> <Gold.Id.Protein>
6NUR|6NUR_protein|mol2

> <Gold.PLP.Fitness>
35.8950

> <Gold.PLP.PLP>
-25.3036

> <Gold.PLP.part.hbond>
-4.4736

> <Gold.PLP.part.metal>
0.0000

> <Gold.PLP.part.buried>
2.5346

> <Gold.PLP.part.nonpolar>
-22.4911

> <Gold.PLP.part.repulsive>
0.4173

> <Gold.PLP.ligand.clash>
0.0000

> <Gold.PLP.ligand.torsion>
0.3822

> <Gold.PLP.Chemscore.Hbond>
2.7746

> <Gold.PLP.Chemscore.CHOScore>
1.0000

> <Gold.PLP.Chemscore.Metal>
0.0000

> <Gold.Chemscore.Hbonds>
donor molecule, donor type, donor heavy atom, donor atom, acceptor molecule, acceptor atom, score
      L1  H     3    24       P1  7948  1.00
      P1  H  7989  7998       L1    12  0.30
      P1  H  7997  8010       L1    11  1.00
      L1  C     8    27       P1  7948  1.00

> <Gold.PLP.Chemscore.Internal.Correction>
0.0319

> <Gold.Rescore>
     Score         DG    S(hbond)    S(metal)    S(lipo)     H(rot)  DE(clash)    DE(int)     intcor
     12.34     -14.01       2.69        0.00      39.83       1.99       1.20       0.46       ----

> <Gold.Chemscore.Fitness>
12.3436

> <Gold.Chemscore.DG>
-14.0079

> <Gold.Chemscore.ZeroCoef>
-5.4800

> <Gold.Chemscore.Hbond>
2.6863

> <Gold.Chemscore.Metal>
0.0000

> <Gold.Chemscore.Lipo>
39.8313

> <Gold.Chemscore.Internal_Hbond>
0.0000

> <Gold.Chemscore.DEClash>
1.2001

> <Gold.Chemscore.DEInternal>
0.4642

> <Gold.Chemscore.Rot>
1.9940

> <Gold.Chemscore.Internal.Correction>
   9.000000E+99

> <Gold.Chemscore.Hbonds>
donor molecule, donor type, donor heavy atom, donor atom, acceptor molecule, acceptor atom, score
      L1  H     3    24       P1  7948  0.99
      P1  H  7997  8010       L1    11  1.00

> <Gold.Chemscore.Hbond.Weighted>
-8.9724

> <Gold.Chemscore.Metal.Weighted>
-0.0000

> <Gold.Chemscore.Lipo.Weighted>
-4.6603

> <Gold.Chemscore.Internal_Hbond.Weighted>
0.0000

> <Gold.Chemscore.DEClash.Weighted>
1.2001

> <Gold.Chemscore.DEInternal.Weighted>
0.4642

> <Gold.Chemscore.Rot.Weighted>
5.1047

> <Gold.Chemscore.Internal.Correction.Weighted>
   9.000000E+99

> <Gold.Protein.RotatedTorsions>
[ 6907 6896 6895 6894 ] final  142.73 input  -60.11 | X-H torsion
[ 7974 7965 7964 7962 ] final  -74.85 input  175.53 | X-H torsion
[ 8008 7997 7996 7995 ] final   79.62 input   59.86 | X-H torsion
[ 10167 10162 10161 10158 ] final  160.13 input  -65.29 | X-H torsion
[ 10718 10713 10712 10709 ] final   49.85 input   66.30 | X-H torsion
[ 10763 10752 10751 10750 ] final   31.68 input  -60.55 | X-H torsion
[ 11005 11000 10999 10996 ] final   99.64 input  -57.11 | X-H torsion

> <Gold.Protein.ActiveResidues>
 VAL166  LYS551  ARG553  GLY616  TRP617  ASP618  TYR619  PRO620  LYS621  CYS622 
 ASP623  PHE694  ASN695  SER759  ASP760  ASP761  ALA762  ILE779  LEU786  VAL792 
 PHE793  MET794  SER795  GLU796  ALA797  LYS798  CYS799  TRP800  GLU811  SER814 

> <Gold.Protein.RotatedAtoms>
  152.2151  133.4940  159.5131 H   0  0  0  0  0  0  0  0  0  0  0  0  # atno 6907 bound_to 6896
  150.6999  134.1416  159.4116 H   0  0  0  0  0  0  0  0  0  0  0  0  # atno 6908 bound_to 6896
  151.9336  135.0245  160.0581 H   0  0  0  0  0  0  0  0  0  0  0  0  # atno 6909 bound_to 6896
  145.6337  140.9330  143.1073 H   0  0  0  0  0  0  0  0  0  0  0  0  # atno 7974 bound_to 7965
  155.8723  140.3448  155.5829 H   0  0  0  0  0  0  0  0  0  0  0  0  # atno 8008 bound_to 7997
  155.7814  140.0859  157.2076 H   0  0  0  0  0  0  0  0  0  0  0  0  # atno 8009 bound_to 7997
  154.4018  140.1500  156.3043 H   0  0  0  0  0  0  0  0  0  0  0  0  # atno 8010 bound_to 7997
  139.4837  144.4664  151.8636 H   0  0  0  0  0  0  0  0  0  0  0  0  # atno 10167 bound_to 10162
  157.4827  130.8325  149.8111 H   0  0  0  0  0  0  0  0  0  0  0  0  # atno 10718 bound_to 10713
  153.0303  135.6433  154.1236 H   0  0  0  0  0  0  0  0  0  0  0  0  # atno 10763 bound_to 10752
  154.0960  135.2863  155.3263 H   0  0  0  0  0  0  0  0  0  0  0  0  # atno 10764 bound_to 10752
  154.6432  135.5452  153.7877 H   0  0  0  0  0  0  0  0  0  0  0  0  # atno 10765 bound_to 10752
  139.8770  134.9105  156.4636 H   0  0  0  0  0  0  0  0  0  0  0  0  # atno 11005 bound_to 11000
  144.7184  139.8116  143.7391 LP  0  0  0  0  0  0  0  0  0  0  0  0  # atno 17320 bound_to 7965
  146.1336  139.4377  143.0153 LP  0  0  0  0  0  0  0  0  0  0  0  0  # atno 17321 bound_to 7965
  140.4129  144.2345  150.5888 LP  0  0  0  0  0  0  0  0  0  0  0  0  # atno 17342 bound_to 10162
  140.4948  143.2336  151.8765 LP  0  0  0  0  0  0  0  0  0  0  0  0  # atno 17343 bound_to 10162
  156.0130  130.3825  150.2202 LP  0  0  0  0  0  0  0  0  0  0  0  0  # atno 17370 bound_to 10713
  157.0389  131.0029  151.3290 LP  0  0  0  0  0  0  0  0  0  0  0  0  # atno 17371 bound_to 10713
  140.8846  133.7893  155.9504 LP  0  0  0  0  0  0  0  0  0  0  0  0  # atno 17394 bound_to 11000
  140.8818  134.2602  157.5140 LP  0  0  0  0  0  0  0  0  0  0  0  0  # atno 17395 bound_to 11000

$$$$
