#       Name:                AV-unprocessed.smi:164
#       Creating user name   scv26
#       Creation time:       Thu Mar 26 19:11:11 2020


#       File generated by GOLD software.
#

@<TRIPOS>MOLECULE
AV-unprocessed.smi:164
    63    65     1
SMALL
NO_CHARGES


@<TRIPOS>ATOM
      1 ****        -4.4086   5.4307   1.1937 C.3            1 S1                 0.0000
      2 ****        -3.8685   4.6325   0.0194 C.ar           1 S1                 0.0000
      3 ****        -4.0520   5.1308  -1.2865 C.ar           1 S1                 0.0000
      4 ****        -3.5633   4.4189  -2.3960 C.ar           1 S1                 0.0000
      5 ****        -2.8782   3.2024  -2.2115 C.ar           1 S1                 0.0000
      6 ****        -2.3609   2.4467  -3.4217 C.3            1 S1                 0.0000
      7 ****        -2.6766   2.7012  -0.9045 C.ar           1 S1                 0.0000
      8 ****        -2.0012   1.5211  -0.7278 O.3            1 S1                 0.0000
      9 ****        -0.6035   1.6901  -0.5402 C.3            1 S1                 0.0000
     10 ****         0.0081   0.3474  -0.1089 C.3            1 S1                 0.0000
     11 ****        -0.1924   0.2323   1.2861 O.3            1 S1                 0.0000
     12 ****         1.5283   0.2945  -0.3827 C.3            1 S1                 0.0000
     13 ****         2.0446  -1.0609  -0.4894 N.am           1 S1                 0.0000
     14 ****         1.9018  -1.7218  -1.7337 C.2            1 S1                 0.0000
     15 ****         1.3869  -1.1750  -2.7108 O.2            1 S1                 0.0000
     16 ****         2.3887  -3.0960  -1.7468 C.2            1 S1                 0.0000
     17 ****         2.2698  -3.8316  -2.8649 F              1 S1                 0.0000
     18 ****         2.9389  -3.6524  -0.6461 C.2            1 S1                 0.0000
     19 ****         3.0983  -2.9721   0.5528 N.am           1 S1                 0.0000
     20 ****         3.6374  -3.6380   1.8104 C.3            1 S1                 0.0000
     21 ****         4.4847  -4.8908   1.5504 C.3            1 S1                 0.0000
     22 ****         3.4909  -6.0334   1.7452 C.3            1 S1                 0.0000
     23 ****         2.1704  -5.3461   2.1083 C.3            1 S1                 0.0000
     24 ****         2.5588  -4.0634   2.5805 O.3            1 S1                 0.0000
     25 ****         2.6009  -1.6541   0.6684 C.2            1 S1                 0.0000
     26 ****         2.6478  -1.0545   1.7451 O.2            1 S1                 0.0000
     27 ****        -3.1871   3.4050   0.2151 C.ar           1 S1                 0.0000
     28 ****        -2.9954   2.8454   1.6186 C.3            1 S1                 0.0000
     29 ****        -4.7525   6.4165   0.8791 H              1 S1                 0.0000
     30 ****        -3.6371   5.5750   1.9505 H              1 S1                 0.0000
     31 ****        -5.2512   4.9112   1.6506 H              1 S1                 0.0000
     32 ****        -4.5728   6.0639  -1.4449 H              1 S1                 0.0000
     33 ****        -3.7151   4.8124  -3.3905 H              1 S1                 0.0000
     34 ****        -2.4737   1.3704  -3.2886 H              1 S1                 0.0000
     35 ****        -1.3049   2.6657  -3.5802 H              1 S1                 0.0000
     36 ****        -2.9062   2.7295  -4.3226 H              1 S1                 0.0000
     37 ****        -0.1773   2.0024  -1.4940 H              1 S1                 0.0000
     38 ****        -0.3767   2.4786   0.1804 H              1 S1                 0.0000
     39 ****        -0.5005  -0.4663  -0.6273 H              1 S1                 0.0000
     40 ****         0.1951  -0.5784   1.5793 H              1 S1                 0.0000
     41 ****         1.7787   0.7867  -1.3241 H              1 S1                 0.0000
     42 ****         2.1096   0.8402   0.3625 H              1 S1                 0.0000
     43 ****         3.2469  -4.6829  -0.7256 H              1 S1                 0.0000
     44 ****         4.2166  -2.8669   2.3211 H              1 S1                 0.0000
     45 ****         4.9854  -4.8698   0.5827 H              1 S1                 0.0000
     46 ****         5.2571  -4.9436   2.3187 H              1 S1                 0.0000
     47 ****         3.3879  -6.6503   0.8520 H              1 S1                 0.0000
     48 ****         3.8216  -6.6798   2.5589 H              1 S1                 0.0000
     49 ****         1.5328  -5.2380   1.2299 H              1 S1                 0.0000
     50 ****         1.6078  -5.8932   2.8649 H              1 S1                 0.0000
     51 ****        -2.7598   1.7815   1.6070 H              1 S1                 0.0000
     52 ****        -3.8996   2.9613   2.2158 H              1 S1                 0.0000
     53 ****        -2.1804   3.3660   2.1219 H              1 S1                 0.0000
     54 ****        -2.1452   0.9500  -1.5360 LP             1 S1                 0.0000
     55 ****        -2.3750   1.0600   0.0770 LP             1 S1                 0.0000
     56 ****        -1.1720   0.2298   1.4869 LP             1 S1                 0.0000
     57 ****         0.2418   1.0021   1.7538 LP             1 S1                 0.0000
     58 ****         1.0540  -0.2347  -2.6398 LP             1 S1                 0.0000
     59 ****         1.3020  -1.6716  -3.5746 LP             1 S1                 0.0000
     60 ****         1.7983  -3.4210   2.4859 LP             1 S1                 0.0000
     61 ****         2.8284  -4.1216   3.5417 LP             1 S1                 0.0000
     62 ****         2.2869  -0.1246   1.8157 LP             1 S1                 0.0000
     63 ****         3.0467  -1.4983   2.5476 LP             1 S1                 0.0000
@<TRIPOS>BOND
    1    1    2 1     
    2    1   29 1     
    3    1   30 1     
    4    1   31 1     
    5    2   27 ar    
    6    2    3 ar    
    7    3    4 ar    
    8    3   32 1     
    9    4    5 ar    
   10    4   33 1     
   11    5    6 1     
   12    5    7 ar    
   13    6   34 1     
   14    6   35 1     
   15    6   36 1     
   16    7    8 1     
   17    7   27 ar    
   18    8    9 1     
   19    9   10 1     
   20    9   37 1     
   21    9   38 1     
   22   10   11 1     
   23   10   12 1     
   24   10   39 1     
   25   11   40 1     
   26   12   13 1     
   27   12   41 1     
   28   12   42 1     
   29   13   25 am    
   30   13   14 am    
   31   14   15 2     
   32   14   16 1     
   33   16   17 1     
   34   16   18 2     
   35   18   19 1     
   36   18   43 1     
   37   19   20 1     
   38   19   25 am    
   39   20   24 1     
   40   20   21 1     
   41   20   44 1     
   42   21   22 1     
   43   21   45 1     
   44   21   46 1     
   45   22   23 1     
   46   22   47 1     
   47   22   48 1     
   48   23   24 1     
   49   23   49 1     
   50   23   50 1     
   51   25   26 2     
   52   27   28 1     
   53   28   51 1     
   54   28   52 1     
   55   28   53 1     
   56    8   54 1     
   57    8   55 1     
   58   11   56 1     
   59   11   57 1     
   60   15   58 1     
   61   15   59 1     
   62   24   60 1     
   63   24   61 1     
   64   26   62 1     
   65   26   63 1     
@<TRIPOS>SUBSTRUCTURE
      1 S1             1
@<TRIPOS>SET
LONE_PAIRS      STATIC     ATOMS    <user>   **** ""
10 54 55 56 57 58 59 60 61 62 63
DONOR_HYDROGENS      STATIC     ATOMS    <user>   **** ""
1 40
ATOM$BLUE        STATIC     ATOMS    COLORGROUP SYSTEM
10 54 55 56 57 58 59 60 61 62 63
ATOM$RED        STATIC     ATOMS    COLORGROUP SYSTEM
1 40
