AV-unprocessed.smi:3249|AV-procd|sdf|12424|dock8
  -GOLD-   2272018313D 1   1.00000     0.00000
 Structure written by MMmdl.
 44 45  0  0  0  0  0  0  0  0  2 V2000
  150.7831  135.9516  154.9460 C   0  0  0  0  0  0  0  0  0  0  0  0
  150.3051  137.3611  154.7474 C   0  0  0  0  0  0  0  0  0  0  0  0
  151.0826  138.5137  154.4414 C   0  0  0  0  0  0  0  0  0  0  0  0
  150.3523  139.6112  154.3313 N   0  0  0  0  0  0  0  0  0  0  0  0
  149.0847  139.2011  154.5596 N   0  0  0  0  0  0  0  0  0  0  0  0
  147.9862  140.1585  154.5251 C   0  0  1  0  0  0  0  0  0  0  0  0
  147.0022  139.8698  155.6751 C   0  0  0  0  0  0  0  0  0  0  0  0
  148.4906  141.6270  154.5151 C   0  0  1  0  0  0  0  0  0  0  0  0
  147.4418  142.6222  153.9862 C   0  0  0  0  0  0  0  0  0  0  0  0
  148.8979  142.0426  155.8762 N   0  3  0  0  0  0  0  0  0  0  0  0
  150.1874  141.4874  156.3364 C   0  0  0  0  0  0  0  0  0  0  0  0
  150.7031  142.2391  157.5712 C   0  0  1  0  0  0  0  0  0  0  0  0
  151.7501  141.4169  158.3474 C   0  0  0  0  0  0  0  0  0  0  0  0
  152.3115  142.2285  159.5205 C   0  0  0  0  0  0  0  0  0  0  0  0
  152.8257  143.5802  159.0139 C   0  0  0  0  0  0  0  0  0  0  0  0
  151.7366  144.2939  158.1976 C   0  0  0  0  0  0  0  0  0  0  0  0
  151.3021  143.4562  157.1301 O   0  0  0  0  0  0  0  0  0  0  0  0
  149.0299  137.8466  154.8157 C   0  0  0  0  0  0  0  0  0  0  0  0
  151.8647  135.9046  155.0754 H   0  0  0  0  0  0  0  0  0  0  0  0
  150.5336  135.3195  154.0939 H   0  0  0  0  0  0  0  0  0  0  0  0
  150.3350  135.4946  155.8286 H   0  0  0  0  0  0  0  0  0  0  0  0
  152.1506  138.5849  154.2974 H   0  0  0  0  0  0  0  0  0  0  0  0
  147.4535  139.9835  153.5890 H   0  0  0  0  0  0  0  0  0  0  0  0
  146.0974  140.4713  155.5894 H   0  0  0  0  0  0  0  0  0  0  0  0
  147.4497  140.0794  156.6472 H   0  0  0  0  0  0  0  0  0  0  0  0
  146.6933  138.8238  155.6713 H   0  0  0  0  0  0  0  0  0  0  0  0
  149.3541  141.6922  153.8506 H   0  0  0  0  0  0  0  0  0  0  0  0
  147.1826  142.4244  152.9460 H   0  0  0  0  0  0  0  0  0  0  0  0
  147.8168  143.6452  154.0307 H   0  0  0  0  0  0  0  0  0  0  0  0
  146.5232  142.5793  154.5724 H   0  0  0  0  0  0  0  0  0  0  0  0
  148.9723  143.0500  155.8909 H   0  0  0  0  0  0  0  0  0  0  0  0
  150.0497  140.4332  156.5798 H   0  0  0  0  0  0  0  0  0  0  0  0
  150.9181  141.5383  155.5279 H   0  0  0  0  0  0  0  0  0  0  0  0
  149.8611  142.4645  158.2285 H   0  0  0  0  0  0  0  0  0  0  0  0
  151.3089  140.4899  158.7151 H   0  0  0  0  0  0  0  0  0  0  0  0
  152.5643  141.1320  157.6794 H   0  0  0  0  0  0  0  0  0  0  0  0
  151.5302  142.3877  160.2647 H   0  0  0  0  0  0  0  0  0  0  0  0
  153.1114  141.6783  160.0167 H   0  0  0  0  0  0  0  0  0  0  0  0
  153.1402  144.2030  159.8518 H   0  0  0  0  0  0  0  0  0  0  0  0
  153.7070  143.4267  158.3897 H   0  0  0  0  0  0  0  0  0  0  0  0
  150.8894  144.5641  158.8300 H   0  0  0  0  0  0  0  0  0  0  0  0
  152.1293  145.2210  157.7799 H   0  0  0  0  0  0  0  0  0  0  0  0
  148.0970  137.3436  155.0236 H   0  0  0  0  0  0  0  0  0  0  0  0
  148.1744  141.7666  156.5244 H   0  0  0  0  0  0  0  0  0  0  0  0
  1  2  1  0  0  0  0
  1 19  1  0  0  0  0
  1 20  1  0  0  0  0
  1 21  1  0  0  0  0
  2 18  2  0  0  0  0
  2  3  1  0  0  0  0
  3  4  2  0  0  0  0
  3 22  1  0  0  0  0
  4  5  1  0  0  0  0
  5  6  1  0  0  0  0
  5 18  1  0  0  0  0
  6  7  1  0  0  0  0
  6  8  1  0  0  0  0
  6 23  1  0  0  0  0
  7 24  1  0  0  0  0
  7 25  1  0  0  0  0
  7 26  1  0  0  0  0
  8  9  1  0  0  0  0
  8 10  1  0  0  0  0
  8 27  1  0  0  0  0
  9 28  1  0  0  0  0
  9 29  1  0  0  0  0
  9 30  1  0  0  0  0
 10 11  1  0  0  0  0
 10 31  1  0  0  0  0
 10 44  1  0  0  0  0
 11 12  1  0  0  0  0
 11 32  1  0  0  0  0
 11 33  1  0  0  0  0
 12 17  1  0  0  0  0
 12 13  1  0  0  0  0
 12 34  1  0  0  0  0
 13 14  1  0  0  0  0
 13 35  1  0  0  0  0
 13 36  1  0  0  0  0
 14 15  1  0  0  0  0
 14 37  1  0  0  0  0
 14 38  1  0  0  0  0
 15 16  1  0  0  0  0
 15 39  1  0  0  0  0
 15 40  1  0  0  0  0
 16 17  1  0  0  0  0
 16 41  1  0  0  0  0
 16 42  1  0  0  0  0
 18 43  1  0  0  0  0
M  CHG  1  10   1
M  END
> <s_m_source_file>
AV-unprocessed.smi

> <i_m_source_file_index>
3249

> <i_lp_mmshare_version>
43012

> <i_f3d_flags>
0

> <s_epik_input>
W0NIM11jMVtjSF1ubihbY0hdMSlbQ0BIXShbQ0gzXSlbQ0BIXShbQ0gzXSlbTkhdW0NIMl1bQ0BASF0yW0NIMl1bQ0gyXVtDSDJdW0NIMl1PMg==

> <s_epik_cmdline>
J2VwaWtfcHl0aG9uJywgJy1waCcsICc3LjAnLCAnLXRuJywgJzgnLCAnLW1hJywgJzIwMCcsICctbWV0YWxfYmluZGluZycsICctaW1hZScsICc8aW5maWxlLm1hZT4nLCAnLW9tYWUnLCAnPG91dGZpbGUubWFlPic=

> <r_lp_tautomer_probability>
1

> <r_epik_Ionization_Penalty>
0.00659207

> <r_epik_Ionization_Penalty_Charging>
0.00656881

> <r_epik_Ionization_Penalty_Neutral>
2.32662e-05

> <r_epik_State_Penalty>
0.0048654

> <r_epik_Charging_Adjusted_Penalty>
0.0114342

> <i_epik_Tot_Q>
1

> <i_epik_Tot_abs_Q>
1

> <r_epik_Metal_State_Penalty>
-0

> <b_epik_Metal_Only>
0

> <s_lp_Force_Field>
OPLS_2005

> <r_lp_Energy>
18.7987

> <b_lp_Chiralities_Consistent>
1

> <s_lp_Variant>
AV-unprocessed.smi:3249-8

> <Gold.Version>
5.8.1

> <Gold.Id.Protein>
6NUR|6NUR_protein|mol2

> <Gold.PLP.Fitness>
42.5417

> <Gold.PLP.PLP>
-35.5677

> <Gold.PLP.part.hbond>
-2.0000

> <Gold.PLP.part.metal>
0.0000

> <Gold.PLP.part.buried>
-2.5722

> <Gold.PLP.part.nonpolar>
-32.2622

> <Gold.PLP.part.repulsive>
1.1176

> <Gold.PLP.ligand.clash>
0.0000

> <Gold.PLP.ligand.torsion>
1.0576

> <Gold.PLP.Chemscore.Hbond>
3.0000

> <Gold.PLP.Chemscore.CHOScore>
0.0000

> <Gold.PLP.Chemscore.Metal>
0.0000

> <Gold.Chemscore.Hbonds>
donor molecule, donor type, donor heavy atom, donor atom, acceptor molecule, acceptor atom, score
      L1  H    10    31       P1  8028  2.00
      P1  H  7989  7998       L1     4  1.00

> <Gold.PLP.Chemscore.Internal.Correction>
0.0893

> <Gold.Rescore>
     Score         DG    S(hbond)    S(metal)    S(lipo)     H(rot)  DE(clash)    DE(int)     intcor
     15.88     -18.53       1.53        0.00     101.35       1.53       0.11       2.54       ----

> <Gold.Chemscore.Fitness>
15.8782

> <Gold.Chemscore.DG>
-18.5314

> <Gold.Chemscore.ZeroCoef>
-5.4800

> <Gold.Chemscore.Hbond>
1.5324

> <Gold.Chemscore.Metal>
0.0000

> <Gold.Chemscore.Lipo>
101.3524

> <Gold.Chemscore.Internal_Hbond>
0.0000

> <Gold.Chemscore.DEClash>
0.1117

> <Gold.Chemscore.DEInternal>
2.5414

> <Gold.Chemscore.Rot>
1.5333

> <Gold.Chemscore.Internal.Correction>
   9.000000E+99

> <Gold.Chemscore.Hbonds>
donor molecule, donor type, donor heavy atom, donor atom, acceptor molecule, acceptor atom, score
      L1  H    10    31       P1  8028  1.00
      P1  H  7989  7998       L1     4  0.34

> <Gold.Chemscore.Hbond.Weighted>
-5.1183

> <Gold.Chemscore.Metal.Weighted>
-0.0000

> <Gold.Chemscore.Lipo.Weighted>
-11.8582

> <Gold.Chemscore.Internal_Hbond.Weighted>
0.0000

> <Gold.Chemscore.DEClash.Weighted>
0.1117

> <Gold.Chemscore.DEInternal.Weighted>
2.5414

> <Gold.Chemscore.Rot.Weighted>
3.9252

> <Gold.Chemscore.Internal.Correction.Weighted>
   9.000000E+99

> <Gold.Protein.RotatedTorsions>
[ 6907 6896 6895 6894 ] final  152.62 input  -60.11 | X-H torsion
[ 7974 7965 7964 7962 ] final   63.29 input  175.53 | X-H torsion
[ 8008 7997 7996 7995 ] final  -37.85 input   59.86 | X-H torsion
[ 10167 10162 10161 10158 ] final  172.80 input  -65.29 | X-H torsion
[ 10718 10713 10712 10709 ] final  -44.73 input   66.30 | X-H torsion
[ 10763 10752 10751 10750 ] final  146.66 input  -60.55 | X-H torsion
[ 11005 11000 10999 10996 ] final   39.02 input  -57.11 | X-H torsion

> <Gold.Protein.ActiveResidues>
 VAL166  LYS551  ARG553  GLY616  TRP617  ASP618  TYR619  PRO620  LYS621  CYS622 
 ASP623  PHE694  ASN695  SER759  ASP760  ASP761  ALA762  ILE779  LEU786  VAL792 
 PHE793  MET794  SER795  GLU796  ALA797  LYS798  CYS799  TRP800  GLU811  SER814 

> <Gold.Protein.RotatedAtoms>
  152.0842  133.4168  159.4514 H   0  0  0  0  0  0  0  0  0  0  0  0  # atno 6907 bound_to 6896
  150.6862  134.2946  159.4690 H   0  0  0  0  0  0  0  0  0  0  0  0  # atno 6908 bound_to 6896
  152.0791  134.9482  160.0624 H   0  0  0  0  0  0  0  0  0  0  0  0  # atno 6909 bound_to 6896
  145.8636  139.3331  143.0804 H   0  0  0  0  0  0  0  0  0  0  0  0  # atno 7974 bound_to 7965
  154.4046  140.1593  156.2604 H   0  0  0  0  0  0  0  0  0  0  0  0  # atno 8008 bound_to 7997
  155.9041  140.3431  155.6026 H   0  0  0  0  0  0  0  0  0  0  0  0  # atno 8009 bound_to 7997
  155.7413  140.0793  157.2235 H   0  0  0  0  0  0  0  0  0  0  0  0  # atno 8010 bound_to 7997
  139.5088  144.3333  152.0090 H   0  0  0  0  0  0  0  0  0  0  0  0  # atno 10167 bound_to 10162
  156.2356  130.4176  149.8822 H   0  0  0  0  0  0  0  0  0  0  0  0  # atno 10718 bound_to 10713
  154.0256  135.2902  155.3375 H   0  0  0  0  0  0  0  0  0  0  0  0  # atno 10763 bound_to 10752
  154.7019  135.5185  153.8543 H   0  0  0  0  0  0  0  0  0  0  0  0  # atno 10764 bound_to 10752
  153.0662  135.6632  154.0474 H   0  0  0  0  0  0  0  0  0  0  0  0  # atno 10765 bound_to 10752
  140.2069  134.3802  155.8068 H   0  0  0  0  0  0  0  0  0  0  0  0  # atno 11005 bound_to 11000
  145.9219  140.9109  143.0400 LP  0  0  0  0  0  0  0  0  0  0  0  0  # atno 17320 bound_to 7965
  144.6726  140.1301  143.7444 LP  0  0  0  0  0  0  0  0  0  0  0  0  # atno 17321 bound_to 7965
  140.2772  144.3899  150.6131 LP  0  0  0  0  0  0  0  0  0  0  0  0  # atno 17342 bound_to 10162
  140.6045  143.2167  151.7008 LP  0  0  0  0  0  0  0  0  0  0  0  0  # atno 17343 bound_to 10162
  156.6421  130.8709  151.3516 LP  0  0  0  0  0  0  0  0  0  0  0  0  # atno 17370 bound_to 10713
  157.7153  130.9489  150.1232 LP  0  0  0  0  0  0  0  0  0  0  0  0  # atno 17371 bound_to 10713
  141.2227  133.7123  156.8352 LP  0  0  0  0  0  0  0  0  0  0  0  0  # atno 17394 bound_to 11000
  140.1993  134.8909  157.3150 LP  0  0  0  0  0  0  0  0  0  0  0  0  # atno 17395 bound_to 11000

$$$$
