AV-unprocessed.smi:908|AV-procd|sdf|4114|dock3
  -GOLD-   22720 2 13D 1   1.00000     0.00000
 Structure written by MMmdl.
 38 38  0  0  0  0  0  0  0  0  1 V2000
  147.0376  138.9227  151.8244 C   0  0  0  0  0  0  0  0  0  0  0  0
  147.2663  140.1240  152.7476 C   0  0  0  0  0  0  0  0  0  0  0  0
  147.8216  139.7124  154.1207 C   0  0  0  0  0  0  0  0  0  0  0  0
  147.8008  140.8265  155.0613 N   0  0  0  0  0  0  0  0  0  0  0  0
  147.3572  140.7605  156.3257 C   0  0  0  0  0  0  0  0  0  0  0  0
  146.8905  139.7354  156.8251 O   0  0  0  0  0  0  0  0  0  0  0  0
  147.4375  142.0593  157.1366 C   0  0  0  0  0  0  0  0  0  0  0  0
  148.7853  142.6201  157.1676 N   0  0  0  0  0  0  0  0  0  0  0  0
  149.9066  141.9287  157.4315 C   0  0  0  0  0  0  0  0  0  0  0  0
  149.9136  140.7211  157.6684 O   0  0  0  0  0  0  0  0  0  0  0  0
  151.2197  142.7175  157.4529 C   0  0  0  0  0  0  0  0  0  0  0  0
  151.8353  142.7233  158.7727 N   0  0  0  0  0  0  0  0  0  0  0  0
  152.7933  141.8027  159.0529 N   0  0  0  0  0  0  0  0  0  0  0  0
  153.1672  142.0499  160.2990 C   0  0  0  0  0  0  0  0  0  0  0  0
  154.2327  141.2120  160.9439 C   0  0  0  0  0  0  0  0  0  0  0  0
  152.4383  143.1462  160.8286 C   0  0  0  0  0  0  0  0  0  0  0  0
  152.5978  143.8199  162.4101 Cl  0  0  0  0  0  0  0  0  0  0  0  0
  151.5899  143.5655  159.8469 C   0  0  0  0  0  0  0  0  0  0  0  0
  150.5827  144.6697  159.8163 C   0  0  0  0  0  0  0  0  0  0  0  0
  146.6410  139.2434  150.8609 H   0  0  0  0  0  0  0  0  0  0  0  0
  146.3266  138.2204  152.2602 H   0  0  0  0  0  0  0  0  0  0  0  0
  147.9688  138.3865  151.6389 H   0  0  0  0  0  0  0  0  0  0  0  0
  147.9529  140.8194  152.2629 H   0  0  0  0  0  0  0  0  0  0  0  0
  146.3256  140.6605  152.8785 H   0  0  0  0  0  0  0  0  0  0  0  0
  147.2172  138.9070  154.5388 H   0  0  0  0  0  0  0  0  0  0  0  0
  148.8357  139.3209  154.0228 H   0  0  0  0  0  0  0  0  0  0  0  0
  148.1622  141.7095  154.7304 H   0  0  0  0  0  0  0  0  0  0  0  0
  146.7330  142.7950  156.7441 H   0  0  0  0  0  0  0  0  0  0  0  0
  147.1310  141.8477  158.1611 H   0  0  0  0  0  0  0  0  0  0  0  0
  148.8694  143.6107  156.9923 H   0  0  0  0  0  0  0  0  0  0  0  0
  151.9129  142.2892  156.7287 H   0  0  0  0  0  0  0  0  0  0  0  0
  151.0390  143.7482  157.1434 H   0  0  0  0  0  0  0  0  0  0  0  0
  154.1936  141.2901  162.0302 H   0  0  0  0  0  0  0  0  0  0  0  0
  155.2251  141.5294  160.6237 H   0  0  0  0  0  0  0  0  0  0  0  0
  154.1191  140.1588  160.6855 H   0  0  0  0  0  0  0  0  0  0  0  0
  150.5597  145.2074  160.7641 H   0  0  0  0  0  0  0  0  0  0  0  0
  149.5824  144.2776  159.6321 H   0  0  0  0  0  0  0  0  0  0  0  0
  150.8162  145.3887  159.0314 H   0  0  0  0  0  0  0  0  0  0  0  0
  1  2  1  0  0  0  0
  1 20  1  0  0  0  0
  1 21  1  0  0  0  0
  1 22  1  0  0  0  0
  2  3  1  0  0  0  0
  2 23  1  0  0  0  0
  2 24  1  0  0  0  0
  3  4  1  0  0  0  0
  3 25  1  0  0  0  0
  3 26  1  0  0  0  0
  4  5  1  0  0  0  0
  4 27  1  0  0  0  0
  5  6  2  0  0  0  0
  5  7  1  0  0  0  0
  7  8  1  0  0  0  0
  7 28  1  0  0  0  0
  7 29  1  0  0  0  0
  8  9  1  0  0  0  0
  8 30  1  0  0  0  0
  9 10  2  0  0  0  0
  9 11  1  0  0  0  0
 11 12  1  0  0  0  0
 11 31  1  0  0  0  0
 11 32  1  0  0  0  0
 12 18  1  0  0  0  0
 12 13  1  0  0  0  0
 13 14  2  0  0  0  0
 14 15  1  0  0  0  0
 14 16  1  0  0  0  0
 15 33  1  0  0  0  0
 15 34  1  0  0  0  0
 15 35  1  0  0  0  0
 16 17  1  0  0  0  0
 16 18  2  0  0  0  0
 18 19  1  0  0  0  0
 19 36  1  0  0  0  0
 19 37  1  0  0  0  0
 19 38  1  0  0  0  0
M  END
> <s_m_source_file>
AV-unprocessed.smi

> <i_m_source_file_index>
908

> <i_lp_mmshare_version>
43012

> <i_f3d_flags>
0

> <s_epik_input>
W0NIM11bQ0gyXVtDSDJdW05IXUMoPU8pW0NIMl1bTkhdQyg9TylbQ0gyXW4xbmMoW0NIM10pYyhDbCljMVtDSDNd

> <s_epik_cmdline>
J2VwaWtfcHl0aG9uJywgJy1waCcsICc3LjAnLCAnLXRuJywgJzgnLCAnLW1hJywgJzIwMCcsICctbWV0YWxfYmluZGluZycsICctaW1hZScsICc8aW5maWxlLm1hZT4nLCAnLW9tYWUnLCAnPG91dGZpbGUubWFlPic=

> <r_lp_tautomer_probability>
1

> <r_epik_Ionization_Penalty>
3.40177e-06

> <r_epik_Ionization_Penalty_Charging>
0

> <r_epik_Ionization_Penalty_Neutral>
3.40177e-06

> <r_epik_State_Penalty>
-0

> <r_epik_Charging_Adjusted_Penalty>
0

> <i_epik_Tot_Q>
0

> <i_epik_Tot_abs_Q>
0

> <r_epik_Metal_State_Penalty>
-0

> <b_epik_Metal_Only>
0

> <s_lp_Force_Field>
OPLS_2005

> <r_lp_Energy>
0.427377

> <b_lp_Chiralities_Consistent>
1

> <s_lp_Variant>
AV-unprocessed.smi:908-1

> <Gold.Version>
5.8.1

> <Gold.Id.Protein>
6NUR|6NUR_protein|mol2

> <Gold.PLP.Fitness>
38.4983

> <Gold.PLP.PLP>
-37.0896

> <Gold.PLP.part.hbond>
-1.0000

> <Gold.PLP.part.metal>
0.0000

> <Gold.PLP.part.buried>
-2.0417

> <Gold.PLP.part.nonpolar>
-32.9019

> <Gold.PLP.part.repulsive>
0.0629

> <Gold.PLP.ligand.clash>
0.0000

> <Gold.PLP.ligand.torsion>
0.5711

> <Gold.PLP.Chemscore.Hbond>
0.8160

> <Gold.PLP.Chemscore.CHOScore>
0.0000

> <Gold.PLP.Chemscore.Metal>
0.0000

> <Gold.Chemscore.Hbonds>
donor molecule, donor type, donor heavy atom, donor atom, acceptor molecule, acceptor atom, score
      L1  H     8    30       P1  8028  0.82

> <Gold.PLP.Chemscore.Internal.Correction>
0.1029

> <Gold.Rescore>
     Score         DG    S(hbond)    S(metal)    S(lipo)     H(rot)  DE(clash)    DE(int)     intcor
     11.39     -13.29       0.51        0.00      98.80       2.13       0.15       1.74       ----

> <Gold.Chemscore.Fitness>
11.3945

> <Gold.Chemscore.DG>
-13.2881

> <Gold.Chemscore.ZeroCoef>
-5.4800

> <Gold.Chemscore.Hbond>
0.5091

> <Gold.Chemscore.Metal>
0.0000

> <Gold.Chemscore.Lipo>
98.8005

> <Gold.Chemscore.Internal_Hbond>
0.0000

> <Gold.Chemscore.DEClash>
0.1497

> <Gold.Chemscore.DEInternal>
1.7438

> <Gold.Chemscore.Rot>
2.1297

> <Gold.Chemscore.Internal.Correction>
   9.000000E+99

> <Gold.Chemscore.Hbonds>
donor molecule, donor type, donor heavy atom, donor atom, acceptor molecule, acceptor atom, score
      L1  H     8    30       P1  8028  0.32

> <Gold.Chemscore.Hbond.Weighted>
-1.7004

> <Gold.Chemscore.Metal.Weighted>
-0.0000

> <Gold.Chemscore.Lipo.Weighted>
-11.5597

> <Gold.Chemscore.Internal_Hbond.Weighted>
0.0000

> <Gold.Chemscore.DEClash.Weighted>
0.1497

> <Gold.Chemscore.DEInternal.Weighted>
1.7438

> <Gold.Chemscore.Rot.Weighted>
5.4520

> <Gold.Chemscore.Internal.Correction.Weighted>
   9.000000E+99

> <Gold.Protein.RotatedTorsions>
[ 6907 6896 6895 6894 ] final  168.57 input  -60.11 | X-H torsion
[ 7974 7965 7964 7962 ] final   26.89 input  175.53 | X-H torsion
[ 8008 7997 7996 7995 ] final -143.41 input   59.86 | X-H torsion
[ 10167 10162 10161 10158 ] final -145.39 input  -65.29 | X-H torsion
[ 10718 10713 10712 10709 ] final   67.47 input   66.30 | X-H torsion
[ 10763 10752 10751 10750 ] final   75.31 input  -60.55 | X-H torsion
[ 11005 11000 10999 10996 ] final  -13.49 input  -57.11 | X-H torsion

> <Gold.Protein.ActiveResidues>
 VAL166  LYS551  ARG553  GLY616  TRP617  ASP618  TYR619  PRO620  LYS621  CYS622 
 ASP623  PHE694  ASN695  SER759  ASP760  ASP761  ALA762  ILE779  LEU786  VAL792 
 PHE793  MET794  SER795  GLU796  ALA797  LYS798  CYS799  TRP800  GLU811  SER814 

> <Gold.Protein.RotatedAtoms>
  151.8456  133.3431  159.3656 H   0  0  0  0  0  0  0  0  0  0  0  0  # atno 6907 bound_to 6896
  150.7222  134.5349  159.5728 H   0  0  0  0  0  0  0  0  0  0  0  0  # atno 6908 bound_to 6896
  152.2832  134.7806  160.0443 H   0  0  0  0  0  0  0  0  0  0  0  0  # atno 6909 bound_to 6896
  146.1813  139.7266  142.8898 H   0  0  0  0  0  0  0  0  0  0  0  0  # atno 7974 bound_to 7965
  155.5102  140.0583  157.2925 H   0  0  0  0  0  0  0  0  0  0  0  0  # atno 8008 bound_to 7997
  154.4555  140.1970  156.0342 H   0  0  0  0  0  0  0  0  0  0  0  0  # atno 8009 bound_to 7997
  156.0789  140.3250  155.7673 H   0  0  0  0  0  0  0  0  0  0  0  0  # atno 8010 bound_to 7997
  139.7810  143.8100  152.2638 H   0  0  0  0  0  0  0  0  0  0  0  0  # atno 10167 bound_to 10162
  157.6232  130.9322  150.0246 H   0  0  0  0  0  0  0  0  0  0  0  0  # atno 10718 bound_to 10713
  153.0646  135.4993  154.8171 H   0  0  0  0  0  0  0  0  0  0  0  0  # atno 10763 bound_to 10752
  154.6934  135.2988  154.9449 H   0  0  0  0  0  0  0  0  0  0  0  0  # atno 10764 bound_to 10752
  154.0196  135.6744  153.4824 H   0  0  0  0  0  0  0  0  0  0  0  0  # atno 10765 bound_to 10752
  140.7766  133.8396  155.9254 H   0  0  0  0  0  0  0  0  0  0  0  0  # atno 11005 bound_to 11000
  145.4067  141.0391  143.3040 LP  0  0  0  0  0  0  0  0  0  0  0  0  # atno 17320 bound_to 7965
  144.8321  139.5612  143.6939 LP  0  0  0  0  0  0  0  0  0  0  0  0  # atno 17321 bound_to 7965
  139.8163  144.7315  150.9631 LP  0  0  0  0  0  0  0  0  0  0  0  0  # atno 17342 bound_to 10162
  140.7818  143.4202  151.0854 LP  0  0  0  0  0  0  0  0  0  0  0  0  # atno 17343 bound_to 10162
  156.1389  130.3642  149.9614 LP  0  0  0  0  0  0  0  0  0  0  0  0  # atno 17370 bound_to 10713
  156.7659  130.9168  151.3643 LP  0  0  0  0  0  0  0  0  0  0  0  0  # atno 17371 bound_to 10713
  140.9523  134.1763  157.4718 LP  0  0  0  0  0  0  0  0  0  0  0  0  # atno 17394 bound_to 11000
  139.8748  134.9913  156.5545 LP  0  0  0  0  0  0  0  0  0  0  0  0  # atno 17395 bound_to 11000

$$$$
