AV-unprocessed.smi:2844|AV-procd|sdf|10940|dock9
  -GOLD-   2272015383D 1   1.00000     0.00000
 Structure written by MMmdl.
 38 40  0  0  0  0  0  0  0  0  1 V2000
  153.7709  142.6359  163.4560 C   0  0  0  0  0  0  0  0  0  0  0  0
  153.1573  142.7409  162.0709 C   0  0  0  0  0  0  0  0  0  0  0  0
  152.2768  143.8095  161.7892 C   0  0  0  0  0  0  0  0  0  0  0  0
  151.6866  143.9444  160.5135 C   0  0  0  0  0  0  0  0  0  0  0  0
  150.8117  144.8993  160.0242 N   0  0  0  0  0  0  0  0  0  0  0  0
  150.6307  144.4814  158.7748 C   0  0  0  0  0  0  0  0  0  0  0  0
  151.2850  143.3664  158.3965 N   0  0  0  0  0  0  0  0  0  0  0  0
  151.2456  142.7233  157.0955 C   0  0  0  0  0  0  0  0  0  0  0  0
  149.9956  141.8418  156.9120 C   0  0  1  0  0  0  0  0  0  0  0  0
  148.8428  142.5581  157.3167 O   0  0  0  0  0  0  0  0  0  0  0  0
  149.8333  141.3713  155.4537 C   0  0  0  0  0  0  0  0  0  0  0  0
  150.4306  140.0695  155.2133 N   0  0  0  0  0  0  0  0  0  0  0  0
  149.8412  138.8251  155.3276 C   0  0  0  0  0  0  0  0  0  0  0  0
  150.8130  137.9320  154.9941 C   0  0  0  0  0  0  0  0  0  0  0  0
  150.6666  136.2139  154.9556 Cl  0  0  0  0  0  0  0  0  0  0  0  0
  151.9682  138.6937  154.6840 C   0  0  0  0  0  0  0  0  0  0  0  0
  151.7265  139.9900  154.8158 N   0  0  0  0  0  0  0  0  0  0  0  0
  152.0026  142.9721  159.5201 C   0  0  0  0  0  0  0  0  0  0  0  0
  152.8757  141.9031  159.7887 C   0  0  0  0  0  0  0  0  0  0  0  0
  153.4584  141.7844  161.0680 C   0  0  0  0  0  0  0  0  0  0  0  0
  154.4027  140.6288  161.3482 C   0  0  0  0  0  0  0  0  0  0  0  0
  153.4612  143.4652  164.0926 H   0  0  0  0  0  0  0  0  0  0  0  0
  154.8592  142.6508  163.3948 H   0  0  0  0  0  0  0  0  0  0  0  0
  153.4628  141.7091  163.9403 H   0  0  0  0  0  0  0  0  0  0  0  0
  152.0467  144.5377  162.5530 H   0  0  0  0  0  0  0  0  0  0  0  0
  149.9829  145.0152  158.0948 H   0  0  0  0  0  0  0  0  0  0  0  0
  151.2902  143.4925  156.3231 H   0  0  0  0  0  0  0  0  0  0  0  0
  152.1489  142.1217  156.9880 H   0  0  0  0  0  0  0  0  0  0  0  0
  150.0837  140.9670  157.5577 H   0  0  0  0  0  0  0  0  0  0  0  0
  148.6132  143.1708  156.6353 H   0  0  0  0  0  0  0  0  0  0  0  0
  148.7769  141.3225  155.1856 H   0  0  0  0  0  0  0  0  0  0  0  0
  150.2941  142.0888  154.7731 H   0  0  0  0  0  0  0  0  0  0  0  0
  148.8133  138.6893  155.6292 H   0  0  0  0  0  0  0  0  0  0  0  0
  152.9475  138.3595  154.3744 H   0  0  0  0  0  0  0  0  0  0  0  0
  153.0947  141.1814  159.0155 H   0  0  0  0  0  0  0  0  0  0  0  0
  154.5125  139.9839  160.4759 H   0  0  0  0  0  0  0  0  0  0  0  0
  154.0277  140.0186  162.1701 H   0  0  0  0  0  0  0  0  0  0  0  0
  155.3919  141.0010  161.6156 H   0  0  0  0  0  0  0  0  0  0  0  0
  1  2  1  0  0  0  0
  1 22  1  0  0  0  0
  1 23  1  0  0  0  0
  1 24  1  0  0  0  0
  2 20  1  0  0  0  0
  2  3  2  0  0  0  0
  3  4  1  0  0  0  0
  3 25  1  0  0  0  0
  4 18  2  0  0  0  0
  4  5  1  0  0  0  0
  5  6  2  0  0  0  0
  6  7  1  0  0  0  0
  6 26  1  0  0  0  0
  7  8  1  0  0  0  0
  7 18  1  0  0  0  0
  8  9  1  0  0  0  0
  8 27  1  0  0  0  0
  8 28  1  0  0  0  0
  9 10  1  0  0  0  0
  9 11  1  0  0  0  0
  9 29  1  0  0  0  0
 10 30  1  0  0  0  0
 11 12  1  0  0  0  0
 11 31  1  0  0  0  0
 11 32  1  0  0  0  0
 12 17  1  0  0  0  0
 12 13  1  0  0  0  0
 13 14  2  0  0  0  0
 13 33  1  0  0  0  0
 14 15  1  0  0  0  0
 14 16  1  0  0  0  0
 16 17  2  0  0  0  0
 16 34  1  0  0  0  0
 18 19  1  0  0  0  0
 19 20  2  0  0  0  0
 19 35  1  0  0  0  0
 20 21  1  0  0  0  0
 21 36  1  0  0  0  0
 21 37  1  0  0  0  0
 21 38  1  0  0  0  0
M  END
> <s_m_source_file>
AV-unprocessed.smi

> <i_m_source_file_index>
2844

> <i_lp_mmshare_version>
43012

> <i_f3d_flags>
0

> <s_epik_input>
W0NIM11jKFtjSF0xKWMoW0NIM10pW2NIXWMoYzEyKW4oW2NIXW4yKVtDSDJdW0NASF0oW09IXSlbQ0gyXW4zW2NIXWMoQ2wpW2NIXW4z

> <s_epik_cmdline>
J2VwaWtfcHl0aG9uJywgJy1waCcsICc3LjAnLCAnLXRuJywgJzgnLCAnLW1hJywgJzIwMCcsICctbWV0YWxfYmluZGluZycsICctaW1hZScsICc8aW5maWxlLm1hZT4nLCAnLW9tYWUnLCAnPG91dGZpbGUubWFlPic=

> <r_lp_tautomer_probability>
1

> <r_epik_Ionization_Penalty>
0.1021

> <r_epik_Ionization_Penalty_Charging>
0

> <r_epik_Ionization_Penalty_Neutral>
0.1021

> <r_epik_State_Penalty>
0.0920694

> <r_epik_Charging_Adjusted_Penalty>
0.0920694

> <i_epik_Tot_Q>
0

> <i_epik_Tot_abs_Q>
0

> <r_epik_Metal_State_Penalty>
0.0784292

> <b_epik_Metal_Only>
0

> <s_lp_Force_Field>
OPLS_2005

> <r_lp_Energy>
10.226

> <b_lp_Chiralities_Consistent>
1

> <s_lp_Variant>
AV-unprocessed.smi:2844-2

> <Gold.Version>
5.8.1

> <Gold.Id.Protein>
6NUR|6NUR_protein|mol2

> <Gold.PLP.Fitness>
60.6530

> <Gold.PLP.PLP>
-53.9819

> <Gold.PLP.part.hbond>
-1.9968

> <Gold.PLP.part.metal>
0.0000

> <Gold.PLP.part.buried>
-7.4650

> <Gold.PLP.part.nonpolar>
-46.8482

> <Gold.PLP.part.repulsive>
0.2163

> <Gold.PLP.ligand.clash>
0.0000

> <Gold.PLP.ligand.torsion>
1.1987

> <Gold.PLP.Chemscore.Hbond>
2.0000

> <Gold.PLP.Chemscore.CHOScore>
1.0198

> <Gold.PLP.Chemscore.Metal>
0.0000

> <Gold.Chemscore.Hbonds>
donor molecule, donor type, donor heavy atom, donor atom, acceptor molecule, acceptor atom, score
      L1  H    10    30       P1  8028  1.00
      P1  H  7989  7998       L1    17  1.00
      L1  C     6    26       P1  8028  0.21
      L1  C     6    26       P1  8029  0.81

> <Gold.PLP.Chemscore.Internal.Correction>
0.0092

> <Gold.Rescore>
     Score         DG    S(hbond)    S(metal)    S(lipo)     H(rot)  DE(clash)    DE(int)     intcor
     20.37     -21.17       1.75        0.00     131.35       2.15       0.01       0.79       ----

> <Gold.Chemscore.Fitness>
20.3682

> <Gold.Chemscore.DG>
-21.1663

> <Gold.Chemscore.ZeroCoef>
-5.4800

> <Gold.Chemscore.Hbond>
1.7460

> <Gold.Chemscore.Metal>
0.0000

> <Gold.Chemscore.Lipo>
131.3453

> <Gold.Chemscore.Internal_Hbond>
0.0000

> <Gold.Chemscore.DEClash>
0.0059

> <Gold.Chemscore.DEInternal>
0.7922

> <Gold.Chemscore.Rot>
2.1534

> <Gold.Chemscore.Internal.Correction>
   9.000000E+99

> <Gold.Chemscore.Hbonds>
donor molecule, donor type, donor heavy atom, donor atom, acceptor molecule, acceptor atom, score
      L1  H    10    30       P1  8028  0.72
      P1  H  7989  7998       L1    17  0.23

> <Gold.Chemscore.Hbond.Weighted>
-5.8316

> <Gold.Chemscore.Metal.Weighted>
-0.0000

> <Gold.Chemscore.Lipo.Weighted>
-15.3674

> <Gold.Chemscore.Internal_Hbond.Weighted>
0.0000

> <Gold.Chemscore.DEClash.Weighted>
0.0059

> <Gold.Chemscore.DEInternal.Weighted>
0.7922

> <Gold.Chemscore.Rot.Weighted>
5.5127

> <Gold.Chemscore.Internal.Correction.Weighted>
   9.000000E+99

> <Gold.Protein.RotatedTorsions>
[ 6907 6896 6895 6894 ] final  157.36 input  -60.11 | X-H torsion
[ 7974 7965 7964 7962 ] final -145.25 input  175.53 | X-H torsion
[ 8008 7997 7996 7995 ] final  148.67 input   59.86 | X-H torsion
[ 10167 10162 10161 10158 ] final  162.53 input  -65.29 | X-H torsion
[ 10718 10713 10712 10709 ] final  -66.89 input   66.30 | X-H torsion
[ 10763 10752 10751 10750 ] final   56.96 input  -60.55 | X-H torsion
[ 11005 11000 10999 10996 ] final   92.65 input  -57.11 | X-H torsion

> <Gold.Protein.ActiveResidues>
 VAL166  LYS551  ARG553  GLY616  TRP617  ASP618  TYR619  PRO620  LYS621  CYS622 
 ASP623  PHE694  ASN695  SER759  ASP760  ASP761  ALA762  ILE779  LEU786  VAL792 
 PHE793  MET794  SER795  GLU796  ALA797  LYS798  CYS799  TRP800  GLU811  SER814 

> <Gold.Protein.RotatedAtoms>
  152.0162  133.3880  159.4239 H   0  0  0  0  0  0  0  0  0  0  0  0  # atno 6907 bound_to 6896
  150.6894  134.3676  159.4987 H   0  0  0  0  0  0  0  0  0  0  0  0  # atno 6908 bound_to 6896
  152.1444  134.9037  160.0602 H   0  0  0  0  0  0  0  0  0  0  0  0  # atno 6909 bound_to 6896
  144.8240  140.5607  143.5559 H   0  0  0  0  0  0  0  0  0  0  0  0  # atno 7974 bound_to 7965
  156.2783  140.2122  156.5735 H   0  0  0  0  0  0  0  0  0  0  0  0  # atno 8008 bound_to 7997
  154.7116  140.0511  157.0579 H   0  0  0  0  0  0  0  0  0  0  0  0  # atno 8009 bound_to 7997
  155.0597  140.3165  155.4667 H   0  0  0  0  0  0  0  0  0  0  0  0  # atno 8010 bound_to 7997
  139.4862  144.4428  151.8930 H   0  0  0  0  0  0  0  0  0  0  0  0  # atno 10167 bound_to 10162
  156.0587  130.4269  150.1775 H   0  0  0  0  0  0  0  0  0  0  0  0  # atno 10718 bound_to 10713
  152.9841  135.5658  154.5313 H   0  0  0  0  0  0  0  0  0  0  0  0  # atno 10763 bound_to 10752
  154.4784  135.2787  155.1592 H   0  0  0  0  0  0  0  0  0  0  0  0  # atno 10764 bound_to 10752
  154.3111  135.6288  153.5519 H   0  0  0  0  0  0  0  0  0  0  0  0  # atno 10765 bound_to 10752
  139.8820  134.8745  156.3603 H   0  0  0  0  0  0  0  0  0  0  0  0  # atno 11005 bound_to 11000
  145.5041  139.1482  143.3641 LP  0  0  0  0  0  0  0  0  0  0  0  0  # atno 17320 bound_to 7965
  146.2546  140.5181  142.8879 LP  0  0  0  0  0  0  0  0  0  0  0  0  # atno 17321 bound_to 7965
  140.3881  144.2651  150.5902 LP  0  0  0  0  0  0  0  0  0  0  0  0  # atno 17342 bound_to 10162
  140.5171  143.2275  151.8446 LP  0  0  0  0  0  0  0  0  0  0  0  0  # atno 17343 bound_to 10162
  156.9847  130.9875  151.3429 LP  0  0  0  0  0  0  0  0  0  0  0  0  # atno 17370 bound_to 10713
  157.5578  130.8225  149.8227 LP  0  0  0  0  0  0  0  0  0  0  0  0  # atno 17371 bound_to 10713
  140.9534  133.7436  156.0302 LP  0  0  0  0  0  0  0  0  0  0  0  0  # atno 17394 bound_to 11000
  140.8078  134.3434  157.5421 LP  0  0  0  0  0  0  0  0  0  0  0  0  # atno 17395 bound_to 11000

$$$$
