AV-unprocessed.smi:628|AV-procd|sdf|3114|dock1
  -GOLD-   22720 0 33D 1   1.00000     0.00000
 Structure written by MMmdl.
 31 32  0  0  0  0  0  0  0  0  2 V2000
  150.6947  141.7590  158.6163 O   0  0  0  0  0  0  0  0  0  0  0  0
  150.3106  142.3290  157.5936 C   0  0  0  0  0  0  0  0  0  0  0  0
  149.3170  141.6633  156.6330 C   0  0  0  0  0  0  0  0  0  0  0  0
  149.9168  140.6053  155.8368 N   0  0  0  0  0  0  0  0  0  0  0  0
  151.2404  140.2074  155.8072 C   0  0  0  0  0  0  0  0  0  0  0  0
  151.2886  139.1866  154.9069 C   0  0  0  0  0  0  0  0  0  0  0  0
  152.4992  138.4038  154.5079 C   0  0  0  0  0  0  0  0  0  0  0  0
  153.6262  138.9093  154.7039 O   0  0  0  0  0  0  0  0  0  0  0  0
  152.3358  137.2756  153.9928 O   0  5  0  0  0  0  0  0  0  0  0  0
  149.9667  139.0110  154.4218 C   0  0  0  0  0  0  0  0  0  0  0  0
  149.1394  139.8750  154.9942 N   0  0  0  0  0  0  0  0  0  0  0  0
  150.7181  143.5589  157.2454 N   0  0  0  0  0  0  0  0  0  0  0  0
  151.6605  144.3786  158.0027 C   0  0  0  0  0  0  0  0  0  0  0  0
  152.8061  143.5311  158.5926 C   0  0  0  0  0  0  0  0  0  0  0  0
  152.5511  143.4681  160.0984 C   0  0  0  0  0  0  0  0  0  0  0  0
  151.8608  144.7909  160.4141 C   0  0  0  0  0  0  0  0  0  0  0  0
  150.9626  145.0480  159.2027 C   0  0  0  0  0  0  0  0  0  0  0  0
  148.4921  141.2386  157.2066 H   0  0  0  0  0  0  0  0  0  0  0  0
  148.8917  142.4150  155.9662 H   0  0  0  0  0  0  0  0  0  0  0  0
  152.0069  140.6719  156.4098 H   0  0  0  0  0  0  0  0  0  0  0  0
  149.5885  138.3053  153.6969 H   0  0  0  0  0  0  0  0  0  0  0  0
  150.3530  143.9547  156.3912 H   0  0  0  0  0  0  0  0  0  0  0  0
  152.0774  145.1484  157.3501 H   0  0  0  0  0  0  0  0  0  0  0  0
  152.8873  142.5372  158.1507 H   0  0  0  0  0  0  0  0  0  0  0  0
  153.7547  144.0381  158.4108 H   0  0  0  0  0  0  0  0  0  0  0  0
  151.8785  142.6395  160.3236 H   0  0  0  0  0  0  0  0  0  0  0  0
  153.4656  143.3222  160.6739 H   0  0  0  0  0  0  0  0  0  0  0  0
  151.3042  144.7618  161.3512 H   0  0  0  0  0  0  0  0  0  0  0  0
  152.6065  145.5829  160.4942 H   0  0  0  0  0  0  0  0  0  0  0  0
  150.7949  146.1130  159.0393 H   0  0  0  0  0  0  0  0  0  0  0  0
  149.9867  144.5941  159.3840 H   0  0  0  0  0  0  0  0  0  0  0  0
  1  2  2  0  0  0  0
  2  3  1  0  0  0  0
  2 12  1  0  0  0  0
  3  4  1  0  0  0  0
  3 18  1  0  0  0  0
  3 19  1  0  0  0  0
  4 11  1  0  0  0  0
  4  5  1  0  0  0  0
  5  6  2  0  0  0  0
  5 20  1  0  0  0  0
  6  7  1  0  0  0  0
  6 10  1  0  0  0  0
  7  8  2  0  0  0  0
  7  9  1  0  0  0  0
 10 11  2  0  0  0  0
 10 21  1  0  0  0  0
 12 13  1  0  0  0  0
 12 22  1  0  0  0  0
 13 17  1  0  0  0  0
 13 14  1  0  0  0  0
 13 23  1  0  0  0  0
 14 15  1  0  0  0  0
 14 24  1  0  0  0  0
 14 25  1  0  0  0  0
 15 16  1  0  0  0  0
 15 26  1  0  0  0  0
 15 27  1  0  0  0  0
 16 17  1  0  0  0  0
 16 28  1  0  0  0  0
 16 29  1  0  0  0  0
 17 30  1  0  0  0  0
 17 31  1  0  0  0  0
M  CHG  1   9  -1
M  END
> <s_m_source_file>
AV-unprocessed.smi

> <i_m_source_file_index>
628

> <i_lp_mmshare_version>
43012

> <i_f3d_flags>
0

> <s_epik_input>
W0NIMl0xW0NIMl1bQ0gyXVtDSDJdW0NIXTFbTkhdQyg9TylbQ0gyXW4yW2NIXWMoW2NIXW4yKUMoPU8pW09IXQ==

> <s_epik_cmdline>
J2VwaWtfcHl0aG9uJywgJy1waCcsICc3LjAnLCAnLXRuJywgJzgnLCAnLW1hJywgJzIwMCcsICctbWV0YWxfYmluZGluZycsICctaW1hZScsICc8aW5maWxlLm1hZT4nLCAnLW9tYWUnLCAnPG91dGZpbGUubWFlPic=

> <r_epik_Ionization_Penalty>
0.000955839

> <r_epik_Ionization_Penalty_Charging>
0.000925564

> <r_epik_Ionization_Penalty_Neutral>
3.02757e-05

> <r_epik_State_Penalty>
0.000600209

> <r_epik_Charging_Adjusted_Penalty>
0.00152577

> <i_epik_Tot_Q>
-1

> <i_epik_Tot_abs_Q>
1

> <r_epik_Metal_State_Penalty>
-0

> <b_epik_Metal_Only>
0

> <s_lp_Force_Field>
OPLS_2005

> <r_lp_Energy>
22.3574

> <b_lp_Chiralities_Consistent>
1

> <s_lp_Variant>
AV-unprocessed.smi:628-1

> <Gold.Version>
5.8.1

> <Gold.Id.Protein>
6NUR|6NUR_protein|mol2

> <Gold.PLP.Fitness>
55.2106

> <Gold.PLP.PLP>
-41.9190

> <Gold.PLP.part.hbond>
-3.0000

> <Gold.PLP.part.metal>
0.0000

> <Gold.PLP.part.buried>
-6.9174

> <Gold.PLP.part.nonpolar>
-34.2133

> <Gold.PLP.part.repulsive>
0.6631

> <Gold.PLP.ligand.clash>
0.0000

> <Gold.PLP.ligand.torsion>
0.6547

> <Gold.PLP.Chemscore.Hbond>
4.5600

> <Gold.PLP.Chemscore.CHOScore>
0.2941

> <Gold.PLP.Chemscore.Metal>
0.0000

> <Gold.Chemscore.Hbonds>
donor molecule, donor type, donor heavy atom, donor atom, acceptor molecule, acceptor atom, score
      L1  H    12    22       P1  8028  0.86
      P1  H  7997  8009       L1     8  2.00
      P1  H 10752 10763       L1     9  1.66
      L1  C    10    21       P1  7948  0.31

> <Gold.PLP.Chemscore.Internal.Correction>
0.0386

> <Gold.Rescore>
     Score         DG    S(hbond)    S(metal)    S(lipo)     H(rot)  DE(clash)    DE(int)     intcor
     17.98     -20.93       2.87        0.00      85.27       1.61       0.03       2.92       ----

> <Gold.Chemscore.Fitness>
17.9784

> <Gold.Chemscore.DG>
-20.9263

> <Gold.Chemscore.ZeroCoef>
-5.4800

> <Gold.Chemscore.Hbond>
2.8708

> <Gold.Chemscore.Metal>
0.0000

> <Gold.Chemscore.Lipo>
85.2691

> <Gold.Chemscore.Internal_Hbond>
0.0000

> <Gold.Chemscore.DEClash>
0.0274

> <Gold.Chemscore.DEInternal>
2.9205

> <Gold.Chemscore.Rot>
1.6089

> <Gold.Chemscore.Internal.Correction>
   9.000000E+99

> <Gold.Chemscore.Hbonds>
donor molecule, donor type, donor heavy atom, donor atom, acceptor molecule, acceptor atom, score
      L1  H    12    22       P1  8028  0.85
      P1  H  7997  8009       L1     8  0.96
      P1  H 10752 10763       L1     9  0.83

> <Gold.Chemscore.Hbond.Weighted>
-9.5886

> <Gold.Chemscore.Metal.Weighted>
-0.0000

> <Gold.Chemscore.Lipo.Weighted>
-9.9765

> <Gold.Chemscore.Internal_Hbond.Weighted>
0.0000

> <Gold.Chemscore.DEClash.Weighted>
0.0274

> <Gold.Chemscore.DEInternal.Weighted>
2.9205

> <Gold.Chemscore.Rot.Weighted>
4.1188

> <Gold.Chemscore.Internal.Correction.Weighted>
   9.000000E+99

> <Gold.Protein.RotatedTorsions>
[ 6907 6896 6895 6894 ] final -164.58 input  -60.11 | X-H torsion
[ 7974 7965 7964 7962 ] final  -74.76 input  175.53 | X-H torsion
[ 8008 7997 7996 7995 ] final -130.04 input   59.86 | X-H torsion
[ 10167 10162 10161 10158 ] final   57.80 input  -65.29 | X-H torsion
[ 10718 10713 10712 10709 ] final -161.95 input   66.30 | X-H torsion
[ 10763 10752 10751 10750 ] final   31.41 input  -60.55 | X-H torsion
[ 11005 11000 10999 10996 ] final   20.66 input  -57.11 | X-H torsion

> <Gold.Protein.ActiveResidues>
 VAL166  LYS551  ARG553  GLY616  TRP617  ASP618  TYR619  PRO620  LYS621  CYS622 
 ASP623  PHE694  ASN695  SER759  ASP760  ASP761  ALA762  ILE779  LEU786  VAL792 
 PHE793  MET794  SER795  GLU796  ALA797  LYS798  CYS799  TRP800  GLU811  SER814 

> <Gold.Protein.RotatedAtoms>
  151.4140  133.3718  159.2747 H   0  0  0  0  0  0  0  0  0  0  0  0  # atno 6907 bound_to 6896
  150.9342  134.8756  159.7581 H   0  0  0  0  0  0  0  0  0  0  0  0  # atno 6908 bound_to 6896
  152.5042  134.4087  159.9493 H   0  0  0  0  0  0  0  0  0  0  0  0  # atno 6909 bound_to 6896
  145.6349  140.9327  143.1067 H   0  0  0  0  0  0  0  0  0  0  0  0  # atno 7974 bound_to 7965
  155.2893  140.0447  157.3022 H   0  0  0  0  0  0  0  0  0  0  0  0  # atno 8008 bound_to 7997
  154.5551  140.2329  155.8391 H   0  0  0  0  0  0  0  0  0  0  0  0  # atno 8009 bound_to 7997
  156.2000  140.3028  155.9514 H   0  0  0  0  0  0  0  0  0  0  0  0  # atno 8010 bound_to 7997
  140.1941  144.4055  150.6558 H   0  0  0  0  0  0  0  0  0  0  0  0  # atno 10167 bound_to 10162
  156.6036  130.8821  151.2919 H   0  0  0  0  0  0  0  0  0  0  0  0  # atno 10718 bound_to 10713
  153.0317  135.6439  154.1196 H   0  0  0  0  0  0  0  0  0  0  0  0  # atno 10763 bound_to 10752
  154.0917  135.2866  155.3272 H   0  0  0  0  0  0  0  0  0  0  0  0  # atno 10764 bound_to 10752
  154.6460  135.5443  153.7909 H   0  0  0  0  0  0  0  0  0  0  0  0  # atno 10765 bound_to 10752
  140.4002  134.1727  155.7664 H   0  0  0  0  0  0  0  0  0  0  0  0  # atno 11005 bound_to 11000
  144.7179  139.8131  143.7392 LP  0  0  0  0  0  0  0  0  0  0  0  0  # atno 17320 bound_to 7965
  146.1327  139.4366  143.0158 LP  0  0  0  0  0  0  0  0  0  0  0  0  # atno 17321 bound_to 7965
  140.6436  143.2208  151.6236 LP  0  0  0  0  0  0  0  0  0  0  0  0  # atno 17342 bound_to 10162
  139.5244  144.3106  152.0996 LP  0  0  0  0  0  0  0  0  0  0  0  0  # atno 17343 bound_to 10162
  157.7273  130.9641  150.1693 LP  0  0  0  0  0  0  0  0  0  0  0  0  # atno 17370 bound_to 10713
  156.2449  130.3694  149.8296 LP  0  0  0  0  0  0  0  0  0  0  0  0  # atno 17371 bound_to 10713
  141.1859  133.8312  157.1086 LP  0  0  0  0  0  0  0  0  0  0  0  0  # atno 17394 bound_to 11000
  140.0342  134.9886  157.0839 LP  0  0  0  0  0  0  0  0  0  0  0  0  # atno 17395 bound_to 11000

$$$$
