AV-unprocessed.smi:1239|AV-procd|sdf|5188|dock9
  -GOLD-   22720 4273D 1   1.00000     0.00000
 Structure written by MMmdl.
 47 48  0  0  0  0  0  0  0  0  1 V2000
  153.0492  138.5927  154.3567 C   0  0  0  0  0  0  0  0  0  0  0  0
  151.5098  138.4603  154.2311 C   0  0  1  0  0  0  0  0  0  0  0  0
  151.0418  137.2234  155.0531 C   0  0  0  0  0  0  0  0  0  0  0  0
  150.0911  136.3741  154.3401 N   0  0  0  0  0  0  0  0  0  0  0  0
  149.9388  135.0565  154.5342 C   0  0  0  0  0  0  0  0  0  0  0  0
  150.6088  134.4076  155.3372 O   0  0  0  0  0  0  0  0  0  0  0  0
  148.9820  134.5570  153.7336 N   0  0  0  0  0  0  0  0  0  0  0  0
  148.5042  133.2214  153.6464 C   0  0  0  0  0  0  0  0  0  0  0  0
  149.1612  132.0978  154.1982 C   0  0  0  0  0  0  0  0  0  0  0  0
  148.5737  130.8255  154.0590 C   0  0  0  0  0  0  0  0  0  0  0  0
  147.3381  130.7006  153.3768 C   0  0  0  0  0  0  0  0  0  0  0  0
  146.7106  129.4449  153.2096 N   0  0  0  0  0  0  0  0  0  0  0  0
  147.1035  128.3202  154.0523 C   0  0  0  0  0  0  0  0  0  0  0  0
  145.6054  129.2965  152.2710 C   0  0  0  0  0  0  0  0  0  0  0  0
  146.7075  131.7849  152.8622 N   0  0  0  0  0  0  0  0  0  0  0  0
  147.2734  133.0017  152.9984 C   0  0  0  0  0  0  0  0  0  0  0  0
  150.7978  139.7084  154.5926 N   0  0  0  0  0  0  0  0  0  0  0  0
  151.2523  140.2731  155.8689 C   0  0  0  0  0  0  0  0  0  0  0  0
  150.4899  141.5501  156.2635 C   0  0  0  0  0  0  0  0  0  0  0  0
  149.0959  141.2811  156.3171 O   0  0  0  0  0  0  0  0  0  0  0  0
  148.5974  140.8051  155.0748 C   0  0  0  0  0  0  0  0  0  0  0  0
  149.3444  139.5212  154.6750 C   0  0  0  0  0  0  0  0  0  0  0  0
  153.5671  137.6604  154.1351 H   0  0  0  0  0  0  0  0  0  0  0  0
  153.3375  138.8964  155.3635 H   0  0  0  0  0  0  0  0  0  0  0  0
  153.4611  139.3165  153.6551 H   0  0  0  0  0  0  0  0  0  0  0  0
  151.2950  138.2483  153.1826 H   0  0  0  0  0  0  0  0  0  0  0  0
  151.9025  136.6123  155.3263 H   0  0  0  0  0  0  0  0  0  0  0  0
  150.5605  137.5118  155.9866 H   0  0  0  0  0  0  0  0  0  0  0  0
  149.5029  136.8261  153.6554 H   0  0  0  0  0  0  0  0  0  0  0  0
  148.5769  135.2031  153.0722 H   0  0  0  0  0  0  0  0  0  0  0  0
  150.0923  132.1831  154.7362 H   0  0  0  0  0  0  0  0  0  0  0  0
  149.0819  129.9728  154.4830 H   0  0  0  0  0  0  0  0  0  0  0  0
  146.9211  128.5484  155.1029 H   0  0  0  0  0  0  0  0  0  0  0  0
  148.1631  128.0962  153.9242 H   0  0  0  0  0  0  0  0  0  0  0  0
  146.5410  127.4202  153.8032 H   0  0  0  0  0  0  0  0  0  0  0  0
  145.9358  129.5094  151.2541 H   0  0  0  0  0  0  0  0  0  0  0  0
  144.7919  129.9767  152.5249 H   0  0  0  0  0  0  0  0  0  0  0  0
  145.2060  128.2823  152.2845 H   0  0  0  0  0  0  0  0  0  0  0  0
  146.7238  133.8275  152.5703 H   0  0  0  0  0  0  0  0  0  0  0  0
  151.1487  139.5297  156.6608 H   0  0  0  0  0  0  0  0  0  0  0  0
  152.3057  140.5404  155.8195 H   0  0  0  0  0  0  0  0  0  0  0  0
  150.8215  141.9012  157.2408 H   0  0  0  0  0  0  0  0  0  0  0  0
  150.6869  142.3535  155.5518 H   0  0  0  0  0  0  0  0  0  0  0  0
  147.5302  140.6066  155.1735 H   0  0  0  0  0  0  0  0  0  0  0  0
  148.7109  141.5731  154.3081 H   0  0  0  0  0  0  0  0  0  0  0  0
  148.9414  139.2051  153.7145 H   0  0  0  0  0  0  0  0  0  0  0  0
  149.1136  138.7314  155.3917 H   0  0  0  0  0  0  0  0  0  0  0  0
  1  2  1  0  0  0  0
  1 23  1  0  0  0  0
  1 24  1  0  0  0  0
  1 25  1  0  0  0  0
  2  3  1  0  0  0  0
  2 17  1  0  0  0  0
  2 26  1  0  0  0  0
  3  4  1  0  0  0  0
  3 27  1  0  0  0  0
  3 28  1  0  0  0  0
  4  5  1  0  0  0  0
  4 29  1  0  0  0  0
  5  6  2  0  0  0  0
  5  7  1  0  0  0  0
  7  8  1  0  0  0  0
  7 30  1  0  0  0  0
  8 16  1  0  0  0  0
  8  9  2  0  0  0  0
  9 10  1  0  0  0  0
  9 31  1  0  0  0  0
 10 11  2  0  0  0  0
 10 32  1  0  0  0  0
 11 12  1  0  0  0  0
 11 15  1  0  0  0  0
 12 13  1  0  0  0  0
 12 14  1  0  0  0  0
 13 33  1  0  0  0  0
 13 34  1  0  0  0  0
 13 35  1  0  0  0  0
 14 36  1  0  0  0  0
 14 37  1  0  0  0  0
 14 38  1  0  0  0  0
 15 16  2  0  0  0  0
 16 39  1  0  0  0  0
 17 22  1  0  0  0  0
 17 18  1  0  0  0  0
 18 19  1  0  0  0  0
 18 40  1  0  0  0  0
 18 41  1  0  0  0  0
 19 20  1  0  0  0  0
 19 42  1  0  0  0  0
 19 43  1  0  0  0  0
 20 21  1  0  0  0  0
 21 22  1  0  0  0  0
 21 44  1  0  0  0  0
 21 45  1  0  0  0  0
 22 46  1  0  0  0  0
 22 47  1  0  0  0  0
M  END
> <s_m_source_file>
AV-unprocessed.smi

> <i_m_source_file_index>
1239

> <i_lp_mmshare_version>
43012

> <i_f3d_flags>
0

> <s_epik_input>
W0NIMl0xW0NIMl1PW0NIMl1bQ0gyXU4xW0NASF0oW0NIM10pW0NIMl1bTkhdQyg9TylbTkhdYzJbY0hdW2NIXWMoTihbQ0gzXSlbQ0gzXSluW2NIXTI=

> <s_epik_cmdline>
J2VwaWtfcHl0aG9uJywgJy1waCcsICc3LjAnLCAnLXRuJywgJzgnLCAnLW1hJywgJzIwMCcsICctbWV0YWxfYmluZGluZycsICctaW1hZScsICc8aW5maWxlLm1hZT4nLCAnLW9tYWUnLCAnPG91dGZpbGUubWFlPic=

> <r_lp_tautomer_probability>
1

> <r_epik_Ionization_Penalty>
0.87526

> <r_epik_Ionization_Penalty_Charging>
0

> <r_epik_Ionization_Penalty_Neutral>
0.87526

> <r_epik_State_Penalty>
0.859346

> <r_epik_Charging_Adjusted_Penalty>
0.859346

> <i_epik_Tot_Q>
0

> <i_epik_Tot_abs_Q>
0

> <r_epik_Metal_State_Penalty>
0.538105

> <b_epik_Metal_Only>
0

> <s_lp_Force_Field>
OPLS_2005

> <r_lp_Energy>
32.4423

> <b_lp_Chiralities_Consistent>
1

> <s_lp_Variant>
AV-unprocessed.smi:1239-4

> <Gold.Version>
5.8.1

> <Gold.Id.Protein>
6NUR|6NUR_protein|mol2

> <Gold.PLP.Fitness>
47.9803

> <Gold.PLP.PLP>
-41.9263

> <Gold.PLP.part.hbond>
-3.7842

> <Gold.PLP.part.metal>
0.0000

> <Gold.PLP.part.buried>
-3.1778

> <Gold.PLP.part.nonpolar>
-36.4546

> <Gold.PLP.part.repulsive>
0.4318

> <Gold.PLP.ligand.clash>
0.0000

> <Gold.PLP.ligand.torsion>
1.1007

> <Gold.PLP.Chemscore.Hbond>
2.7320

> <Gold.PLP.Chemscore.CHOScore>
0.0000

> <Gold.PLP.Chemscore.Metal>
0.0000

> <Gold.Chemscore.Hbonds>
donor molecule, donor type, donor heavy atom, donor atom, acceptor molecule, acceptor atom, score
      L1  H     4    29       P1  7948  0.59
      L1  H     7    30       P1  7948  0.83
      P1  H  7989  7998       L1    17  0.90

> <Gold.PLP.Chemscore.Internal.Correction>
0.0594

> <Gold.Rescore>
     Score         DG    S(hbond)    S(metal)    S(lipo)     H(rot)  DE(clash)    DE(int)     intcor
     14.44     -16.81       1.58        0.00      83.06       1.44       0.11       2.26       ----

> <Gold.Chemscore.Fitness>
14.4362

> <Gold.Chemscore.DG>
-16.8104

> <Gold.Chemscore.ZeroCoef>
-5.4800

> <Gold.Chemscore.Hbond>
1.5843

> <Gold.Chemscore.Metal>
0.0000

> <Gold.Chemscore.Lipo>
83.0560

> <Gold.Chemscore.Internal_Hbond>
0.0000

> <Gold.Chemscore.DEClash>
0.1145

> <Gold.Chemscore.DEInternal>
2.2597

> <Gold.Chemscore.Rot>
1.4370

> <Gold.Chemscore.Internal.Correction>
   9.000000E+99

> <Gold.Chemscore.Hbonds>
donor molecule, donor type, donor heavy atom, donor atom, acceptor molecule, acceptor atom, score
      L1  H     4    29       P1  7948  0.49
      L1  H     7    30       P1  7948  0.63
      P1  H  7989  7998       L1    17  0.05

> <Gold.Chemscore.Hbond.Weighted>
-5.2915

> <Gold.Chemscore.Metal.Weighted>
-0.0000

> <Gold.Chemscore.Lipo.Weighted>
-9.7176

> <Gold.Chemscore.Internal_Hbond.Weighted>
0.0000

> <Gold.Chemscore.DEClash.Weighted>
0.1145

> <Gold.Chemscore.DEInternal.Weighted>
2.2597

> <Gold.Chemscore.Rot.Weighted>
3.6786

> <Gold.Chemscore.Internal.Correction.Weighted>
   9.000000E+99

> <Gold.Protein.RotatedTorsions>
[ 6907 6896 6895 6894 ] final   56.65 input  -60.11 | X-H torsion
[ 7974 7965 7964 7962 ] final   60.48 input  175.53 | X-H torsion
[ 8008 7997 7996 7995 ] final  -16.19 input   59.86 | X-H torsion
[ 10167 10162 10161 10158 ] final  -41.92 input  -65.29 | X-H torsion
[ 10718 10713 10712 10709 ] final -143.90 input   66.30 | X-H torsion
[ 10763 10752 10751 10750 ] final  103.62 input  -60.55 | X-H torsion
[ 11005 11000 10999 10996 ] final  -30.20 input  -57.11 | X-H torsion

> <Gold.Protein.ActiveResidues>
 VAL166  LYS551  ARG553  GLY616  TRP617  ASP618  TYR619  PRO620  LYS621  CYS622 
 ASP623  PHE694  ASN695  SER759  ASP760  ASP761  ALA762  ILE779  LEU786  VAL792 
 PHE793  MET794  SER795  GLU796  ALA797  LYS798  CYS799  TRP800  GLU811  SER814 

> <Gold.Protein.RotatedAtoms>
  152.3656  134.6808  160.0192 H   0  0  0  0  0  0  0  0  0  0  0  0  # atno 6907 bound_to 6896
  151.7117  133.3307  159.3300 H   0  0  0  0  0  0  0  0  0  0  0  0  # atno 6908 bound_to 6896
  150.7636  134.6460  159.6307 H   0  0  0  0  0  0  0  0  0  0  0  0  # atno 6909 bound_to 6896
  145.8956  139.3543  143.0623 H   0  0  0  0  0  0  0  0  0  0  0  0  # atno 7974 bound_to 7965
  154.5072  140.2176  155.9227 H   0  0  0  0  0  0  0  0  0  0  0  0  # atno 8008 bound_to 7997
  156.1508  140.3161  155.8612 H   0  0  0  0  0  0  0  0  0  0  0  0  # atno 8009 bound_to 7997
  155.3942  140.0480  157.3030 H   0  0  0  0  0  0  0  0  0  0  0  0  # atno 8010 bound_to 7997
  140.6986  143.3067  151.3136 H   0  0  0  0  0  0  0  0  0  0  0  0  # atno 10167 bound_to 10162
  156.3636  130.7751  151.1922 H   0  0  0  0  0  0  0  0  0  0  0  0  # atno 10718 bound_to 10713
  153.3551  135.3970  155.1676 H   0  0  0  0  0  0  0  0  0  0  0  0  # atno 10763 bound_to 10752
  154.8669  135.3666  154.5172 H   0  0  0  0  0  0  0  0  0  0  0  0  # atno 10764 bound_to 10752
  153.5626  135.7080  153.5600 H   0  0  0  0  0  0  0  0  0  0  0  0  # atno 10765 bound_to 10752
  140.9362  133.7307  156.1009 H   0  0  0  0  0  0  0  0  0  0  0  0  # atno 11005 bound_to 11000
  145.8855  140.9336  143.0579 LP  0  0  0  0  0  0  0  0  0  0  0  0  # atno 17320 bound_to 7965
  144.6732  140.0836  143.7468 LP  0  0  0  0  0  0  0  0  0  0  0  0  # atno 17321 bound_to 7965
  139.6475  144.0424  152.2601 LP  0  0  0  0  0  0  0  0  0  0  0  0  # atno 17342 bound_to 10162
  139.9950  144.6335  150.7781 LP  0  0  0  0  0  0  0  0  0  0  0  0  # atno 17343 bound_to 10162
  157.7476  131.0393  150.4543 LP  0  0  0  0  0  0  0  0  0  0  0  0  # atno 17370 bound_to 10713
  156.4758  130.4062  149.6491 LP  0  0  0  0  0  0  0  0  0  0  0  0  # atno 17371 bound_to 10713
  140.7795  134.3741  157.5490 LP  0  0  0  0  0  0  0  0  0  0  0  0  # atno 17394 bound_to 11000
  139.8808  134.9073  156.2942 LP  0  0  0  0  0  0  0  0  0  0  0  0  # atno 17395 bound_to 11000

$$$$
