AV-unprocessed.smi:3082|AV-procd|sdf|11742|dock3
  -GOLD-   2272017133D 1   1.00000     0.00000
 Structure written by MMmdl.
 28 29  0  0  0  0  0  0  0  0  2 V2000
  151.6271  142.4445  158.5908 C   0  0  0  0  0  0  0  0  0  0  0  0
  151.2672  141.5882  157.4110 C   0  0  0  0  0  0  0  0  0  0  0  0
  151.8939  140.3852  156.9794 C   0  0  0  0  0  0  0  0  0  0  0  0
  151.3331  139.8747  155.8957 N   0  0  0  0  0  0  0  0  0  0  0  0
  150.3292  140.7288  155.5966 N   0  0  0  0  0  0  0  0  0  0  0  0
  149.4767  140.4855  154.4424 C   0  0  2  0  0  0  0  0  0  0  0  0
  148.0690  141.0834  154.6400 C   0  0  0  0  0  0  0  0  0  0  0  0
  147.1888  140.7905  153.4153 C   0  0  0  0  0  0  0  0  0  0  0  0
  147.1501  139.2827  153.1149 C   0  0  0  0  0  0  0  0  0  0  0  0
  148.5182  138.7482  152.9382 N   0  3  0  0  0  0  0  0  0  0  0  0
  149.3848  138.9796  154.1146 C   0  0  0  0  0  0  0  0  0  0  0  0
  150.2676  141.7711  156.4980 C   0  0  0  0  0  0  0  0  0  0  0  0
  152.4645  142.0301  159.1529 H   0  0  0  0  0  0  0  0  0  0  0  0
  150.7926  142.5437  159.2851 H   0  0  0  0  0  0  0  0  0  0  0  0
  151.9137  143.4507  158.2842 H   0  0  0  0  0  0  0  0  0  0  0  0
  152.7364  139.8714  157.4185 H   0  0  0  0  0  0  0  0  0  0  0  0
  149.9401  140.9882  153.5915 H   0  0  0  0  0  0  0  0  0  0  0  0
  147.5990  140.6615  155.5295 H   0  0  0  0  0  0  0  0  0  0  0  0
  148.1347  142.1597  154.8034 H   0  0  0  0  0  0  0  0  0  0  0  0
  146.1784  141.1635  153.5847 H   0  0  0  0  0  0  0  0  0  0  0  0
  147.5760  141.3280  152.5485 H   0  0  0  0  0  0  0  0  0  0  0  0
  146.6570  138.7461  153.9267 H   0  0  0  0  0  0  0  0  0  0  0  0
  146.5738  139.0916  152.2094 H   0  0  0  0  0  0  0  0  0  0  0  0
  148.4622  137.7550  152.7634 H   0  0  0  0  0  0  0  0  0  0  0  0
  150.3757  138.5746  153.9072 H   0  0  0  0  0  0  0  0  0  0  0  0
  148.9828  138.4200  154.9605 H   0  0  0  0  0  0  0  0  0  0  0  0
  149.5253  142.5516  156.4169 H   0  0  0  0  0  0  0  0  0  0  0  0
  148.9378  139.1973  152.1368 H   0  0  0  0  0  0  0  0  0  0  0  0
  1  2  1  0  0  0  0
  1 13  1  0  0  0  0
  1 14  1  0  0  0  0
  1 15  1  0  0  0  0
  2 12  2  0  0  0  0
  2  3  1  0  0  0  0
  3  4  2  0  0  0  0
  3 16  1  0  0  0  0
  4  5  1  0  0  0  0
  5  6  1  0  0  0  0
  5 12  1  0  0  0  0
  6 11  1  0  0  0  0
  6  7  1  0  0  0  0
  6 17  1  0  0  0  0
  7  8  1  0  0  0  0
  7 18  1  0  0  0  0
  7 19  1  0  0  0  0
  8  9  1  0  0  0  0
  8 20  1  0  0  0  0
  8 21  1  0  0  0  0
  9 10  1  0  0  0  0
  9 22  1  0  0  0  0
  9 23  1  0  0  0  0
 10 11  1  0  0  0  0
 10 24  1  0  0  0  0
 10 28  1  0  0  0  0
 11 25  1  0  0  0  0
 11 26  1  0  0  0  0
 12 27  1  0  0  0  0
M  CHG  1  10   1
M  END
> <s_m_source_file>
AV-unprocessed.smi

> <i_m_source_file_index>
3082

> <i_lp_mmshare_version>
43012

> <i_f3d_flags>
0

> <s_epik_input>
W0NIM11jMVtjSF1ubihbY0hdMSlbQ0BASF0yW0NIMl1bQ0gyXVtDSDJdW05IXVtDSDJdMg==

> <s_epik_cmdline>
J2VwaWtfcHl0aG9uJywgJy1waCcsICc3LjAnLCAnLXRuJywgJzgnLCAnLW1hJywgJzIwMCcsICctbWV0YWxfYmluZGluZycsICctaW1hZScsICc8aW5maWxlLm1hZT4nLCAnLW9tYWUnLCAnPG91dGZpbGUubWFlPic=

> <r_lp_tautomer_probability>
1

> <r_epik_Ionization_Penalty>
0.000667973

> <r_epik_Ionization_Penalty_Charging>
0.000651447

> <r_epik_Ionization_Penalty_Neutral>
1.65255e-05

> <r_epik_State_Penalty>
-0

> <r_epik_Charging_Adjusted_Penalty>
0.000651447

> <i_epik_Tot_Q>
1

> <i_epik_Tot_abs_Q>
1

> <r_epik_Metal_State_Penalty>
-0

> <b_epik_Metal_Only>
0

> <s_lp_Force_Field>
OPLS_2005

> <r_lp_Energy>
15.6496

> <b_lp_Chiralities_Consistent>
1

> <s_lp_Variant>
AV-unprocessed.smi:3082-1

> <Gold.Version>
5.8.1

> <Gold.Id.Protein>
6NUR|6NUR_protein|mol2

> <Gold.PLP.Fitness>
35.7351

> <Gold.PLP.PLP>
-25.7566

> <Gold.PLP.part.hbond>
-1.8889

> <Gold.PLP.part.metal>
0.0000

> <Gold.PLP.part.buried>
-2.6516

> <Gold.PLP.part.nonpolar>
-21.6086

> <Gold.PLP.part.repulsive>
0.0765

> <Gold.PLP.ligand.clash>
0.0000

> <Gold.PLP.ligand.torsion>
0.7411

> <Gold.PLP.Chemscore.Hbond>
2.8143

> <Gold.PLP.Chemscore.CHOScore>
1.0000

> <Gold.PLP.Chemscore.Metal>
0.0000

> <Gold.Chemscore.Hbonds>
donor molecule, donor type, donor heavy atom, donor atom, acceptor molecule, acceptor atom, score
      L1  H    10    24       P1  7948  2.00
      L1  H    10    28       P1  7957  0.76
      L1  C    12    27       P1  8028  1.00

> <Gold.PLP.Chemscore.Internal.Correction>
0.0179

> <Gold.Rescore>
     Score         DG    S(hbond)    S(metal)    S(lipo)     H(rot)  DE(clash)    DE(int)     intcor
     16.41     -16.87       1.86        0.00      66.16       1.00       0.04       0.42       ----

> <Gold.Chemscore.Fitness>
16.4093

> <Gold.Chemscore.DG>
-16.8713

> <Gold.Chemscore.ZeroCoef>
-5.4800

> <Gold.Chemscore.Hbond>
1.8595

> <Gold.Chemscore.Metal>
0.0000

> <Gold.Chemscore.Lipo>
66.1584

> <Gold.Chemscore.Internal_Hbond>
0.0000

> <Gold.Chemscore.DEClash>
0.0429

> <Gold.Chemscore.DEInternal>
0.4192

> <Gold.Chemscore.Rot>
1.0000

> <Gold.Chemscore.Internal.Correction>
   9.000000E+99

> <Gold.Chemscore.Hbonds>
donor molecule, donor type, donor heavy atom, donor atom, acceptor molecule, acceptor atom, score
      L1  H    10    24       P1  7948  0.95
      L1  H    10    28       P1  7957  0.76

> <Gold.Chemscore.Hbond.Weighted>
-6.2108

> <Gold.Chemscore.Metal.Weighted>
-0.0000

> <Gold.Chemscore.Lipo.Weighted>
-7.7405

> <Gold.Chemscore.Internal_Hbond.Weighted>
0.0000

> <Gold.Chemscore.DEClash.Weighted>
0.0429

> <Gold.Chemscore.DEInternal.Weighted>
0.4192

> <Gold.Chemscore.Rot.Weighted>
2.5600

> <Gold.Chemscore.Internal.Correction.Weighted>
   9.000000E+99

> <Gold.Protein.RotatedTorsions>
[ 6907 6896 6895 6894 ] final  149.44 input  -60.11 | X-H torsion
[ 7974 7965 7964 7962 ] final -138.77 input  175.53 | X-H torsion
[ 8008 7997 7996 7995 ] final   57.12 input   59.86 | X-H torsion
[ 10167 10162 10161 10158 ] final   22.54 input  -65.29 | X-H torsion
[ 10718 10713 10712 10709 ] final  -34.22 input   66.30 | X-H torsion
[ 10763 10752 10751 10750 ] final  139.65 input  -60.55 | X-H torsion
[ 11005 11000 10999 10996 ] final  179.48 input  -57.11 | X-H torsion

> <Gold.Protein.ActiveResidues>
 VAL166  LYS551  ARG553  GLY616  TRP617  ASP618  TYR619  PRO620  LYS621  CYS622 
 ASP623  PHE694  ASN695  SER759  ASP760  ASP761  ALA762  ILE779  LEU786  VAL792 
 PHE793  MET794  SER795  GLU796  ALA797  LYS798  CYS799  TRP800  GLU811  SER814 

> <Gold.Protein.RotatedAtoms>
  152.1280  133.4391  159.4707 H   0  0  0  0  0  0  0  0  0  0  0  0  # atno 6907 bound_to 6896
  150.6876  134.2455  159.4498 H   0  0  0  0  0  0  0  0  0  0  0  0  # atno 6908 bound_to 6896
  152.0336  134.9752  160.0623 H   0  0  0  0  0  0  0  0  0  0  0  0  # atno 6909 bound_to 6896
  144.8731  140.6396  143.5254 H   0  0  0  0  0  0  0  0  0  0  0  0  # atno 7974 bound_to 7965
  155.5286  140.3481  155.4421 H   0  0  0  0  0  0  0  0  0  0  0  0  # atno 8008 bound_to 7997
  156.0734  140.1368  156.9827 H   0  0  0  0  0  0  0  0  0  0  0  0  # atno 8009 bound_to 7997
  154.4540  140.0961  156.6679 H   0  0  0  0  0  0  0  0  0  0  0  0  # atno 8010 bound_to 7997
  140.5340  143.9792  150.6481 H   0  0  0  0  0  0  0  0  0  0  0  0  # atno 10167 bound_to 10162
  156.3532  130.4311  149.7687 H   0  0  0  0  0  0  0  0  0  0  0  0  # atno 10718 bound_to 10713
  153.9097  135.3012  155.3448 H   0  0  0  0  0  0  0  0  0  0  0  0  # atno 10763 bound_to 10752
  154.7629  135.4925  153.9502 H   0  0  0  0  0  0  0  0  0  0  0  0  # atno 10764 bound_to 10752
  153.1200  135.6780  153.9454 H   0  0  0  0  0  0  0  0  0  0  0  0  # atno 10765 bound_to 10752
  140.4066  134.6729  157.4591 H   0  0  0  0  0  0  0  0  0  0  0  0  # atno 11005 bound_to 11000
  145.4093  139.1583  143.4134 LP  0  0  0  0  0  0  0  0  0  0  0  0  # atno 17320 bound_to 7965
  146.2944  140.4196  142.8727 LP  0  0  0  0  0  0  0  0  0  0  0  0  # atno 17321 bound_to 7965
  140.3175  143.3158  152.0818 LP  0  0  0  0  0  0  0  0  0  0  0  0  # atno 17342 bound_to 10162
  139.4964  144.6596  151.6495 LP  0  0  0  0  0  0  0  0  0  0  0  0  # atno 17343 bound_to 10162
  156.4879  130.8071  151.3082 LP  0  0  0  0  0  0  0  0  0  0  0  0  # atno 17370 bound_to 10713
  157.7464  130.9985  150.2854 LP  0  0  0  0  0  0  0  0  0  0  0  0  # atno 17371 bound_to 10713
  140.0297  134.6424  155.9123 LP  0  0  0  0  0  0  0  0  0  0  0  0  # atno 17394 bound_to 11000
  141.1837  133.6551  156.5126 LP  0  0  0  0  0  0  0  0  0  0  0  0  # atno 17395 bound_to 11000

$$$$
