AV-unprocessed.smi:2250|AV-procd|sdf|9100|dock4
  -GOLD-   2272012303D 1   1.00000     0.00000
 Structure written by MMmdl.
 43 44  0  0  0  0  0  0  0  0  1 V2000
  151.4556  145.4725  160.0058 C   0  0  0  0  0  0  0  0  0  0  0  0
  152.2524  144.2269  160.3322 C   0  0  0  0  0  0  0  0  0  0  0  0
  152.4403  143.8096  161.6634 C   0  0  0  0  0  0  0  0  0  0  0  0
  153.1886  142.6424  161.9093 C   0  0  0  0  0  0  0  0  0  0  0  0
  153.7318  141.9219  160.8218 C   0  0  0  0  0  0  0  0  0  0  0  0
  154.4679  140.7611  161.1789 N   0  0  0  0  0  0  0  0  0  0  0  0
  155.0059  139.8338  160.3673 C   0  0  0  0  0  0  0  0  0  0  0  0
  154.9650  139.8535  159.1368 O   0  0  0  0  0  0  0  0  0  0  0  0
  155.6082  138.8675  161.0740 N   0  0  0  0  0  0  0  0  0  0  0  0
  156.2891  137.7098  160.5069 C   0  0  0  0  0  0  0  0  0  0  0  0
  157.4671  138.1661  159.6270 C   0  0  0  0  0  0  0  0  0  0  0  0
  158.5490  138.9524  160.3882 C   0  0  0  0  0  0  0  0  0  0  0  0
  159.3370  138.3380  161.1092 O   0  0  0  0  0  0  0  0  0  0  0  0
  158.6000  140.3000  160.2486 N   0  0  0  0  0  0  0  0  0  0  0  0
  159.5948  141.1859  160.8692 C   0  0  0  0  0  0  0  0  0  0  0  0
  160.5529  141.6931  159.7762 C   0  0  0  0  0  0  0  0  0  0  0  0
  159.7738  142.4001  158.6503 C   0  0  0  0  0  0  0  0  0  0  0  0
  158.5997  141.5414  158.1413 C   0  0  0  0  0  0  0  0  0  0  0  0
  157.7379  141.0328  159.3121 C   0  0  0  0  0  0  0  0  0  0  0  0
  153.5437  142.3310  159.5424 N   0  0  0  0  0  0  0  0  0  0  0  0
  152.8257  143.4492  159.3076 C   0  0  0  0  0  0  0  0  0  0  0  0
  151.2660  146.0658  160.9009 H   0  0  0  0  0  0  0  0  0  0  0  0
  150.4964  145.2009  159.5648 H   0  0  0  0  0  0  0  0  0  0  0  0
  151.9976  146.0957  159.2941 H   0  0  0  0  0  0  0  0  0  0  0  0
  152.0203  144.3711  162.4851 H   0  0  0  0  0  0  0  0  0  0  0  0
  153.3426  142.3083  162.9250 H   0  0  0  0  0  0  0  0  0  0  0  0
  154.5979  140.6187  162.1695 H   0  0  0  0  0  0  0  0  0  0  0  0
  155.5964  138.9381  162.0809 H   0  0  0  0  0  0  0  0  0  0  0  0
  156.6528  137.0514  161.2984 H   0  0  0  0  0  0  0  0  0  0  0  0
  155.5661  137.1411  159.9204 H   0  0  0  0  0  0  0  0  0  0  0  0
  157.9338  137.2952  159.1648 H   0  0  0  0  0  0  0  0  0  0  0  0
  157.0769  138.7923  158.8233 H   0  0  0  0  0  0  0  0  0  0  0  0
  159.0813  142.0296  161.3329 H   0  0  0  0  0  0  0  0  0  0  0  0
  160.1591  140.7184  161.6744 H   0  0  0  0  0  0  0  0  0  0  0  0
  161.2882  142.3741  160.2058 H   0  0  0  0  0  0  0  0  0  0  0  0
  161.1124  140.8525  159.3633 H   0  0  0  0  0  0  0  0  0  0  0  0
  159.3837  143.3459  159.0285 H   0  0  0  0  0  0  0  0  0  0  0  0
  160.4437  142.6508  157.8274 H   0  0  0  0  0  0  0  0  0  0  0  0
  157.9882  142.1184  157.4471 H   0  0  0  0  0  0  0  0  0  0  0  0
  158.9865  140.6902  157.5791 H   0  0  0  0  0  0  0  0  0  0  0  0
  156.9140  140.4281  158.9310 H   0  0  0  0  0  0  0  0  0  0  0  0
  157.2725  141.8729  159.8297 H   0  0  0  0  0  0  0  0  0  0  0  0
  152.7058  143.7300  158.2714 H   0  0  0  0  0  0  0  0  0  0  0  0
  1  2  1  0  0  0  0
  1 22  1  0  0  0  0
  1 23  1  0  0  0  0
  1 24  1  0  0  0  0
  2 21  1  0  0  0  0
  2  3  2  0  0  0  0
  3  4  1  0  0  0  0
  3 25  1  0  0  0  0
  4  5  2  0  0  0  0
  4 26  1  0  0  0  0
  5  6  1  0  0  0  0
  5 20  1  0  0  0  0
  6  7  1  0  0  0  0
  6 27  1  0  0  0  0
  7  8  2  0  0  0  0
  7  9  1  0  0  0  0
  9 10  1  0  0  0  0
  9 28  1  0  0  0  0
 10 11  1  0  0  0  0
 10 29  1  0  0  0  0
 10 30  1  0  0  0  0
 11 12  1  0  0  0  0
 11 31  1  0  0  0  0
 11 32  1  0  0  0  0
 12 13  2  0  0  0  0
 12 14  1  0  0  0  0
 14 19  1  0  0  0  0
 14 15  1  0  0  0  0
 15 16  1  0  0  0  0
 15 33  1  0  0  0  0
 15 34  1  0  0  0  0
 16 17  1  0  0  0  0
 16 35  1  0  0  0  0
 16 36  1  0  0  0  0
 17 18  1  0  0  0  0
 17 37  1  0  0  0  0
 17 38  1  0  0  0  0
 18 19  1  0  0  0  0
 18 39  1  0  0  0  0
 18 40  1  0  0  0  0
 19 41  1  0  0  0  0
 19 42  1  0  0  0  0
 20 21  2  0  0  0  0
 21 43  1  0  0  0  0
M  END
> <s_m_source_file>
AV-unprocessed.smi

> <i_m_source_file_index>
2250

> <i_lp_mmshare_version>
43012

> <i_f3d_flags>
0

> <s_epik_input>
W0NIM11jMVtjSF1bY0hdYyhuW2NIXTEpW05IXUMoPU8pW05IXVtDSDJdW0NIMl1DKD1PKU4yW0NIMl1bQ0gyXVtDSDJdW0NIMl1bQ0gyXTI=

> <s_epik_cmdline>
J2VwaWtfcHl0aG9uJywgJy1waCcsICc3LjAnLCAnLXRuJywgJzgnLCAnLW1hJywgJzIwMCcsICctbWV0YWxfYmluZGluZycsICctaW1hZScsICc8aW5maWxlLm1hZT4nLCAnLW9tYWUnLCAnPG91dGZpbGUubWFlPic=

> <r_lp_tautomer_probability>
1

> <r_epik_Ionization_Penalty>
5.00358e-05

> <r_epik_Ionization_Penalty_Charging>
0

> <r_epik_Ionization_Penalty_Neutral>
5.00358e-05

> <r_epik_State_Penalty>
-0

> <r_epik_Charging_Adjusted_Penalty>
0

> <i_epik_Tot_Q>
0

> <i_epik_Tot_abs_Q>
0

> <r_epik_Metal_State_Penalty>
-0

> <b_epik_Metal_Only>
0

> <s_lp_Force_Field>
OPLS_2005

> <r_lp_Energy>
26.56

> <b_lp_Chiralities_Consistent>
1

> <s_lp_Variant>
AV-unprocessed.smi:2250-1

> <Gold.Version>
5.8.1

> <Gold.Id.Protein>
6NUR|6NUR_protein|mol2

> <Gold.PLP.Fitness>
45.6939

> <Gold.PLP.PLP>
-43.1347

> <Gold.PLP.part.hbond>
-1.0000

> <Gold.PLP.part.metal>
0.0000

> <Gold.PLP.part.buried>
-5.2869

> <Gold.PLP.part.nonpolar>
-36.6399

> <Gold.PLP.part.repulsive>
0.0920

> <Gold.PLP.ligand.clash>
0.0000

> <Gold.PLP.ligand.torsion>
0.2290

> <Gold.PLP.Chemscore.Hbond>
1.0000

> <Gold.PLP.Chemscore.CHOScore>
0.0000

> <Gold.PLP.Chemscore.Metal>
0.0000

> <Gold.Chemscore.Hbonds>
donor molecule, donor type, donor heavy atom, donor atom, acceptor molecule, acceptor atom, score
      P1  H  7997  8010       L1     8  1.00

> <Gold.PLP.Chemscore.Internal.Correction>
0.0172

> <Gold.Rescore>
     Score         DG    S(hbond)    S(metal)    S(lipo)     H(rot)  DE(clash)    DE(int)     intcor
     16.32     -17.97       0.99        0.00     111.70       1.51       0.13       1.52       ----

> <Gold.Chemscore.Fitness>
16.3165

> <Gold.Chemscore.DG>
-17.9658

> <Gold.Chemscore.ZeroCoef>
-5.4800

> <Gold.Chemscore.Hbond>
0.9850

> <Gold.Chemscore.Metal>
0.0000

> <Gold.Chemscore.Lipo>
111.7024

> <Gold.Chemscore.Internal_Hbond>
0.0000

> <Gold.Chemscore.DEClash>
0.1298

> <Gold.Chemscore.DEInternal>
1.5195

> <Gold.Chemscore.Rot>
1.5131

> <Gold.Chemscore.Internal.Correction>
   9.000000E+99

> <Gold.Chemscore.Hbonds>
donor molecule, donor type, donor heavy atom, donor atom, acceptor molecule, acceptor atom, score
      P1  H  7997  8010       L1     8  0.98

> <Gold.Chemscore.Hbond.Weighted>
-3.2901

> <Gold.Chemscore.Metal.Weighted>
-0.0000

> <Gold.Chemscore.Lipo.Weighted>
-13.0692

> <Gold.Chemscore.Internal_Hbond.Weighted>
0.0000

> <Gold.Chemscore.DEClash.Weighted>
0.1298

> <Gold.Chemscore.DEInternal.Weighted>
1.5195

> <Gold.Chemscore.Rot.Weighted>
3.8735

> <Gold.Chemscore.Internal.Correction.Weighted>
   9.000000E+99

> <Gold.Protein.RotatedTorsions>
[ 6907 6896 6895 6894 ] final   96.37 input  -60.11 | X-H torsion
[ 7974 7965 7964 7962 ] final -131.63 input  175.53 | X-H torsion
[ 8008 7997 7996 7995 ] final  -14.45 input   59.86 | X-H torsion
[ 10167 10162 10161 10158 ] final   39.58 input  -65.29 | X-H torsion
[ 10718 10713 10712 10709 ] final  -42.15 input   66.30 | X-H torsion
[ 10763 10752 10751 10750 ] final -171.47 input  -60.55 | X-H torsion
[ 11005 11000 10999 10996 ] final   21.07 input  -57.11 | X-H torsion

> <Gold.Protein.ActiveResidues>
 VAL166  LYS551  ARG553  GLY616  TRP617  ASP618  TYR619  PRO620  LYS621  CYS622 
 ASP623  PHE694  ASN695  SER759  ASP760  ASP761  ALA762  ILE779  LEU786  VAL792 
 PHE793  MET794  SER795  GLU796  ALA797  LYS798  CYS799  TRP800  GLU811  SER814 

> <Gold.Protein.RotatedAtoms>
  152.5435  134.0896  159.8270 H   0  0  0  0  0  0  0  0  0  0  0  0  # atno 6907 bound_to 6896
  151.0987  133.5252  159.2618 H   0  0  0  0  0  0  0  0  0  0  0  0  # atno 6908 bound_to 6896
  151.2016  135.0454  159.8928 H   0  0  0  0  0  0  0  0  0  0  0  0  # atno 6909 bound_to 6896
  144.9361  140.7185  143.4875 H   0  0  0  0  0  0  0  0  0  0  0  0  # atno 7974 bound_to 7965
  154.5209  140.2222  155.8978 H   0  0  0  0  0  0  0  0  0  0  0  0  # atno 8008 bound_to 7997
  156.1661  140.3132  155.8855 H   0  0  0  0  0  0  0  0  0  0  0  0  # atno 8009 bound_to 7997
  155.3654  140.0463  157.3036 H   0  0  0  0  0  0  0  0  0  0  0  0  # atno 8010 bound_to 7997
  140.3826  144.1960  150.6130 H   0  0  0  0  0  0  0  0  0  0  0  0  # atno 10167 bound_to 10162
  156.2627  130.4198  149.8524 H   0  0  0  0  0  0  0  0  0  0  0  0  # atno 10718 bound_to 10713
  154.6301  135.2885  155.0226 H   0  0  0  0  0  0  0  0  0  0  0  0  # atno 10763 bound_to 10752
  154.1390  135.6521  153.4942 H   0  0  0  0  0  0  0  0  0  0  0  0  # atno 10764 bound_to 10752
  153.0276  135.5328  154.7125 H   0  0  0  0  0  0  0  0  0  0  0  0  # atno 10765 bound_to 10752
  140.3956  134.1772  155.7663 H   0  0  0  0  0  0  0  0  0  0  0  0  # atno 11005 bound_to 11000
  145.3064  139.1833  143.4662 LP  0  0  0  0  0  0  0  0  0  0  0  0  # atno 17320 bound_to 7965
  146.3267  140.3063  142.8624 LP  0  0  0  0  0  0  0  0  0  0  0  0  # atno 17321 bound_to 7965
  140.4922  143.2344  151.8802 LP  0  0  0  0  0  0  0  0  0  0  0  0  # atno 17342 bound_to 10162
  139.4794  144.5153  151.8876 LP  0  0  0  0  0  0  0  0  0  0  0  0  # atno 17343 bound_to 10162
  156.6034  130.8556  151.3437 LP  0  0  0  0  0  0  0  0  0  0  0  0  # atno 17370 bound_to 10713
  157.7256  130.9618  150.1622 LP  0  0  0  0  0  0  0  0  0  0  0  0  # atno 17371 bound_to 10713
  141.1875  133.8280  157.1029 LP  0  0  0  0  0  0  0  0  0  0  0  0  # atno 17394 bound_to 11000
  140.0374  134.9871  157.0896 LP  0  0  0  0  0  0  0  0  0  0  0  0  # atno 17395 bound_to 11000

$$$$
