AV-unprocessed.smi:3344|AV-procd|sdf|12898|dock3
  -GOLD-   2272019303D 1   1.00000     0.00000
 Structure written by MMmdl.
 43 44  0  0  0  0  0  0  0  0  2 V2000
  151.8678  137.5317  154.7090 C   0  0  0  0  0  0  0  0  0  0  0  0
  150.3682  137.8908  154.6922 C   0  0  1  0  0  0  0  0  0  0  0  0
  149.4981  136.8196  155.3687 C   0  0  0  0  0  0  0  0  0  0  0  0
  149.5304  136.6618  156.5896 O   0  0  0  0  0  0  0  0  0  0  0  0
  148.7187  136.0846  154.5594 N   0  0  0  0  0  0  0  0  0  0  0  0
  147.8079  135.0367  155.0047 C   0  0  0  0  0  0  0  0  0  0  0  0
  146.4342  135.1470  154.3132 C   0  0  0  0  0  0  0  0  0  0  0  0
  146.5025  134.9143  152.8452 N   0  3  0  0  0  0  0  0  0  0  0  0
  145.3262  135.4799  152.1265 C   0  0  0  0  0  0  0  0  0  0  0  0
  144.1055  134.5426  152.0558 C   0  0  0  0  0  0  0  0  0  0  0  0
  144.1107  133.6597  150.7982 C   0  0  0  0  0  0  0  0  0  0  0  0
  145.1939  132.5730  150.7985 C   0  0  0  0  0  0  0  0  0  0  0  0
  146.6197  133.0995  151.0345 C   0  0  0  0  0  0  0  0  0  0  0  0
  146.8729  133.5119  152.4980 C   0  0  0  0  0  0  0  0  0  0  0  0
  150.1092  139.1981  155.2833 N   0  0  0  0  0  0  0  0  0  0  0  0
  149.3204  139.5368  156.3057 C   0  0  0  0  0  0  0  0  0  0  0  0
  149.3562  140.8266  156.6100 N   0  0  0  0  0  0  0  0  0  0  0  0
  150.2571  141.2560  155.6771 C   0  0  0  0  0  0  0  0  0  0  0  0
  150.7475  140.3197  154.8650 N   0  0  0  0  0  0  0  0  0  0  0  0
  152.0479  136.5738  154.2198 H   0  0  0  0  0  0  0  0  0  0  0  0
  152.2636  137.4633  155.7233 H   0  0  0  0  0  0  0  0  0  0  0  0
  152.4525  138.2837  154.1783 H   0  0  0  0  0  0  0  0  0  0  0  0
  150.0635  137.9470  153.6456 H   0  0  0  0  0  0  0  0  0  0  0  0
  148.7485  136.2758  153.5681 H   0  0  0  0  0  0  0  0  0  0  0  0
  148.2519  134.0561  154.8244 H   0  0  0  0  0  0  0  0  0  0  0  0
  147.7069  135.1403  156.0848 H   0  0  0  0  0  0  0  0  0  0  0  0
  145.7249  134.4509  154.7632 H   0  0  0  0  0  0  0  0  0  0  0  0
  146.0404  136.1475  154.4959 H   0  0  0  0  0  0  0  0  0  0  0  0
  145.0317  136.4190  152.5966 H   0  0  0  0  0  0  0  0  0  0  0  0
  145.6344  135.7674  151.1206 H   0  0  0  0  0  0  0  0  0  0  0  0
  144.0067  133.9422  152.9609 H   0  0  0  0  0  0  0  0  0  0  0  0
  143.2089  135.1621  152.0143 H   0  0  0  0  0  0  0  0  0  0  0  0
  143.1373  133.1779  150.6996 H   0  0  0  0  0  0  0  0  0  0  0  0
  144.2214  134.2858  149.9119 H   0  0  0  0  0  0  0  0  0  0  0  0
  144.9534  131.8152  151.5453 H   0  0  0  0  0  0  0  0  0  0  0  0
  145.1632  132.0587  149.8371 H   0  0  0  0  0  0  0  0  0  0  0  0
  147.3049  132.2839  150.7999 H   0  0  0  0  0  0  0  0  0  0  0  0
  146.8738  133.8999  150.3388 H   0  0  0  0  0  0  0  0  0  0  0  0
  147.9388  133.4015  152.6975 H   0  0  0  0  0  0  0  0  0  0  0  0
  146.3683  132.8136  153.1675 H   0  0  0  0  0  0  0  0  0  0  0  0
  148.7091  138.8250  156.8412 H   0  0  0  0  0  0  0  0  0  0  0  0
  150.5662  142.2880  155.5985 H   0  0  0  0  0  0  0  0  0  0  0  0
  147.2752  135.4825  152.5281 H   0  0  0  0  0  0  0  0  0  0  0  0
  1  2  1  0  0  0  0
  1 20  1  0  0  0  0
  1 21  1  0  0  0  0
  1 22  1  0  0  0  0
  2  3  1  0  0  0  0
  2 15  1  0  0  0  0
  2 23  1  0  0  0  0
  3  4  2  0  0  0  0
  3  5  1  0  0  0  0
  5  6  1  0  0  0  0
  5 24  1  0  0  0  0
  6  7  1  0  0  0  0
  6 25  1  0  0  0  0
  6 26  1  0  0  0  0
  7  8  1  0  0  0  0
  7 27  1  0  0  0  0
  7 28  1  0  0  0  0
  8 14  1  0  0  0  0
  8  9  1  0  0  0  0
  8 43  1  0  0  0  0
  9 10  1  0  0  0  0
  9 29  1  0  0  0  0
  9 30  1  0  0  0  0
 10 11  1  0  0  0  0
 10 31  1  0  0  0  0
 10 32  1  0  0  0  0
 11 12  1  0  0  0  0
 11 33  1  0  0  0  0
 11 34  1  0  0  0  0
 12 13  1  0  0  0  0
 12 35  1  0  0  0  0
 12 36  1  0  0  0  0
 13 14  1  0  0  0  0
 13 37  1  0  0  0  0
 13 38  1  0  0  0  0
 14 39  1  0  0  0  0
 14 40  1  0  0  0  0
 15 19  1  0  0  0  0
 15 16  1  0  0  0  0
 16 17  2  0  0  0  0
 16 41  1  0  0  0  0
 17 18  1  0  0  0  0
 18 19  2  0  0  0  0
 18 42  1  0  0  0  0
M  CHG  1   8   1
M  END
> <s_m_source_file>
AV-unprocessed.smi

> <i_m_source_file_index>
3344

> <i_lp_mmshare_version>
43012

> <i_f3d_flags>
0

> <s_epik_input>
bjFbY0hdbltjSF1uMVtDQEhdKFtDSDNdKUMoPU8pW05IXVtDSDJdW0NIMl1OMltDSDJdW0NIMl1bQ0gyXVtDSDJdW0NIMl1bQ0gyXTI=

> <s_epik_cmdline>
J2VwaWtfcHl0aG9uJywgJy1waCcsICc3LjAnLCAnLXRuJywgJzgnLCAnLW1hJywgJzIwMCcsICctbWV0YWxfYmluZGluZycsICctaW1hZScsICc8aW5maWxlLm1hZT4nLCAnLW9tYWUnLCAnPG91dGZpbGUubWFlPic=

> <r_lp_tautomer_probability>
1

> <r_epik_Ionization_Penalty>
0.00266407

> <r_epik_Ionization_Penalty_Charging>
0.00265606

> <r_epik_Ionization_Penalty_Neutral>
8.01095e-06

> <r_epik_State_Penalty>
0.00184955

> <r_epik_Charging_Adjusted_Penalty>
0.00450561

> <i_epik_Tot_Q>
1

> <i_epik_Tot_abs_Q>
1

> <r_epik_Metal_State_Penalty>
-0

> <b_epik_Metal_Only>
0

> <s_lp_Force_Field>
OPLS_2005

> <r_lp_Energy>
28.0166

> <b_lp_Chiralities_Consistent>
1

> <s_lp_Variant>
AV-unprocessed.smi:3344-2

> <Gold.Version>
5.8.1

> <Gold.Id.Protein>
6NUR|6NUR_protein|mol2

> <Gold.PLP.Fitness>
42.7167

> <Gold.PLP.PLP>
-28.4964

> <Gold.PLP.part.hbond>
-2.8995

> <Gold.PLP.part.metal>
0.0000

> <Gold.PLP.part.buried>
-4.0399

> <Gold.PLP.part.nonpolar>
-21.7846

> <Gold.PLP.part.repulsive>
0.1685

> <Gold.PLP.ligand.clash>
0.0000

> <Gold.PLP.ligand.torsion>
0.3663

> <Gold.PLP.Chemscore.Hbond>
3.9440

> <Gold.PLP.Chemscore.CHOScore>
0.9845

> <Gold.PLP.Chemscore.Metal>
0.0000

> <Gold.Chemscore.Hbonds>
donor molecule, donor type, donor heavy atom, donor atom, acceptor molecule, acceptor atom, score
      L1  H     5    24       P1  7948  1.00
      L1  H     8    43       P1  7948  2.00
      P1  H  7989  7998       L1    19  1.00

> <Gold.PLP.Chemscore.Internal.Correction>
0.1672

> <Gold.Rescore>
     Score         DG    S(hbond)    S(metal)    S(lipo)     H(rot)  DE(clash)    DE(int)     intcor
     14.86     -15.20       2.91        0.00      55.42       2.54       0.00       0.34       ----

> <Gold.Chemscore.Fitness>
14.8630

> <Gold.Chemscore.DG>
-15.1991

> <Gold.Chemscore.ZeroCoef>
-5.4800

> <Gold.Chemscore.Hbond>
2.9135

> <Gold.Chemscore.Metal>
0.0000

> <Gold.Chemscore.Lipo>
55.4245

> <Gold.Chemscore.Internal_Hbond>
0.0000

> <Gold.Chemscore.DEClash>
0.0000

> <Gold.Chemscore.DEInternal>
0.3361

> <Gold.Chemscore.Rot>
2.5377

> <Gold.Chemscore.Internal.Correction>
   9.000000E+99

> <Gold.Chemscore.Hbonds>
donor molecule, donor type, donor heavy atom, donor atom, acceptor molecule, acceptor atom, score
      L1  H     5    24       P1  7948  1.00
      L1  H     8    43       P1  7948  0.99
      P1  H  7989  7998       L1    19  0.92

> <Gold.Chemscore.Hbond.Weighted>
-9.7310

> <Gold.Chemscore.Metal.Weighted>
-0.0000

> <Gold.Chemscore.Lipo.Weighted>
-6.4847

> <Gold.Chemscore.Internal_Hbond.Weighted>
0.0000

> <Gold.Chemscore.DEClash.Weighted>
0.0000

> <Gold.Chemscore.DEInternal.Weighted>
0.3361

> <Gold.Chemscore.Rot.Weighted>
6.4966

> <Gold.Chemscore.Internal.Correction.Weighted>
   9.000000E+99

> <Gold.Protein.RotatedTorsions>
[ 6907 6896 6895 6894 ] final  -99.41 input  -60.11 | X-H torsion
[ 7974 7965 7964 7962 ] final   24.78 input  175.53 | X-H torsion
[ 8008 7997 7996 7995 ] final -123.38 input   59.86 | X-H torsion
[ 10167 10162 10161 10158 ] final   82.93 input  -65.29 | X-H torsion
[ 10718 10713 10712 10709 ] final  174.52 input   66.30 | X-H torsion
[ 10763 10752 10751 10750 ] final  151.62 input  -60.55 | X-H torsion
[ 11005 11000 10999 10996 ] final -118.78 input  -57.11 | X-H torsion

> <Gold.Protein.ActiveResidues>
 VAL166  LYS551  ARG553  GLY616  TRP617  ASP618  TYR619  PRO620  LYS621  CYS622 
 ASP623  PHE694  ASN695  SER759  ASP760  ASP761  ALA762  ILE779  LEU786  VAL792 
 PHE793  MET794  SER795  GLU796  ALA797  LYS798  CYS799  TRP800  GLU811  SER814 

> <Gold.Protein.RotatedAtoms>
  150.7079  134.1045  159.3977 H   0  0  0  0  0  0  0  0  0  0  0  0  # atno 6907 bound_to 6896
  151.9031  135.0368  160.0517 H   0  0  0  0  0  0  0  0  0  0  0  0  # atno 6908 bound_to 6896
  152.2398  133.5090  159.5300 H   0  0  0  0  0  0  0  0  0  0  0  0  # atno 6909 bound_to 6896
  146.1921  139.7556  142.8824 H   0  0  0  0  0  0  0  0  0  0  0  0  # atno 7974 bound_to 7965
  155.1796  140.0410  157.2879 H   0  0  0  0  0  0  0  0  0  0  0  0  # atno 8008 bound_to 7997
  154.6212  140.2501  155.7519 H   0  0  0  0  0  0  0  0  0  0  0  0  # atno 8009 bound_to 7997
  156.2435  140.2894  156.0521 H   0  0  0  0  0  0  0  0  0  0  0  0  # atno 8010 bound_to 7997
  139.9237  144.6196  150.8414 H   0  0  0  0  0  0  0  0  0  0  0  0  # atno 10167 bound_to 10162
  156.9483  131.0023  151.2954 H   0  0  0  0  0  0  0  0  0  0  0  0  # atno 10718 bound_to 10713
  154.1068  135.2842  155.3239 H   0  0  0  0  0  0  0  0  0  0  0  0  # atno 10763 bound_to 10752
  154.6517  135.5366  153.7913 H   0  0  0  0  0  0  0  0  0  0  0  0  # atno 10764 bound_to 10752
  153.0359  135.6512  154.1229 H   0  0  0  0  0  0  0  0  0  0  0  0  # atno 10765 bound_to 10752
  141.0262  134.0050  157.3211 H   0  0  0  0  0  0  0  0  0  0  0  0  # atno 11005 bound_to 11000
  145.3761  141.0351  143.3204 LP  0  0  0  0  0  0  0  0  0  0  0  0  # atno 17320 bound_to 7965
  144.8506  139.5327  143.6858 LP  0  0  0  0  0  0  0  0  0  0  0  0  # atno 17321 bound_to 7965
  140.7656  143.3279  151.2475 LP  0  0  0  0  0  0  0  0  0  0  0  0  # atno 17342 bound_to 10162
  139.6840  143.9805  152.2824 LP  0  0  0  0  0  0  0  0  0  0  0  0  # atno 17343 bound_to 10162
  157.5739  130.8329  149.8428 LP  0  0  0  0  0  0  0  0  0  0  0  0  # atno 17370 bound_to 10713
  156.0374  130.3748  150.1525 LP  0  0  0  0  0  0  0  0  0  0  0  0  # atno 17371 bound_to 10713
  139.9177  135.0198  156.7946 LP  0  0  0  0  0  0  0  0  0  0  0  0  # atno 17394 bound_to 11000
  140.6487  133.9751  155.7744 LP  0  0  0  0  0  0  0  0  0  0  0  0  # atno 17395 bound_to 11000

$$$$
