AV-unprocessed.smi:1087|AV-procd|sdf|4727|dock1
  -GOLD-   22720 3253D 1   1.00000     0.00000
 Structure written by MMmdl.
 46 47  0  0  0  0  0  0  0  0  1 V2000
  151.4440  144.4222  157.8340 C   0  0  0  0  0  0  0  0  0  0  0  0
  152.2911  144.9424  158.8464 O   0  0  0  0  0  0  0  0  0  0  0  0
  151.6400  145.1800  160.0882 C   0  0  0  0  0  0  0  0  0  0  0  0
  152.1469  144.2833  161.2378 C   0  0  0  0  0  0  0  0  0  0  0  0
  152.9226  143.1078  160.8367 N   0  0  0  0  0  0  0  0  0  0  0  0
  152.2039  142.2516  159.8897 C   0  0  0  0  0  0  0  0  0  0  0  0
  153.0349  141.0379  159.4393 C   0  0  0  0  0  0  0  0  0  0  0  0
  153.4891  140.1963  160.6452 C   0  0  0  0  0  0  0  0  0  0  0  0
  154.3712  139.0105  160.1999 C   0  0  0  0  0  0  0  0  0  0  0  0
  153.8553  138.3506  159.0055 N   0  0  0  0  0  0  0  0  0  0  0  0
  153.0707  137.2628  159.0024 C   0  0  0  0  0  0  0  0  0  0  0  0
  152.6618  136.7219  160.0305 O   0  0  0  0  0  0  0  0  0  0  0  0
  152.6824  136.7173  157.6212 C   0  0  0  0  0  0  0  0  0  0  0  0
  151.8696  137.6601  156.8354 N   0  0  0  0  0  0  0  0  0  0  0  0
  152.3615  138.0540  155.5795 C   0  0  0  0  0  0  0  0  0  0  0  0
  151.6756  138.9112  154.8099 C   0  0  0  0  0  0  0  0  0  0  0  0
  150.4025  139.4021  155.3537 C   0  0  0  0  0  0  0  0  0  0  0  0
  149.9525  139.0470  156.4990 N   0  0  0  0  0  0  0  0  0  0  0  0
  150.6760  138.1491  157.3067 C   0  0  0  0  0  0  0  0  0  0  0  0
  150.2518  137.8069  158.4109 O   0  0  0  0  0  0  0  0  0  0  0  0
  154.1913  141.1179  161.6631 C   0  0  0  0  0  0  0  0  0  0  0  0
  153.3031  142.3233  162.0120 C   0  0  0  0  0  0  0  0  0  0  0  0
  152.0106  144.3144  156.9091 H   0  0  0  0  0  0  0  0  0  0  0  0
  150.6071  145.0931  157.6355 H   0  0  0  0  0  0  0  0  0  0  0  0
  151.0518  143.4396  158.0955 H   0  0  0  0  0  0  0  0  0  0  0  0
  151.7893  146.2265  160.3562 H   0  0  0  0  0  0  0  0  0  0  0  0
  150.5636  145.0543  159.9625 H   0  0  0  0  0  0  0  0  0  0  0  0
  152.7900  144.9136  161.8534 H   0  0  0  0  0  0  0  0  0  0  0  0
  151.3266  143.9878  161.8917 H   0  0  0  0  0  0  0  0  0  0  0  0
  151.2668  141.9113  160.3331 H   0  0  0  0  0  0  0  0  0  0  0  0
  151.9393  142.8172  158.9982 H   0  0  0  0  0  0  0  0  0  0  0  0
  152.4489  140.4250  158.7536 H   0  0  0  0  0  0  0  0  0  0  0  0
  153.9049  141.3838  158.8793 H   0  0  0  0  0  0  0  0  0  0  0  0
  152.5931  139.7942  161.1209 H   0  0  0  0  0  0  0  0  0  0  0  0
  155.3947  139.3443  160.0213 H   0  0  0  0  0  0  0  0  0  0  0  0
  154.4265  138.2679  160.9965 H   0  0  0  0  0  0  0  0  0  0  0  0
  154.1372  138.7344  158.1152 H   0  0  0  0  0  0  0  0  0  0  0  0
  153.5995  136.4626  157.0885 H   0  0  0  0  0  0  0  0  0  0  0  0
  152.1445  135.7740  157.7358 H   0  0  0  0  0  0  0  0  0  0  0  0
  153.3122  137.6274  155.2945 H   0  0  0  0  0  0  0  0  0  0  0  0
  151.9966  139.2561  153.8380 H   0  0  0  0  0  0  0  0  0  0  0  0
  149.8572  140.0982  154.7113 H   0  0  0  0  0  0  0  0  0  0  0  0
  154.4285  140.5700  162.5755 H   0  0  0  0  0  0  0  0  0  0  0  0
  155.1400  141.4696  161.2551 H   0  0  0  0  0  0  0  0  0  0  0  0
  153.8401  142.9576  162.7185 H   0  0  0  0  0  0  0  0  0  0  0  0
  152.4080  141.9757  162.5304 H   0  0  0  0  0  0  0  0  0  0  0  0
  1  2  1  0  0  0  0
  1 23  1  0  0  0  0
  1 24  1  0  0  0  0
  1 25  1  0  0  0  0
  2  3  1  0  0  0  0
  3  4  1  0  0  0  0
  3 26  1  0  0  0  0
  3 27  1  0  0  0  0
  4  5  1  0  0  0  0
  4 28  1  0  0  0  0
  4 29  1  0  0  0  0
  5 22  1  0  0  0  0
  5  6  1  0  0  0  0
  6  7  1  0  0  0  0
  6 30  1  0  0  0  0
  6 31  1  0  0  0  0
  7  8  1  0  0  0  0
  7 32  1  0  0  0  0
  7 33  1  0  0  0  0
  8  9  1  0  0  0  0
  8 21  1  0  0  0  0
  8 34  1  0  0  0  0
  9 10  1  0  0  0  0
  9 35  1  0  0  0  0
  9 36  1  0  0  0  0
 10 11  1  0  0  0  0
 10 37  1  0  0  0  0
 11 12  2  0  0  0  0
 11 13  1  0  0  0  0
 13 14  1  0  0  0  0
 13 38  1  0  0  0  0
 13 39  1  0  0  0  0
 14 19  1  0  0  0  0
 14 15  1  0  0  0  0
 15 16  2  0  0  0  0
 15 40  1  0  0  0  0
 16 17  1  0  0  0  0
 16 41  1  0  0  0  0
 17 18  2  0  0  0  0
 17 42  1  0  0  0  0
 18 19  1  0  0  0  0
 19 20  2  0  0  0  0
 21 22  1  0  0  0  0
 21 43  1  0  0  0  0
 21 44  1  0  0  0  0
 22 45  1  0  0  0  0
 22 46  1  0  0  0  0
M  END
> <s_m_source_file>
AV-unprocessed.smi

> <i_m_source_file_index>
1087

> <i_lp_mmshare_version>
43012

> <i_f3d_flags>
0

> <s_epik_input>
W0NIM11PW0NIMl1bQ0gyXU4xW0NIMl1bQ0gyXVtDSF0oW0NIMl1bQ0gyXTEpW0NIMl1bTkhdQyg9TylbQ0gyXW4yW2NIXVtjSF1bY0hdbmMyPU8=

> <s_epik_cmdline>
J2VwaWtfcHl0aG9uJywgJy1waCcsICc3LjAnLCAnLXRuJywgJzgnLCAnLW1hJywgJzIwMCcsICctbWV0YWxfYmluZGluZycsICctaW1hZScsICc8aW5maWxlLm1hZT4nLCAnLW9tYWUnLCAnPG91dGZpbGUubWFlPic=

> <r_lp_tautomer_probability>
1

> <r_epik_Ionization_Penalty>
2.43401

> <r_epik_Ionization_Penalty_Charging>
1.64716e-08

> <r_epik_Ionization_Penalty_Neutral>
2.43401

> <r_epik_State_Penalty>
2.59428

> <r_epik_Charging_Adjusted_Penalty>
2.59428

> <i_epik_Tot_Q>
0

> <i_epik_Tot_abs_Q>
0

> <r_epik_Metal_State_Penalty>
2.59427

> <b_epik_Metal_Only>
0

> <s_lp_Force_Field>
OPLS_2005

> <r_lp_Energy>
30.2677

> <b_lp_Chiralities_Consistent>
1

> <s_lp_Variant>
AV-unprocessed.smi:1087-3

> <Gold.Version>
5.8.1

> <Gold.Id.Protein>
6NUR|6NUR_protein|mol2

> <Gold.PLP.Fitness>
44.1885

> <Gold.PLP.PLP>
-42.9572

> <Gold.PLP.part.hbond>
-1.0000

> <Gold.PLP.part.metal>
0.0000

> <Gold.PLP.part.buried>
-3.6267

> <Gold.PLP.part.nonpolar>
-37.0264

> <Gold.PLP.part.repulsive>
0.1174

> <Gold.PLP.ligand.clash>
0.0000

> <Gold.PLP.ligand.torsion>
1.0112

> <Gold.PLP.Chemscore.Hbond>
1.0000

> <Gold.PLP.Chemscore.CHOScore>
0.0000

> <Gold.PLP.Chemscore.Metal>
0.0000

> <Gold.Chemscore.Hbonds>
donor molecule, donor type, donor heavy atom, donor atom, acceptor molecule, acceptor atom, score
      P1  H  6896  6907       L1    12  1.00

> <Gold.PLP.Chemscore.Internal.Correction>
0.2537

> <Gold.Rescore>
     Score         DG    S(hbond)    S(metal)    S(lipo)     H(rot)  DE(clash)    DE(int)     intcor
     14.39     -16.79       1.00        0.00     120.01       2.37       0.01       2.39       ----

> <Gold.Chemscore.Fitness>
14.3895

> <Gold.Chemscore.DG>
-16.7872

> <Gold.Chemscore.ZeroCoef>
-5.4800

> <Gold.Chemscore.Hbond>
0.9999

> <Gold.Chemscore.Metal>
0.0000

> <Gold.Chemscore.Lipo>
120.0054

> <Gold.Chemscore.Internal_Hbond>
0.0000

> <Gold.Chemscore.DEClash>
0.0098

> <Gold.Chemscore.DEInternal>
2.3879

> <Gold.Chemscore.Rot>
2.3723

> <Gold.Chemscore.Internal.Correction>
   9.000000E+99

> <Gold.Chemscore.Hbonds>
donor molecule, donor type, donor heavy atom, donor atom, acceptor molecule, acceptor atom, score
      P1  H  6896  6907       L1    12  0.99

> <Gold.Chemscore.Hbond.Weighted>
-3.3397

> <Gold.Chemscore.Metal.Weighted>
-0.0000

> <Gold.Chemscore.Lipo.Weighted>
-14.0406

> <Gold.Chemscore.Internal_Hbond.Weighted>
0.0000

> <Gold.Chemscore.DEClash.Weighted>
0.0098

> <Gold.Chemscore.DEInternal.Weighted>
2.3879

> <Gold.Chemscore.Rot.Weighted>
6.0731

> <Gold.Chemscore.Internal.Correction.Weighted>
   9.000000E+99

> <Gold.Protein.RotatedTorsions>
[ 6907 6896 6895 6894 ] final   19.87 input  -60.11 | X-H torsion
[ 7974 7965 7964 7962 ] final -148.93 input  175.53 | X-H torsion
[ 8008 7997 7996 7995 ] final  165.25 input   59.86 | X-H torsion
[ 10167 10162 10161 10158 ] final  -78.08 input  -65.29 | X-H torsion
[ 10718 10713 10712 10709 ] final  169.11 input   66.30 | X-H torsion
[ 10763 10752 10751 10750 ] final   90.56 input  -60.55 | X-H torsion
[ 11005 11000 10999 10996 ] final   96.84 input  -57.11 | X-H torsion

> <Gold.Protein.ActiveResidues>
 VAL166  LYS551  ARG553  GLY616  TRP617  ASP618  TYR619  PRO620  LYS621  CYS622 
 ASP623  PHE694  ASN695  SER759  ASP760  ASP761  ALA762  ILE779  LEU786  VAL792 
 PHE793  MET794  SER795  GLU796  ALA797  LYS798  CYS799  TRP800  GLU811  SER814 

> <Gold.Protein.RotatedAtoms>
  151.8875  135.0429  160.0494 H   0  0  0  0  0  0  0  0  0  0  0  0  # atno 6907 bound_to 6896
  152.2463  133.5172  159.5307 H   0  0  0  0  0  0  0  0  0  0  0  0  # atno 6908 bound_to 6896
  150.7069  134.0938  159.3983 H   0  0  0  0  0  0  0  0  0  0  0  0  # atno 6909 bound_to 6896
  144.7999  140.5132  143.5714 H   0  0  0  0  0  0  0  0  0  0  0  0  # atno 7974 bound_to 7965
  156.1815  140.1675  156.8264 H   0  0  0  0  0  0  0  0  0  0  0  0  # atno 8008 bound_to 7997
  154.5366  140.0745  156.8471 H   0  0  0  0  0  0  0  0  0  0  0  0  # atno 8009 bound_to 7997
  155.3299  140.3378  155.4242 H   0  0  0  0  0  0  0  0  0  0  0  0  # atno 8010 bound_to 7997
  140.4713  143.2426  151.8200 H   0  0  0  0  0  0  0  0  0  0  0  0  # atno 10167 bound_to 10162
  157.0274  131.0249  151.2755 H   0  0  0  0  0  0  0  0  0  0  0  0  # atno 10718 bound_to 10713
  153.1989  135.4429  155.0242 H   0  0  0  0  0  0  0  0  0  0  0  0  # atno 10763 bound_to 10752
  154.8135  135.3305  154.7243 H   0  0  0  0  0  0  0  0  0  0  0  0  # atno 10764 bound_to 10752
  153.7690  135.6986  153.4966 H   0  0  0  0  0  0  0  0  0  0  0  0  # atno 10765 bound_to 10752
  139.8779  134.8971  156.4218 H   0  0  0  0  0  0  0  0  0  0  0  0  # atno 11005 bound_to 11000
  145.5580  139.1478  143.3357 LP  0  0  0  0  0  0  0  0  0  0  0  0  # atno 17320 bound_to 7965
  146.2277  140.5717  142.8989 LP  0  0  0  0  0  0  0  0  0  0  0  0  # atno 17321 bound_to 7965
  139.4819  144.4888  151.9212 LP  0  0  0  0  0  0  0  0  0  0  0  0  # atno 17342 bound_to 10162
  140.3973  144.2538  150.5895 LP  0  0  0  0  0  0  0  0  0  0  0  0  # atno 17343 bound_to 10162
  157.5204  130.7994  149.7802 LP  0  0  0  0  0  0  0  0  0  0  0  0  # atno 17370 bound_to 10713
  156.0081  130.3846  150.2359 LP  0  0  0  0  0  0  0  0  0  0  0  0  # atno 17371 bound_to 10713
  140.9128  133.7700  155.9812 LP  0  0  0  0  0  0  0  0  0  0  0  0  # atno 17394 bound_to 11000
  140.8527  134.2934  157.5268 LP  0  0  0  0  0  0  0  0  0  0  0  0  # atno 17395 bound_to 11000

$$$$
