AV-unprocessed.smi:1536|AV-procd|sdf|6186|dock1
  -GOLD-   22720 6343D 1   1.00000     0.00000
 Structure written by MMmdl.
 48 49  0  0  0  0  0  0  0  0  2 V2000
  152.1775  144.9937  159.2055 C   0  0  0  0  0  0  0  0  0  0  0  0
  151.4513  143.7490  158.6766 C   0  0  2  0  0  0  0  0  0  0  0  0
  151.7242  143.5239  157.1799 C   0  0  0  0  0  0  0  0  0  0  0  0
  150.9709  142.2894  156.6603 C   0  0  0  0  0  0  0  0  0  0  0  0
  149.5059  142.4241  156.8958 N   0  3  1  0  0  0  0  0  0  0  0  0
  148.6314  141.4076  156.2291 C   0  0  2  0  0  0  0  0  0  0  0  0
  148.5158  140.0713  157.0134 C   0  0  0  0  0  0  0  0  0  0  0  0
  149.8201  139.6003  157.4680 N   0  0  0  0  0  0  0  0  0  0  0  0
  150.0400  138.7865  158.5130 C   0  0  0  0  0  0  0  0  0  0  0  0
  149.1446  138.2366  159.1529 O   0  0  0  0  0  0  0  0  0  0  0  0
  151.4985  138.6044  158.9293 C   0  0  0  0  0  0  0  0  0  0  0  0
  152.1039  137.5299  158.1654 N   0  0  0  0  0  0  0  0  0  0  0  0
  152.2376  137.3576  156.8488 C   0  0  0  0  0  0  0  0  0  0  0  0
  152.8185  136.2021  156.5643 N   0  0  0  0  0  0  0  0  0  0  0  0
  153.0483  135.6487  157.8126 N   0  0  0  0  0  0  0  0  0  0  0  0
  152.6261  136.4315  158.7667 N   0  0  0  0  0  0  0  0  0  0  0  0
  148.9901  141.2593  154.7210 C   0  0  0  0  0  0  0  0  0  0  0  0
  147.7909  141.3617  153.7632 C   0  0  0  0  0  0  0  0  0  0  0  0
  149.7993  139.9797  154.4481 C   0  0  0  0  0  0  0  0  0  0  0  0
  149.2057  142.6013  158.3412 C   0  0  0  0  0  0  0  0  0  0  0  0
  149.9331  143.8323  158.9093 C   0  0  0  0  0  0  0  0  0  0  0  0
  151.8421  145.8968  158.6948 H   0  0  0  0  0  0  0  0  0  0  0  0
  153.2550  144.9105  159.0610 H   0  0  0  0  0  0  0  0  0  0  0  0
  151.9988  145.1289  160.2727 H   0  0  0  0  0  0  0  0  0  0  0  0
  151.8314  142.8858  159.2254 H   0  0  0  0  0  0  0  0  0  0  0  0
  151.4227  144.4031  156.6083 H   0  0  0  0  0  0  0  0  0  0  0  0
  152.7942  143.3974  157.0108 H   0  0  0  0  0  0  0  0  0  0  0  0
  151.1812  142.1659  155.5992 H   0  0  0  0  0  0  0  0  0  0  0  0
  151.3503  141.3989  157.1635 H   0  0  0  0  0  0  0  0  0  0  0  0
  147.6185  141.8134  156.2244 H   0  0  0  0  0  0  0  0  0  0  0  0
  147.8308  140.1609  157.8569 H   0  0  0  0  0  0  0  0  0  0  0  0
  148.1003  139.2992  156.3649 H   0  0  0  0  0  0  0  0  0  0  0  0
  150.6279  139.9917  157.0045 H   0  0  0  0  0  0  0  0  0  0  0  0
  152.0591  139.5231  158.7517 H   0  0  0  0  0  0  0  0  0  0  0  0
  151.5673  138.3803  159.9948 H   0  0  0  0  0  0  0  0  0  0  0  0
  151.9007  138.0658  156.1064 H   0  0  0  0  0  0  0  0  0  0  0  0
  149.6597  142.0790  154.4610 H   0  0  0  0  0  0  0  0  0  0  0  0
  147.1247  140.5045  153.8589 H   0  0  0  0  0  0  0  0  0  0  0  0
  148.1282  141.3915  152.7267 H   0  0  0  0  0  0  0  0  0  0  0  0
  147.2086  142.2659  153.9374 H   0  0  0  0  0  0  0  0  0  0  0  0
  149.2112  139.0815  154.6383 H   0  0  0  0  0  0  0  0  0  0  0  0
  150.6905  139.9346  155.0749 H   0  0  0  0  0  0  0  0  0  0  0  0
  150.1308  139.9415  153.4100 H   0  0  0  0  0  0  0  0  0  0  0  0
  148.1332  142.7362  158.4866 H   0  0  0  0  0  0  0  0  0  0  0  0
  149.4918  141.7015  158.8879 H   0  0  0  0  0  0  0  0  0  0  0  0
  149.7228  143.9224  159.9756 H   0  0  0  0  0  0  0  0  0  0  0  0
  149.5371  144.7343  158.4402 H   0  0  0  0  0  0  0  0  0  0  0  0
  149.2410  143.3014  156.4706 H   0  0  0  0  0  0  0  0  0  0  0  0
  1  2  1  0  0  0  0
  1 22  1  0  0  0  0
  1 23  1  0  0  0  0
  1 24  1  0  0  0  0
  2 21  1  0  0  0  0
  2  3  1  0  0  0  0
  2 25  1  0  0  0  0
  3  4  1  0  0  0  0
  3 26  1  0  0  0  0
  3 27  1  0  0  0  0
  4  5  1  0  0  0  0
  4 28  1  0  0  0  0
  4 29  1  0  0  0  0
  5  6  1  0  0  0  0
  5 20  1  0  0  0  0
  5 48  1  0  0  0  0
  6  7  1  0  0  0  0
  6 17  1  0  0  0  0
  6 30  1  0  0  0  0
  7  8  1  0  0  0  0
  7 31  1  0  0  0  0
  7 32  1  0  0  0  0
  8  9  1  0  0  0  0
  8 33  1  0  0  0  0
  9 10  2  0  0  0  0
  9 11  1  0  0  0  0
 11 12  1  0  0  0  0
 11 34  1  0  0  0  0
 11 35  1  0  0  0  0
 12 16  1  0  0  0  0
 12 13  1  0  0  0  0
 13 14  2  0  0  0  0
 13 36  1  0  0  0  0
 14 15  1  0  0  0  0
 15 16  2  0  0  0  0
 17 18  1  0  0  0  0
 17 19  1  0  0  0  0
 17 37  1  0  0  0  0
 18 38  1  0  0  0  0
 18 39  1  0  0  0  0
 18 40  1  0  0  0  0
 19 41  1  0  0  0  0
 19 42  1  0  0  0  0
 19 43  1  0  0  0  0
 20 21  1  0  0  0  0
 20 44  1  0  0  0  0
 20 45  1  0  0  0  0
 21 46  1  0  0  0  0
 21 47  1  0  0  0  0
M  CHG  1   5   1
M  END
> <s_m_source_file>
AV-unprocessed.smi

> <i_m_source_file_index>
1536

> <i_lp_mmshare_version>
43012

> <i_f3d_flags>
0

> <s_epik_input>
W0NIM11bQ0hdMVtDSDJdW0NIMl1OKFtDSDJdW0NIMl0xKVtDQEBIXShbQ0hdKFtDSDNdKVtDSDNdKVtDSDJdW05IXUMoPU8pW0NIMl1uMltjSF1ubm4y

> <s_epik_cmdline>
J2VwaWtfcHl0aG9uJywgJy1waCcsICc3LjAnLCAnLXRuJywgJzgnLCAnLW1hJywgJzIwMCcsICctbWV0YWxfYmluZGluZycsICctaW1hZScsICc8aW5maWxlLm1hZT4nLCAnLW9tYWUnLCAnPG91dGZpbGUubWFlPic=

> <r_lp_tautomer_probability>
1

> <r_epik_Ionization_Penalty>
0.00109671

> <r_epik_Ionization_Penalty_Charging>
0.00109273

> <r_epik_Ionization_Penalty_Neutral>
3.97951e-06

> <r_epik_State_Penalty>
0.000716588

> <r_epik_Charging_Adjusted_Penalty>
0.00180932

> <i_epik_Tot_Q>
1

> <i_epik_Tot_abs_Q>
1

> <r_epik_Metal_State_Penalty>
-0

> <b_epik_Metal_Only>
0

> <s_lp_Force_Field>
OPLS_2005

> <r_lp_Energy>
28.917

> <b_lp_Chiralities_Consistent>
1

> <s_lp_Variant>
AV-unprocessed.smi:1536-1

> <Gold.Version>
5.8.1

> <Gold.Id.Protein>
6NUR|6NUR_protein|mol2

> <Gold.PLP.Fitness>
43.5242

> <Gold.PLP.PLP>
-35.4934

> <Gold.PLP.part.hbond>
-5.7553

> <Gold.PLP.part.metal>
0.0000

> <Gold.PLP.part.buried>
-4.7553

> <Gold.PLP.part.nonpolar>
-25.0684

> <Gold.PLP.part.repulsive>
0.0781

> <Gold.PLP.ligand.clash>
0.0000

> <Gold.PLP.ligand.torsion>
2.0411

> <Gold.PLP.Chemscore.Hbond>
3.7040

> <Gold.PLP.Chemscore.CHOScore>
0.0000

> <Gold.PLP.Chemscore.Metal>
0.0000

> <Gold.Chemscore.Hbonds>
donor molecule, donor type, donor heavy atom, donor atom, acceptor molecule, acceptor atom, score
      L1  H     5    48       P1  8028  2.00
      P1  H  6896  6908       L1    16  0.70
      P1  H 10752 10765       L1    14  1.00

> <Gold.PLP.Chemscore.Internal.Correction>
1.0011

> <Gold.Rescore>
     Score         DG    S(hbond)    S(metal)    S(lipo)     H(rot)  DE(clash)    DE(int)     intcor
     12.33     -15.53       2.29        0.00      81.08       2.77       0.03       3.17       ----

> <Gold.Chemscore.Fitness>
12.3318

> <Gold.Chemscore.DG>
-15.5260

> <Gold.Chemscore.ZeroCoef>
-5.4800

> <Gold.Chemscore.Hbond>
2.2914

> <Gold.Chemscore.Metal>
0.0000

> <Gold.Chemscore.Lipo>
81.0780

> <Gold.Chemscore.Internal_Hbond>
0.0000

> <Gold.Chemscore.DEClash>
0.0256

> <Gold.Chemscore.DEInternal>
3.1686

> <Gold.Chemscore.Rot>
2.7709

> <Gold.Chemscore.Internal.Correction>
   9.000000E+99

> <Gold.Chemscore.Hbonds>
donor molecule, donor type, donor heavy atom, donor atom, acceptor molecule, acceptor atom, score
      L1  H     5    48       P1  8028  1.00
      P1  H  6896  6908       L1    16  0.18
      P1  H 10752 10765       L1    14  0.92

> <Gold.Chemscore.Hbond.Weighted>
-7.6534

> <Gold.Chemscore.Metal.Weighted>
-0.0000

> <Gold.Chemscore.Lipo.Weighted>
-9.4861

> <Gold.Chemscore.Internal_Hbond.Weighted>
0.0000

> <Gold.Chemscore.DEClash.Weighted>
0.0256

> <Gold.Chemscore.DEInternal.Weighted>
3.1686

> <Gold.Chemscore.Rot.Weighted>
7.0935

> <Gold.Chemscore.Internal.Correction.Weighted>
   9.000000E+99

> <Gold.Protein.RotatedTorsions>
[ 6907 6896 6895 6894 ] final -103.89 input  -60.11 | X-H torsion
[ 7974 7965 7964 7962 ] final   35.42 input  175.53 | X-H torsion
[ 8008 7997 7996 7995 ] final   35.14 input   59.86 | X-H torsion
[ 10167 10162 10161 10158 ] final  -10.15 input  -65.29 | X-H torsion
[ 10718 10713 10712 10709 ] final   98.84 input   66.30 | X-H torsion
[ 10763 10752 10751 10750 ] final -125.83 input  -60.55 | X-H torsion
[ 11005 11000 10999 10996 ] final -145.15 input  -57.11 | X-H torsion

> <Gold.Protein.ActiveResidues>
 VAL166  LYS551  ARG553  GLY616  TRP617  ASP618  TYR619  PRO620  LYS621  CYS622 
 ASP623  PHE694  ASN695  SER759  ASP760  ASP761  ALA762  ILE779  LEU786  VAL792 
 PHE793  MET794  SER795  GLU796  ALA797  LYS798  CYS799  TRP800  GLU811  SER814 

> <Gold.Protein.RotatedAtoms>
  150.7261  134.0361  159.3749 H   0  0  0  0  0  0  0  0  0  0  0  0  # atno 6907 bound_to 6896
  151.8333  135.0612  160.0448 H   0  0  0  0  0  0  0  0  0  0  0  0  # atno 6908 bound_to 6896
  152.2917  133.5532  159.5598 H   0  0  0  0  0  0  0  0  0  0  0  0  # atno 6909 bound_to 6896
  146.1284  139.6145  142.9243 H   0  0  0  0  0  0  0  0  0  0  0  0  # atno 7974 bound_to 7965
  155.1663  140.3288  155.4401 H   0  0  0  0  0  0  0  0  0  0  0  0  # atno 8008 bound_to 7997
  156.2525  140.1951  156.6718 H   0  0  0  0  0  0  0  0  0  0  0  0  # atno 8009 bound_to 7997
  154.6369  140.0575  156.9786 H   0  0  0  0  0  0  0  0  0  0  0  0  # atno 8010 bound_to 7997
  140.7106  143.5780  150.9022 H   0  0  0  0  0  0  0  0  0  0  0  0  # atno 10167 bound_to 10162
  157.6888  131.0652  150.4857 H   0  0  0  0  0  0  0  0  0  0  0  0  # atno 10718 bound_to 10713
  154.8740  135.4016  154.3333 H   0  0  0  0  0  0  0  0  0  0  0  0  # atno 10763 bound_to 10752
  153.4143  135.7021  153.6343 H   0  0  0  0  0  0  0  0  0  0  0  0  # atno 10764 bound_to 10752
  153.5032  135.3723  155.2520 H   0  0  0  0  0  0  0  0  0  0  0  0  # atno 10765 bound_to 10752
  140.7952  134.2922  157.4999 H   0  0  0  0  0  0  0  0  0  0  0  0  # atno 11005 bound_to 11000
  145.5314  141.0427  143.2380 LP  0  0  0  0  0  0  0  0  0  0  0  0  # atno 17320 bound_to 7965
  144.7665  139.6832  143.7212 LP  0  0  0  0  0  0  0  0  0  0  0  0  # atno 17321 bound_to 7965
  139.9506  143.6277  152.3030 LP  0  0  0  0  0  0  0  0  0  0  0  0  # atno 17342 bound_to 10162
  139.6794  144.7656  151.1636 LP  0  0  0  0  0  0  0  0  0  0  0  0  # atno 17343 bound_to 10162
  156.5187  130.4156  149.6262 LP  0  0  0  0  0  0  0  0  0  0  0  0  # atno 17370 bound_to 10713
  156.3174  130.7262  151.2167 LP  0  0  0  0  0  0  0  0  0  0  0  0  # atno 17371 bound_to 10713
  139.8727  134.9398  156.3751 LP  0  0  0  0  0  0  0  0  0  0  0  0  # atno 17394 bound_to 11000
  140.9350  133.7553  156.0073 LP  0  0  0  0  0  0  0  0  0  0  0  0  # atno 17395 bound_to 11000

$$$$
