AV-unprocessed.smi:304|AV-procd|sdf|2278|dock6
  -GOLD-   2262022173D 1   1.00000     0.00000
 Structure written by MMmdl.
 37 39  0  0  0  0  0  0  0  0  2 V2000
  150.9774  139.1791  154.2763 O   0  0  0  0  0  0  0  0  0  0  0  0
  150.6298  138.7165  155.5662 C   0  0  2  0  0  0  0  0  0  0  0  0
  149.1073  138.8312  155.7460 C   0  0  0  0  0  0  0  0  0  0  0  0
  148.4612  137.8907  154.9051 O   0  0  0  0  0  0  0  0  0  0  0  0
  147.0541  138.0512  154.8575 C   0  0  0  0  0  0  0  0  0  0  0  0
  146.5921  137.6425  153.4935 C   0  0  0  0  0  0  0  0  0  0  0  0
  145.9685  136.4677  153.1574 C   0  0  0  0  0  0  0  0  0  0  0  0
  145.6454  136.3758  151.7717 C   0  0  0  0  0  0  0  0  0  0  0  0
  146.0220  137.4852  151.0634 C   0  0  0  0  0  0  0  0  0  0  0  0
  146.7842  138.6689  152.0885 S   0  0  0  0  0  0  0  0  0  0  0  0
  151.4330  139.4346  156.6710 C   0  0  0  0  0  0  0  0  0  0  0  0
  151.0993  140.8609  156.7880 N   0  0  0  0  0  0  0  0  0  0  0  0
  150.4330  141.6718  155.9221 C   0  0  0  0  0  0  0  0  0  0  0  0
  150.3876  142.9153  156.4758 N   0  3  0  0  0  0  0  0  0  0  0  0
  151.0342  142.8989  157.7138 C   0  0  0  0  0  0  0  0  0  0  0  0
  151.2472  143.9110  158.6441 C   0  0  0  0  0  0  0  0  0  0  0  0
  151.9461  143.5590  159.8175 C   0  0  0  0  0  0  0  0  0  0  0  0
  152.1799  144.5063  160.7564 F   0  0  0  0  0  0  0  0  0  0  0  0
  152.4035  142.2413  160.0318 C   0  0  0  0  0  0  0  0  0  0  0  0
  153.0675  141.9454  161.1741 F   0  0  0  0  0  0  0  0  0  0  0  0
  152.1822  141.2237  159.0806 C   0  0  0  0  0  0  0  0  0  0  0  0
  151.4927  141.5813  157.9223 C   0  0  0  0  0  0  0  0  0  0  0  0
  150.8668  138.4689  153.6633 H   0  0  0  0  0  0  0  0  0  0  0  0
  150.8891  137.6573  155.5838 H   0  0  0  0  0  0  0  0  0  0  0  0
  148.8252  138.6816  156.7895 H   0  0  0  0  0  0  0  0  0  0  0  0
  148.7856  139.8351  155.4650 H   0  0  0  0  0  0  0  0  0  0  0  0
  146.5768  137.4326  155.6187 H   0  0  0  0  0  0  0  0  0  0  0  0
  146.7819  139.0902  155.0478 H   0  0  0  0  0  0  0  0  0  0  0  0
  145.7355  135.6760  153.8538 H   0  0  0  0  0  0  0  0  0  0  0  0
  145.1542  135.5116  151.3492 H   0  0  0  0  0  0  0  0  0  0  0  0
  145.8984  137.6791  150.0082 H   0  0  0  0  0  0  0  0  0  0  0  0
  151.2942  138.9603  157.6425 H   0  0  0  0  0  0  0  0  0  0  0  0
  152.4997  139.3684  156.4535 H   0  0  0  0  0  0  0  0  0  0  0  0
  150.0186  141.3826  154.9670 H   0  0  0  0  0  0  0  0  0  0  0  0
  150.8980  144.9206  158.4850 H   0  0  0  0  0  0  0  0  0  0  0  0
  152.5331  140.2178  159.2589 H   0  0  0  0  0  0  0  0  0  0  0  0
  149.9484  143.7150  156.0375 H   0  0  0  0  0  0  0  0  0  0  0  0
  1  2  1  0  0  0  0
  1 23  1  0  0  0  0
  2  3  1  0  0  0  0
  2 11  1  0  0  0  0
  2 24  1  0  0  0  0
  3  4  1  0  0  0  0
  3 25  1  0  0  0  0
  3 26  1  0  0  0  0
  4  5  1  0  0  0  0
  5  6  1  0  0  0  0
  5 27  1  0  0  0  0
  5 28  1  0  0  0  0
  6 10  1  0  0  0  0
  6  7  2  0  0  0  0
  7  8  1  0  0  0  0
  7 29  1  0  0  0  0
  8  9  2  0  0  0  0
  8 30  1  0  0  0  0
  9 10  1  0  0  0  0
  9 31  1  0  0  0  0
 11 12  1  0  0  0  0
 11 32  1  0  0  0  0
 11 33  1  0  0  0  0
 12 22  1  0  0  0  0
 12 13  1  0  0  0  0
 13 14  2  0  0  0  0
 13 34  1  0  0  0  0
 14 15  1  0  0  0  0
 14 37  1  0  0  0  0
 15 22  2  0  0  0  0
 15 16  1  0  0  0  0
 16 17  2  0  0  0  0
 16 35  1  0  0  0  0
 17 18  1  0  0  0  0
 17 19  1  0  0  0  0
 19 20  1  0  0  0  0
 19 21  2  0  0  0  0
 21 22  1  0  0  0  0
 21 36  1  0  0  0  0
M  CHG  1  14   1
M  END
> <s_m_source_file>
AV-unprocessed.smi

> <i_m_source_file_index>
304

> <i_lp_mmshare_version>
43012

> <i_f3d_flags>
0

> <s_epik_input>
W2NIXTFjKEYpYyhGKVtjSF1jKGMxMiluKFtjSF1uMilbQ0gyXVtDQEhdKFtPSF0pW0NIMl1PW0NIMl1jM1tjSF1bY0hdW2NIXXMz

> <s_epik_cmdline>
J2VwaWtfcHl0aG9uJywgJy1waCcsICc3LjAnLCAnLXRuJywgJzgnLCAnLW1hJywgJzIwMCcsICctbWV0YWxfYmluZGluZycsICctaW1hZScsICc8aW5maWxlLm1hZT4nLCAnLW9tYWUnLCAnPG91dGZpbGUubWFlPic=

> <r_epik_Ionization_Penalty>
2.17745

> <r_epik_Ionization_Penalty_Charging>
2.17744

> <r_epik_Ionization_Penalty_Neutral>
1.26231e-06

> <r_epik_State_Penalty>
2.31922

> <r_epik_Charging_Adjusted_Penalty>
4.49666

> <i_epik_Tot_Q>
1

> <i_epik_Tot_abs_Q>
1

> <r_epik_Metal_State_Penalty>
6.40003

> <b_epik_Metal_Only>
0

> <s_lp_Force_Field>
OPLS_2005

> <r_lp_Energy>
12.8656

> <b_lp_Chiralities_Consistent>
1

> <s_lp_Variant>
AV-unprocessed.smi:304-3

> <Gold.Version>
5.8.1

> <Gold.Id.Protein>
6NUR|6NUR_protein|mol2

> <Gold.PLP.Fitness>
51.1983

> <Gold.PLP.PLP>
-41.9892

> <Gold.PLP.part.hbond>
-1.8556

> <Gold.PLP.part.metal>
0.0000

> <Gold.PLP.part.buried>
-1.3100

> <Gold.PLP.part.nonpolar>
-40.1175

> <Gold.PLP.part.repulsive>
0.2009

> <Gold.PLP.ligand.clash>
0.0000

> <Gold.PLP.ligand.torsion>
0.7239

> <Gold.PLP.Chemscore.Hbond>
3.0000

> <Gold.PLP.Chemscore.CHOScore>
0.5222

> <Gold.PLP.Chemscore.Metal>
0.0000

> <Gold.Chemscore.Hbonds>
donor molecule, donor type, donor heavy atom, donor atom, acceptor molecule, acceptor atom, score
      L1  H    14    37       P1  8028  1.85
      P1  H  7989  7998       L1     1  1.00
      L1  C     9    31       P1 10171  0.53

> <Gold.PLP.Chemscore.Internal.Correction>
0.0902

> <Gold.Rescore>
     Score         DG    S(hbond)    S(metal)    S(lipo)     H(rot)  DE(clash)    DE(int)     intcor
     14.12     -16.96       1.93        0.00     102.70       2.73       1.49       1.36       ----

> <Gold.Chemscore.Fitness>
14.1150

> <Gold.Chemscore.DG>
-16.9634

> <Gold.Chemscore.ZeroCoef>
-5.4800

> <Gold.Chemscore.Hbond>
1.9299

> <Gold.Chemscore.Metal>
0.0000

> <Gold.Chemscore.Lipo>
102.6974

> <Gold.Chemscore.Internal_Hbond>
0.0000

> <Gold.Chemscore.DEClash>
1.4926

> <Gold.Chemscore.DEInternal>
1.3557

> <Gold.Chemscore.Rot>
2.7258

> <Gold.Chemscore.Internal.Correction>
   9.000000E+99

> <Gold.Chemscore.Hbonds>
donor molecule, donor type, donor heavy atom, donor atom, acceptor molecule, acceptor atom, score
      L1  H    14    37       P1  8028  0.88
      P1  H  7989  7998       L1     1  0.87

> <Gold.Chemscore.Hbond.Weighted>
-6.4459

> <Gold.Chemscore.Metal.Weighted>
-0.0000

> <Gold.Chemscore.Lipo.Weighted>
-12.0156

> <Gold.Chemscore.Internal_Hbond.Weighted>
0.0000

> <Gold.Chemscore.DEClash.Weighted>
1.4926

> <Gold.Chemscore.DEInternal.Weighted>
1.3557

> <Gold.Chemscore.Rot.Weighted>
6.9781

> <Gold.Chemscore.Internal.Correction.Weighted>
   9.000000E+99

> <Gold.Protein.RotatedTorsions>
[ 6907 6896 6895 6894 ] final  -85.75 input  -60.11 | X-H torsion
[ 7974 7965 7964 7962 ] final  171.34 input  175.53 | X-H torsion
[ 8008 7997 7996 7995 ] final  151.76 input   59.86 | X-H torsion
[ 10167 10162 10161 10158 ] final -176.68 input  -65.29 | X-H torsion
[ 10718 10713 10712 10709 ] final  -33.77 input   66.30 | X-H torsion
[ 10763 10752 10751 10750 ] final -126.90 input  -60.55 | X-H torsion
[ 11005 11000 10999 10996 ] final  106.12 input  -57.11 | X-H torsion

> <Gold.Protein.ActiveResidues>
 VAL166  LYS551  ARG553  GLY616  TRP617  ASP618  TYR619  PRO620  LYS621  CYS622 
 ASP623  PHE694  ASN695  SER759  ASP760  ASP761  ALA762  ILE779  LEU786  VAL792 
 PHE793  MET794  SER795  GLU796  ALA797  LYS798  CYS799  TRP800  GLU811  SER814 

> <Gold.Protein.RotatedAtoms>
  150.6869  134.3156  159.4764 H   0  0  0  0  0  0  0  0  0  0  0  0  # atno 6907 bound_to 6896
  152.1037  134.9320  160.0578 H   0  0  0  0  0  0  0  0  0  0  0  0  # atno 6908 bound_to 6896
  152.0590  133.4018  159.4446 H   0  0  0  0  0  0  0  0  0  0  0  0  # atno 6909 bound_to 6896
  144.7298  139.9335  143.6425 H   0  0  0  0  0  0  0  0  0  0  0  0  # atno 7974 bound_to 7965
  156.2660  140.2039  156.6226 H   0  0  0  0  0  0  0  0  0  0  0  0  # atno 8008 bound_to 7997
  154.6745  140.0546  157.0225 H   0  0  0  0  0  0  0  0  0  0  0  0  # atno 8009 bound_to 7997
  155.1089  140.3213  155.4530 H   0  0  0  0  0  0  0  0  0  0  0  0  # atno 8010 bound_to 7997
  139.5518  144.2091  152.1090 H   0  0  0  0  0  0  0  0  0  0  0  0  # atno 10167 bound_to 10162
  156.3586  130.4320  149.7643 H   0  0  0  0  0  0  0  0  0  0  0  0  # atno 10718 bound_to 10713
  154.8749  135.3980  154.3506 H   0  0  0  0  0  0  0  0  0  0  0  0  # atno 10763 bound_to 10752
  153.4292  135.7025  153.6247 H   0  0  0  0  0  0  0  0  0  0  0  0  # atno 10764 bound_to 10752
  153.4876  135.3755  155.2444 H   0  0  0  0  0  0  0  0  0  0  0  0  # atno 10765 bound_to 10752
  139.8810  134.9359  156.5618 H   0  0  0  0  0  0  0  0  0  0  0  0  # atno 11005 bound_to 11000
  146.0839  139.3827  143.0447 LP  0  0  0  0  0  0  0  0  0  0  0  0  # atno 17320 bound_to 7965
  145.7803  140.9859  143.1103 LP  0  0  0  0  0  0  0  0  0  0  0  0  # atno 17321 bound_to 7965
  140.1587  144.5046  150.6645 LP  0  0  0  0  0  0  0  0  0  0  0  0  # atno 17342 bound_to 10162
  140.6782  143.2314  151.5453 LP  0  0  0  0  0  0  0  0  0  0  0  0  # atno 17343 bound_to 10162
  156.4816  130.8043  151.3057 LP  0  0  0  0  0  0  0  0  0  0  0  0  # atno 17370 bound_to 10713
  157.7470  131.0004  150.2924 LP  0  0  0  0  0  0  0  0  0  0  0  0  # atno 17371 bound_to 10713
  140.8164  133.8389  155.8855 LP  0  0  0  0  0  0  0  0  0  0  0  0  # atno 17394 bound_to 11000
  140.9459  134.1841  157.4763 LP  0  0  0  0  0  0  0  0  0  0  0  0  # atno 17395 bound_to 11000

$$$$
