#       Name:                AV-unprocessed.smi:232
#       Creating user name   scv26
#       Creation time:       Thu Mar 26 20:32:12 2020


#       File generated by GOLD software.
#

@<TRIPOS>MOLECULE
AV-unprocessed.smi:232
    60    63     1
SMALL
NO_CHARGES


@<TRIPOS>ATOM
      1 ****        -3.8255  -1.3233   3.3070 C.3            1 S1                 0.0000
      2 ****        -3.2366  -0.6685   2.0516 C.3            1 S1                 0.0000
      3 ****        -3.4553   0.8581   2.0068 C.3            1 S1                 0.0000
      4 ****        -4.9317   1.2755   1.9354 C.3            1 S1                 0.0000
      5 ****        -4.9367   2.5664   1.1074 C.3            1 S1                 0.0000
      6 ****        -3.4643   2.8049   0.7545 C.3            1 S1                 0.0000
      7 ****        -3.2612   3.4791  -0.6124 C.3            1 S1                 0.0000
      8 ****        -2.8459   1.4879   0.8411 N.3            1 S1                 0.0000
      9 ****        -1.4929   1.4807   0.8105 C.ar           1 S1                 0.0000
     10 ****        -0.7754   2.1184   1.7734 N.ar           1 S1                 0.0000
     11 ****         0.5605   2.1072   1.7262 C.ar           1 S1                 0.0000
     12 ****         1.3601   1.5314   0.8249 N.ar           1 S1                 0.0000
     13 ****         0.6385   0.8901  -0.1392 C.ar           1 S1                 0.0000
     14 ****        -0.7795   0.8163  -0.2199 C.ar           1 S1                 0.0000
     15 ****        -1.1587   0.0803  -1.3351 N.2            1 S1                 0.0000
     16 ****        -0.0256  -0.2656  -1.8838 C.2            1 S1                 0.0000
     17 ****         1.1023   0.1781  -1.2310 N.pl3          1 S1                 0.0000
     18 ****         2.4798  -0.0647  -1.6203 C.3            1 S1                 0.0000
     19 ****         2.9977  -1.4325  -1.1332 C.3            1 S1                 0.0000
     20 ****         2.9147  -1.4888   0.2783 O.3            1 S1                 0.0000
     21 ****         4.4554  -1.6882  -1.5590 C.3            1 S1                 0.0000
     22 ****         5.0074  -3.0525  -1.1395 C.3            1 S1                 0.0000
     23 ****         6.1058  -3.2657  -2.1552 C.3            1 S1                 0.0000
     24 ****         5.4752  -2.6899  -3.4186 C.3            1 S1                 0.0000
     25 ****         4.5654  -1.6837  -2.9813 O.3            1 S1                 0.0000
     26 ****        -3.6140  -2.3927   3.3204 H              1 S1                 0.0000
     27 ****        -4.9078  -1.2002   3.3518 H              1 S1                 0.0000
     28 ****        -3.4005  -0.8892   4.2123 H              1 S1                 0.0000
     29 ****        -2.1690  -0.8889   2.0222 H              1 S1                 0.0000
     30 ****        -3.6655  -1.1314   1.1620 H              1 S1                 0.0000
     31 ****        -3.0192   1.3024   2.9035 H              1 S1                 0.0000
     32 ****        -5.5282   0.5167   1.4271 H              1 S1                 0.0000
     33 ****        -5.3562   1.4195   2.9294 H              1 S1                 0.0000
     34 ****        -5.5363   2.4210   0.2077 H              1 S1                 0.0000
     35 ****        -5.3585   3.4097   1.6550 H              1 S1                 0.0000
     36 ****        -3.0327   3.4442   1.5267 H              1 S1                 0.0000
     37 ****        -3.7836   4.4347  -0.6555 H              1 S1                 0.0000
     38 ****        -3.6397   2.8543  -1.4220 H              1 S1                 0.0000
     39 ****        -2.2063   3.6738  -0.8074 H              1 S1                 0.0000
     40 ****         1.0603   2.6352   2.5247 H              1 S1                 0.0000
     41 ****         0.0197  -0.8596  -2.7852 H              1 S1                 0.0000
     42 ****         2.5374  -0.0034  -2.7077 H              1 S1                 0.0000
     43 ****         3.1020   0.7425  -1.2316 H              1 S1                 0.0000
     44 ****         2.3624  -2.2217  -1.5376 H              1 S1                 0.0000
     45 ****         3.4230  -0.7775   0.6373 H              1 S1                 0.0000
     46 ****         5.1084  -0.9032  -1.1732 H              1 S1                 0.0000
     47 ****         5.3693  -3.0679  -0.1111 H              1 S1                 0.0000
     48 ****         4.2464  -3.8272  -1.2460 H              1 S1                 0.0000
     49 ****         6.9892  -2.6887  -1.8782 H              1 S1                 0.0000
     50 ****         6.3974  -4.3109  -2.2614 H              1 S1                 0.0000
     51 ****         6.2186  -2.2827  -4.1042 H              1 S1                 0.0000
     52 ****         4.9111  -3.4585  -3.9480 H              1 S1                 0.0000
     53 ****        -3.0271   0.9518   0.0166 LP             1 S1                 0.0000
     54 ****        -1.2463   2.5950   2.5157 LP             1 S1                 0.0000
     55 ****         2.3591   1.5658   0.8530 LP             1 S1                 0.0000
     56 ****        -2.0846  -0.1348  -1.6456 LP             1 S1                 0.0000
     57 ****         3.2793  -2.3615   0.6031 LP             1 S1                 0.0000
     58 ****         1.9605  -1.3993   0.5639 LP             1 S1                 0.0000
     59 ****         4.8956  -0.7891  -3.2823 LP             1 S1                 0.0000
     60 ****         3.6655  -1.8586  -3.3808 LP             1 S1                 0.0000
@<TRIPOS>BOND
    1    1    2 1     
    2    1   26 1     
    3    1   27 1     
    4    1   28 1     
    5    2    3 1     
    6    2   29 1     
    7    2   30 1     
    8    3    8 1     
    9    3    4 1     
   10    3   31 1     
   11    4    5 1     
   12    4   32 1     
   13    4   33 1     
   14    5    6 1     
   15    5   34 1     
   16    5   35 1     
   17    6    7 1     
   18    6    8 1     
   19    6   36 1     
   20    7   37 1     
   21    7   38 1     
   22    7   39 1     
   23    8    9 1     
   24    9   14 ar    
   25    9   10 ar    
   26   10   11 ar    
   27   11   12 ar    
   28   11   40 1     
   29   12   13 ar    
   30   13   17 1     
   31   13   14 ar    
   32   14   15 1     
   33   15   16 2     
   34   16   17 1     
   35   16   41 1     
   36   17   18 1     
   37   18   19 1     
   38   18   42 1     
   39   18   43 1     
   40   19   20 1     
   41   19   21 1     
   42   19   44 1     
   43   20   45 1     
   44   21   25 1     
   45   21   22 1     
   46   21   46 1     
   47   22   23 1     
   48   22   47 1     
   49   22   48 1     
   50   23   24 1     
   51   23   49 1     
   52   23   50 1     
   53   24   25 1     
   54   24   51 1     
   55   24   52 1     
   56    8   53 1     
   57   10   54 1     
   58   12   55 1     
   59   15   56 1     
   60   20   57 1     
   61   20   58 1     
   62   25   59 1     
   63   25   60 1     
@<TRIPOS>SUBSTRUCTURE
      1 S1             1
@<TRIPOS>SET
LONE_PAIRS      STATIC     ATOMS    <user>   **** ""
8 53 54 55 56 57 58 59 60
DONOR_HYDROGENS      STATIC     ATOMS    <user>   **** ""
1 45
ATOM$BLUE        STATIC     ATOMS    COLORGROUP SYSTEM
8 53 54 55 56 57 58 59 60
ATOM$RED        STATIC     ATOMS    COLORGROUP SYSTEM
1 45
