AV-unprocessed.smi:1931|AV-procd|sdf|7812|dock2
  -GOLD-   22720 9553D 1   1.00000     0.00000
 Structure written by MMmdl.
 48 49  0  0  0  0  0  0  0  0  1 V2000
  143.5614  133.4663  151.1261 C   0  0  0  0  0  0  0  0  0  0  0  0
  144.1437  134.7100  150.7780 O   0  0  0  0  0  0  0  0  0  0  0  0
  144.5445  135.4602  151.9126 C   0  0  0  0  0  0  0  0  0  0  0  0
  145.3546  136.6745  151.4486 C   0  0  0  0  0  0  0  0  0  0  0  0
  145.7072  137.4588  152.5762 O   0  0  0  0  0  0  0  0  0  0  0  0
  146.2715  138.7086  152.2153 C   0  0  0  0  0  0  0  0  0  0  0  0
  146.9270  139.3216  153.4504 C   0  0  0  0  0  0  0  0  0  0  0  0
  146.2288  139.6233  154.4173 O   0  0  0  0  0  0  0  0  0  0  0  0
  148.2628  139.4726  153.3827 N   0  0  0  0  0  0  0  0  0  0  0  0
  149.1566  140.0224  154.3426 C   0  0  0  0  0  0  0  0  0  0  0  0
  150.4671  139.5471  154.5903 C   0  0  0  0  0  0  0  0  0  0  0  0
  151.2426  140.1738  155.5845 C   0  0  0  0  0  0  0  0  0  0  0  0
  150.6832  141.2519  156.3073 C   0  0  0  0  0  0  0  0  0  0  0  0
  151.4034  141.9196  157.3068 N   0  0  0  0  0  0  0  0  0  0  0  0
  150.6545  142.9798  157.9692 C   0  0  0  0  0  0  0  0  0  0  0  0
  151.5572  143.7527  158.9512 C   0  0  2  0  0  0  0  0  0  0  0  0
  152.5538  144.6981  158.2568 C   0  0  0  0  0  0  0  0  0  0  0  0
  152.2091  142.8407  159.8400 O   0  0  0  0  0  0  0  0  0  0  0  0
  152.9622  141.8104  159.1982 C   0  0  1  0  0  0  0  0  0  0  0  0
  153.5702  140.9190  160.2859 C   0  0  0  0  0  0  0  0  0  0  0  0
  152.0433  141.0165  158.2518 C   0  0  0  0  0  0  0  0  0  0  0  0
  149.4319  141.7054  156.0805 N   0  0  0  0  0  0  0  0  0  0  0  0
  148.6941  141.1002  155.1260 C   0  0  0  0  0  0  0  0  0  0  0  0
  143.2702  132.9329  150.2215 H   0  0  0  0  0  0  0  0  0  0  0  0
  142.6686  133.6056  151.7370 H   0  0  0  0  0  0  0  0  0  0  0  0
  144.2667  132.8396  151.6736 H   0  0  0  0  0  0  0  0  0  0  0  0
  143.6809  135.7764  152.5000 H   0  0  0  0  0  0  0  0  0  0  0  0
  145.1665  134.8337  152.5540 H   0  0  0  0  0  0  0  0  0  0  0  0
  146.2663  136.3378  150.9531 H   0  0  0  0  0  0  0  0  0  0  0  0
  144.7839  137.2574  150.7239 H   0  0  0  0  0  0  0  0  0  0  0  0
  147.0168  138.5831  151.4280 H   0  0  0  0  0  0  0  0  0  0  0  0
  145.4987  139.3799  151.8374 H   0  0  0  0  0  0  0  0  0  0  0  0
  148.6993  139.1135  152.5459 H   0  0  0  0  0  0  0  0  0  0  0  0
  150.8918  138.7139  154.0539 H   0  0  0  0  0  0  0  0  0  0  0  0
  152.2464  139.8283  155.7837 H   0  0  0  0  0  0  0  0  0  0  0  0
  150.2295  143.6581  157.2282 H   0  0  0  0  0  0  0  0  0  0  0  0
  149.8191  142.5433  158.5180 H   0  0  0  0  0  0  0  0  0  0  0  0
  150.9135  144.3755  159.5728 H   0  0  0  0  0  0  0  0  0  0  0  0
  152.0259  145.4610  157.6844 H   0  0  0  0  0  0  0  0  0  0  0  0
  153.2102  144.1723  157.5640 H   0  0  0  0  0  0  0  0  0  0  0  0
  153.1793  145.2091  158.9890 H   0  0  0  0  0  0  0  0  0  0  0  0
  153.7792  142.2535  158.6281 H   0  0  0  0  0  0  0  0  0  0  0  0
  154.1595  140.1131  159.8483 H   0  0  0  0  0  0  0  0  0  0  0  0
  152.7947  140.4680  160.9059 H   0  0  0  0  0  0  0  0  0  0  0  0
  154.2271  141.4944  160.9386 H   0  0  0  0  0  0  0  0  0  0  0  0
  151.2806  140.4881  158.8257 H   0  0  0  0  0  0  0  0  0  0  0  0
  152.6194  140.2643  157.7110 H   0  0  0  0  0  0  0  0  0  0  0  0
  147.6978  141.4929  154.9823 H   0  0  0  0  0  0  0  0  0  0  0  0
  1  2  1  0  0  0  0
  1 24  1  0  0  0  0
  1 25  1  0  0  0  0
  1 26  1  0  0  0  0
  2  3  1  0  0  0  0
  3  4  1  0  0  0  0
  3 27  1  0  0  0  0
  3 28  1  0  0  0  0
  4  5  1  0  0  0  0
  4 29  1  0  0  0  0
  4 30  1  0  0  0  0
  5  6  1  0  0  0  0
  6  7  1  0  0  0  0
  6 31  1  0  0  0  0
  6 32  1  0  0  0  0
  7  8  2  0  0  0  0
  7  9  1  0  0  0  0
  9 10  1  0  0  0  0
  9 33  1  0  0  0  0
 10 23  1  0  0  0  0
 10 11  2  0  0  0  0
 11 12  1  0  0  0  0
 11 34  1  0  0  0  0
 12 13  2  0  0  0  0
 12 35  1  0  0  0  0
 13 14  1  0  0  0  0
 13 22  1  0  0  0  0
 14 21  1  0  0  0  0
 14 15  1  0  0  0  0
 15 16  1  0  0  0  0
 15 36  1  0  0  0  0
 15 37  1  0  0  0  0
 16 17  1  0  0  0  0
 16 18  1  0  0  0  0
 16 38  1  0  0  0  0
 17 39  1  0  0  0  0
 17 40  1  0  0  0  0
 17 41  1  0  0  0  0
 18 19  1  0  0  0  0
 19 20  1  0  0  0  0
 19 21  1  0  0  0  0
 19 42  1  0  0  0  0
 20 43  1  0  0  0  0
 20 44  1  0  0  0  0
 20 45  1  0  0  0  0
 21 46  1  0  0  0  0
 21 47  1  0  0  0  0
 22 23  2  0  0  0  0
 23 48  1  0  0  0  0
M  END
> <s_m_source_file>
AV-unprocessed.smi

> <i_m_source_file_index>
1931

> <i_lp_mmshare_version>
43012

> <i_f3d_flags>
0

> <s_epik_input>
W0NIM11PW0NIMl1bQ0gyXU9bQ0gyXUMoPU8pW05IXWMxW2NIXVtjSF1jKG5bY0hdMSlOMltDSDJdW0NAQEhdKFtDSDNdKU9bQ0BASF0oW0NIM10pW0NIMl0y

> <s_epik_cmdline>
J2VwaWtfcHl0aG9uJywgJy1waCcsICc3LjAnLCAnLXRuJywgJzgnLCAnLW1hJywgJzIwMCcsICctbWV0YWxfYmluZGluZycsICctaW1hZScsICc8aW5maWxlLm1hZT4nLCAnLW9tYWUnLCAnPG91dGZpbGUubWFlPic=

> <r_lp_tautomer_probability>
1

> <r_epik_Ionization_Penalty>
0.000582342

> <r_epik_Ionization_Penalty_Charging>
0

> <r_epik_Ionization_Penalty_Neutral>
0.000582342

> <r_epik_State_Penalty>
0.00036524

> <r_epik_Charging_Adjusted_Penalty>
0.00036524

> <i_epik_Tot_Q>
0

> <i_epik_Tot_abs_Q>
0

> <r_epik_Metal_State_Penalty>
-0

> <b_epik_Metal_Only>
0

> <s_lp_Force_Field>
OPLS_2005

> <r_lp_Energy>
28.1169

> <b_lp_Chiralities_Consistent>
1

> <s_lp_Variant>
AV-unprocessed.smi:1931-2

> <Gold.Version>
5.8.1

> <Gold.Id.Protein>
6NUR|6NUR_protein|mol2

> <Gold.PLP.Fitness>
47.2449

> <Gold.PLP.PLP>
-46.6010

> <Gold.PLP.part.hbond>
-1.0000

> <Gold.PLP.part.metal>
0.0000

> <Gold.PLP.part.buried>
-4.5091

> <Gold.PLP.part.nonpolar>
-43.3643

> <Gold.PLP.part.repulsive>
0.7922

> <Gold.PLP.ligand.clash>
0.0000

> <Gold.PLP.ligand.torsion>
0.4943

> <Gold.PLP.Chemscore.Hbond>
0.4480

> <Gold.PLP.Chemscore.CHOScore>
0.0000

> <Gold.PLP.Chemscore.Metal>
0.0000

> <Gold.Chemscore.Hbonds>
donor molecule, donor type, donor heavy atom, donor atom, acceptor molecule, acceptor atom, score
      L1  H     9    33       P1  7957  0.61

> <Gold.PLP.Chemscore.Internal.Correction>
0.2885

> <Gold.Rescore>
     Score         DG    S(hbond)    S(metal)    S(lipo)     H(rot)  DE(clash)    DE(int)     intcor
     13.33     -15.29       0.37        0.00     115.54       1.93       0.02       1.94       ----

> <Gold.Chemscore.Fitness>
13.3289

> <Gold.Chemscore.DG>
-15.2896

> <Gold.Chemscore.ZeroCoef>
-5.4800

> <Gold.Chemscore.Hbond>
0.3727

> <Gold.Chemscore.Metal>
0.0000

> <Gold.Chemscore.Lipo>
115.5405

> <Gold.Chemscore.Internal_Hbond>
0.0000

> <Gold.Chemscore.DEClash>
0.0228

> <Gold.Chemscore.DEInternal>
1.9379

> <Gold.Chemscore.Rot>
1.9349

> <Gold.Chemscore.Internal.Correction>
   9.000000E+99

> <Gold.Chemscore.Hbonds>
donor molecule, donor type, donor heavy atom, donor atom, acceptor molecule, acceptor atom, score
      L1  H     9    33       P1  7957  0.62

> <Gold.Chemscore.Hbond.Weighted>
-1.2448

> <Gold.Chemscore.Metal.Weighted>
-0.0000

> <Gold.Chemscore.Lipo.Weighted>
-13.5182

> <Gold.Chemscore.Internal_Hbond.Weighted>
0.0000

> <Gold.Chemscore.DEClash.Weighted>
0.0228

> <Gold.Chemscore.DEInternal.Weighted>
1.9379

> <Gold.Chemscore.Rot.Weighted>
4.9534

> <Gold.Chemscore.Internal.Correction.Weighted>
   9.000000E+99

> <Gold.Protein.RotatedTorsions>
[ 6907 6896 6895 6894 ] final  -84.22 input  -60.11 | X-H torsion
[ 7974 7965 7964 7962 ] final   -0.69 input  175.53 | X-H torsion
[ 8008 7997 7996 7995 ] final  -70.01 input   59.86 | X-H torsion
[ 10167 10162 10161 10158 ] final  -62.43 input  -65.29 | X-H torsion
[ 10718 10713 10712 10709 ] final  113.49 input   66.30 | X-H torsion
[ 10763 10752 10751 10750 ] final  123.12 input  -60.55 | X-H torsion
[ 11005 11000 10999 10996 ] final -167.05 input  -57.11 | X-H torsion

> <Gold.Protein.ActiveResidues>
 VAL166  LYS551  ARG553  GLY616  TRP617  ASP618  TYR619  PRO620  LYS621  CYS622 
 ASP623  PHE694  ASN695  SER759  ASP760  ASP761  ALA762  ILE779  LEU786  VAL792 
 PHE793  MET794  SER795  GLU796  ALA797  LYS798  CYS799  TRP800  GLU811  SER814 

> <Gold.Protein.RotatedAtoms>
  150.6878  134.3391  159.4860 H   0  0  0  0  0  0  0  0  0  0  0  0  # atno 6907 bound_to 6896
  152.1247  134.9177  160.0570 H   0  0  0  0  0  0  0  0  0  0  0  0  # atno 6908 bound_to 6896
  152.0370  133.3926  159.4358 H   0  0  0  0  0  0  0  0  0  0  0  0  # atno 6909 bound_to 6896
  146.2425  140.1308  142.8338 H   0  0  0  0  0  0  0  0  0  0  0  0  # atno 7974 bound_to 7965
  154.4980  140.0842  156.7738 H   0  0  0  0  0  0  0  0  0  0  0  0  # atno 8008 bound_to 7997
  155.4069  140.3439  155.4242 H   0  0  0  0  0  0  0  0  0  0  0  0  # atno 8009 bound_to 7997
  156.1420  140.1532  156.8894 H   0  0  0  0  0  0  0  0  0  0  0  0  # atno 8010 bound_to 7997
  140.5939  143.2347  151.6078 H   0  0  0  0  0  0  0  0  0  0  0  0  # atno 10167 bound_to 10162
  157.6335  131.0984  150.7048 H   0  0  0  0  0  0  0  0  0  0  0  0  # atno 10718 bound_to 10713
  153.6406  135.3380  155.3070 H   0  0  0  0  0  0  0  0  0  0  0  0  # atno 10763 bound_to 10752
  154.8560  135.4317  154.2009 H   0  0  0  0  0  0  0  0  0  0  0  0  # atno 10764 bound_to 10752
  153.2927  135.7018  153.7352 H   0  0  0  0  0  0  0  0  0  0  0  0  # atno 10765 bound_to 10752
  140.5576  134.5365  157.5136 H   0  0  0  0  0  0  0  0  0  0  0  0  # atno 11005 bound_to 11000
  145.0328  140.8884  143.5099 LP  0  0  0  0  0  0  0  0  0  0  0  0  # atno 17320 bound_to 7965
  145.1375  139.2593  143.5507 LP  0  0  0  0  0  0  0  0  0  0  0  0  # atno 17321 bound_to 7965
  139.5245  144.3101  152.1000 LP  0  0  0  0  0  0  0  0  0  0  0  0  # atno 17342 bound_to 10162
  140.2270  144.4408  150.6317 LP  0  0  0  0  0  0  0  0  0  0  0  0  # atno 17343 bound_to 10162
  156.7383  130.4731  149.5483 LP  0  0  0  0  0  0  0  0  0  0  0  0  # atno 17370 bound_to 10713
  156.1556  130.6340  151.0653 LP  0  0  0  0  0  0  0  0  0  0  0  0  # atno 17371 bound_to 10713
  139.9423  134.7764  156.0647 LP  0  0  0  0  0  0  0  0  0  0  0  0  # atno 17394 bound_to 11000
  141.1134  133.6636  156.3033 LP  0  0  0  0  0  0  0  0  0  0  0  0  # atno 17395 bound_to 11000

$$$$
