AV-unprocessed.smi:434|AV-procd|sdf|2553|dock9
  -GOLD-   2262022523D 1   1.00000     0.00000
 Structure written by MMmdl.
 39 41  0  0  0  0  0  0  0  0  1 V2000
  150.7249  138.3014  158.0641 C   0  0  0  0  0  0  0  0  0  0  0  0
  151.1966  139.6858  158.3779 C   0  0  0  0  0  0  0  0  0  0  0  0
  152.1750  139.9226  159.2516 N   0  0  0  0  0  0  0  0  0  0  0  0
  152.2821  141.2997  159.2203 C   0  0  0  0  0  0  0  0  0  0  0  0
  153.1422  142.1703  159.9274 C   0  0  0  0  0  0  0  0  0  0  0  0
  153.0678  143.5645  159.7280 C   0  0  0  0  0  0  0  0  0  0  0  0
  152.1336  144.1074  158.8221 C   0  0  0  0  0  0  0  0  0  0  0  0
  151.2670  143.2579  158.1077 C   0  0  0  0  0  0  0  0  0  0  0  0
  151.3456  141.8669  158.3095 C   0  0  0  0  0  0  0  0  0  0  0  0
  150.6552  140.7782  157.7848 N   0  0  0  0  0  0  0  0  0  0  0  0
  149.5804  140.8218  156.8018 C   0  0  0  0  0  0  0  0  0  0  0  0
  150.0309  141.4139  155.4510 C   0  0  1  0  0  0  0  0  0  0  0  0
  151.1329  140.6717  154.9664 O   0  0  0  0  0  0  0  0  0  0  0  0
  148.9102  141.3655  154.4005 C   0  0  0  0  0  0  0  0  0  0  0  0
  147.8447  142.2007  154.8224 O   0  0  0  0  0  0  0  0  0  0  0  0
  146.7331  142.1549  153.9452 C   0  0  0  0  0  0  0  0  0  0  0  0
  145.7330  143.1247  154.4770 C   0  0  0  0  0  0  0  0  0  0  0  0
  145.1500  144.2514  153.9659 C   0  0  0  0  0  0  0  0  0  0  0  0
  144.2650  144.7352  154.9690 C   0  0  0  0  0  0  0  0  0  0  0  0
  144.3732  143.8662  156.0172 C   0  0  0  0  0  0  0  0  0  0  0  0
  145.2644  142.8776  155.7329 O   0  0  0  0  0  0  0  0  0  0  0  0
  151.2372  137.5716  158.6918 H   0  0  0  0  0  0  0  0  0  0  0  0
  150.9310  138.0607  157.0210 H   0  0  0  0  0  0  0  0  0  0  0  0
  149.6537  138.2134  158.2434 H   0  0  0  0  0  0  0  0  0  0  0  0
  153.8603  141.7646  160.6245 H   0  0  0  0  0  0  0  0  0  0  0  0
  153.7304  144.2204  160.2736 H   0  0  0  0  0  0  0  0  0  0  0  0
  152.0821  145.1766  158.6768 H   0  0  0  0  0  0  0  0  0  0  0  0
  150.5486  143.6714  157.4154 H   0  0  0  0  0  0  0  0  0  0  0  0
  149.1943  139.8111  156.6624 H   0  0  0  0  0  0  0  0  0  0  0  0
  148.7554  141.4034  157.2138 H   0  0  0  0  0  0  0  0  0  0  0  0
  150.3431  142.4481  155.5996 H   0  0  0  0  0  0  0  0  0  0  0  0
  151.2296  139.8971  155.4991 H   0  0  0  0  0  0  0  0  0  0  0  0
  149.2790  141.6547  153.4146 H   0  0  0  0  0  0  0  0  0  0  0  0
  148.5294  140.3463  154.3162 H   0  0  0  0  0  0  0  0  0  0  0  0
  147.0297  142.4283  152.9314 H   0  0  0  0  0  0  0  0  0  0  0  0
  146.3081  141.1506  153.9140 H   0  0  0  0  0  0  0  0  0  0  0  0
  145.3365  144.6743  152.9898 H   0  0  0  0  0  0  0  0  0  0  0  0
  143.6292  145.6073  154.9286 H   0  0  0  0  0  0  0  0  0  0  0  0
  143.9120  143.8048  156.9918 H   0  0  0  0  0  0  0  0  0  0  0  0
  1  2  1  0  0  0  0
  1 22  1  0  0  0  0
  1 23  1  0  0  0  0
  1 24  1  0  0  0  0
  2 10  1  0  0  0  0
  2  3  2  0  0  0  0
  3  4  1  0  0  0  0
  4  9  2  0  0  0  0
  4  5  1  0  0  0  0
  5  6  2  0  0  0  0
  5 25  1  0  0  0  0
  6  7  1  0  0  0  0
  6 26  1  0  0  0  0
  7  8  2  0  0  0  0
  7 27  1  0  0  0  0
  8  9  1  0  0  0  0
  8 28  1  0  0  0  0
  9 10  1  0  0  0  0
 10 11  1  0  0  0  0
 11 12  1  0  0  0  0
 11 29  1  0  0  0  0
 11 30  1  0  0  0  0
 12 13  1  0  0  0  0
 12 14  1  0  0  0  0
 12 31  1  0  0  0  0
 13 32  1  0  0  0  0
 14 15  1  0  0  0  0
 14 33  1  0  0  0  0
 14 34  1  0  0  0  0
 15 16  1  0  0  0  0
 16 17  1  0  0  0  0
 16 35  1  0  0  0  0
 16 36  1  0  0  0  0
 17 21  1  0  0  0  0
 17 18  2  0  0  0  0
 18 19  1  0  0  0  0
 18 37  1  0  0  0  0
 19 20  2  0  0  0  0
 19 38  1  0  0  0  0
 20 21  1  0  0  0  0
 20 39  1  0  0  0  0
M  END
> <s_m_source_file>
AV-unprocessed.smi

> <i_m_source_file_index>
434

> <i_lp_mmshare_version>
43012

> <i_f3d_flags>
0

> <s_epik_input>
W2NIXTFbY0hdW2NIXVtjSF1jKGMxMiluKGMobjIpW0NIM10pW0NIMl1bQ0BIXShbT0hdKVtDSDJdT1tDSDJdYzNbY0hdW2NIXVtjSF1vMw==

> <s_epik_cmdline>
J2VwaWtfcHl0aG9uJywgJy1waCcsICc3LjAnLCAnLXRuJywgJzgnLCAnLW1hJywgJzIwMCcsICctbWV0YWxfYmluZGluZycsICctaW1hZScsICc8aW5maWxlLm1hZT4nLCAnLW9tYWUnLCAnPG91dGZpbGUubWFlPic=

> <r_epik_Ionization_Penalty>
0.126634

> <r_epik_Ionization_Penalty_Charging>
0

> <r_epik_Ionization_Penalty_Neutral>
0.126634

> <r_epik_State_Penalty>
0.116082

> <r_epik_Charging_Adjusted_Penalty>
0.116082

> <i_epik_Tot_Q>
0

> <i_epik_Tot_abs_Q>
0

> <r_epik_Metal_State_Penalty>
0.00012822

> <b_epik_Metal_Only>
0

> <s_lp_Force_Field>
OPLS_2005

> <r_lp_Energy>
9.69126

> <b_lp_Chiralities_Consistent>
1

> <s_lp_Variant>
AV-unprocessed.smi:434-2

> <Gold.Version>
5.8.1

> <Gold.Id.Protein>
6NUR|6NUR_protein|mol2

> <Gold.PLP.Fitness>
49.3808

> <Gold.PLP.PLP>
-46.4095

> <Gold.PLP.part.hbond>
-1.0000

> <Gold.PLP.part.metal>
0.0000

> <Gold.PLP.part.buried>
-7.5199

> <Gold.PLP.part.nonpolar>
-38.3769

> <Gold.PLP.part.repulsive>
0.9231

> <Gold.PLP.ligand.clash>
0.0000

> <Gold.PLP.ligand.torsion>
0.0291

> <Gold.PLP.Chemscore.Hbond>
1.0000

> <Gold.PLP.Chemscore.CHOScore>
0.0000

> <Gold.PLP.Chemscore.Metal>
0.0000

> <Gold.Chemscore.Hbonds>
donor molecule, donor type, donor heavy atom, donor atom, acceptor molecule, acceptor atom, score
      P1  H  7989  7998       L1    13  0.90

> <Gold.PLP.Chemscore.Internal.Correction>
0.0296

> <Gold.Rescore>
     Score         DG    S(hbond)    S(metal)    S(lipo)     H(rot)  DE(clash)    DE(int)     intcor
     15.68     -15.80       0.85        0.00     115.53       2.36       0.06       0.06       ----

> <Gold.Chemscore.Fitness>
15.6822

> <Gold.Chemscore.DG>
-15.8011

> <Gold.Chemscore.ZeroCoef>
-5.4800

> <Gold.Chemscore.Hbond>
0.8512

> <Gold.Chemscore.Metal>
0.0000

> <Gold.Chemscore.Lipo>
115.5347

> <Gold.Chemscore.Internal_Hbond>
0.0000

> <Gold.Chemscore.DEClash>
0.0632

> <Gold.Chemscore.DEInternal>
0.0557

> <Gold.Chemscore.Rot>
2.3591

> <Gold.Chemscore.Internal.Correction>
   9.000000E+99

> <Gold.Chemscore.Hbonds>
donor molecule, donor type, donor heavy atom, donor atom, acceptor molecule, acceptor atom, score
      P1  H  7989  7998       L1    13  0.83

> <Gold.Chemscore.Hbond.Weighted>
-2.8428

> <Gold.Chemscore.Metal.Weighted>
-0.0000

> <Gold.Chemscore.Lipo.Weighted>
-13.5176

> <Gold.Chemscore.Internal_Hbond.Weighted>
0.0000

> <Gold.Chemscore.DEClash.Weighted>
0.0632

> <Gold.Chemscore.DEInternal.Weighted>
0.0557

> <Gold.Chemscore.Rot.Weighted>
6.0393

> <Gold.Chemscore.Internal.Correction.Weighted>
   9.000000E+99

> <Gold.Protein.RotatedTorsions>
[ 6907 6896 6895 6894 ] final -167.83 input  -60.11 | X-H torsion
[ 7974 7965 7964 7962 ] final  -42.61 input  175.53 | X-H torsion
[ 8008 7997 7996 7995 ] final   85.41 input   59.86 | X-H torsion
[ 10167 10162 10161 10158 ] final   78.82 input  -65.29 | X-H torsion
[ 10718 10713 10712 10709 ] final  173.20 input   66.30 | X-H torsion
[ 10763 10752 10751 10750 ] final  118.19 input  -60.55 | X-H torsion
[ 11005 11000 10999 10996 ] final   26.73 input  -57.11 | X-H torsion

> <Gold.Protein.ActiveResidues>
 VAL166  LYS551  ARG553  GLY616  TRP617  ASP618  TYR619  PRO620  LYS621  CYS622 
 ASP623  PHE694  ASN695  SER759  ASP760  ASP761  ALA762  ILE779  LEU786  VAL792 
 PHE793  MET794  SER795  GLU796  ALA797  LYS798  CYS799  TRP800  GLU811  SER814 

> <Gold.Protein.RotatedAtoms>
  151.4659  133.3581  159.2815 H   0  0  0  0  0  0  0  0  0  0  0  0  # atno 6907 bound_to 6896
  150.8994  134.8406  159.7360 H   0  0  0  0  0  0  0  0  0  0  0  0  # atno 6908 bound_to 6896
  152.4870  134.4578  159.9647 H   0  0  0  0  0  0  0  0  0  0  0  0  # atno 6909 bound_to 6896
  146.0099  140.6976  142.9229 H   0  0  0  0  0  0  0  0  0  0  0  0  # atno 7974 bound_to 7965
  155.9497  140.3402  155.6397 H   0  0  0  0  0  0  0  0  0  0  0  0  # atno 8008 bound_to 7997
  155.6935  140.0752  157.2457 H   0  0  0  0  0  0  0  0  0  0  0  0  # atno 8009 bound_to 7997
  154.4119  140.1653  156.2100 H   0  0  0  0  0  0  0  0  0  0  0  0  # atno 8010 bound_to 7997
  139.9668  144.5922  150.8021 H   0  0  0  0  0  0  0  0  0  0  0  0  # atno 10167 bound_to 10162
  156.9678  131.0080  151.2912 H   0  0  0  0  0  0  0  0  0  0  0  0  # atno 10718 bound_to 10713
  153.5638  135.3515  155.2810 H   0  0  0  0  0  0  0  0  0  0  0  0  # atno 10763 bound_to 10752
  154.8691  135.4143  154.2801 H   0  0  0  0  0  0  0  0  0  0  0  0  # atno 10764 bound_to 10752
  153.3553  135.7057  153.6825 H   0  0  0  0  0  0  0  0  0  0  0  0  # atno 10765 bound_to 10752
  140.3339  134.2408  155.7698 H   0  0  0  0  0  0  0  0  0  0  0  0  # atno 11005 bound_to 11000
  144.6949  140.3381  143.7204 LP  0  0  0  0  0  0  0  0  0  0  0  0  # atno 17320 bound_to 7965
  145.7357  139.1749  143.2404 LP  0  0  0  0  0  0  0  0  0  0  0  0  # atno 17321 bound_to 7965
  140.7535  143.3009  151.3082 LP  0  0  0  0  0  0  0  0  0  0  0  0  # atno 17342 bound_to 10162
  139.6511  144.0360  152.2627 LP  0  0  0  0  0  0  0  0  0  0  0  0  # atno 17343 bound_to 10162
  157.5613  130.8248  149.8270 LP  0  0  0  0  0  0  0  0  0  0  0  0  # atno 17370 bound_to 10713
  156.0295  130.3769  150.1727 LP  0  0  0  0  0  0  0  0  0  0  0  0  # atno 17371 bound_to 10713
  141.2056  133.7855  157.0222 LP  0  0  0  0  0  0  0  0  0  0  0  0  # atno 17394 bound_to 11000
  140.0838  134.9633  157.1667 LP  0  0  0  0  0  0  0  0  0  0  0  0  # atno 17395 bound_to 11000

$$$$
