AV-unprocessed.smi:1674|AV-procd|sdf|6714|dock4
  -GOLD-   22720 7453D 1   1.00000     0.00000
 Structure written by MMmdl.
 47 48  0  0  0  0  0  0  0  0  1 V2000
  147.2930  136.8801  162.9139 C   0  0  0  0  0  0  0  0  0  0  0  0
  147.6624  136.2724  161.5881 C   0  0  0  0  0  0  0  0  0  0  0  0
  147.9856  137.0928  160.6436 N   0  0  0  0  0  0  0  0  0  0  0  0
  148.3572  136.6397  159.3927 N   0  0  0  0  0  0  0  0  0  0  0  0
  148.7552  137.7035  158.4597 C   0  0  0  0  0  0  0  0  0  0  0  0
  150.2819  137.7459  158.2146 C   0  0  1  0  0  0  0  0  0  0  0  0
  150.5412  137.2484  156.9179 O   0  0  0  0  0  0  0  0  0  0  0  0
  150.8770  139.1320  158.4299 C   0  0  0  0  0  0  0  0  0  0  0  0
  150.2940  140.2549  157.8052 C   0  0  0  0  0  0  0  0  0  0  0  0
  150.8589  141.5337  157.9715 C   0  0  0  0  0  0  0  0  0  0  0  0
  152.0110  141.7019  158.7674 C   0  0  0  0  0  0  0  0  0  0  0  0
  152.6225  143.0805  158.9497 C   0  0  0  0  0  0  0  0  0  0  0  0
  151.7656  144.0236  159.8192 C   0  0  0  0  0  0  0  0  0  0  0  0
  151.8745  145.4922  159.3750 C   0  0  0  0  0  0  0  0  0  0  0  0
  152.1266  143.8746  161.3046 C   0  0  0  0  0  0  0  0  0  0  0  0
  152.5957  140.5812  159.3924 C   0  0  0  0  0  0  0  0  0  0  0  0
  152.0319  139.3021  159.2240 C   0  0  0  0  0  0  0  0  0  0  0  0
  148.3980  135.3284  159.0224 C   0  0  0  0  0  0  0  0  0  0  0  0
  148.7321  134.9697  157.8923 O   0  0  0  0  0  0  0  0  0  0  0  0
  148.0230  134.4041  160.0950 C   0  0  0  0  0  0  0  0  0  0  0  0
  148.0597  133.0190  159.7519 C   0  0  0  0  0  0  0  0  0  0  0  0
  148.0996  131.8917  159.4912 N   0  0  0  0  0  0  0  0  0  0  0  0
  147.6710  134.8359  161.3318 C   0  0  0  0  0  0  0  0  0  0  0  0
  147.2798  133.9183  162.4820 C   0  0  0  0  0  0  0  0  0  0  0  0
  146.2747  136.6097  163.1932 H   0  0  0  0  0  0  0  0  0  0  0  0
  147.3500  137.9697  162.8924 H   0  0  0  0  0  0  0  0  0  0  0  0
  147.9644  136.5316  163.6988 H   0  0  0  0  0  0  0  0  0  0  0  0
  148.2238  137.5911  157.5129 H   0  0  0  0  0  0  0  0  0  0  0  0
  148.4298  138.6672  158.8574 H   0  0  0  0  0  0  0  0  0  0  0  0
  150.7673  137.0583  158.9082 H   0  0  0  0  0  0  0  0  0  0  0  0
  151.2750  136.6547  156.9673 H   0  0  0  0  0  0  0  0  0  0  0  0
  149.4163  140.1381  157.1864 H   0  0  0  0  0  0  0  0  0  0  0  0
  150.4036  142.3849  157.4868 H   0  0  0  0  0  0  0  0  0  0  0  0
  153.6058  142.9522  159.4043 H   0  0  0  0  0  0  0  0  0  0  0  0
  152.8002  143.5318  157.9724 H   0  0  0  0  0  0  0  0  0  0  0  0
  150.7224  143.7231  159.7134 H   0  0  0  0  0  0  0  0  0  0  0  0
  152.9047  145.8459  159.4275 H   0  0  0  0  0  0  0  0  0  0  0  0
  151.2680  146.1395  160.0092 H   0  0  0  0  0  0  0  0  0  0  0  0
  151.5269  145.6283  158.3508 H   0  0  0  0  0  0  0  0  0  0  0  0
  153.1642  144.1540  161.4902 H   0  0  0  0  0  0  0  0  0  0  0  0
  151.9937  142.8458  161.6409 H   0  0  0  0  0  0  0  0  0  0  0  0
  151.4948  144.5068  161.9291 H   0  0  0  0  0  0  0  0  0  0  0  0
  153.4799  140.6999  160.0016 H   0  0  0  0  0  0  0  0  0  0  0  0
  152.4945  138.4498  159.6997 H   0  0  0  0  0  0  0  0  0  0  0  0
  147.3069  132.8665  162.1994 H   0  0  0  0  0  0  0  0  0  0  0  0
  146.2675  134.1399  162.8212 H   0  0  0  0  0  0  0  0  0  0  0  0
  147.9612  134.0487  163.3235 H   0  0  0  0  0  0  0  0  0  0  0  0
  1  2  1  0  0  0  0
  1 25  1  0  0  0  0
  1 26  1  0  0  0  0
  1 27  1  0  0  0  0
  2 23  1  0  0  0  0
  2  3  2  0  0  0  0
  3  4  1  0  0  0  0
  4  5  1  0  0  0  0
  4 18  1  0  0  0  0
  5  6  1  0  0  0  0
  5 28  1  0  0  0  0
  5 29  1  0  0  0  0
  6  7  1  0  0  0  0
  6  8  1  0  0  0  0
  6 30  1  0  0  0  0
  7 31  1  0  0  0  0
  8 17  1  0  0  0  0
  8  9  2  0  0  0  0
  9 10  1  0  0  0  0
  9 32  1  0  0  0  0
 10 11  2  0  0  0  0
 10 33  1  0  0  0  0
 11 12  1  0  0  0  0
 11 16  1  0  0  0  0
 12 13  1  0  0  0  0
 12 34  1  0  0  0  0
 12 35  1  0  0  0  0
 13 14  1  0  0  0  0
 13 15  1  0  0  0  0
 13 36  1  0  0  0  0
 14 37  1  0  0  0  0
 14 38  1  0  0  0  0
 14 39  1  0  0  0  0
 15 40  1  0  0  0  0
 15 41  1  0  0  0  0
 15 42  1  0  0  0  0
 16 17  2  0  0  0  0
 16 43  1  0  0  0  0
 17 44  1  0  0  0  0
 18 19  2  0  0  0  0
 18 20  1  0  0  0  0
 20 21  1  0  0  0  0
 20 23  2  0  0  0  0
 21 22  3  0  0  0  0
 23 24  1  0  0  0  0
 24 45  1  0  0  0  0
 24 46  1  0  0  0  0
 24 47  1  0  0  0  0
M  END
> <s_m_source_file>
AV-unprocessed.smi

> <i_m_source_file_index>
1674

> <i_lp_mmshare_version>
43012

> <i_f3d_flags>
0

> <s_epik_input>
TiNDYyhjMVtDSDNdKWMoPU8pbihuYzFbQ0gzXSlbQ0gyXVtDQEhdKFtPSF0pYzJbY0hdW2NIXWMoW2NIXVtjSF0yKVtDSDJdW0NIXShbQ0gzXSlbQ0gzXQ==

> <s_epik_cmdline>
J2VwaWtfcHl0aG9uJywgJy1waCcsICc3LjAnLCAnLXRuJywgJzgnLCAnLW1hJywgJzIwMCcsICctbWV0YWxfYmluZGluZycsICctaW1hZScsICc8aW5maWxlLm1hZT4nLCAnLW9tYWUnLCAnPG91dGZpbGUubWFlPic=

> <r_lp_tautomer_probability>
1

> <r_epik_Ionization_Penalty>
4.60566e-08

> <r_epik_Ionization_Penalty_Charging>
1.40848e-10

> <r_epik_Ionization_Penalty_Neutral>
4.59158e-08

> <r_epik_State_Penalty>
-0

> <r_epik_Charging_Adjusted_Penalty>
1.40848e-10

> <i_epik_Tot_Q>
0

> <i_epik_Tot_abs_Q>
0

> <r_epik_Metal_State_Penalty>
-0

> <b_epik_Metal_Only>
0

> <s_lp_Force_Field>
OPLS_2005

> <r_lp_Energy>
26.1271

> <b_lp_Chiralities_Consistent>
1

> <s_lp_Variant>
AV-unprocessed.smi:1674-2

> <Gold.Version>
5.8.1

> <Gold.Id.Protein>
6NUR|6NUR_protein|mol2

> <Gold.PLP.Fitness>
50.4632

> <Gold.PLP.PLP>
-49.4456

> <Gold.PLP.part.hbond>
-2.0000

> <Gold.PLP.part.metal>
0.0000

> <Gold.PLP.part.buried>
-5.8364

> <Gold.PLP.part.nonpolar>
-41.7164

> <Gold.PLP.part.repulsive>
0.0000

> <Gold.PLP.ligand.clash>
0.0000

> <Gold.PLP.ligand.torsion>
1.5842

> <Gold.PLP.Chemscore.Hbond>
1.3565

> <Gold.PLP.Chemscore.CHOScore>
0.0000

> <Gold.PLP.Chemscore.Metal>
0.0000

> <Gold.Chemscore.Hbonds>
donor molecule, donor type, donor heavy atom, donor atom, acceptor molecule, acceptor atom, score
      P1  H  6931  6943       L1     3  0.55
      P1  H  6934  6947       L1     3  0.64

> <Gold.PLP.Chemscore.Internal.Correction>
0.1167

> <Gold.Rescore>
     Score         DG    S(hbond)    S(metal)    S(lipo)     H(rot)  DE(clash)    DE(int)     intcor
     16.74     -18.24       0.90        0.00     129.89       2.13       0.05       1.45       ----

> <Gold.Chemscore.Fitness>
16.7433

> <Gold.Chemscore.DG>
-18.2389

> <Gold.Chemscore.ZeroCoef>
-5.4800

> <Gold.Chemscore.Hbond>
0.9025

> <Gold.Chemscore.Metal>
0.0000

> <Gold.Chemscore.Lipo>
129.8901

> <Gold.Chemscore.Internal_Hbond>
0.0000

> <Gold.Chemscore.DEClash>
0.0458

> <Gold.Chemscore.DEInternal>
1.4497

> <Gold.Chemscore.Rot>
2.1299

> <Gold.Chemscore.Internal.Correction>
   9.000000E+99

> <Gold.Chemscore.Hbonds>
donor molecule, donor type, donor heavy atom, donor atom, acceptor molecule, acceptor atom, score
      P1  H  6931  6943       L1     3  0.05
      P1  H  6934  6947       L1     3  0.52

> <Gold.Chemscore.Hbond.Weighted>
-3.0144

> <Gold.Chemscore.Metal.Weighted>
-0.0000

> <Gold.Chemscore.Lipo.Weighted>
-15.1971

> <Gold.Chemscore.Internal_Hbond.Weighted>
0.0000

> <Gold.Chemscore.DEClash.Weighted>
0.0458

> <Gold.Chemscore.DEInternal.Weighted>
1.4497

> <Gold.Chemscore.Rot.Weighted>
5.4526

> <Gold.Chemscore.Internal.Correction.Weighted>
   9.000000E+99

> <Gold.Protein.RotatedTorsions>
[ 6907 6896 6895 6894 ] final  -94.85 input  -60.11 | X-H torsion
[ 7974 7965 7964 7962 ] final   79.17 input  175.53 | X-H torsion
[ 8008 7997 7996 7995 ] final  -57.53 input   59.86 | X-H torsion
[ 10167 10162 10161 10158 ] final   43.08 input  -65.29 | X-H torsion
[ 10718 10713 10712 10709 ] final  113.15 input   66.30 | X-H torsion
[ 10763 10752 10751 10750 ] final  158.58 input  -60.55 | X-H torsion
[ 11005 11000 10999 10996 ] final  159.99 input  -57.11 | X-H torsion

> <Gold.Protein.ActiveResidues>
 VAL166  LYS551  ARG553  GLY616  TRP617  ASP618  TYR619  PRO620  LYS621  CYS622 
 ASP623  PHE694  ASN695  SER759  ASP760  ASP761  ALA762  ILE779  LEU786  VAL792 
 PHE793  MET794  SER795  GLU796  ALA797  LYS798  CYS799  TRP800  GLU811  SER814 

> <Gold.Protein.RotatedAtoms>
  150.6951  134.1748  159.4225 H   0  0  0  0  0  0  0  0  0  0  0  0  # atno 6907 bound_to 6896
  151.9724  135.0067  160.0562 H   0  0  0  0  0  0  0  0  0  0  0  0  # atno 6908 bound_to 6896
  152.1829  133.4685  159.5004 H   0  0  0  0  0  0  0  0  0  0  0  0  # atno 6909 bound_to 6896
  145.6676  139.2488  143.1887 H   0  0  0  0  0  0  0  0  0  0  0  0  # atno 7974 bound_to 7965
  154.4272  140.1104  156.5813 H   0  0  0  0  0  0  0  0  0  0  0  0  # atno 8008 bound_to 7997
  155.6110  140.3494  155.4603 H   0  0  0  0  0  0  0  0  0  0  0  0  # atno 8009 bound_to 7997
  156.0099  140.1217  157.0453 H   0  0  0  0  0  0  0  0  0  0  0  0  # atno 8010 bound_to 7997
  140.3480  144.2386  150.6148 H   0  0  0  0  0  0  0  0  0  0  0  0  # atno 10167 bound_to 10162
  157.6354  131.0979  150.6999 H   0  0  0  0  0  0  0  0  0  0  0  0  # atno 10718 bound_to 10713
  154.2183  135.2783  155.2934 H   0  0  0  0  0  0  0  0  0  0  0  0  # atno 10763 bound_to 10752
  154.5723  135.5615  153.7109 H   0  0  0  0  0  0  0  0  0  0  0  0  # atno 10764 bound_to 10752
  153.0048  135.6324  154.2323 H   0  0  0  0  0  0  0  0  0  0  0  0  # atno 10765 bound_to 10752
  140.2015  134.8334  157.3023 H   0  0  0  0  0  0  0  0  0  0  0  0  # atno 11005 bound_to 11000
  146.1072  140.7472  142.9520 LP  0  0  0  0  0  0  0  0  0  0  0  0  # atno 17320 bound_to 7965
  144.7067  140.3881  143.7112 LP  0  0  0  0  0  0  0  0  0  0  0  0  # atno 17321 bound_to 7965
  140.5246  143.2257  151.8335 LP  0  0  0  0  0  0  0  0  0  0  0  0  # atno 17342 bound_to 10162
  139.4830  144.4795  151.9325 LP  0  0  0  0  0  0  0  0  0  0  0  0  # atno 17343 bound_to 10162
  156.7332  130.4716  149.5495 LP  0  0  0  0  0  0  0  0  0  0  0  0  # atno 17370 bound_to 10713
  156.1588  130.6360  151.0692 LP  0  0  0  0  0  0  0  0  0  0  0  0  # atno 17371 bound_to 10713
  140.2049  134.4210  155.7643 LP  0  0  0  0  0  0  0  0  0  0  0  0  # atno 17394 bound_to 11000
  141.2227  133.7090  156.8243 LP  0  0  0  0  0  0  0  0  0  0  0  0  # atno 17395 bound_to 11000

$$$$
