AV-unprocessed.smi:90|AV-procd|sdf|831|dock1
  -GOLD-   2262017253D 1   1.00000     0.00000
 Structure written by MMmdl.
 64 67  0  0  0  0  0  0  0  0  2 V2000
  147.9972  135.6799  154.9823 C   0  0  0  0  0  0  0  0  0  0  0  0
  147.0642  136.6338  154.3891 N   0  0  0  0  0  0  0  0  0  0  0  0
  146.1007  136.1870  153.3853 C   0  0  0  0  0  0  0  0  0  0  0  0
  146.4418  134.8003  152.8072 C   0  0  0  0  0  0  0  0  0  0  0  0
  145.6904  133.6333  153.5038 C   0  0  2  0  0  0  0  0  0  0  0  0
  146.3579  132.2533  153.2956 C   0  0  0  0  0  0  0  0  0  0  0  0
  146.1987  131.7481  151.8526 C   0  0  0  0  0  0  0  0  0  0  0  0
  144.7152  131.7315  151.4589 C   0  0  0  0  0  0  0  0  0  0  0  0
  144.0530  133.0977  151.7049 C   0  0  0  0  0  0  0  0  0  0  0  0
  144.2528  133.5365  153.1100 N   0  3  2  0  0  0  0  0  0  0  0  0
  143.4303  134.7136  153.4714 C   0  0  0  0  0  0  0  0  0  0  0  0
  147.4405  137.9385  154.4266 C   0  0  0  0  0  0  0  0  0  0  0  0
  146.5966  138.8484  153.8732 N   0  0  0  0  0  0  0  0  0  0  0  0
  146.9064  140.1475  153.8731 C   0  0  0  0  0  0  0  0  0  0  0  0
  147.9878  140.7461  154.3730 N   0  0  0  0  0  0  0  0  0  0  0  0
  148.8350  139.8443  154.9452 C   0  0  0  0  0  0  0  0  0  0  0  0
  148.6454  138.4332  155.0113 C   0  0  0  0  0  0  0  0  0  0  0  0
  149.7213  137.8506  155.6730 N   0  0  0  0  0  0  0  0  0  0  0  0
  150.5031  138.8525  155.9656 C   0  0  0  0  0  0  0  0  0  0  0  0
  150.0388  140.0908  155.5845 N   0  0  0  0  0  0  0  0  0  0  0  0
  150.7027  141.3712  155.7922 C   0  0  0  0  0  0  0  0  0  0  0  0
  150.8184  141.8185  157.2808 C   0  0  0  0  0  0  0  0  0  0  0  0
  149.4170  141.8470  157.9555 C   0  0  0  0  0  0  0  0  0  0  0  0
  148.5386  142.7591  157.3276 O   0  0  0  0  0  0  0  0  0  0  0  0
  151.7450  140.8463  158.0555 C   0  0  0  0  0  0  0  0  0  0  0  0
  152.1803  141.3876  159.4303 C   0  0  0  0  0  0  0  0  0  0  0  0
  152.7965  142.6599  159.2848 O   0  0  0  0  0  0  0  0  0  0  0  0
  151.9194  143.6350  158.7370 C   0  0  0  0  0  0  0  0  0  0  0  0
  151.4934  143.2134  157.3199 C   0  0  0  0  0  0  0  0  0  0  0  0
  149.0168  136.0680  154.9947 H   0  0  0  0  0  0  0  0  0  0  0  0
  148.0141  134.7462  154.4206 H   0  0  0  0  0  0  0  0  0  0  0  0
  147.7033  135.4567  156.0080 H   0  0  0  0  0  0  0  0  0  0  0  0
  145.1152  136.1338  153.8445 H   0  0  0  0  0  0  0  0  0  0  0  0
  146.0476  136.9293  152.5881 H   0  0  0  0  0  0  0  0  0  0  0  0
  146.1909  134.8075  151.7483 H   0  0  0  0  0  0  0  0  0  0  0  0
  147.5197  134.6492  152.8560 H   0  0  0  0  0  0  0  0  0  0  0  0
  145.7044  133.8361  154.5758 H   0  0  0  0  0  0  0  0  0  0  0  0
  147.4106  132.2723  153.5739 H   0  0  0  0  0  0  0  0  0  0  0  0
  145.8939  131.5327  153.9705 H   0  0  0  0  0  0  0  0  0  0  0  0
  146.7601  132.3821  151.1658 H   0  0  0  0  0  0  0  0  0  0  0  0
  146.6199  130.7467  151.7587 H   0  0  0  0  0  0  0  0  0  0  0  0
  144.6097  131.4478  150.4112 H   0  0  0  0  0  0  0  0  0  0  0  0
  144.1958  130.9675  152.0387 H   0  0  0  0  0  0  0  0  0  0  0  0
  144.4475  133.8454  151.0163 H   0  0  0  0  0  0  0  0  0  0  0  0
  142.9847  133.0192  151.4989 H   0  0  0  0  0  0  0  0  0  0  0  0
  143.6333  135.5645  152.8211 H   0  0  0  0  0  0  0  0  0  0  0  0
  143.6106  135.0137  154.5040 H   0  0  0  0  0  0  0  0  0  0  0  0
  142.3710  134.4726  153.3782 H   0  0  0  0  0  0  0  0  0  0  0  0
  146.1837  140.8013  153.4073 H   0  0  0  0  0  0  0  0  0  0  0  0
  151.4418  138.7154  156.4824 H   0  0  0  0  0  0  0  0  0  0  0  0
  151.6958  141.2988  155.3464 H   0  0  0  0  0  0  0  0  0  0  0  0
  150.1767  142.1270  155.2078 H   0  0  0  0  0  0  0  0  0  0  0  0
  148.9581  140.8583  157.9390 H   0  0  0  0  0  0  0  0  0  0  0  0
  149.4806  142.1284  159.0052 H   0  0  0  0  0  0  0  0  0  0  0  0
  148.9874  143.1537  156.5956 H   0  0  0  0  0  0  0  0  0  0  0  0
  151.2613  139.8785  158.1909 H   0  0  0  0  0  0  0  0  0  0  0  0
  152.6441  140.6580  157.4674 H   0  0  0  0  0  0  0  0  0  0  0  0
  151.3402  141.4531  160.1220 H   0  0  0  0  0  0  0  0  0  0  0  0
  152.8996  140.7052  159.8834 H   0  0  0  0  0  0  0  0  0  0  0  0
  151.0582  143.7817  159.3895 H   0  0  0  0  0  0  0  0  0  0  0  0
  152.4451  144.5891  158.6961 H   0  0  0  0  0  0  0  0  0  0  0  0
  152.3860  143.2012  156.6929 H   0  0  0  0  0  0  0  0  0  0  0  0
  150.8414  143.9731  156.8878 H   0  0  0  0  0  0  0  0  0  0  0  0
  143.8842  132.7841  153.6742 H   0  0  0  0  0  0  0  0  0  0  0  0
  1  2  1  0  0  0  0
  1 30  1  0  0  0  0
  1 31  1  0  0  0  0
  1 32  1  0  0  0  0
  2  3  1  0  0  0  0
  2 12  1  0  0  0  0
  3  4  1  0  0  0  0
  3 33  1  0  0  0  0
  3 34  1  0  0  0  0
  4  5  1  0  0  0  0
  4 35  1  0  0  0  0
  4 36  1  0  0  0  0
  5 10  1  0  0  0  0
  5  6  1  0  0  0  0
  5 37  1  0  0  0  0
  6  7  1  0  0  0  0
  6 38  1  0  0  0  0
  6 39  1  0  0  0  0
  7  8  1  0  0  0  0
  7 40  1  0  0  0  0
  7 41  1  0  0  0  0
  8  9  1  0  0  0  0
  8 42  1  0  0  0  0
  8 43  1  0  0  0  0
  9 10  1  0  0  0  0
  9 44  1  0  0  0  0
  9 45  1  0  0  0  0
 10 11  1  0  0  0  0
 10 64  1  0  0  0  0
 11 46  1  0  0  0  0
 11 47  1  0  0  0  0
 11 48  1  0  0  0  0
 12 17  1  0  0  0  0
 12 13  2  0  0  0  0
 13 14  1  0  0  0  0
 14 15  2  0  0  0  0
 14 49  1  0  0  0  0
 15 16  1  0  0  0  0
 16 20  1  0  0  0  0
 16 17  2  0  0  0  0
 17 18  1  0  0  0  0
 18 19  2  0  0  0  0
 19 20  1  0  0  0  0
 19 50  1  0  0  0  0
 20 21  1  0  0  0  0
 21 22  1  0  0  0  0
 21 51  1  0  0  0  0
 21 52  1  0  0  0  0
 22 29  1  0  0  0  0
 22 23  1  0  0  0  0
 22 25  1  0  0  0  0
 23 24  1  0  0  0  0
 23 53  1  0  0  0  0
 23 54  1  0  0  0  0
 24 55  1  0  0  0  0
 25 26  1  0  0  0  0
 25 56  1  0  0  0  0
 25 57  1  0  0  0  0
 26 27  1  0  0  0  0
 26 58  1  0  0  0  0
 26 59  1  0  0  0  0
 27 28  1  0  0  0  0
 28 29  1  0  0  0  0
 28 60  1  0  0  0  0
 28 61  1  0  0  0  0
 29 62  1  0  0  0  0
 29 63  1  0  0  0  0
M  CHG  1  10   1
M  END
> <s_m_source_file>
AV-unprocessed.smi

> <i_m_source_file_index>
90

> <i_lp_mmshare_version>
43012

> <i_f3d_flags>
0

> <s_epik_input>
W0NIM11OMVtDSDJdW0NIMl1bQ0gyXVtDSDJdW0NASF0xW0NIMl1bQ0gyXU4oW0NIM10pYyhuW2NIXW4yKWMoYzIzKW5bY0hdbjNbQ0gyXUM0KFtDSDJdW09IXSlbQ0gyXVtDSDJdT1tDSDJdW0NIMl00

> <s_epik_cmdline>
J2VwaWtfcHl0aG9uJywgJy1waCcsICc3LjAnLCAnLXRuJywgJzgnLCAnLW1hJywgJzIwMCcsICctbWV0YWxfYmluZGluZycsICctaW1hZScsICc8aW5maWxlLm1hZT4nLCAnLW9tYWUnLCAnPG91dGZpbGUubWFlPic=

> <r_lp_tautomer_probability>
1

> <r_epik_Ionization_Penalty>
0.00234895

> <r_epik_Ionization_Penalty_Charging>
0.00106647

> <r_epik_Ionization_Penalty_Neutral>
0.00128248

> <r_epik_State_Penalty>
-0

> <r_epik_Charging_Adjusted_Penalty>
0.00106647

> <i_epik_Tot_Q>
1

> <i_epik_Tot_abs_Q>
1

> <r_epik_Metal_State_Penalty>
-0

> <b_epik_Metal_Only>
0

> <s_lp_Force_Field>
OPLS_2005

> <r_lp_Energy>
45.3808

> <b_lp_Chiralities_Consistent>
1

> <s_lp_Variant>
AV-unprocessed.smi:90-3

> <Gold.Version>
5.8.1

> <Gold.Id.Protein>
6NUR|6NUR_protein|mol2

> <Gold.PLP.Fitness>
49.0027

> <Gold.PLP.PLP>
-37.9467

> <Gold.PLP.part.hbond>
-2.6900

> <Gold.PLP.part.metal>
0.0000

> <Gold.PLP.part.buried>
-5.8686

> <Gold.PLP.part.nonpolar>
-30.3750

> <Gold.PLP.part.repulsive>
0.3218

> <Gold.PLP.ligand.clash>
0.0000

> <Gold.PLP.ligand.torsion>
0.8012

> <Gold.PLP.Chemscore.Hbond>
3.0000

> <Gold.PLP.Chemscore.CHOScore>
0.8530

> <Gold.PLP.Chemscore.Metal>
0.0000

> <Gold.Chemscore.Hbonds>
donor molecule, donor type, donor heavy atom, donor atom, acceptor molecule, acceptor atom, score
      L1  H    10    64       P1 10957  2.00
      L1  H    24    55       P1  8028  0.72
      L1  C    14    49       P1 10175  0.62

> <Gold.PLP.Chemscore.Internal.Correction>
1.0993

> <Gold.Rescore>
     Score         DG    S(hbond)    S(metal)    S(lipo)     H(rot)  DE(clash)    DE(int)     intcor
     12.92     -15.88       1.84        0.00      96.17       2.73       0.39       2.57       ----

> <Gold.Chemscore.Fitness>
12.9158

> <Gold.Chemscore.DG>
-15.8774

> <Gold.Chemscore.ZeroCoef>
-5.4800

> <Gold.Chemscore.Hbond>
1.8403

> <Gold.Chemscore.Metal>
0.0000

> <Gold.Chemscore.Lipo>
96.1699

> <Gold.Chemscore.Internal_Hbond>
0.0000

> <Gold.Chemscore.DEClash>
0.3928

> <Gold.Chemscore.DEInternal>
2.5688

> <Gold.Chemscore.Rot>
2.7347

> <Gold.Chemscore.Internal.Correction>
   9.000000E+99

> <Gold.Chemscore.Hbonds>
donor molecule, donor type, donor heavy atom, donor atom, acceptor molecule, acceptor atom, score
      L1  H    10    64       P1 10957  0.74
      L1  H    24    55       P1  8028  0.70

> <Gold.Chemscore.Hbond.Weighted>
-6.1465

> <Gold.Chemscore.Metal.Weighted>
-0.0000

> <Gold.Chemscore.Lipo.Weighted>
-11.2519

> <Gold.Chemscore.Internal_Hbond.Weighted>
0.0000

> <Gold.Chemscore.DEClash.Weighted>
0.3928

> <Gold.Chemscore.DEInternal.Weighted>
2.5688

> <Gold.Chemscore.Rot.Weighted>
7.0009

> <Gold.Chemscore.Internal.Correction.Weighted>
   9.000000E+99

> <Gold.Protein.RotatedTorsions>
[ 6907 6896 6895 6894 ] final -150.24 input  -60.11 | X-H torsion
[ 7974 7965 7964 7962 ] final   48.11 input  175.53 | X-H torsion
[ 8008 7997 7996 7995 ] final  159.58 input   59.86 | X-H torsion
[ 10167 10162 10161 10158 ] final  179.92 input  -65.29 | X-H torsion
[ 10718 10713 10712 10709 ] final   65.57 input   66.30 | X-H torsion
[ 10763 10752 10751 10750 ] final  165.45 input  -60.55 | X-H torsion
[ 11005 11000 10999 10996 ] final  -17.61 input  -57.11 | X-H torsion

> <Gold.Protein.ActiveResidues>
 VAL166  LYS551  ARG553  GLY616  TRP617  ASP618  TYR619  PRO620  LYS621  CYS622 
 ASP623  PHE694  ASN695  SER759  ASP760  ASP761  ALA762  ILE779  LEU786  VAL792 
 PHE793  MET794  SER795  GLU796  ALA797  LYS798  CYS799  TRP800  GLU811  SER814 

> <Gold.Protein.RotatedAtoms>
  151.1957  133.4641  159.2595 H   0  0  0  0  0  0  0  0  0  0  0  0  # atno 6907 bound_to 6896
  151.1120  135.0031  159.8508 H   0  0  0  0  0  0  0  0  0  0  0  0  # atno 6908 bound_to 6896
  152.5451  134.1875  159.8713 H   0  0  0  0  0  0  0  0  0  0  0  0  # atno 6909 bound_to 6896
  146.0235  139.4679  142.9882 H   0  0  0  0  0  0  0  0  0  0  0  0  # atno 7974 bound_to 7965
  156.2230  140.1827  156.7432 H   0  0  0  0  0  0  0  0  0  0  0  0  # atno 8008 bound_to 7997
  154.5895  140.0653  156.9247 H   0  0  0  0  0  0  0  0  0  0  0  0  # atno 8009 bound_to 7997
  155.2361  140.3318  155.4300 H   0  0  0  0  0  0  0  0  0  0  0  0  # atno 8010 bound_to 7997
  139.5357  144.2503  152.0789 H   0  0  0  0  0  0  0  0  0  0  0  0  # atno 10167 bound_to 10162
  157.6114  130.9221  149.9994 H   0  0  0  0  0  0  0  0  0  0  0  0  # atno 10718 bound_to 10713
  154.3242  135.2755  155.2504 H   0  0  0  0  0  0  0  0  0  0  0  0  # atno 10763 bound_to 10752
  154.4845  135.5850  153.6417 H   0  0  0  0  0  0  0  0  0  0  0  0  # atno 10764 bound_to 10752
  152.9873  135.6119  154.3429 H   0  0  0  0  0  0  0  0  0  0  0  0  # atno 10765 bound_to 10752
  140.8185  133.8086  155.9635 H   0  0  0  0  0  0  0  0  0  0  0  0  # atno 11005 bound_to 11000
  145.7155  141.0092  143.1430 LP  0  0  0  0  0  0  0  0  0  0  0  0  # atno 17320 bound_to 7965
  144.7000  139.8808  143.7447 LP  0  0  0  0  0  0  0  0  0  0  0  0  # atno 17321 bound_to 7965
  140.1974  144.4692  150.6448 LP  0  0  0  0  0  0  0  0  0  0  0  0  # atno 17342 bound_to 10162
  140.6562  143.2238  151.5962 LP  0  0  0  0  0  0  0  0  0  0  0  0  # atno 17343 bound_to 10162
  156.1218  130.3645  149.9875 LP  0  0  0  0  0  0  0  0  0  0  0  0  # atno 17370 bound_to 10713
  156.7953  130.9271  151.3646 LP  0  0  0  0  0  0  0  0  0  0  0  0  # atno 17371 bound_to 10713
  140.9123  134.2245  157.4978 LP  0  0  0  0  0  0  0  0  0  0  0  0  # atno 17394 bound_to 11000
  139.8710  134.9756  156.4888 LP  0  0  0  0  0  0  0  0  0  0  0  0  # atno 17395 bound_to 11000

$$$$
