AV-unprocessed.smi:3165|AV-procd|sdf|12087|dock3
  -GOLD-   2272017513D 1   1.00000     0.00000
 Structure written by MMmdl.
 38 39  0  0  0  0  0  0  0  0  2 V2000
  147.6927  142.0030  154.0116 C   0  0  0  0  0  0  0  0  0  0  0  0
  149.0860  141.4522  154.3434 C   0  0  2  0  0  0  0  0  0  0  0  0
  149.0271  139.9297  154.5887 C   0  0  0  0  0  0  0  0  0  0  0  0
  150.2709  139.2557  154.2624 N   0  0  0  0  0  0  0  0  0  0  0  0
  150.6232  138.6275  153.0864 C   0  0  0  0  0  0  0  0  0  0  0  0
  151.8931  138.1516  153.2458 C   0  0  0  0  0  0  0  0  0  0  0  0
  152.2371  138.5407  154.5707 C   0  0  0  0  0  0  0  0  0  0  0  0
  151.2642  139.2020  155.1766 N   0  0  0  0  0  0  0  0  0  0  0  0
  149.6268  142.1647  155.5233 N   0  3  0  0  0  0  0  0  0  0  0  0
  151.0384  141.8627  155.8421 C   0  0  0  0  0  0  0  0  0  0  0  0
  151.3972  142.3412  157.2548 C   0  0  1  0  0  0  0  0  0  0  0  0
  152.5039  141.4763  157.8895 C   0  0  0  0  0  0  0  0  0  0  0  0
  152.9093  142.0369  159.2574 C   0  0  0  0  0  0  0  0  0  0  0  0
  153.2711  143.5195  159.1214 C   0  0  0  0  0  0  0  0  0  0  0  0
  152.1354  144.2836  158.4228 C   0  0  0  0  0  0  0  0  0  0  0  0
  151.8569  143.6881  157.1590 O   0  0  0  0  0  0  0  0  0  0  0  0
  147.2818  141.5232  153.1228 H   0  0  0  0  0  0  0  0  0  0  0  0
  147.7300  143.0752  153.8163 H   0  0  0  0  0  0  0  0  0  0  0  0
  146.9931  141.8376  154.8320 H   0  0  0  0  0  0  0  0  0  0  0  0
  149.7253  141.6479  153.4807 H   0  0  0  0  0  0  0  0  0  0  0  0
  148.7696  139.7167  155.6278 H   0  0  0  0  0  0  0  0  0  0  0  0
  148.2392  139.4856  153.9790 H   0  0  0  0  0  0  0  0  0  0  0  0
  149.9498  138.5735  152.2436 H   0  0  0  0  0  0  0  0  0  0  0  0
  152.4859  137.6063  152.5262 H   0  0  0  0  0  0  0  0  0  0  0  0
  153.1586  138.3639  155.1059 H   0  0  0  0  0  0  0  0  0  0  0  0
  149.5623  143.1577  155.3501 H   0  0  0  0  0  0  0  0  0  0  0  0
  151.2006  140.7872  155.7703 H   0  0  0  0  0  0  0  0  0  0  0  0
  151.6896  142.3331  155.1041 H   0  0  0  0  0  0  0  0  0  0  0  0
  150.5044  142.3033  157.8819 H   0  0  0  0  0  0  0  0  0  0  0  0
  152.1651  140.4453  157.9965 H   0  0  0  0  0  0  0  0  0  0  0  0
  153.3752  141.4525  157.2335 H   0  0  0  0  0  0  0  0  0  0  0  0
  152.0838  141.9226  159.9610 H   0  0  0  0  0  0  0  0  0  0  0  0
  153.7502  141.4756  159.6657 H   0  0  0  0  0  0  0  0  0  0  0  0
  153.4711  143.9512  160.1026 H   0  0  0  0  0  0  0  0  0  0  0  0
  154.1892  143.6216  158.5414 H   0  0  0  0  0  0  0  0  0  0  0  0
  151.2348  144.2928  159.0387 H   0  0  0  0  0  0  0  0  0  0  0  0
  152.4239  145.3231  158.2662 H   0  0  0  0  0  0  0  0  0  0  0  0
  149.0515  141.9419  156.3234 H   0  0  0  0  0  0  0  0  0  0  0  0
  1  2  1  0  0  0  0
  1 17  1  0  0  0  0
  1 18  1  0  0  0  0
  1 19  1  0  0  0  0
  2  3  1  0  0  0  0
  2  9  1  0  0  0  0
  2 20  1  0  0  0  0
  3  4  1  0  0  0  0
  3 21  1  0  0  0  0
  3 22  1  0  0  0  0
  4  8  1  0  0  0  0
  4  5  1  0  0  0  0
  5  6  2  0  0  0  0
  5 23  1  0  0  0  0
  6  7  1  0  0  0  0
  6 24  1  0  0  0  0
  7  8  2  0  0  0  0
  7 25  1  0  0  0  0
  9 10  1  0  0  0  0
  9 26  1  0  0  0  0
  9 38  1  0  0  0  0
 10 11  1  0  0  0  0
 10 27  1  0  0  0  0
 10 28  1  0  0  0  0
 11 16  1  0  0  0  0
 11 12  1  0  0  0  0
 11 29  1  0  0  0  0
 12 13  1  0  0  0  0
 12 30  1  0  0  0  0
 12 31  1  0  0  0  0
 13 14  1  0  0  0  0
 13 32  1  0  0  0  0
 13 33  1  0  0  0  0
 14 15  1  0  0  0  0
 14 34  1  0  0  0  0
 14 35  1  0  0  0  0
 15 16  1  0  0  0  0
 15 36  1  0  0  0  0
 15 37  1  0  0  0  0
M  CHG  1   9   1
M  END
> <s_m_source_file>
AV-unprocessed.smi

> <i_m_source_file_index>
3165

> <i_lp_mmshare_version>
43012

> <i_f3d_flags>
0

> <s_epik_input>
bjFbY0hdW2NIXVtjSF1uMVtDSDJdW0NAQEhdKFtDSDNdKVtOSF1bQ0gyXVtDQEBIXTJbQ0gyXVtDSDJdW0NIMl1bQ0gyXU8y

> <s_epik_cmdline>
J2VwaWtfcHl0aG9uJywgJy1waCcsICc3LjAnLCAnLXRuJywgJzgnLCAnLW1hJywgJzIwMCcsICctbWV0YWxfYmluZGluZycsICctaW1hZScsICc8aW5maWxlLm1hZT4nLCAnLW9tYWUnLCAnPG91dGZpbGUubWFlPic=

> <r_lp_tautomer_probability>
1

> <r_epik_Ionization_Penalty>
0.00849196

> <r_epik_Ionization_Penalty_Charging>
0.00848754

> <r_epik_Ionization_Penalty_Neutral>
4.42049e-06

> <r_epik_State_Penalty>
0.00639836

> <r_epik_Charging_Adjusted_Penalty>
0.0148859

> <i_epik_Tot_Q>
1

> <i_epik_Tot_abs_Q>
1

> <r_epik_Metal_State_Penalty>
0.00639878

> <b_epik_Metal_Only>
0

> <s_lp_Force_Field>
OPLS_2005

> <r_lp_Energy>
13.1527

> <b_lp_Chiralities_Consistent>
1

> <s_lp_Variant>
AV-unprocessed.smi:3165-3

> <Gold.Version>
5.8.1

> <Gold.Id.Protein>
6NUR|6NUR_protein|mol2

> <Gold.PLP.Fitness>
48.8515

> <Gold.PLP.PLP>
-39.2453

> <Gold.PLP.part.hbond>
-1.0000

> <Gold.PLP.part.metal>
0.0000

> <Gold.PLP.part.buried>
-6.3094

> <Gold.PLP.part.nonpolar>
-32.4269

> <Gold.PLP.part.repulsive>
0.2817

> <Gold.PLP.ligand.clash>
0.0000

> <Gold.PLP.ligand.torsion>
1.1151

> <Gold.PLP.Chemscore.Hbond>
2.0000

> <Gold.PLP.Chemscore.CHOScore>
1.9300

> <Gold.PLP.Chemscore.Metal>
0.0000

> <Gold.Chemscore.Hbonds>
donor molecule, donor type, donor heavy atom, donor atom, acceptor molecule, acceptor atom, score
      L1  H     9    26       P1  8028  2.00
      L1  C     5    23       P1  7948  0.60
      L1  C     5    23       P1  7957  0.31

> <Gold.PLP.Chemscore.Internal.Correction>
0.0465

> <Gold.Rescore>
     Score         DG    S(hbond)    S(metal)    S(lipo)     H(rot)  DE(clash)    DE(int)     intcor
     15.34     -16.62       0.98        0.00     103.10       1.64       0.04       1.24       ----

> <Gold.Chemscore.Fitness>
15.3411

> <Gold.Chemscore.DG>
-16.6231

> <Gold.Chemscore.ZeroCoef>
-5.4800

> <Gold.Chemscore.Hbond>
0.9849

> <Gold.Chemscore.Metal>
0.0000

> <Gold.Chemscore.Lipo>
103.1042

> <Gold.Chemscore.Internal_Hbond>
0.0000

> <Gold.Chemscore.DEClash>
0.0417

> <Gold.Chemscore.DEInternal>
1.2402

> <Gold.Chemscore.Rot>
1.6444

> <Gold.Chemscore.Internal.Correction>
   9.000000E+99

> <Gold.Chemscore.Hbonds>
donor molecule, donor type, donor heavy atom, donor atom, acceptor molecule, acceptor atom, score
      L1  H     9    26       P1  8028  0.97

> <Gold.Chemscore.Hbond.Weighted>
-3.2896

> <Gold.Chemscore.Metal.Weighted>
-0.0000

> <Gold.Chemscore.Lipo.Weighted>
-12.0632

> <Gold.Chemscore.Internal_Hbond.Weighted>
0.0000

> <Gold.Chemscore.DEClash.Weighted>
0.0417

> <Gold.Chemscore.DEInternal.Weighted>
1.2402

> <Gold.Chemscore.Rot.Weighted>
4.2097

> <Gold.Chemscore.Internal.Correction.Weighted>
   9.000000E+99

> <Gold.Protein.RotatedTorsions>
[ 6907 6896 6895 6894 ] final -102.68 input  -60.11 | X-H torsion
[ 7974 7965 7964 7962 ] final   97.35 input  175.53 | X-H torsion
[ 8008 7997 7996 7995 ] final   15.95 input   59.86 | X-H torsion
[ 10167 10162 10161 10158 ] final  -79.59 input  -65.29 | X-H torsion
[ 10718 10713 10712 10709 ] final  -90.12 input   66.30 | X-H torsion
[ 10763 10752 10751 10750 ] final   53.15 input  -60.55 | X-H torsion
[ 11005 11000 10999 10996 ] final  133.66 input  -57.11 | X-H torsion

> <Gold.Protein.ActiveResidues>
 VAL166  LYS551  ARG553  GLY616  TRP617  ASP618  TYR619  PRO620  LYS621  CYS622 
 ASP623  PHE694  ASN695  SER759  ASP760  ASP761  ALA762  ILE779  LEU786  VAL792 
 PHE793  MET794  SER795  GLU796  ALA797  LYS798  CYS799  TRP800  GLU811  SER814 

> <Gold.Protein.RotatedAtoms>
  150.7206  134.0545  159.3809 H   0  0  0  0  0  0  0  0  0  0  0  0  # atno 6907 bound_to 6896
  151.8523  135.0551  160.0469 H   0  0  0  0  0  0  0  0  0  0  0  0  # atno 6908 bound_to 6896
  152.2781  133.5409  159.5517 H   0  0  0  0  0  0  0  0  0  0  0  0  # atno 6909 bound_to 6896
  145.4267  139.2315  143.3166 H   0  0  0  0  0  0  0  0  0  0  0  0  # atno 7974 bound_to 7965
  154.8699  140.2957  155.5487 H   0  0  0  0  0  0  0  0  0  0  0  0  # atno 8008 bound_to 7997
  156.3021  140.2462  156.3620 H   0  0  0  0  0  0  0  0  0  0  0  0  # atno 8009 bound_to 7997
  154.8828  140.0397  157.1781 H   0  0  0  0  0  0  0  0  0  0  0  0  # atno 8010 bound_to 7997
  140.4580  143.2462  151.8391 H   0  0  0  0  0  0  0  0  0  0  0  0  # atno 10167 bound_to 10162
  155.9986  130.4898  150.5275 H   0  0  0  0  0  0  0  0  0  0  0  0  # atno 10718 bound_to 10713
  152.9793  135.5788  154.4695 H   0  0  0  0  0  0  0  0  0  0  0  0  # atno 10763 bound_to 10752
  154.4259  135.2772  155.1946 H   0  0  0  0  0  0  0  0  0  0  0  0  # atno 10764 bound_to 10752
  154.3675  135.6175  153.5776 H   0  0  0  0  0  0  0  0  0  0  0  0  # atno 10765 bound_to 10752
  139.9866  134.9530  156.9757 H   0  0  0  0  0  0  0  0  0  0  0  0  # atno 11005 bound_to 11000
  146.2628  140.4998  142.8846 LP  0  0  0  0  0  0  0  0  0  0  0  0  # atno 17320 bound_to 7965
  144.8209  140.6549  143.6353 LP  0  0  0  0  0  0  0  0  0  0  0  0  # atno 17321 bound_to 7965
  139.4803  144.5042  151.9020 LP  0  0  0  0  0  0  0  0  0  0  0  0  # atno 17342 bound_to 10162
  140.4128  144.2346  150.5888 LP  0  0  0  0  0  0  0  0  0  0  0  0  # atno 17343 bound_to 10162
  157.3228  131.0685  151.1919 LP  0  0  0  0  0  0  0  0  0  0  0  0  # atno 17370 bound_to 10713
  157.2826  130.6757  149.6074 LP  0  0  0  0  0  0  0  0  0  0  0  0  # atno 17371 bound_to 10713
  140.4991  134.1116  155.7247 LP  0  0  0  0  0  0  0  0  0  0  0  0  # atno 17394 bound_to 11000
  141.1530  133.8935  157.2050 LP  0  0  0  0  0  0  0  0  0  0  0  0  # atno 17395 bound_to 11000

$$$$
