AV-unprocessed.smi:278|AV-procd|sdf|2091|dock4
  -GOLD-   2262021373D 1   1.00000     0.00000
 Structure written by MMmdl.
 50 54  0  0  0  0  0  0  0  0  1 V2000
  145.0959  137.9160  161.2806 O   0  0  0  0  0  0  0  0  0  0  0  0
  146.2042  137.0628  160.8259 S   0  0  0  0  0  0  0  0  0  0  0  0
  147.0489  137.4695  159.6921 O   0  0  0  0  0  0  0  0  0  0  0  0
  147.2791  136.6667  162.2595 C   0  0  0  0  0  0  0  0  0  0  0  0
  146.9300  135.2319  162.6765 C   0  0  0  0  0  0  0  0  0  0  0  0
  146.4427  134.4511  161.4423 C   0  0  2  0  0  0  0  0  0  0  0  0
  147.5646  134.0350  160.4849 C   0  0  0  0  0  0  0  0  0  0  0  0
  146.9416  133.9871  159.1695 N   0  0  0  0  0  0  0  0  0  0  0  0
  147.6786  133.7783  158.0474 C   0  0  0  0  0  0  0  0  0  0  0  0
  149.0241  133.9685  158.1033 N   0  0  0  0  0  0  0  0  0  0  0  0
  149.7843  133.7725  157.0224 C   0  0  0  0  0  0  0  0  0  0  0  0
  149.4138  133.3828  155.8018 N   0  0  0  0  0  0  0  0  0  0  0  0
  148.0679  133.1759  155.7390 C   0  0  0  0  0  0  0  0  0  0  0  0
  147.1339  133.3476  156.8013 C   0  0  0  0  0  0  0  0  0  0  0  0
  145.8557  133.0289  156.3528 N   0  0  0  0  0  0  0  0  0  0  0  0
  146.0237  132.6988  155.1016 C   0  0  0  0  0  0  0  0  0  0  0  0
  147.3222  132.7570  154.6523 N   0  0  0  0  0  0  0  0  0  0  0  0
  147.7964  132.4423  153.3167 C   0  0  0  0  0  0  0  0  0  0  0  0
  147.2525  133.4179  152.2559 C   0  0  2  0  0  0  0  0  0  0  0  0
  147.2206  134.7386  152.7641 O   0  0  0  0  0  0  0  0  0  0  0  0
  145.8661  133.0046  151.7211 C   0  0  2  0  0  0  0  0  0  0  0  0
  145.7706  131.6270  151.0594 C   0  0  0  0  0  0  0  0  0  0  0  0
  144.5405  131.8015  150.1969 C   0  0  0  0  0  0  0  0  0  0  0  0
  144.7010  133.2408  149.7137 C   0  0  0  0  0  0  0  0  0  0  0  0
  145.3576  133.9373  150.7699 O   0  0  0  0  0  0  0  0  0  0  0  0
  145.7610  134.8405  159.1364 C   0  0  0  0  0  0  0  0  0  0  0  0
  145.5659  135.3521  160.5710 C   0  0  2  0  0  0  0  0  0  0  0  0
  145.8833  133.5629  161.7396 H   0  0  0  0  0  0  0  0  0  0  0  0
  144.5207  135.3321  160.8805 H   0  0  0  0  0  0  0  0  0  0  0  0
  148.3160  136.7328  161.9296 H   0  0  0  0  0  0  0  0  0  0  0  0
  147.1240  137.3914  163.0588 H   0  0  0  0  0  0  0  0  0  0  0  0
  147.7694  134.7382  163.1672 H   0  0  0  0  0  0  0  0  0  0  0  0
  146.1176  135.2696  163.4033 H   0  0  0  0  0  0  0  0  0  0  0  0
  148.3693  134.7713  160.4764 H   0  0  0  0  0  0  0  0  0  0  0  0
  147.9883  133.0691  160.7621 H   0  0  0  0  0  0  0  0  0  0  0  0
  150.8409  133.9522  157.1554 H   0  0  0  0  0  0  0  0  0  0  0  0
  145.2003  132.4029  154.4678 H   0  0  0  0  0  0  0  0  0  0  0  0
  148.8867  132.4660  153.3271 H   0  0  0  0  0  0  0  0  0  0  0  0
  147.5090  131.4170  153.0799 H   0  0  0  0  0  0  0  0  0  0  0  0
  147.9436  133.4288  151.4121 H   0  0  0  0  0  0  0  0  0  0  0  0
  147.6561  135.3071  152.1476 H   0  0  0  0  0  0  0  0  0  0  0  0
  145.1618  133.0198  152.5547 H   0  0  0  0  0  0  0  0  0  0  0  0
  146.6335  131.4219  150.4251 H   0  0  0  0  0  0  0  0  0  0  0  0
  145.6765  130.8143  151.7804 H   0  0  0  0  0  0  0  0  0  0  0  0
  144.4807  131.0812  149.3805 H   0  0  0  0  0  0  0  0  0  0  0  0
  143.6394  131.7070  150.8046 H   0  0  0  0  0  0  0  0  0  0  0  0
  145.3397  133.2748  148.8299 H   0  0  0  0  0  0  0  0  0  0  0  0
  143.7476  133.7051  149.4600 H   0  0  0  0  0  0  0  0  0  0  0  0
  145.8569  135.6563  158.4196 H   0  0  0  0  0  0  0  0  0  0  0  0
  144.9055  134.2345  158.8371 H   0  0  0  0  0  0  0  0  0  0  0  0
  1  2  2  0  0  0  0
  2 27  1  0  0  0  0
  2  3  2  0  0  0  0
  2  4  1  0  0  0  0
  4  5  1  0  0  0  0
  4 30  1  0  0  0  0
  4 31  1  0  0  0  0
  5  6  1  0  0  0  0
  5 32  1  0  0  0  0
  5 33  1  0  0  0  0
  6 28  1  0  0  0  0
  6 27  1  0  0  0  0
  6  7  1  0  0  0  0
  7  8  1  0  0  0  0
  7 34  1  0  0  0  0
  7 35  1  0  0  0  0
  8  9  1  0  0  0  0
  8 26  1  0  0  0  0
  9 14  1  0  0  0  0
  9 10  2  0  0  0  0
 10 11  1  0  0  0  0
 11 12  2  0  0  0  0
 11 36  1  0  0  0  0
 12 13  1  0  0  0  0
 13 17  1  0  0  0  0
 13 14  2  0  0  0  0
 14 15  1  0  0  0  0
 15 16  2  0  0  0  0
 16 17  1  0  0  0  0
 16 37  1  0  0  0  0
 17 18  1  0  0  0  0
 18 19  1  0  0  0  0
 18 38  1  0  0  0  0
 18 39  1  0  0  0  0
 19 20  1  0  0  0  0
 19 21  1  0  0  0  0
 19 40  1  0  0  0  0
 20 41  1  0  0  0  0
 21 25  1  0  0  0  0
 21 22  1  0  0  0  0
 21 42  1  0  0  0  0
 22 23  1  0  0  0  0
 22 43  1  0  0  0  0
 22 44  1  0  0  0  0
 23 24  1  0  0  0  0
 23 45  1  0  0  0  0
 23 46  1  0  0  0  0
 24 25  1  0  0  0  0
 24 47  1  0  0  0  0
 24 48  1  0  0  0  0
 26 27  1  0  0  0  0
 26 49  1  0  0  0  0
 26 50  1  0  0  0  0
 27 29  1  0  0  0  0
M  END
> <s_m_source_file>
AV-unprocessed.smi

> <i_m_source_file_index>
278

> <i_lp_mmshare_version>
43012

> <i_f3d_flags>
0

> <s_epik_input>
W0NIMl0xW0NIMl1TKD1PKSg9TylbQ0BASF0oW0NAQEhdMTIpW0NIMl1OKFtDSDJdMiljKG5bY0hdbjMpYyhjMzQpbltjSF1uNFtDSDJdW0NASF0oW09IXSlbQ0BASF01W0NIMl1bQ0gyXVtDSDJdTzU=

> <s_epik_cmdline>
J2VwaWtfcHl0aG9uJywgJy1waCcsICc3LjAnLCAnLXRuJywgJzgnLCAnLW1hJywgJzIwMCcsICctbWV0YWxfYmluZGluZycsICctaW1hZScsICc8aW5maWxlLm1hZT4nLCAnLW9tYWUnLCAnPG91dGZpbGUubWFlPic=

> <r_lp_tautomer_probability>
1

> <r_epik_Ionization_Penalty>
0.000636766

> <r_epik_Ionization_Penalty_Charging>
0

> <r_epik_Ionization_Penalty_Neutral>
0.000636766

> <r_epik_State_Penalty>
0.000329976

> <r_epik_Charging_Adjusted_Penalty>
0.000329976

> <i_epik_Tot_Q>
0

> <i_epik_Tot_abs_Q>
0

> <r_epik_Metal_State_Penalty>
-0

> <b_epik_Metal_Only>
0

> <s_lp_Force_Field>
OPLS_2005

> <r_lp_Energy>
50.4142

> <b_lp_Chiralities_Consistent>
1

> <s_lp_Variant>
AV-unprocessed.smi:278-5

> <Gold.Version>
5.8.1

> <Gold.Id.Protein>
6NUR|6NUR_protein|mol2

> <Gold.PLP.Fitness>
43.5325

> <Gold.PLP.PLP>
-35.8201

> <Gold.PLP.part.hbond>
-3.4905

> <Gold.PLP.part.metal>
0.0000

> <Gold.PLP.part.buried>
-6.3132

> <Gold.PLP.part.nonpolar>
-27.7275

> <Gold.PLP.part.repulsive>
0.2008

> <Gold.PLP.ligand.clash>
0.0000

> <Gold.PLP.ligand.torsion>
0.8222

> <Gold.PLP.Chemscore.Hbond>
2.0255

> <Gold.PLP.Chemscore.CHOScore>
0.9995

> <Gold.PLP.Chemscore.Metal>
0.0000

> <Gold.Chemscore.Hbonds>
donor molecule, donor type, donor heavy atom, donor atom, acceptor molecule, acceptor atom, score
      L1  H    20    41       P1  7948  0.94
      P1  H  6896  6908       L1    10  0.57
      L1  C    16    37       P1 10957  0.80

> <Gold.PLP.Chemscore.Internal.Correction>
0.2819

> <Gold.Rescore>
     Score         DG    S(hbond)    S(metal)    S(lipo)     H(rot)  DE(clash)    DE(int)     intcor
     14.53     -15.47       1.69        0.00      83.92       2.13       0.24       0.71       ----

> <Gold.Chemscore.Fitness>
14.5294

> <Gold.Chemscore.DG>
-15.4724

> <Gold.Chemscore.ZeroCoef>
-5.4800

> <Gold.Chemscore.Hbond>
1.6881

> <Gold.Chemscore.Metal>
0.0000

> <Gold.Chemscore.Lipo>
83.9218

> <Gold.Chemscore.Internal_Hbond>
0.0000

> <Gold.Chemscore.DEClash>
0.2365

> <Gold.Chemscore.DEInternal>
0.7065

> <Gold.Chemscore.Rot>
2.1346

> <Gold.Chemscore.Internal.Correction>
   9.000000E+99

> <Gold.Chemscore.Hbonds>
donor molecule, donor type, donor heavy atom, donor atom, acceptor molecule, acceptor atom, score
      L1  H    20    41       P1  7948  0.88
      P1  H  6896  6908       L1    10  0.04

> <Gold.Chemscore.Hbond.Weighted>
-5.6382

> <Gold.Chemscore.Metal.Weighted>
-0.0000

> <Gold.Chemscore.Lipo.Weighted>
-9.8188

> <Gold.Chemscore.Internal_Hbond.Weighted>
0.0000

> <Gold.Chemscore.DEClash.Weighted>
0.2365

> <Gold.Chemscore.DEInternal.Weighted>
0.7065

> <Gold.Chemscore.Rot.Weighted>
5.4646

> <Gold.Chemscore.Internal.Correction.Weighted>
   9.000000E+99

> <Gold.Protein.RotatedTorsions>
[ 6907 6896 6895 6894 ] final  135.42 input  -60.11 | X-H torsion
[ 7974 7965 7964 7962 ] final   75.13 input  175.53 | X-H torsion
[ 8008 7997 7996 7995 ] final    3.06 input   59.86 | X-H torsion
[ 10167 10162 10161 10158 ] final  -75.84 input  -65.29 | X-H torsion
[ 10718 10713 10712 10709 ] final  -75.14 input   66.30 | X-H torsion
[ 10763 10752 10751 10750 ] final  154.44 input  -60.55 | X-H torsion
[ 11005 11000 10999 10996 ] final  -30.68 input  -57.11 | X-H torsion

> <Gold.Protein.ActiveResidues>
 VAL166  LYS551  ARG553  GLY616  TRP617  ASP618  TYR619  PRO620  LYS621  CYS622 
 ASP623  PHE694  ASN695  SER759  ASP760  ASP761  ALA762  ILE779  LEU786  VAL792 
 PHE793  MET794  SER795  GLU796  ALA797  LYS798  CYS799  TRP800  GLU811  SER814 

> <Gold.Protein.RotatedAtoms>
  152.3007  133.5652  159.5616 H   0  0  0  0  0  0  0  0  0  0  0  0  # atno 6907 bound_to 6896
  150.7276  134.0296  159.3738 H   0  0  0  0  0  0  0  0  0  0  0  0  # atno 6908 bound_to 6896
  151.8196  135.0656  160.0474 H   0  0  0  0  0  0  0  0  0  0  0  0  # atno 6909 bound_to 6896
  145.7195  139.2643  143.1604 H   0  0  0  0  0  0  0  0  0  0  0  0  # atno 7974 bound_to 7965
  154.6991  140.2669  155.6737 H   0  0  0  0  0  0  0  0  0  0  0  0  # atno 8008 bound_to 7997
  156.2758  140.2776  156.1519 H   0  0  0  0  0  0  0  0  0  0  0  0  # atno 8009 bound_to 7997
  155.0790  140.0372  157.2623 H   0  0  0  0  0  0  0  0  0  0  0  0  # atno 8010 bound_to 7997
  140.4908  143.2381  151.7909 H   0  0  0  0  0  0  0  0  0  0  0  0  # atno 10167 bound_to 10162
  156.0218  130.4433  150.2997 H   0  0  0  0  0  0  0  0  0  0  0  0  # atno 10718 bound_to 10713
  154.1524  135.2814  155.3131 H   0  0  0  0  0  0  0  0  0  0  0  0  # atno 10763 bound_to 10752
  154.6207  135.5468  153.7576 H   0  0  0  0  0  0  0  0  0  0  0  0  # atno 10764 bound_to 10752
  153.0217  135.6438  154.1668 H   0  0  0  0  0  0  0  0  0  0  0  0  # atno 10765 bound_to 10752
  140.9403  133.7283  156.1066 H   0  0  0  0  0  0  0  0  0  0  0  0  # atno 11005 bound_to 11000
  146.0638  140.7942  142.9721 LP  0  0  0  0  0  0  0  0  0  0  0  0  # atno 17320 bound_to 7965
  144.6920  140.3238  143.7228 LP  0  0  0  0  0  0  0  0  0  0  0  0  # atno 17321 bound_to 7965
  139.4851  144.4651  151.9494 LP  0  0  0  0  0  0  0  0  0  0  0  0  # atno 17342 bound_to 10162
  140.3738  144.2822  150.5916 LP  0  0  0  0  0  0  0  0  0  0  0  0  # atno 17343 bound_to 10162
  157.1100  131.0219  151.3052 LP  0  0  0  0  0  0  0  0  0  0  0  0  # atno 17370 bound_to 10713
  157.4712  130.7710  149.7325 LP  0  0  0  0  0  0  0  0  0  0  0  0  # atno 17371 bound_to 10713
  140.7743  134.3798  157.5501 LP  0  0  0  0  0  0  0  0  0  0  0  0  # atno 17394 bound_to 11000
  139.8819  134.9041  156.2871 LP  0  0  0  0  0  0  0  0  0  0  0  0  # atno 17395 bound_to 11000

$$$$
