AV-unprocessed.smi:1302|AV-procd|sdf|5426|dock5
  -GOLD-   22720 4583D 1   1.00000     0.00000
 Structure written by MMmdl.
 43 44  0  0  0  0  0  0  0  0  1 V2000
  155.6943  140.6806  167.1843 C   0  0  0  0  0  0  0  0  0  0  0  0
  156.5646  140.5939  165.9229 C   0  0  0  0  0  0  0  0  0  0  0  0
  157.7963  141.5046  166.0145 C   0  0  0  0  0  0  0  0  0  0  0  0
  155.7717  140.9610  164.7529 N   0  0  0  0  0  0  0  0  0  0  0  0
  155.5641  140.1952  163.6685 C   0  0  0  0  0  0  0  0  0  0  0  0
  156.0592  139.0791  163.5113 O   0  0  0  0  0  0  0  0  0  0  0  0
  154.7203  140.8166  162.5943 C   0  0  0  0  0  0  0  0  0  0  0  0
  154.4997  140.1433  161.3735 C   0  0  0  0  0  0  0  0  0  0  0  0
  153.6851  140.7470  160.3964 C   0  0  0  0  0  0  0  0  0  0  0  0
  153.1035  142.0004  160.6773 C   0  0  0  0  0  0  0  0  0  0  0  0
  152.2955  142.6071  159.7057 N   0  0  0  0  0  0  0  0  0  0  0  0
  151.5713  141.6480  158.8844 C   0  0  0  0  0  0  0  0  0  0  0  0
  150.5744  142.3820  157.9690 C   0  0  2  0  0  0  0  0  0  0  0  0
  149.8795  141.4229  156.9970 C   0  0  0  0  0  0  0  0  0  0  0  0
  151.2664  143.3662  157.1991 O   0  0  0  0  0  0  0  0  0  0  0  0
  151.9944  144.3291  157.9662 C   0  0  1  0  0  0  0  0  0  0  0  0
  151.0638  145.3180  158.6914 C   0  0  0  0  0  0  0  0  0  0  0  0
  152.9839  143.6126  158.9060 C   0  0  0  0  0  0  0  0  0  0  0  0
  153.2995  142.6487  161.8500 N   0  0  0  0  0  0  0  0  0  0  0  0
  154.0853  142.0659  162.7804 C   0  0  0  0  0  0  0  0  0  0  0  0
  156.2630  140.4023  168.0720 H   0  0  0  0  0  0  0  0  0  0  0  0
  154.8381  140.0084  167.1180 H   0  0  0  0  0  0  0  0  0  0  0  0
  155.3138  141.6914  167.3361 H   0  0  0  0  0  0  0  0  0  0  0  0
  156.9213  139.5670  165.8290 H   0  0  0  0  0  0  0  0  0  0  0  0
  158.4113  141.2449  166.8765 H   0  0  0  0  0  0  0  0  0  0  0  0
  157.5106  142.5525  166.1127 H   0  0  0  0  0  0  0  0  0  0  0  0
  158.4207  141.4101  165.1253 H   0  0  0  0  0  0  0  0  0  0  0  0
  155.3406  141.8739  164.7707 H   0  0  0  0  0  0  0  0  0  0  0  0
  154.9506  139.1809  161.1794 H   0  0  0  0  0  0  0  0  0  0  0  0
  153.5093  140.2544  159.4511 H   0  0  0  0  0  0  0  0  0  0  0  0
  152.2794  141.0742  158.2842 H   0  0  0  0  0  0  0  0  0  0  0  0
  151.0423  140.9406  159.5241 H   0  0  0  0  0  0  0  0  0  0  0  0
  149.8071  142.8643  158.5752 H   0  0  0  0  0  0  0  0  0  0  0  0
  149.3275  140.6508  157.5337 H   0  0  0  0  0  0  0  0  0  0  0  0
  150.6019  140.9278  156.3475 H   0  0  0  0  0  0  0  0  0  0  0  0
  149.1718  141.9566  156.3623 H   0  0  0  0  0  0  0  0  0  0  0  0
  152.5770  144.9111  157.2517 H   0  0  0  0  0  0  0  0  0  0  0  0
  151.6401  146.1122  159.1662 H   0  0  0  0  0  0  0  0  0  0  0  0
  150.4746  144.8369  159.4718 H   0  0  0  0  0  0  0  0  0  0  0  0
  150.3728  145.7865  157.9906 H   0  0  0  0  0  0  0  0  0  0  0  0
  153.4822  144.3329  159.5563 H   0  0  0  0  0  0  0  0  0  0  0  0
  153.7609  143.1298  158.3115 H   0  0  0  0  0  0  0  0  0  0  0  0
  154.2011  142.6188  163.7012 H   0  0  0  0  0  0  0  0  0  0  0  0
  1  2  1  0  0  0  0
  1 21  1  0  0  0  0
  1 22  1  0  0  0  0
  1 23  1  0  0  0  0
  2  3  1  0  0  0  0
  2  4  1  0  0  0  0
  2 24  1  0  0  0  0
  3 25  1  0  0  0  0
  3 26  1  0  0  0  0
  3 27  1  0  0  0  0
  4  5  1  0  0  0  0
  4 28  1  0  0  0  0
  5  6  2  0  0  0  0
  5  7  1  0  0  0  0
  7 20  1  0  0  0  0
  7  8  2  0  0  0  0
  8  9  1  0  0  0  0
  8 29  1  0  0  0  0
  9 10  2  0  0  0  0
  9 30  1  0  0  0  0
 10 11  1  0  0  0  0
 10 19  1  0  0  0  0
 11 18  1  0  0  0  0
 11 12  1  0  0  0  0
 12 13  1  0  0  0  0
 12 31  1  0  0  0  0
 12 32  1  0  0  0  0
 13 14  1  0  0  0  0
 13 15  1  0  0  0  0
 13 33  1  0  0  0  0
 14 34  1  0  0  0  0
 14 35  1  0  0  0  0
 14 36  1  0  0  0  0
 15 16  1  0  0  0  0
 16 17  1  0  0  0  0
 16 18  1  0  0  0  0
 16 37  1  0  0  0  0
 17 38  1  0  0  0  0
 17 39  1  0  0  0  0
 17 40  1  0  0  0  0
 18 41  1  0  0  0  0
 18 42  1  0  0  0  0
 19 20  2  0  0  0  0
 20 43  1  0  0  0  0
M  END
> <s_m_source_file>
AV-unprocessed.smi

> <i_m_source_file_index>
1302

> <i_lp_mmshare_version>
43012

> <i_f3d_flags>
0

> <s_epik_input>
W0NIM11bQ0hdKFtDSDNdKVtOSF1DKD1PKWMxW2NIXVtjSF1jKG5bY0hdMSlOMltDSDJdW0NAQEhdKFtDSDNdKU9bQ0BASF0oW0NIM10pW0NIMl0y

> <s_epik_cmdline>
J2VwaWtfcHl0aG9uJywgJy1waCcsICc3LjAnLCAnLXRuJywgJzgnLCAnLW1hJywgJzIwMCcsICctbWV0YWxfYmluZGluZycsICctaW1hZScsICc8aW5maWxlLm1hZT4nLCAnLW9tYWUnLCAnPG91dGZpbGUubWFlPic=

> <r_lp_tautomer_probability>
1

> <r_epik_Ionization_Penalty>
2.23089e-05

> <r_epik_Ionization_Penalty_Charging>
0

> <r_epik_Ionization_Penalty_Neutral>
2.23089e-05

> <r_epik_State_Penalty>
-0

> <r_epik_Charging_Adjusted_Penalty>
0

> <i_epik_Tot_Q>
0

> <i_epik_Tot_abs_Q>
0

> <r_epik_Metal_State_Penalty>
-0

> <b_epik_Metal_Only>
0

> <s_lp_Force_Field>
OPLS_2005

> <r_lp_Energy>
23.1748

> <b_lp_Chiralities_Consistent>
1

> <s_lp_Variant>
AV-unprocessed.smi:1302-2

> <Gold.Version>
5.8.1

> <Gold.Id.Protein>
6NUR|6NUR_protein|mol2

> <Gold.PLP.Fitness>
38.0340

> <Gold.PLP.PLP>
-39.3390

> <Gold.PLP.part.hbond>
0.0000

> <Gold.PLP.part.metal>
0.0000

> <Gold.PLP.part.buried>
-3.3843

> <Gold.PLP.part.nonpolar>
-35.4452

> <Gold.PLP.part.repulsive>
0.2220

> <Gold.PLP.ligand.clash>
0.0000

> <Gold.PLP.ligand.torsion>
0.7066

> <Gold.PLP.Chemscore.Hbond>
0.0000

> <Gold.PLP.Chemscore.CHOScore>
0.0000

> <Gold.PLP.Chemscore.Metal>
0.0000

> <Gold.PLP.Chemscore.Internal.Correction>
0.1083

> <Gold.Rescore>
     Score         DG    S(hbond)    S(metal)    S(lipo)     H(rot)  DE(clash)    DE(int)     intcor
     14.49     -15.23       0.00        0.00     108.48       1.15       0.06       0.68       ----

> <Gold.Chemscore.Fitness>
14.4873

> <Gold.Chemscore.DG>
-15.2256

> <Gold.Chemscore.ZeroCoef>
-5.4800

> <Gold.Chemscore.Hbond>
0.0000

> <Gold.Chemscore.Metal>
0.0000

> <Gold.Chemscore.Lipo>
108.4761

> <Gold.Chemscore.Internal_Hbond>
0.0000

> <Gold.Chemscore.DEClash>
0.0618

> <Gold.Chemscore.DEInternal>
0.6764

> <Gold.Chemscore.Rot>
1.1508

> <Gold.Chemscore.Internal.Correction>
   9.000000E+99

> <Gold.Chemscore.Hbond.Weighted>
-0.0000

> <Gold.Chemscore.Metal.Weighted>
-0.0000

> <Gold.Chemscore.Lipo.Weighted>
-12.6917

> <Gold.Chemscore.Internal_Hbond.Weighted>
0.0000

> <Gold.Chemscore.DEClash.Weighted>
0.0618

> <Gold.Chemscore.DEInternal.Weighted>
0.6764

> <Gold.Chemscore.Rot.Weighted>
2.9461

> <Gold.Chemscore.Internal.Correction.Weighted>
   9.000000E+99

> <Gold.Protein.RotatedTorsions>
[ 6907 6896 6895 6894 ] final  -85.42 input  -60.11 | X-H torsion
[ 7974 7965 7964 7962 ] final -136.06 input  175.53 | X-H torsion
[ 8008 7997 7996 7995 ] final   18.96 input   59.86 | X-H torsion
[ 10167 10162 10161 10158 ] final -171.55 input  -65.29 | X-H torsion
[ 10718 10713 10712 10709 ] final   -1.47 input   66.30 | X-H torsion
[ 10763 10752 10751 10750 ] final  155.73 input  -60.55 | X-H torsion
[ 11005 11000 10999 10996 ] final   71.11 input  -57.11 | X-H torsion

> <Gold.Protein.ActiveResidues>
 VAL166  LYS551  ARG553  GLY616  TRP617  ASP618  TYR619  PRO620  LYS621  CYS622 
 ASP623  PHE694  ASN695  SER759  ASP760  ASP761  ALA762  ILE779  LEU786  VAL792 
 PHE793  MET794  SER795  GLU796  ALA797  LYS798  CYS799  TRP800  GLU811  SER814 

> <Gold.Protein.RotatedAtoms>
  150.6870  134.3207  159.4784 H   0  0  0  0  0  0  0  0  0  0  0  0  # atno 6907 bound_to 6896
  152.1083  134.9290  160.0576 H   0  0  0  0  0  0  0  0  0  0  0  0  # atno 6908 bound_to 6896
  152.0543  133.3998  159.4427 H   0  0  0  0  0  0  0  0  0  0  0  0  # atno 6909 bound_to 6896
  144.8960  140.6707  143.5115 H   0  0  0  0  0  0  0  0  0  0  0  0  # atno 7974 bound_to 7965
  154.9136  140.3017  155.5253 H   0  0  0  0  0  0  0  0  0  0  0  0  # atno 8008 bound_to 7997
  156.3013  140.2384  156.4114 H   0  0  0  0  0  0  0  0  0  0  0  0  # atno 8009 bound_to 7997
  154.8400  140.0414  157.1524 H   0  0  0  0  0  0  0  0  0  0  0  0  # atno 8010 bound_to 7997
  139.5795  144.1455  152.1496 H   0  0  0  0  0  0  0  0  0  0  0  0  # atno 10167 bound_to 10162
  156.8052  130.5406  149.5716 H   0  0  0  0  0  0  0  0  0  0  0  0  # atno 10718 bound_to 10713
  154.1730  135.2803  155.3075 H   0  0  0  0  0  0  0  0  0  0  0  0  # atno 10763 bound_to 10752
  154.6060  135.5514  153.7427 H   0  0  0  0  0  0  0  0  0  0  0  0  # atno 10764 bound_to 10752
  153.0159  135.6403  154.1870 H   0  0  0  0  0  0  0  0  0  0  0  0  # atno 10765 bound_to 10752
  139.9561  134.7142  156.0750 H   0  0  0  0  0  0  0  0  0  0  0  0  # atno 11005 bound_to 11000
  145.3699  139.1661  143.4337 LP  0  0  0  0  0  0  0  0  0  0  0  0  # atno 17320 bound_to 7965
  146.3081  140.3770  142.8680 LP  0  0  0  0  0  0  0  0  0  0  0  0  # atno 17321 bound_to 7965
  140.1005  144.5544  150.6992 LP  0  0  0  0  0  0  0  0  0  0  0  0  # atno 17342 bound_to 10162
  140.7075  143.2479  151.4682 LP  0  0  0  0  0  0  0  0  0  0  0  0  # atno 17343 bound_to 10162
  156.1077  130.6017  150.9998 LP  0  0  0  0  0  0  0  0  0  0  0  0  # atno 17370 bound_to 10713
  157.6534  131.0893  150.8001 LP  0  0  0  0  0  0  0  0  0  0  0  0  # atno 17371 bound_to 10713
  141.1232  133.6606  156.3270 LP  0  0  0  0  0  0  0  0  0  0  0  0  # atno 17394 bound_to 11000
  140.5606  134.5938  157.5432 LP  0  0  0  0  0  0  0  0  0  0  0  0  # atno 17395 bound_to 11000

$$$$
