#       Name:                AV-unprocessed.smi:3159
#       Creating user name   scv26
#       Creation time:       Fri Mar 27 17:47:53 2020


#       File generated by GOLD software.
#

@<TRIPOS>MOLECULE
AV-unprocessed.smi:3159
    40    41     1
SMALL
NO_CHARGES


@<TRIPOS>ATOM
      1 ****        -5.5296  -0.4407  -0.4681 C.3            1 S1                 0.0000
      2 ****        -4.1938   0.1780  -0.7571 C.2            1 S1                 0.0000
      3 ****        -2.9030  -0.3994  -0.5811 C.2            1 S1                 0.0000
      4 ****        -2.0657   0.5994  -0.9980 C.2            1 S1                 0.0000
      5 ****        -0.7067   0.6057  -1.0497 N.am           1 S1                 0.0000
      6 ****         0.1539  -0.3674  -0.7027 C.2            1 S1                 0.0000
      7 ****        -0.1590  -1.4751  -0.2660 O.2            1 S1                 0.0000
      8 ****         1.4234   0.0224  -0.8891 N.am           1 S1                 0.0000
      9 ****         2.6075  -0.7842  -0.6083 C.3            1 S1                 0.0000
     10 ****         3.2003  -0.4710   0.7785 C.3            1 S1                 0.0000
     11 ****         2.3279  -0.8566   1.9578 C.3            1 S1                 0.0000
     12 ****         3.3360  -0.8929   3.1027 C.3            1 S1                 0.0000
     13 ****         4.5842  -1.2509   2.5157 O.3            1 S1                 0.0000
     14 ****         4.4730  -1.2548   1.0959 C.3            1 S1                 0.0000
     15 ****        -2.8255   1.6820  -1.3881 N.pl3          1 S1                 0.0000
     16 ****        -2.4193   2.9757  -1.9030 C.3            1 S1                 0.0000
     17 ****        -4.1403   1.4154  -1.2361 N.2            1 S1                 0.0000
     18 ****        -5.4298  -1.4999  -0.2299 H              1 S1                 0.0000
     19 ****        -6.1974  -0.3560  -1.3257 H              1 S1                 0.0000
     20 ****        -6.0110   0.0462   0.3803 H              1 S1                 0.0000
     21 ****        -2.6570  -1.3828  -0.2099 H              1 S1                 0.0000
     22 ****        -0.2948   1.4607  -1.3932 H              1 S1                 0.0000
     23 ****         1.5857   0.9503  -1.2522 H              1 S1                 0.0000
     24 ****         2.3851  -1.8487  -0.7017 H              1 S1                 0.0000
     25 ****         3.3479  -0.5614  -1.3769 H              1 S1                 0.0000
     26 ****         3.4259   0.5949   0.8448 H              1 S1                 0.0000
     27 ****         1.5107  -0.1572   2.1369 H              1 S1                 0.0000
     28 ****         1.9004  -1.8487   1.8054 H              1 S1                 0.0000
     29 ****         3.4371   0.0954   3.5524 H              1 S1                 0.0000
     30 ****         3.0486  -1.5939   3.8866 H              1 S1                 0.0000
     31 ****         4.3837  -2.2894   0.7614 H              1 S1                 0.0000
     32 ****         5.3577  -0.8240   0.6267 H              1 S1                 0.0000
     33 ****        -1.3352   3.0302  -2.0008 H              1 S1                 0.0000
     34 ****        -2.7515   3.7615  -1.2240 H              1 S1                 0.0000
     35 ****        -2.8688   3.1381  -2.8831 H              1 S1                 0.0000
     36 ****        -1.1233  -1.7105  -0.1443 LP             1 S1                 0.0000
     37 ****         0.5511  -2.1396  -0.0330 LP             1 S1                 0.0000
     38 ****         4.8479  -2.1630   2.8295 LP             1 S1                 0.0000
     39 ****         5.2814  -0.5891   2.7912 LP             1 S1                 0.0000
     40 ****        -4.9097   2.0206  -1.4406 LP             1 S1                 0.0000
@<TRIPOS>BOND
    1    1    2 1     
    2    1   18 1     
    3    1   19 1     
    4    1   20 1     
    5    2   17 2     
    6    2    3 1     
    7    3    4 2     
    8    3   21 1     
    9    4    5 1     
   10    4   15 1     
   11    5    6 am    
   12    5   22 1     
   13    6    7 2     
   14    6    8 am    
   15    8    9 1     
   16    8   23 1     
   17    9   10 1     
   18    9   24 1     
   19    9   25 1     
   20   10   14 1     
   21   10   11 1     
   22   10   26 1     
   23   11   12 1     
   24   11   27 1     
   25   11   28 1     
   26   12   13 1     
   27   12   29 1     
   28   12   30 1     
   29   13   14 1     
   30   14   31 1     
   31   14   32 1     
   32   15   16 1     
   33   15   17 1     
   34   16   33 1     
   35   16   34 1     
   36   16   35 1     
   37    7   36 1     
   38    7   37 1     
   39   13   38 1     
   40   13   39 1     
   41   17   40 1     
@<TRIPOS>SUBSTRUCTURE
      1 S1             1
@<TRIPOS>SET
LONE_PAIRS      STATIC     ATOMS    <user>   **** ""
5 36 37 38 39 40
DONOR_HYDROGENS      STATIC     ATOMS    <user>   **** ""
2 22 23
ATOM$BLUE        STATIC     ATOMS    COLORGROUP SYSTEM
5 36 37 38 39 40
ATOM$RED        STATIC     ATOMS    COLORGROUP SYSTEM
2 22 23
