AV-unprocessed.smi:1047|AV-procd|sdf|4582|dock7
  -GOLD-   22720 3 53D 1   1.00000     0.00000
 Structure written by MMmdl.
 58 60  0  0  0  0  0  0  0  0  4 V2000
  143.1315  134.8851  152.6805 C   0  0  0  0  0  0  0  0  0  0  0  0
  144.3192  133.9577  152.3870 C   0  0  0  0  0  0  0  0  0  0  0  0
  144.9162  133.3896  153.6250 N   0  3  1  0  0  0  0  0  0  0  0  0
  145.8887  132.2997  153.3671 C   0  0  0  0  0  0  0  0  0  0  0  0
  147.2460  132.8624  152.9099 C   0  0  0  0  0  0  0  0  0  0  0  0
  147.7338  133.7723  153.8887 O   0  0  0  0  0  0  0  0  0  0  0  0
  146.8779  134.8951  154.0729 C   0  0  2  0  0  0  0  0  0  0  0  0
  147.5569  135.8287  155.0896 C   0  0  0  0  0  0  0  0  0  0  0  0
  148.9521  136.1341  154.7113 N   0  3  0  0  0  0  0  0  0  0  0  0
  149.5851  137.1807  155.5398 C   0  0  0  0  0  0  0  0  0  0  0  0
  150.7060  137.9030  154.7728 C   0  0  2  0  0  0  0  0  0  0  0  0
  151.4783  136.9361  154.0876 O   0  0  0  0  0  0  0  0  0  0  0  0
  151.6136  138.7199  155.7144 C   0  0  0  0  0  0  0  0  0  0  0  0
  151.0697  140.0511  156.0233 N   0  0  0  0  0  0  0  0  0  0  0  0
  150.1744  140.8054  155.3285 C   0  0  0  0  0  0  0  0  0  0  0  0
  149.9831  141.9607  156.0228 N   0  3  0  0  0  0  0  0  0  0  0  0
  150.7646  141.9447  157.1798 C   0  0  0  0  0  0  0  0  0  0  0  0
  150.9099  142.8860  158.1918 C   0  0  0  0  0  0  0  0  0  0  0  0
  151.7940  142.5673  159.2468 C   0  0  0  0  0  0  0  0  0  0  0  0
  151.9787  143.5760  160.3678 C   0  0  0  0  0  0  0  0  0  0  0  0
  152.4963  141.3345  159.2633 C   0  0  0  0  0  0  0  0  0  0  0  0
  153.4400  141.0001  160.4059 C   0  0  0  0  0  0  0  0  0  0  0  0
  152.3367  140.3912  158.2230 C   0  0  0  0  0  0  0  0  0  0  0  0
  151.4623  140.7207  157.1894 C   0  0  0  0  0  0  0  0  0  0  0  0
  145.4962  134.3926  154.5559 C   0  0  0  0  0  0  0  0  0  0  0  0
  142.6594  135.2066  151.7517 H   0  0  0  0  0  0  0  0  0  0  0  0
  143.4331  135.7850  153.2155 H   0  0  0  0  0  0  0  0  0  0  0  0
  142.3723  134.3770  153.2758 H   0  0  0  0  0  0  0  0  0  0  0  0
  143.9512  133.1414  151.7644 H   0  0  0  0  0  0  0  0  0  0  0  0
  145.0703  134.4780  151.7934 H   0  0  0  0  0  0  0  0  0  0  0  0
  146.0257  131.7364  154.2912 H   0  0  0  0  0  0  0  0  0  0  0  0
  145.4943  131.5931  152.6359 H   0  0  0  0  0  0  0  0  0  0  0  0
  147.9660  132.0523  152.7944 H   0  0  0  0  0  0  0  0  0  0  0  0
  147.1663  133.3546  151.9394 H   0  0  0  0  0  0  0  0  0  0  0  0
  146.7851  135.4237  153.1230 H   0  0  0  0  0  0  0  0  0  0  0  0
  146.9893  136.7543  155.1941 H   0  0  0  0  0  0  0  0  0  0  0  0
  147.5664  135.3500  156.0699 H   0  0  0  0  0  0  0  0  0  0  0  0
  149.5034  135.2916  154.7986 H   0  0  0  0  0  0  0  0  0  0  0  0
  148.8176  137.8985  155.8328 H   0  0  0  0  0  0  0  0  0  0  0  0
  149.9759  136.7393  156.4581 H   0  0  0  0  0  0  0  0  0  0  0  0
  150.2670  138.5752  154.0341 H   0  0  0  0  0  0  0  0  0  0  0  0
  151.2681  136.9809  153.1667 H   0  0  0  0  0  0  0  0  0  0  0  0
  151.7287  138.1954  156.6638 H   0  0  0  0  0  0  0  0  0  0  0  0
  152.6183  138.8266  155.3048 H   0  0  0  0  0  0  0  0  0  0  0  0
  149.6997  140.5371  154.3958 H   0  0  0  0  0  0  0  0  0  0  0  0
  150.3711  143.8221  158.1735 H   0  0  0  0  0  0  0  0  0  0  0  0
  151.6631  143.1517  161.3211 H   0  0  0  0  0  0  0  0  0  0  0  0
  151.3921  144.4784  160.1935 H   0  0  0  0  0  0  0  0  0  0  0  0
  153.0250  143.8712  160.4489 H   0  0  0  0  0  0  0  0  0  0  0  0
  153.8864  140.0132  160.2802 H   0  0  0  0  0  0  0  0  0  0  0  0
  152.9061  141.0043  161.3568 H   0  0  0  0  0  0  0  0  0  0  0  0
  154.2502  141.7276  160.4595 H   0  0  0  0  0  0  0  0  0  0  0  0
  152.8767  139.4562  158.2365 H   0  0  0  0  0  0  0  0  0  0  0  0
  144.8094  135.2247  154.7062 H   0  0  0  0  0  0  0  0  0  0  0  0
  145.6079  133.9159  155.5309 H   0  0  0  0  0  0  0  0  0  0  0  0
  148.9716  136.4351  153.7474 H   0  0  0  0  0  0  0  0  0  0  0  0
  144.1437  132.9563  154.1114 H   0  0  0  0  0  0  0  0  0  0  0  0
  149.3623  142.7037  155.7277 H   0  0  0  0  0  0  0  0  0  0  0  0
  1  2  1  0  0  0  0
  1 26  1  0  0  0  0
  1 27  1  0  0  0  0
  1 28  1  0  0  0  0
  2  3  1  0  0  0  0
  2 29  1  0  0  0  0
  2 30  1  0  0  0  0
  3 25  1  0  0  0  0
  3  4  1  0  0  0  0
  3 57  1  0  0  0  0
  4  5  1  0  0  0  0
  4 31  1  0  0  0  0
  4 32  1  0  0  0  0
  5  6  1  0  0  0  0
  5 33  1  0  0  0  0
  5 34  1  0  0  0  0
  6  7  1  0  0  0  0
  7  8  1  0  0  0  0
  7 25  1  0  0  0  0
  7 35  1  0  0  0  0
  8  9  1  0  0  0  0
  8 36  1  0  0  0  0
  8 37  1  0  0  0  0
  9 10  1  0  0  0  0
  9 38  1  0  0  0  0
  9 56  1  0  0  0  0
 10 11  1  0  0  0  0
 10 39  1  0  0  0  0
 10 40  1  0  0  0  0
 11 12  1  0  0  0  0
 11 13  1  0  0  0  0
 11 41  1  0  0  0  0
 12 42  1  0  0  0  0
 13 14  1  0  0  0  0
 13 43  1  0  0  0  0
 13 44  1  0  0  0  0
 14 24  1  0  0  0  0
 14 15  1  0  0  0  0
 15 16  2  0  0  0  0
 15 45  1  0  0  0  0
 16 17  1  0  0  0  0
 16 58  1  0  0  0  0
 17 24  2  0  0  0  0
 17 18  1  0  0  0  0
 18 19  2  0  0  0  0
 18 46  1  0  0  0  0
 19 20  1  0  0  0  0
 19 21  1  0  0  0  0
 20 47  1  0  0  0  0
 20 48  1  0  0  0  0
 20 49  1  0  0  0  0
 21 22  1  0  0  0  0
 21 23  2  0  0  0  0
 22 50  1  0  0  0  0
 22 51  1  0  0  0  0
 22 52  1  0  0  0  0
 23 24  1  0  0  0  0
 23 53  1  0  0  0  0
 25 54  1  0  0  0  0
 25 55  1  0  0  0  0
M  CHG  1   3   1
M  CHG  1   9   1
M  CHG  1  16   1
M  END
> <s_m_source_file>
AV-unprocessed.smi

> <i_m_source_file_index>
1047

> <i_lp_mmshare_version>
43012

> <i_f3d_flags>
0

> <s_epik_input>
W0NIM11bQ0gyXU4xW0NIMl1bQ0gyXU9bQ0BIXShbQ0gyXTEpW0NIMl1bTkhdW0NIMl1bQ0BIXShbT0hdKVtDSDJdbihbY0hdbjIpYyhjMjMpW2NIXWMoW0NIM10pYyhbY0hdMylbQ0gzXQ==

> <s_epik_cmdline>
J2VwaWtfcHl0aG9uJywgJy1waCcsICc3LjAnLCAnLXRuJywgJzgnLCAnLW1hJywgJzIwMCcsICctbWV0YWxfYmluZGluZycsICctaW1hZScsICc8aW5maWxlLm1hZT4nLCAnLW9tYWUnLCAnPG91dGZpbGUubWFlPic=

> <r_epik_Ionization_Penalty>
1.6114

> <r_epik_Ionization_Penalty_Charging>
1.61139

> <r_epik_Ionization_Penalty_Neutral>
5.04732e-06

> <r_epik_State_Penalty>
1.63724

> <r_epik_Charging_Adjusted_Penalty>
3.24864

> <i_epik_Tot_Q>
3

> <i_epik_Tot_abs_Q>
3

> <r_epik_Metal_State_Penalty>
5.64594

> <b_epik_Metal_Only>
0

> <s_lp_Force_Field>
OPLS_2005

> <r_lp_Energy>
42.8961

> <b_lp_Chiralities_Consistent>
1

> <s_lp_Variant>
AV-unprocessed.smi:1047-23

> <Gold.Version>
5.8.1

> <Gold.Id.Protein>
6NUR|6NUR_protein|mol2

> <Gold.PLP.Fitness>
66.2151

> <Gold.PLP.PLP>
-44.4889

> <Gold.PLP.part.hbond>
-5.0000

> <Gold.PLP.part.metal>
0.0000

> <Gold.PLP.part.buried>
-5.1200

> <Gold.PLP.part.nonpolar>
-34.7245

> <Gold.PLP.part.repulsive>
0.2394

> <Gold.PLP.ligand.clash>
0.0000

> <Gold.PLP.ligand.torsion>
0.9413

> <Gold.PLP.Chemscore.Hbond>
7.8305

> <Gold.PLP.Chemscore.CHOScore>
0.0000

> <Gold.PLP.Chemscore.Metal>
0.0000

> <Gold.Chemscore.Hbonds>
donor molecule, donor type, donor heavy atom, donor atom, acceptor molecule, acceptor atom, score
      L1  H     3    57       P1 10957  2.00
      L1  H     9    56       P1  7948  2.00
      L1  H    12    42       P1  7949  0.91
      L1  H    16    58       P1  8028  1.79
      P1  H 10752 10765       L1    12  1.00

> <Gold.PLP.Chemscore.Internal.Correction>
0.1173

> <Gold.Rescore>
     Score         DG    S(hbond)    S(metal)    S(lipo)     H(rot)  DE(clash)    DE(int)     intcor
     23.68     -24.93       4.16        0.00     108.29       2.78       0.29       0.96       ----

> <Gold.Chemscore.Fitness>
23.6756

> <Gold.Chemscore.DG>
-24.9256

> <Gold.Chemscore.ZeroCoef>
-5.4800

> <Gold.Chemscore.Hbond>
4.1633

> <Gold.Chemscore.Metal>
0.0000

> <Gold.Chemscore.Lipo>
108.2855

> <Gold.Chemscore.Internal_Hbond>
0.0000

> <Gold.Chemscore.DEClash>
0.2946

> <Gold.Chemscore.DEInternal>
0.9554

> <Gold.Chemscore.Rot>
2.7848

> <Gold.Chemscore.Internal.Correction>
   9.000000E+99

> <Gold.Chemscore.Hbonds>
donor molecule, donor type, donor heavy atom, donor atom, acceptor molecule, acceptor atom, score
      L1  H     3    57       P1 10957  0.93
      L1  H     9    56       P1  7948  0.98
      L1  H    12    42       P1  7949  0.58
      L1  H    16    58       P1  8028  0.82
      P1  H 10752 10765       L1    12  0.34

> <Gold.Chemscore.Hbond.Weighted>
-13.9053

> <Gold.Chemscore.Metal.Weighted>
-0.0000

> <Gold.Chemscore.Lipo.Weighted>
-12.6694

> <Gold.Chemscore.Internal_Hbond.Weighted>
0.0000

> <Gold.Chemscore.DEClash.Weighted>
0.2946

> <Gold.Chemscore.DEInternal.Weighted>
0.9554

> <Gold.Chemscore.Rot.Weighted>
7.1291

> <Gold.Chemscore.Internal.Correction.Weighted>
   9.000000E+99

> <Gold.Protein.RotatedTorsions>
[ 6907 6896 6895 6894 ] final -120.15 input  -60.11 | X-H torsion
[ 7974 7965 7964 7962 ] final  -71.57 input  175.53 | X-H torsion
[ 8008 7997 7996 7995 ] final   11.25 input   59.86 | X-H torsion
[ 10167 10162 10161 10158 ] final  172.06 input  -65.29 | X-H torsion
[ 10718 10713 10712 10709 ] final    2.88 input   66.30 | X-H torsion
[ 10763 10752 10751 10750 ] final  149.62 input  -60.55 | X-H torsion
[ 11005 11000 10999 10996 ] final  110.47 input  -57.11 | X-H torsion

> <Gold.Protein.ActiveResidues>
 VAL166  LYS551  ARG553  GLY616  TRP617  ASP618  TYR619  PRO620  LYS621  CYS622 
 ASP623  PHE694  ASN695  SER759  ASP760  ASP761  ALA762  ILE779  LEU786  VAL792 
 PHE793  MET794  SER795  GLU796  ALA797  LYS798  CYS799  TRP800  GLU811  SER814 

> <Gold.Protein.RotatedAtoms>
  150.8367  133.8002  159.3076 H   0  0  0  0  0  0  0  0  0  0  0  0  # atno 6907 bound_to 6896
  151.5715  135.1060  160.0006 H   0  0  0  0  0  0  0  0  0  0  0  0  # atno 6908 bound_to 6896
  152.4438  133.7456  159.6721 H   0  0  0  0  0  0  0  0  0  0  0  0  # atno 6909 bound_to 6896
  145.6764  140.9203  143.0856 H   0  0  0  0  0  0  0  0  0  0  0  0  # atno 7974 bound_to 7965
  154.8044  140.2857  155.5898 H   0  0  0  0  0  0  0  0  0  0  0  0  # atno 8008 bound_to 7997
  156.2981  140.2580  156.2848 H   0  0  0  0  0  0  0  0  0  0  0  0  # atno 8009 bound_to 7997
  154.9520  140.0379  157.2138 H   0  0  0  0  0  0  0  0  0  0  0  0  # atno 8010 bound_to 7997
  139.5065  144.3416  152.0012 H   0  0  0  0  0  0  0  0  0  0  0  0  # atno 10167 bound_to 10162
  156.8696  130.5615  149.5658 H   0  0  0  0  0  0  0  0  0  0  0  0  # atno 10718 bound_to 10713
  154.0741  135.2864  155.3303 H   0  0  0  0  0  0  0  0  0  0  0  0  # atno 10763 bound_to 10752
  154.6727  135.5293  153.8162 H   0  0  0  0  0  0  0  0  0  0  0  0  # atno 10764 bound_to 10752
  153.0474  135.6562  154.0920 H   0  0  0  0  0  0  0  0  0  0  0  0  # atno 10765 bound_to 10752
  139.8882  134.9485  156.6284 H   0  0  0  0  0  0  0  0  0  0  0  0  # atno 11005 bound_to 11000
  144.7040  139.8639  143.7435 LP  0  0  0  0  0  0  0  0  0  0  0  0  # atno 17320 bound_to 7965
  146.1002  139.3997  143.0352 LP  0  0  0  0  0  0  0  0  0  0  0  0  # atno 17321 bound_to 7965
  140.2854  144.3813  150.6105 LP  0  0  0  0  0  0  0  0  0  0  0  0  # atno 17342 bound_to 10162
  140.5987  143.2167  151.7114 LP  0  0  0  0  0  0  0  0  0  0  0  0  # atno 17343 bound_to 10162
  156.0733  130.5761  150.9426 LP  0  0  0  0  0  0  0  0  0  0  0  0  # atno 17370 bound_to 10713
  157.6203  131.0930  150.8634 LP  0  0  0  0  0  0  0  0  0  0  0  0  # atno 17371 bound_to 10713
  140.7685  133.8758  155.8473 LP  0  0  0  0  0  0  0  0  0  0  0  0  # atno 17394 bound_to 11000
  140.9862  134.1340  157.4450 LP  0  0  0  0  0  0  0  0  0  0  0  0  # atno 17395 bound_to 11000

$$$$
