#       Name:                AV-unprocessed.smi:157
#       Creating user name   scv26
#       Creation time:       Thu Mar 26 18:59:26 2020


#       File generated by GOLD software.
#

@<TRIPOS>MOLECULE
AV-unprocessed.smi:157
    45    47     1
SMALL
NO_CHARGES


@<TRIPOS>ATOM
      1 ****        -3.1279   4.2977   1.0436 O.3            1 S1                 0.0000
      2 ****        -3.2593   2.8922   1.0663 C.3            1 S1                 0.0000
      3 ****        -1.9989   2.2273   0.4861 C.3            1 S1                 0.0000
      4 ****        -2.0738   0.8101   0.5870 O.3            1 S1                 0.0000
      5 ****        -1.2252   0.2178  -0.3534 C.3            1 S1                 0.0000
      6 ****        -0.0292  -0.3476   0.3549 N.pl3          1 S1                 0.0000
      7 ****         0.3860  -0.0570   1.5957 C.2            1 S1                 0.0000
      8 ****         1.4795  -0.6965   1.9732 N.2            1 S1                 0.0000
      9 ****         1.8014  -1.4918   0.8734 C.2            1 S1                 0.0000
     10 ****         0.8884  -1.2744  -0.1493 C.2            1 S1                 0.0000
     11 ****         0.7043  -1.7276  -1.4433 N.2            1 S1                 0.0000
     12 ****         1.6434  -2.4234  -2.0051 C.2            1 S1                 0.0000
     13 ****         2.8397  -2.9120  -1.4975 N.pl3          1 S1                 0.0000
     14 ****         2.9784  -3.4719  -0.1670 C.3            1 S1                 0.0000
     15 ****         3.0074  -2.3876   0.9104 C.3            1 S1                 0.0000
     16 ****         3.0279  -3.0163   2.1763 O.3            1 S1                 0.0000
     17 ****        -0.7819   1.3139  -1.3352 C.3            1 S1                 0.0000
     18 ****        -1.7101   2.4668  -1.0009 C.3            1 S1                 0.0000
     19 ****        -2.8833   2.4112  -1.7904 O.3            1 S1                 0.0000
     20 ****        -1.1295   2.5452   1.0648 H              1 S1                 0.0000
     21 ****        -1.7144  -0.6361  -0.8234 H              1 S1                 0.0000
     22 ****         3.9148  -1.7916   0.8068 H              1 S1                 0.0000
     23 ****        -1.2311   3.4324  -1.1669 H              1 S1                 0.0000
     24 ****        -3.9030   4.6774   1.4286 H              1 S1                 0.0000
     25 ****        -3.4005   2.5782   2.1007 H              1 S1                 0.0000
     26 ****        -4.1562   2.5974   0.5212 H              1 S1                 0.0000
     27 ****        -0.1206   0.6443   2.2423 H              1 S1                 0.0000
     28 ****         1.5133  -2.7092  -3.0499 H              1 S1                 0.0000
     29 ****         3.5225  -3.2906  -2.1382 H              1 S1                 0.0000
     30 ****         2.1491  -4.1586   0.0110 H              1 S1                 0.0000
     31 ****         3.8920  -4.0657  -0.1288 H              1 S1                 0.0000
     32 ****         3.0487  -2.3426   2.8391 H              1 S1                 0.0000
     33 ****         0.2528   1.5969  -1.1333 H              1 S1                 0.0000
     34 ****        -0.8517   0.9703  -2.3682 H              1 S1                 0.0000
     35 ****        -3.4514   3.1201  -1.5299 H              1 S1                 0.0000
     36 ****        -3.0315   4.6124   0.0993 LP             1 S1                 0.0000
     37 ****        -2.3221   4.5698   1.5695 LP             1 S1                 0.0000
     38 ****        -3.0141   0.5153   0.4166 LP             1 S1                 0.0000
     39 ****        -1.7976   0.5286   1.5059 LP             1 S1                 0.0000
     40 ****         1.9638  -0.6263   2.8453 LP             1 S1                 0.0000
     41 ****        -0.1401  -1.5217  -1.9380 LP             1 S1                 0.0000
     42 ****         3.8404  -3.5938   2.2546 LP             1 S1                 0.0000
     43 ****         2.2079  -3.5774   2.2892 LP             1 S1                 0.0000
     44 ****        -3.3464   1.5367  -1.6463 LP             1 S1                 0.0000
     45 ****        -2.6451   2.5069  -2.7569 LP             1 S1                 0.0000
@<TRIPOS>BOND
    1    1    2 1     
    2    1   24 1     
    3    2    3 1     
    4    2   25 1     
    5    2   26 1     
    6    3   20 1     
    7    3   18 1     
    8    3    4 1     
    9    4    5 1     
   10    5   21 1     
   11    5    6 1     
   12    5   17 1     
   13    6   10 1     
   14    6    7 1     
   15    7    8 2     
   16    7   27 1     
   17    8    9 1     
   18    9   15 1     
   19    9   10 2     
   20   10   11 1     
   21   11   12 2     
   22   12   13 1     
   23   12   28 1     
   24   13   14 1     
   25   13   29 1     
   26   14   15 1     
   27   14   30 1     
   28   14   31 1     
   29   15   22 1     
   30   15   16 1     
   31   16   32 1     
   32   17   18 1     
   33   17   33 1     
   34   17   34 1     
   35   18   23 1     
   36   18   19 1     
   37   19   35 1     
   38    1   36 1     
   39    1   37 1     
   40    4   38 1     
   41    4   39 1     
   42    8   40 1     
   43   11   41 1     
   44   16   42 1     
   45   16   43 1     
   46   19   44 1     
   47   19   45 1     
@<TRIPOS>SUBSTRUCTURE
      1 S1             1
@<TRIPOS>SET
LONE_PAIRS      STATIC     ATOMS    <user>   **** ""
10 36 37 38 39 40 41 42 43 44 45
DONOR_HYDROGENS      STATIC     ATOMS    <user>   **** ""
4 24 29 32 35
ATOM$BLUE        STATIC     ATOMS    COLORGROUP SYSTEM
10 36 37 38 39 40 41 42 43 44 45
ATOM$RED        STATIC     ATOMS    COLORGROUP SYSTEM
4 24 29 32 35
