AV-unprocessed.smi:1352|AV-procd|sdf|5531|dock8
  -GOLD-   22720 5123D 1   1.00000     0.00000
 Structure written by MMmdl.
 47 48  0  0  0  0  0  0  0  0  2 V2000
  146.0509  132.1454  149.0826 C   0  0  0  0  0  0  0  0  0  0  0  0
  145.2396  131.8961  150.3661 C   0  0  1  0  0  0  0  0  0  0  0  0
  146.1267  131.5936  151.5879 C   0  0  0  0  0  0  0  0  0  0  0  0
  146.8270  132.8607  152.1105 C   0  0  2  0  0  0  0  0  0  0  0  0
  147.6567  132.5622  153.3673 C   0  0  0  0  0  0  0  0  0  0  0  0
  145.7939  133.9743  152.3694 C   0  0  0  0  0  0  0  0  0  0  0  0
  144.9910  134.2630  151.1530 N   0  3  2  0  0  0  0  0  0  0  0  0
  144.1063  135.4421  151.3295 C   0  0  0  0  0  0  0  0  0  0  0  0
  144.8600  136.6601  151.8981 C   0  0  0  0  0  0  0  0  0  0  0  0
  144.0179  137.4426  152.7951 N   0  0  0  0  0  0  0  0  0  0  0  0
  143.4014  136.9614  153.8853 C   0  0  0  0  0  0  0  0  0  0  0  0
  143.4660  135.7795  154.2259 O   0  0  0  0  0  0  0  0  0  0  0  0
  142.5732  137.9714  154.6929 C   0  0  0  0  0  0  0  0  0  0  0  0
  141.2236  138.1885  154.1452 N   0  0  0  0  0  0  0  0  0  0  0  0
  140.8881  139.5038  153.7671 C   0  0  0  0  0  0  0  0  0  0  0  0
  139.6858  139.8103  153.2545 C   0  0  0  0  0  0  0  0  0  0  0  0
  138.7213  138.7482  153.0943 C   0  0  0  0  0  0  0  0  0  0  0  0
  139.0329  137.4860  153.4497 C   0  0  0  0  0  0  0  0  0  0  0  0
  140.3471  137.1459  154.0074 C   0  0  0  0  0  0  0  0  0  0  0  0
  140.6427  135.9950  154.3306 O   0  0  0  0  0  0  0  0  0  0  0  0
  144.2689  133.0528  150.6761 C   0  0  0  0  0  0  0  0  0  0  0  0
  146.6686  133.0403  149.1559 H   0  0  0  0  0  0  0  0  0  0  0  0
  145.3915  132.2721  148.2235 H   0  0  0  0  0  0  0  0  0  0  0  0
  146.7100  131.3043  148.8661 H   0  0  0  0  0  0  0  0  0  0  0  0
  144.6370  131.0067  150.1772 H   0  0  0  0  0  0  0  0  0  0  0  0
  145.5060  131.1734  152.3806 H   0  0  0  0  0  0  0  0  0  0  0  0
  146.8619  130.8267  151.3401 H   0  0  0  0  0  0  0  0  0  0  0  0
  147.5191  133.2123  151.3448 H   0  0  0  0  0  0  0  0  0  0  0  0
  147.0275  132.2104  154.1853 H   0  0  0  0  0  0  0  0  0  0  0  0
  148.1832  133.4529  153.7113 H   0  0  0  0  0  0  0  0  0  0  0  0
  148.4054  131.7943  153.1696 H   0  0  0  0  0  0  0  0  0  0  0  0
  145.1273  133.6952  153.1874 H   0  0  0  0  0  0  0  0  0  0  0  0
  146.3177  134.8786  152.6824 H   0  0  0  0  0  0  0  0  0  0  0  0
  143.6241  135.6896  150.3825 H   0  0  0  0  0  0  0  0  0  0  0  0
  143.3049  135.1822  152.0225 H   0  0  0  0  0  0  0  0  0  0  0  0
  145.7639  136.3413  152.4204 H   0  0  0  0  0  0  0  0  0  0  0  0
  145.1833  137.3263  151.0995 H   0  0  0  0  0  0  0  0  0  0  0  0
  143.9103  138.4245  152.5838 H   0  0  0  0  0  0  0  0  0  0  0  0
  142.5053  137.6384  155.7304 H   0  0  0  0  0  0  0  0  0  0  0  0
  143.1267  138.9104  154.7307 H   0  0  0  0  0  0  0  0  0  0  0  0
  141.6664  140.2385  153.9129 H   0  0  0  0  0  0  0  0  0  0  0  0
  139.4477  140.8237  152.9663 H   0  0  0  0  0  0  0  0  0  0  0  0
  137.7454  138.9668  152.6861 H   0  0  0  0  0  0  0  0  0  0  0  0
  138.2991  136.7041  153.3221 H   0  0  0  0  0  0  0  0  0  0  0  0
  143.6849  133.2779  149.7845 H   0  0  0  0  0  0  0  0  0  0  0  0
  143.5557  132.7409  151.4410 H   0  0  0  0  0  0  0  0  0  0  0  0
  145.6554  134.5129  150.4343 H   0  0  0  0  0  0  0  0  0  0  0  0
  1  2  1  0  0  0  0
  1 22  1  0  0  0  0
  1 23  1  0  0  0  0
  1 24  1  0  0  0  0
  2 21  1  0  0  0  0
  2  3  1  0  0  0  0
  2 25  1  0  0  0  0
  3  4  1  0  0  0  0
  3 26  1  0  0  0  0
  3 27  1  0  0  0  0
  4  5  1  0  0  0  0
  4  6  1  0  0  0  0
  4 28  1  0  0  0  0
  5 29  1  0  0  0  0
  5 30  1  0  0  0  0
  5 31  1  0  0  0  0
  6  7  1  0  0  0  0
  6 32  1  0  0  0  0
  6 33  1  0  0  0  0
  7  8  1  0  0  0  0
  7 21  1  0  0  0  0
  7 47  1  0  0  0  0
  8  9  1  0  0  0  0
  8 34  1  0  0  0  0
  8 35  1  0  0  0  0
  9 10  1  0  0  0  0
  9 36  1  0  0  0  0
  9 37  1  0  0  0  0
 10 11  1  0  0  0  0
 10 38  1  0  0  0  0
 11 12  2  0  0  0  0
 11 13  1  0  0  0  0
 13 14  1  0  0  0  0
 13 39  1  0  0  0  0
 13 40  1  0  0  0  0
 14 19  1  0  0  0  0
 14 15  1  0  0  0  0
 15 16  2  0  0  0  0
 15 41  1  0  0  0  0
 16 17  1  0  0  0  0
 16 42  1  0  0  0  0
 17 18  2  0  0  0  0
 17 43  1  0  0  0  0
 18 19  1  0  0  0  0
 18 44  1  0  0  0  0
 19 20  2  0  0  0  0
 21 45  1  0  0  0  0
 21 46  1  0  0  0  0
M  CHG  1   7   1
M  END
> <s_m_source_file>
AV-unprocessed.smi

> <i_m_source_file_index>
1352

> <i_lp_mmshare_version>
43012

> <i_f3d_flags>
0

> <s_epik_input>
W0NIM11bQ0BASF0xW0NIMl1bQ0BASF0oW0NIM10pW0NIMl1OKFtDSDJdMSlbQ0gyXVtDSDJdW05IXUMoPU8pW0NIMl1uMltjSF1bY0hdW2NIXVtjSF1jMj1P

> <s_epik_cmdline>
J2VwaWtfcHl0aG9uJywgJy1waCcsICc3LjAnLCAnLXRuJywgJzgnLCAnLW1hJywgJzIwMCcsICctbWV0YWxfYmluZGluZycsICctaW1hZScsICc8aW5maWxlLm1hZT4nLCAnLW9tYWUnLCAnPG91dGZpbGUubWFlPic=

> <r_lp_tautomer_probability>
1

> <r_epik_Ionization_Penalty>
0.00156146

> <r_epik_Ionization_Penalty_Charging>
0.00156138

> <r_epik_Ionization_Penalty_Neutral>
8.12891e-08

> <r_epik_State_Penalty>
0.00104868

> <r_epik_Charging_Adjusted_Penalty>
0.00261006

> <i_epik_Tot_Q>
1

> <i_epik_Tot_abs_Q>
1

> <r_epik_Metal_State_Penalty>
-0

> <b_epik_Metal_Only>
0

> <s_lp_Force_Field>
OPLS_2005

> <r_lp_Energy>
27.867

> <b_lp_Chiralities_Consistent>
1

> <s_lp_Variant>
AV-unprocessed.smi:1352-4

> <Gold.Version>
5.8.1

> <Gold.Id.Protein>
6NUR|6NUR_protein|mol2

> <Gold.PLP.Fitness>
44.5379

> <Gold.PLP.PLP>
-37.4077

> <Gold.PLP.part.hbond>
-3.0000

> <Gold.PLP.part.metal>
0.0000

> <Gold.PLP.part.buried>
-0.1503

> <Gold.PLP.part.nonpolar>
-33.7355

> <Gold.PLP.part.repulsive>
0.1345

> <Gold.PLP.ligand.clash>
0.0000

> <Gold.PLP.ligand.torsion>
0.6004

> <Gold.PLP.Chemscore.Hbond>
1.7840

> <Gold.PLP.Chemscore.CHOScore>
0.9806

> <Gold.PLP.Chemscore.Metal>
0.0000

> <Gold.Chemscore.Hbonds>
donor molecule, donor type, donor heavy atom, donor atom, acceptor molecule, acceptor atom, score
      L1  H    10    38       P1 10175  0.99
      P1  H 11000 11005       L1    20  0.67
      L1  C    15    41       P1 10175  0.89

> <Gold.PLP.Chemscore.Internal.Correction>
0.0371

> <Gold.Rescore>
     Score         DG    S(hbond)    S(metal)    S(lipo)     H(rot)  DE(clash)    DE(int)     intcor
     13.05     -17.42       1.77        0.00      91.52       1.83       0.81       3.56       ----

> <Gold.Chemscore.Fitness>
13.0533

> <Gold.Chemscore.DG>
-17.4230

> <Gold.Chemscore.ZeroCoef>
-5.4800

> <Gold.Chemscore.Hbond>
1.7747

> <Gold.Chemscore.Metal>
0.0000

> <Gold.Chemscore.Lipo>
91.5190

> <Gold.Chemscore.Internal_Hbond>
0.0000

> <Gold.Chemscore.DEClash>
0.8081

> <Gold.Chemscore.DEInternal>
3.5616

> <Gold.Chemscore.Rot>
1.8329

> <Gold.Chemscore.Internal.Correction>
   9.000000E+99

> <Gold.Chemscore.Hbonds>
donor molecule, donor type, donor heavy atom, donor atom, acceptor molecule, acceptor atom, score
      L1  H    10    38       P1 10175  0.92
      P1  H 11000 11005       L1    20  0.64

> <Gold.Chemscore.Hbond.Weighted>
-5.9275

> <Gold.Chemscore.Metal.Weighted>
-0.0000

> <Gold.Chemscore.Lipo.Weighted>
-10.7077

> <Gold.Chemscore.Internal_Hbond.Weighted>
0.0000

> <Gold.Chemscore.DEClash.Weighted>
0.8081

> <Gold.Chemscore.DEInternal.Weighted>
3.5616

> <Gold.Chemscore.Rot.Weighted>
4.6922

> <Gold.Chemscore.Internal.Correction.Weighted>
   9.000000E+99

> <Gold.Protein.RotatedTorsions>
[ 6907 6896 6895 6894 ] final -171.25 input  -60.11 | X-H torsion
[ 7974 7965 7964 7962 ] final   21.43 input  175.53 | X-H torsion
[ 8008 7997 7996 7995 ] final  -63.54 input   59.86 | X-H torsion
[ 10167 10162 10161 10158 ] final  132.54 input  -65.29 | X-H torsion
[ 10718 10713 10712 10709 ] final -153.70 input   66.30 | X-H torsion
[ 10763 10752 10751 10750 ] final   22.83 input  -60.55 | X-H torsion
[ 11005 11000 10999 10996 ] final   55.51 input  -57.11 | X-H torsion

> <Gold.Protein.ActiveResidues>
 VAL166  LYS551  ARG553  GLY616  TRP617  ASP618  TYR619  PRO620  LYS621  CYS622 
 ASP623  PHE694  ASN695  SER759  ASP760  ASP761  ALA762  ILE779  LEU786  VAL792 
 PHE793  MET794  SER795  GLU796  ALA797  LYS798  CYS799  TRP800  GLU811  SER814 

> <Gold.Protein.RotatedAtoms>
  151.5209  133.3467  159.2900 H   0  0  0  0  0  0  0  0  0  0  0  0  # atno 6907 bound_to 6896
  150.8653  134.8017  159.7125 H   0  0  0  0  0  0  0  0  0  0  0  0  # atno 6908 bound_to 6896
  152.4660  134.5084  159.9798 H   0  0  0  0  0  0  0  0  0  0  0  0  # atno 6909 bound_to 6896
  146.2071  139.8027  142.8717 H   0  0  0  0  0  0  0  0  0  0  0  0  # atno 7974 bound_to 7965
  154.4560  140.0972  156.6758 H   0  0  0  0  0  0  0  0  0  0  0  0  # atno 8008 bound_to 7997
  155.5137  140.3477  155.4375 H   0  0  0  0  0  0  0  0  0  0  0  0  # atno 8009 bound_to 7997
  156.0778  140.1365  156.9739 H   0  0  0  0  0  0  0  0  0  0  0  0  # atno 8010 bound_to 7997
  139.5335  144.6657  151.4867 H   0  0  0  0  0  0  0  0  0  0  0  0  # atno 10167 bound_to 10162
  156.4894  130.8340  151.2564 H   0  0  0  0  0  0  0  0  0  0  0  0  # atno 10718 bound_to 10713
  153.0885  135.6640  153.9902 H   0  0  0  0  0  0  0  0  0  0  0  0  # atno 10763 bound_to 10752
  153.9505  135.2984  155.3440 H   0  0  0  0  0  0  0  0  0  0  0  0  # atno 10764 bound_to 10752
  154.7296  135.5129  153.9015 H   0  0  0  0  0  0  0  0  0  0  0  0  # atno 10765 bound_to 10752
  140.0601  134.5614  155.9162 H   0  0  0  0  0  0  0  0  0  0  0  0  # atno 11005 bound_to 11000
  145.3279  141.0259  143.3463 LP  0  0  0  0  0  0  0  0  0  0  0  0  # atno 17320 bound_to 7965
  144.8820  139.4891  143.6718 LP  0  0  0  0  0  0  0  0  0  0  0  0  # atno 17321 bound_to 7965
  140.6528  143.8661  150.6803 LP  0  0  0  0  0  0  0  0  0  0  0  0  # atno 17342 bound_to 10162
  140.2031  143.3943  152.1776 LP  0  0  0  0  0  0  0  0  0  0  0  0  # atno 17343 bound_to 10162
  157.7475  131.0018  150.2978 LP  0  0  0  0  0  0  0  0  0  0  0  0  # atno 17370 bound_to 10713
  156.3442  130.3820  149.7383 LP  0  0  0  0  0  0  0  0  0  0  0  0  # atno 17371 bound_to 10713
  141.1969  133.6594  156.5716 LP  0  0  0  0  0  0  0  0  0  0  0  0  # atno 17394 bound_to 11000
  140.3783  134.7545  157.4644 LP  0  0  0  0  0  0  0  0  0  0  0  0  # atno 17395 bound_to 11000

$$$$
