#       Name:                AV-unprocessed.smi:1192
#       Creating user name   scv26
#       Creation time:       Fri Mar 27 03:58:45 2020


#       File generated by GOLD software.
#

@<TRIPOS>MOLECULE
AV-unprocessed.smi:1192
    46    47     1
SMALL
NO_CHARGES


@<TRIPOS>ATOM
      1 ****        -2.7006   2.4619   0.4567 C.3            1 S1                 0.0000
      2 ****        -2.4502   1.0924   0.1976 O.3            1 S1                 0.0000
      3 ****        -2.6736   0.7485  -1.1598 C.3            1 S1                 0.0000
      4 ****        -2.3816  -0.7422  -1.3491 C.3            1 S1                 0.0000
      5 ****        -0.9711  -0.9243  -1.3170 O.3            1 S1                 0.0000
      6 ****        -0.4604  -2.2054  -1.3510 C.ar           1 S1                 0.0000
      7 ****        -1.3231  -3.2404  -1.5116 N.ar           1 S1                 0.0000
      8 ****        -0.8235  -4.4929  -1.5542 C.ar           1 S1                 0.0000
      9 ****         0.5497  -4.7797  -1.4416 C.ar           1 S1                 0.0000
     10 ****         1.4445  -3.7065  -1.2756 C.ar           1 S1                 0.0000
     11 ****         0.9375  -2.3907  -1.2252 C.ar           1 S1                 0.0000
     12 ****         1.8871  -1.2139  -1.0558 C.3            1 S1                 0.0000
     13 ****         1.5932  -0.4038   0.1240 N.am           1 S1                 0.0000
     14 ****         1.2640   0.8978   0.1212 C.2            1 S1                 0.0000
     15 ****         1.1544   1.5678  -0.9062 O.2            1 S1                 0.0000
     16 ****         0.9993   1.5188   1.4988 C.3            1 S1                 0.0000
     17 ****         0.8452   3.0525   1.5294 C.3            1 S1                 0.0000
     18 ****         1.7383   3.0729   2.7727 C.3            1 S1                 0.0000
     19 ****         2.2641   1.6967   2.3553 C.3            1 S1                 0.0000
     20 ****        -2.5305   2.6710   1.5125 H              1 S1                 0.0000
     21 ****        -3.7330   2.7261   0.2243 H              1 S1                 0.0000
     22 ****        -2.0347   3.1000  -0.1261 H              1 S1                 0.0000
     23 ****        -3.7149   0.9508  -1.4152 H              1 S1                 0.0000
     24 ****        -2.0487   1.3481  -1.8237 H              1 S1                 0.0000
     25 ****        -2.8809  -1.3220  -0.5709 H              1 S1                 0.0000
     26 ****        -2.7666  -1.0710  -2.3155 H              1 S1                 0.0000
     27 ****        -1.5401  -5.2902  -1.6836 H              1 S1                 0.0000
     28 ****         0.9074  -5.7979  -1.4827 H              1 S1                 0.0000
     29 ****         2.5044  -3.8949  -1.1877 H              1 S1                 0.0000
     30 ****         2.9108  -1.5774  -0.9621 H              1 S1                 0.0000
     31 ****         1.8603  -0.6208  -1.9712 H              1 S1                 0.0000
     32 ****         1.6457  -0.8714   1.0174 H              1 S1                 0.0000
     33 ****         0.1964   1.0154   2.0409 H              1 S1                 0.0000
     34 ****         1.3012   3.5744   0.6862 H              1 S1                 0.0000
     35 ****        -0.1699   3.4038   1.7116 H              1 S1                 0.0000
     36 ****         2.4892   3.8637   2.7826 H              1 S1                 0.0000
     37 ****         1.1677   3.0426   3.7022 H              1 S1                 0.0000
     38 ****         2.3551   0.9868   3.1780 H              1 S1                 0.0000
     39 ****         3.1862   1.7547   1.7733 H              1 S1                 0.0000
     40 ****        -3.0552   0.5411   0.7722 LP             1 S1                 0.0000
     41 ****        -1.4979   0.8911   0.4272 LP             1 S1                 0.0000
     42 ****        -0.6400  -0.4993  -0.4745 LP             1 S1                 0.0000
     43 ****        -0.5950  -0.4381  -2.1057 LP             1 S1                 0.0000
     44 ****        -2.3062  -3.0786  -1.5964 LP             1 S1                 0.0000
     45 ****         1.3135   1.1448  -1.7983 LP             1 S1                 0.0000
     46 ****         0.9064   2.5348  -0.8484 LP             1 S1                 0.0000
@<TRIPOS>BOND
    1    1    2 1     
    2    1   20 1     
    3    1   21 1     
    4    1   22 1     
    5    2    3 1     
    6    3    4 1     
    7    3   23 1     
    8    3   24 1     
    9    4    5 1     
   10    4   25 1     
   11    4   26 1     
   12    5    6 1     
   13    6   11 ar    
   14    6    7 ar    
   15    7    8 ar    
   16    8    9 ar    
   17    8   27 1     
   18    9   10 ar    
   19    9   28 1     
   20   10   11 ar    
   21   10   29 1     
   22   11   12 1     
   23   12   13 1     
   24   12   30 1     
   25   12   31 1     
   26   13   14 am    
   27   13   32 1     
   28   14   15 2     
   29   14   16 1     
   30   16   19 1     
   31   16   17 1     
   32   16   33 1     
   33   17   18 1     
   34   17   34 1     
   35   17   35 1     
   36   18   19 1     
   37   18   36 1     
   38   18   37 1     
   39   19   38 1     
   40   19   39 1     
   41    2   40 1     
   42    2   41 1     
   43    5   42 1     
   44    5   43 1     
   45    7   44 1     
   46   15   45 1     
   47   15   46 1     
@<TRIPOS>SUBSTRUCTURE
      1 S1             1
@<TRIPOS>SET
LONE_PAIRS      STATIC     ATOMS    <user>   **** ""
7 40 41 42 43 44 45 46
DONOR_HYDROGENS      STATIC     ATOMS    <user>   **** ""
1 32
ATOM$BLUE        STATIC     ATOMS    COLORGROUP SYSTEM
7 40 41 42 43 44 45 46
ATOM$RED        STATIC     ATOMS    COLORGROUP SYSTEM
1 32
