AV-unprocessed.smi:35|AV-procd|sdf|260|dock8
  -GOLD-   2262016 23D 1   1.00000     0.00000
 Structure written by MMmdl.
 29 30  0  0  0  0  0  0  0  0  1 V2000
  148.7003  143.4405  159.2987 O   0  0  0  0  0  0  0  0  0  0  0  0
  148.8780  142.8201  158.2528 C   0  0  0  0  0  0  0  0  0  0  0  0
  147.8265  142.6454  157.3481 N   0  0  0  0  0  0  0  0  0  0  0  0
  147.9079  141.9653  156.1312 C   0  0  0  0  0  0  0  0  0  0  0  0
  146.9093  141.8529  155.4211 O   0  0  0  0  0  0  0  0  0  0  0  0
  149.1632  141.4215  155.7786 N   0  0  0  0  0  0  0  0  0  0  0  0
  149.3004  140.6675  154.4759 C   0  0  1  0  0  0  0  0  0  0  0  0
  150.5749  140.0961  154.4175 O   0  0  0  0  0  0  0  0  0  0  0  0
  150.4794  138.7079  154.1153 C   0  0  1  0  0  0  0  0  0  0  0  0
  151.6879  137.9764  154.7208 C   0  0  0  0  0  0  0  0  0  0  0  0
  151.6462  136.6013  154.4056 O   0  0  0  0  0  0  0  0  0  0  0  0
  149.1212  138.3093  154.6975 C   0  0  2  0  0  0  0  0  0  0  0  0
  148.5889  137.1219  154.1415 O   0  0  0  0  0  0  0  0  0  0  0  0
  148.2631  139.5347  154.4064 C   0  0  2  0  0  0  0  0  0  0  0  0
  147.6525  139.4857  153.1288 O   0  0  0  0  0  0  0  0  0  0  0  0
  150.2318  141.5505  156.6565 C   0  0  0  0  0  0  0  0  0  0  0  0
  150.1350  142.2086  157.8352 C   0  0  0  0  0  0  0  0  0  0  0  0
  151.7735  142.2796  158.9464 Br  0  0  0  0  0  0  0  0  0  0  0  0
  146.9312  143.0395  157.5988 H   0  0  0  0  0  0  0  0  0  0  0  0
  149.2136  141.4055  153.6759 H   0  0  0  0  0  0  0  0  0  0  0  0
  150.4724  138.6089  153.0281 H   0  0  0  0  0  0  0  0  0  0  0  0
  152.6127  138.3871  154.3154 H   0  0  0  0  0  0  0  0  0  0  0  0
  151.7254  138.1069  155.8027 H   0  0  0  0  0  0  0  0  0  0  0  0
  151.4647  136.5091  153.4826 H   0  0  0  0  0  0  0  0  0  0  0  0
  149.2088  138.1834  155.7777 H   0  0  0  0  0  0  0  0  0  0  0  0
  148.8869  137.0532  153.2470 H   0  0  0  0  0  0  0  0  0  0  0  0
  147.4806  139.6676  155.1550 H   0  0  0  0  0  0  0  0  0  0  0  0
  148.2855  139.7631  152.4839 H   0  0  0  0  0  0  0  0  0  0  0  0
  151.1840  141.1074  156.4052 H   0  0  0  0  0  0  0  0  0  0  0  0
  1  2  2  0  0  0  0
  2 17  1  0  0  0  0
  2  3  1  0  0  0  0
  3 19  1  0  0  0  0
  3  4  1  0  0  0  0
  4  5  2  0  0  0  0
  4  6  1  0  0  0  0
  6  7  1  0  0  0  0
  6 16  1  0  0  0  0
  7 14  1  0  0  0  0
  7  8  1  0  0  0  0
  7 20  1  0  0  0  0
  8  9  1  0  0  0  0
  9 10  1  0  0  0  0
  9 12  1  0  0  0  0
  9 21  1  0  0  0  0
 10 11  1  0  0  0  0
 10 22  1  0  0  0  0
 10 23  1  0  0  0  0
 11 24  1  0  0  0  0
 12 13  1  0  0  0  0
 12 14  1  0  0  0  0
 12 25  1  0  0  0  0
 13 26  1  0  0  0  0
 14 15  1  0  0  0  0
 14 27  1  0  0  0  0
 15 28  1  0  0  0  0
 16 17  2  0  0  0  0
 16 29  1  0  0  0  0
 17 18  1  0  0  0  0
M  END
> <s_m_source_file>
AV-unprocessed.smi

> <i_m_source_file_index>
35

> <i_lp_mmshare_version>
43012

> <i_f3d_flags>
0

> <s_epik_input>
Tz1jMVtuSF1jKD1PKW4oW2NIXWMxQnIpW0NAQEhdMk9bQ0BASF0oW0NIMl1bT0hdKVtDQEBIXShbT0hdKVtDQEhdMltPSF0=

> <s_epik_cmdline>
J2VwaWtfcHl0aG9uJywgJy1waCcsICc3LjAnLCAnLXRuJywgJzgnLCAnLW1hJywgJzIwMCcsICctbWV0YWxfYmluZGluZycsICctaW1hZScsICc8aW5maWxlLm1hZT4nLCAnLW9tYWUnLCAnPG91dGZpbGUubWFlPic=

> <r_lp_tautomer_probability>
0.999537

> <r_epik_Ionization_Penalty>
0.10812

> <r_epik_Ionization_Penalty_Charging>
0.108119

> <r_epik_Ionization_Penalty_Neutral>
4.93006e-07

> <r_epik_State_Penalty>
0.0979238

> <r_epik_Charging_Adjusted_Penalty>
0.206043

> <i_epik_Tot_Q>
0

> <i_epik_Tot_abs_Q>
0

> <r_epik_Metal_State_Penalty>
3.07911

> <b_epik_Metal_Only>
0

> <s_epik_Chemistry_Notes>
This compound contains an acetal/aminal-like group ( X-CH(R)-Y where X, Y are N, S, or O) that may be acid/base labile, releasing an aldehyde.

> <s_lp_Force_Field>
OPLS_2005

> <r_lp_Energy>
30.2872

> <b_lp_Chiralities_Consistent>
1

> <s_lp_Variant>
AV-unprocessed.smi:35-14

> <Gold.Version>
5.8.1

> <Gold.Id.Protein>
6NUR|6NUR_protein|mol2

> <Gold.PLP.Fitness>
43.7412

> <Gold.PLP.PLP>
-28.3777

> <Gold.PLP.part.hbond>
-6.6924

> <Gold.PLP.part.metal>
0.0000

> <Gold.PLP.part.buried>
-4.2508

> <Gold.PLP.part.nonpolar>
-18.6758

> <Gold.PLP.part.repulsive>
0.4130

> <Gold.PLP.ligand.clash>
0.0000

> <Gold.PLP.ligand.torsion>
0.0621

> <Gold.PLP.Chemscore.Hbond>
5.1584

> <Gold.PLP.Chemscore.CHOScore>
0.0000

> <Gold.PLP.Chemscore.Metal>
0.0000

> <Gold.Chemscore.Hbonds>
donor molecule, donor type, donor heavy atom, donor atom, acceptor molecule, acceptor atom, score
      L1  H    11    24       P1  7949  0.88
      L1  H    13    26       P1  7948  1.00
      L1  H    15    28       P1  7957  1.00
      P1  H  6933  6944       L1     1  0.06
      P1  H  7989  7998       L1     8  1.00
      P1  H 10752 10763       L1    11  0.95

> <Gold.PLP.Chemscore.Internal.Correction>
0.0125

> <Gold.Rescore>
     Score         DG    S(hbond)    S(metal)    S(lipo)     H(rot)  DE(clash)    DE(int)     intcor
     15.58     -16.98       4.68        0.00      44.87       3.67       0.00       1.40       ----

> <Gold.Chemscore.Fitness>
15.5823

> <Gold.Chemscore.DG>
-16.9820

> <Gold.Chemscore.ZeroCoef>
-5.4800

> <Gold.Chemscore.Hbond>
4.6848

> <Gold.Chemscore.Metal>
0.0000

> <Gold.Chemscore.Lipo>
44.8750

> <Gold.Chemscore.Internal_Hbond>
0.0000

> <Gold.Chemscore.DEClash>
0.0000

> <Gold.Chemscore.DEInternal>
1.3997

> <Gold.Chemscore.Rot>
3.6701

> <Gold.Chemscore.Internal.Correction>
   9.000000E+99

> <Gold.Chemscore.Hbonds>
donor molecule, donor type, donor heavy atom, donor atom, acceptor molecule, acceptor atom, score
      L1  H    11    24       P1  7949  0.70
      L1  H    13    26       P1  7948  0.94
      L1  H    15    28       P1  7957  1.00
      P1  H  6933  6944       L1     1  0.07
      P1  H  7989  7998       L1     8  0.76
      P1  H 10752 10763       L1    11  0.21

> <Gold.Chemscore.Hbond.Weighted>
-15.6471

> <Gold.Chemscore.Metal.Weighted>
-0.0000

> <Gold.Chemscore.Lipo.Weighted>
-5.2504

> <Gold.Chemscore.Internal_Hbond.Weighted>
0.0000

> <Gold.Chemscore.DEClash.Weighted>
0.0000

> <Gold.Chemscore.DEInternal.Weighted>
1.3997

> <Gold.Chemscore.Rot.Weighted>
9.3955

> <Gold.Chemscore.Internal.Correction.Weighted>
   9.000000E+99

> <Gold.Protein.RotatedTorsions>
[ 6907 6896 6895 6894 ] final    7.05 input  -60.11 | X-H torsion
[ 7974 7965 7964 7962 ] final -163.47 input  175.53 | X-H torsion
[ 8008 7997 7996 7995 ] final  137.87 input   59.86 | X-H torsion
[ 10167 10162 10161 10158 ] final -117.13 input  -65.29 | X-H torsion
[ 10718 10713 10712 10709 ] final -143.87 input   66.30 | X-H torsion
[ 10763 10752 10751 10750 ] final   55.66 input  -60.55 | X-H torsion
[ 11005 11000 10999 10996 ] final  -93.44 input  -57.11 | X-H torsion

> <Gold.Protein.ActiveResidues>
 VAL166  LYS551  ARG553  GLY616  TRP617  ASP618  TYR619  PRO620  LYS621  CYS622 
 ASP623  PHE694  ASN695  SER759  ASP760  ASP761  ALA762  ILE779  LEU786  VAL792 
 PHE793  MET794  SER795  GLU796  ALA797  LYS798  CYS799  TRP800  GLU811  SER814 

> <Gold.Protein.RotatedAtoms>
  151.6836  135.0958  160.0220 H   0  0  0  0  0  0  0  0  0  0  0  0  # atno 6907 bound_to 6896
  152.3821  133.6556  159.6178 H   0  0  0  0  0  0  0  0  0  0  0  0  # atno 6908 bound_to 6896
  150.7755  133.9013  159.3383 H   0  0  0  0  0  0  0  0  0  0  0  0  # atno 6909 bound_to 6896
  144.7325  140.3102  143.6189 H   0  0  0  0  0  0  0  0  0  0  0  0  # atno 7974 bound_to 7965
  156.3000  140.2408  156.3981 H   0  0  0  0  0  0  0  0  0  0  0  0  # atno 8008 bound_to 7997
  154.8553  140.0422  157.1650 H   0  0  0  0  0  0  0  0  0  0  0  0  # atno 8009 bound_to 7997
  154.8955  140.2969  155.5350 H   0  0  0  0  0  0  0  0  0  0  0  0  # atno 8010 bound_to 7997
  140.0717  143.4871  152.1976 H   0  0  0  0  0  0  0  0  0  0  0  0  # atno 10167 bound_to 10162
  156.3632  130.7749  151.1920 H   0  0  0  0  0  0  0  0  0  0  0  0  # atno 10718 bound_to 10713
  152.9820  135.5703  154.5102 H   0  0  0  0  0  0  0  0  0  0  0  0  # atno 10763 bound_to 10752
  154.4607  135.2781  155.1716 H   0  0  0  0  0  0  0  0  0  0  0  0  # atno 10764 bound_to 10752
  154.3305  135.6250  153.5602 H   0  0  0  0  0  0  0  0  0  0  0  0  # atno 10765 bound_to 10752
  141.1497  133.7888  157.0159 H   0  0  0  0  0  0  0  0  0  0  0  0  # atno 11005 bound_to 11000
  145.7672  139.1845  143.2233 LP  0  0  0  0  0  0  0  0  0  0  0  0  # atno 17320 bound_to 7965
  146.0939  140.7623  142.9582 LP  0  0  0  0  0  0  0  0  0  0  0  0  # atno 17321 bound_to 7965
  139.5832  144.7519  151.3587 LP  0  0  0  0  0  0  0  0  0  0  0  0  # atno 17342 bound_to 10162
  140.7122  143.7360  150.7588 LP  0  0  0  0  0  0  0  0  0  0  0  0  # atno 17343 bound_to 10162
  157.7476  131.0394  150.4548 LP  0  0  0  0  0  0  0  0  0  0  0  0  # atno 17370 bound_to 10713
  156.4762  130.4063  149.6488 LP  0  0  0  0  0  0  0  0  0  0  0  0  # atno 17371 bound_to 10713
  140.0847  134.9628  157.1681 LP  0  0  0  0  0  0  0  0  0  0  0  0  # atno 17394 bound_to 11000
  140.3528  134.2580  155.7196 LP  0  0  0  0  0  0  0  0  0  0  0  0  # atno 17395 bound_to 11000

$$$$
