AV-unprocessed.smi:3045|AV-procd|sdf|11609|dock5
  -GOLD-   2272016593D 1   1.00000     0.00000
 Structure written by MMmdl.
 35 36  0  0  0  0  0  0  0  0  1 V2000
  139.9879  137.2636  154.6967 C   0  0  0  0  0  0  0  0  0  0  0  0
  141.1047  136.7994  153.8851 N   0  0  0  0  0  0  0  0  0  0  0  0
  142.0573  137.7357  153.3143 C   0  0  0  0  0  0  0  0  0  0  0  0
  143.1593  136.8657  152.6704 C   0  0  1  0  0  0  0  0  0  0  0  0
  144.4949  136.9651  153.4238 C   0  0  0  0  0  0  0  0  0  0  0  0
  144.8946  136.0209  154.1063 O   0  0  0  0  0  0  0  0  0  0  0  0
  145.1708  138.1171  153.2959 N   0  0  0  0  0  0  0  0  0  0  0  0
  146.4459  138.4133  153.9372 C   0  0  0  0  0  0  0  0  0  0  0  0
  147.0631  139.7122  153.3939 C   0  0  0  0  0  0  0  0  0  0  0  0
  148.3599  140.0639  154.0949 C   0  0  0  0  0  0  0  0  0  0  0  0
  148.5389  141.3293  154.6908 C   0  0  0  0  0  0  0  0  0  0  0  0
  149.7601  141.6093  155.3334 C   0  0  0  0  0  0  0  0  0  0  0  0
  150.7524  140.6087  155.3532 C   0  0  0  0  0  0  0  0  0  0  0  0
  150.5913  139.3931  154.7873 N   0  0  0  0  0  0  0  0  0  0  0  0
  149.4174  139.1329  154.1726 C   0  0  0  0  0  0  0  0  0  0  0  0
  142.6016  135.4276  152.6920 C   0  0  0  0  0  0  0  0  0  0  0  0
  141.3476  135.5312  153.5437 C   0  0  0  0  0  0  0  0  0  0  0  0
  140.6739  134.5528  153.8629 O   0  0  0  0  0  0  0  0  0  0  0  0
  139.0433  137.0848  154.1823 H   0  0  0  0  0  0  0  0  0  0  0  0
  140.0666  138.3320  154.8997 H   0  0  0  0  0  0  0  0  0  0  0  0
  139.9641  136.7398  155.6528 H   0  0  0  0  0  0  0  0  0  0  0  0
  141.5563  138.3459  152.5617 H   0  0  0  0  0  0  0  0  0  0  0  0
  142.4386  138.4094  154.0840 H   0  0  0  0  0  0  0  0  0  0  0  0
  143.3106  137.1822  151.6368 H   0  0  0  0  0  0  0  0  0  0  0  0
  144.7723  138.8412  152.7156 H   0  0  0  0  0  0  0  0  0  0  0  0
  146.3147  138.4738  155.0191 H   0  0  0  0  0  0  0  0  0  0  0  0
  147.1194  137.5760  153.7524 H   0  0  0  0  0  0  0  0  0  0  0  0
  147.2505  139.6186  152.3234 H   0  0  0  0  0  0  0  0  0  0  0  0
  146.3660  140.5429  153.5119 H   0  0  0  0  0  0  0  0  0  0  0  0
  147.7550  142.0717  154.6581 H   0  0  0  0  0  0  0  0  0  0  0  0
  149.9325  142.5678  155.8001 H   0  0  0  0  0  0  0  0  0  0  0  0
  151.7006  140.7894  155.8375 H   0  0  0  0  0  0  0  0  0  0  0  0
  149.3197  138.1517  153.7315 H   0  0  0  0  0  0  0  0  0  0  0  0
  142.3331  135.0949  151.6890 H   0  0  0  0  0  0  0  0  0  0  0  0
  143.2903  134.6948  153.1160 H   0  0  0  0  0  0  0  0  0  0  0  0
  1  2  1  0  0  0  0
  1 19  1  0  0  0  0
  1 20  1  0  0  0  0
  1 21  1  0  0  0  0
  2 17  1  0  0  0  0
  2  3  1  0  0  0  0
  3  4  1  0  0  0  0
  3 22  1  0  0  0  0
  3 23  1  0  0  0  0
  4  5  1  0  0  0  0
  4 16  1  0  0  0  0
  4 24  1  0  0  0  0
  5  6  2  0  0  0  0
  5  7  1  0  0  0  0
  7  8  1  0  0  0  0
  7 25  1  0  0  0  0
  8  9  1  0  0  0  0
  8 26  1  0  0  0  0
  8 27  1  0  0  0  0
  9 10  1  0  0  0  0
  9 28  1  0  0  0  0
  9 29  1  0  0  0  0
 10 15  1  0  0  0  0
 10 11  2  0  0  0  0
 11 12  1  0  0  0  0
 11 30  1  0  0  0  0
 12 13  2  0  0  0  0
 12 31  1  0  0  0  0
 13 14  1  0  0  0  0
 13 32  1  0  0  0  0
 14 15  2  0  0  0  0
 15 33  1  0  0  0  0
 16 17  1  0  0  0  0
 16 34  1  0  0  0  0
 16 35  1  0  0  0  0
 17 18  2  0  0  0  0
M  END
> <s_m_source_file>
AV-unprocessed.smi

> <i_m_source_file_index>
3045

> <i_lp_mmshare_version>
43012

> <i_f3d_flags>
0

> <s_epik_input>
W0NIM11OMVtDSDJdW0NASF0oW0NIMl1DMT1PKUMoPU8pW05IXVtDSDJdW0NIMl1jMltjSF1bY0hdW2NIXW5bY0hdMg==

> <s_epik_cmdline>
J2VwaWtfcHl0aG9uJywgJy1waCcsICc3LjAnLCAnLXRuJywgJzgnLCAnLW1hJywgJzIwMCcsICctbWV0YWxfYmluZGluZycsICctaW1hZScsICc8aW5maWxlLm1hZT4nLCAnLW9tYWUnLCAnPG91dGZpbGUubWFlPic=

> <r_epik_Ionization_Penalty>
0.0130932

> <r_epik_Ionization_Penalty_Charging>
0

> <r_epik_Ionization_Penalty_Neutral>
0.0130932

> <r_epik_State_Penalty>
0.0101714

> <r_epik_Charging_Adjusted_Penalty>
0.0101714

> <i_epik_Tot_Q>
0

> <i_epik_Tot_abs_Q>
0

> <r_epik_Metal_State_Penalty>
0.00995082

> <b_epik_Metal_Only>
0

> <s_lp_Force_Field>
OPLS_2005

> <r_lp_Energy>
9.14953

> <b_lp_Chiralities_Consistent>
1

> <s_lp_Variant>
AV-unprocessed.smi:3045-1

> <Gold.Version>
5.8.1

> <Gold.Id.Protein>
6NUR|6NUR_protein|mol2

> <Gold.PLP.Fitness>
40.3349

> <Gold.PLP.PLP>
-31.8036

> <Gold.PLP.part.hbond>
-3.2571

> <Gold.PLP.part.metal>
0.0000

> <Gold.PLP.part.buried>
-2.5045

> <Gold.PLP.part.nonpolar>
-26.5656

> <Gold.PLP.part.repulsive>
0.3648

> <Gold.PLP.ligand.clash>
0.0000

> <Gold.PLP.ligand.torsion>
0.3128

> <Gold.PLP.Chemscore.Hbond>
2.0874

> <Gold.PLP.Chemscore.CHOScore>
0.9608

> <Gold.PLP.Chemscore.Metal>
0.0000

> <Gold.Chemscore.Hbonds>
donor molecule, donor type, donor heavy atom, donor atom, acceptor molecule, acceptor atom, score
      L1  H     7    25       P1 10175  1.00
      P1  H 10995 11001       L1    18  0.05
      P1  H 11000 11005       L1    18  1.00
      L1  C    15    33       P1  7948  0.63

> <Gold.PLP.Chemscore.Internal.Correction>
0.0124

> <Gold.Rescore>
     Score         DG    S(hbond)    S(metal)    S(lipo)     H(rot)  DE(clash)    DE(int)     intcor
     14.88     -15.11       1.99        0.00      61.03       1.62       0.07       0.16       ----

> <Gold.Chemscore.Fitness>
14.8796

> <Gold.Chemscore.DG>
-15.1067

> <Gold.Chemscore.ZeroCoef>
-5.4800

> <Gold.Chemscore.Hbond>
1.9868

> <Gold.Chemscore.Metal>
0.0000

> <Gold.Chemscore.Lipo>
61.0292

> <Gold.Chemscore.Internal_Hbond>
0.0000

> <Gold.Chemscore.DEClash>
0.0670

> <Gold.Chemscore.DEInternal>
0.1601

> <Gold.Chemscore.Rot>
1.6210

> <Gold.Chemscore.Internal.Correction>
   9.000000E+99

> <Gold.Chemscore.Hbonds>
donor molecule, donor type, donor heavy atom, donor atom, acceptor molecule, acceptor atom, score
      L1  H     7    25       P1 10175  0.95
      P1  H 10995 11001       L1    18  0.05
      P1  H 11000 11005       L1    18  0.97

> <Gold.Chemscore.Hbond.Weighted>
-6.6361

> <Gold.Chemscore.Metal.Weighted>
-0.0000

> <Gold.Chemscore.Lipo.Weighted>
-7.1404

> <Gold.Chemscore.Internal_Hbond.Weighted>
0.0000

> <Gold.Chemscore.DEClash.Weighted>
0.0670

> <Gold.Chemscore.DEInternal.Weighted>
0.1601

> <Gold.Chemscore.Rot.Weighted>
4.1498

> <Gold.Chemscore.Internal.Correction.Weighted>
   9.000000E+99

> <Gold.Protein.RotatedTorsions>
[ 6907 6896 6895 6894 ] final  -23.03 input  -60.11 | X-H torsion
[ 7974 7965 7964 7962 ] final   46.81 input  175.53 | X-H torsion
[ 8008 7997 7996 7995 ] final -128.38 input   59.86 | X-H torsion
[ 10167 10162 10161 10158 ] final  -28.77 input  -65.29 | X-H torsion
[ 10718 10713 10712 10709 ] final  131.48 input   66.30 | X-H torsion
[ 10763 10752 10751 10750 ] final  113.40 input  -60.55 | X-H torsion
[ 11005 11000 10999 10996 ] final   21.53 input  -57.11 | X-H torsion

> <Gold.Protein.ActiveResidues>
 VAL166  LYS551  ARG553  GLY616  TRP617  ASP618  TYR619  PRO620  LYS621  CYS622 
 ASP623  PHE694  ASN695  SER759  ASP760  ASP761  ALA762  ILE779  LEU786  VAL792 
 PHE793  MET794  SER795  GLU796  ALA797  LYS798  CYS799  TRP800  GLU811  SER814 

> <Gold.Protein.RotatedAtoms>
  151.2100  135.0477  159.8906 H   0  0  0  0  0  0  0  0  0  0  0  0  # atno 6907 bound_to 6896
  152.5425  134.0756  159.8223 H   0  0  0  0  0  0  0  0  0  0  0  0  # atno 6908 bound_to 6896
  151.0907  133.5270  159.2647 H   0  0  0  0  0  0  0  0  0  0  0  0  # atno 6909 bound_to 6896
  146.0356  139.4816  142.9810 H   0  0  0  0  0  0  0  0  0  0  0  0  # atno 7974 bound_to 7965
  155.2617  140.0436  157.2998 H   0  0  0  0  0  0  0  0  0  0  0  0  # atno 8008 bound_to 7997
  154.5707  140.2373  155.8165 H   0  0  0  0  0  0  0  0  0  0  0  0  # atno 8009 bound_to 7997
  156.2120  140.2996  155.9762 H   0  0  0  0  0  0  0  0  0  0  0  0  # atno 8010 bound_to 7997
  140.7267  143.3983  151.1310 H   0  0  0  0  0  0  0  0  0  0  0  0  # atno 10167 bound_to 10162
  157.4963  131.1092  150.9488 H   0  0  0  0  0  0  0  0  0  0  0  0  # atno 10718 bound_to 10713
  153.4919  135.3657  155.2496 H   0  0  0  0  0  0  0  0  0  0  0  0  # atno 10763 bound_to 10752
  154.8751  135.3979  154.3578 H   0  0  0  0  0  0  0  0  0  0  0  0  # atno 10764 bound_to 10752
  153.4199  135.7080  153.6366 H   0  0  0  0  0  0  0  0  0  0  0  0  # atno 10765 bound_to 10752
  140.3905  134.1824  155.7662 H   0  0  0  0  0  0  0  0  0  0  0  0  # atno 11005 bound_to 11000
  145.6969  141.0147  143.1525 LP  0  0  0  0  0  0  0  0  0  0  0  0  # atno 17320 bound_to 7965
  144.7050  139.8599  143.7432 LP  0  0  0  0  0  0  0  0  0  0  0  0  # atno 17321 bound_to 7965
  139.7598  143.8652  152.3097 LP  0  0  0  0  0  0  0  0  0  0  0  0  # atno 17342 bound_to 10162
  139.8534  144.7153  150.9186 LP  0  0  0  0  0  0  0  0  0  0  0  0  # atno 17343 bound_to 10162
  157.0173  130.5660  149.5327 LP  0  0  0  0  0  0  0  0  0  0  0  0  # atno 17370 bound_to 10713
  156.0202  130.5297  150.8254 LP  0  0  0  0  0  0  0  0  0  0  0  0  # atno 17371 bound_to 10713
  141.1892  133.8243  157.0965 LP  0  0  0  0  0  0  0  0  0  0  0  0  # atno 17394 bound_to 11000
  140.0410  134.9854  157.0961 LP  0  0  0  0  0  0  0  0  0  0  0  0  # atno 17395 bound_to 11000

$$$$
