AV-unprocessed.smi:2187|AV-procd|sdf|8879|dock5
  -GOLD-   2272012 83D 1   1.00000     0.00000
 Structure written by MMmdl.
 42 43  0  0  0  0  0  0  0  0  1 V2000
  149.8860  145.2907  159.8393 C   0  0  0  0  0  0  0  0  0  0  0  0
  150.9873  144.2991  160.0850 C   0  0  0  0  0  0  0  0  0  0  0  0
  151.3593  144.0413  161.3278 N   0  0  0  0  0  0  0  0  0  0  0  0
  152.3373  143.1209  161.2106 N   0  0  0  0  0  0  0  0  0  0  0  0
  152.9753  142.6062  162.4066 C   0  0  0  0  0  0  0  0  0  0  0  0
  152.5808  142.7932  159.8910 C   0  0  0  0  0  0  0  0  0  0  0  0
  153.6132  141.7866  159.4968 C   0  0  0  0  0  0  0  0  0  0  0  0
  151.7250  143.5414  159.1275 C   0  0  0  0  0  0  0  0  0  0  0  0
  151.5773  143.5611  157.6272 C   0  0  0  0  0  0  0  0  0  0  0  0
  150.9800  142.2349  157.1596 C   0  0  0  0  0  0  0  0  0  0  0  0
  151.3871  141.1741  157.6329 O   0  0  0  0  0  0  0  0  0  0  0  0
  150.0055  142.3115  156.2389 N   0  0  0  0  0  0  0  0  0  0  0  0
  149.2708  141.1765  155.6772 C   0  0  1  0  0  0  0  0  0  0  0  0
  148.4658  141.7010  154.4660 C   0  0  0  0  0  0  0  0  0  0  0  0
  147.2559  140.8255  154.0969 C   0  0  0  0  0  0  0  0  0  0  0  0
  147.6033  139.4113  153.6074 C   0  0  0  0  0  0  0  0  0  0  0  0
  148.3206  138.5512  154.6618 C   0  0  0  0  0  0  0  0  0  0  0  0
  149.7306  138.8978  154.7848 N   0  0  0  0  0  0  0  0  0  0  0  0
  150.2389  140.0666  155.2041 C   0  0  0  0  0  0  0  0  0  0  0  0
  151.4562  140.2500  155.2063 O   0  0  0  0  0  0  0  0  0  0  0  0
  148.9398  144.7815  159.6553 H   0  0  0  0  0  0  0  0  0  0  0  0
  150.1030  145.9120  158.9707 H   0  0  0  0  0  0  0  0  0  0  0  0
  149.7449  145.9558  160.6920 H   0  0  0  0  0  0  0  0  0  0  0  0
  154.0586  142.6384  162.2891 H   0  0  0  0  0  0  0  0  0  0  0  0
  152.6645  141.5743  162.5706 H   0  0  0  0  0  0  0  0  0  0  0  0
  152.6993  143.2025  163.2775 H   0  0  0  0  0  0  0  0  0  0  0  0
  153.5153  141.5100  158.4472 H   0  0  0  0  0  0  0  0  0  0  0  0
  153.5155  140.8759  160.0877 H   0  0  0  0  0  0  0  0  0  0  0  0
  154.6167  142.1840  159.6481 H   0  0  0  0  0  0  0  0  0  0  0  0
  150.9419  144.3848  157.2995 H   0  0  0  0  0  0  0  0  0  0  0  0
  152.5366  143.7108  157.1309 H   0  0  0  0  0  0  0  0  0  0  0  0
  149.7453  143.2277  155.9046 H   0  0  0  0  0  0  0  0  0  0  0  0
  148.5938  140.7842  156.4383 H   0  0  0  0  0  0  0  0  0  0  0  0
  148.0787  142.6942  154.6994 H   0  0  0  0  0  0  0  0  0  0  0  0
  149.1120  141.8381  153.5971 H   0  0  0  0  0  0  0  0  0  0  0  0
  146.5840  140.7580  154.9533 H   0  0  0  0  0  0  0  0  0  0  0  0
  146.6881  141.3313  153.3153 H   0  0  0  0  0  0  0  0  0  0  0  0
  146.6744  138.9129  153.3291 H   0  0  0  0  0  0  0  0  0  0  0  0
  148.1986  139.4635  152.6947 H   0  0  0  0  0  0  0  0  0  0  0  0
  147.8235  138.6161  155.6307 H   0  0  0  0  0  0  0  0  0  0  0  0
  148.2725  137.5041  154.3626 H   0  0  0  0  0  0  0  0  0  0  0  0
  150.3894  138.1895  154.4946 H   0  0  0  0  0  0  0  0  0  0  0  0
  1  2  1  0  0  0  0
  1 21  1  0  0  0  0
  1 22  1  0  0  0  0
  1 23  1  0  0  0  0
  2  8  1  0  0  0  0
  2  3  2  0  0  0  0
  3  4  1  0  0  0  0
  4  5  1  0  0  0  0
  4  6  1  0  0  0  0
  5 24  1  0  0  0  0
  5 25  1  0  0  0  0
  5 26  1  0  0  0  0
  6  7  1  0  0  0  0
  6  8  2  0  0  0  0
  7 27  1  0  0  0  0
  7 28  1  0  0  0  0
  7 29  1  0  0  0  0
  8  9  1  0  0  0  0
  9 10  1  0  0  0  0
  9 30  1  0  0  0  0
  9 31  1  0  0  0  0
 10 11  2  0  0  0  0
 10 12  1  0  0  0  0
 12 13  1  0  0  0  0
 12 32  1  0  0  0  0
 13 19  1  0  0  0  0
 13 14  1  0  0  0  0
 13 33  1  0  0  0  0
 14 15  1  0  0  0  0
 14 34  1  0  0  0  0
 14 35  1  0  0  0  0
 15 16  1  0  0  0  0
 15 36  1  0  0  0  0
 15 37  1  0  0  0  0
 16 17  1  0  0  0  0
 16 38  1  0  0  0  0
 16 39  1  0  0  0  0
 17 18  1  0  0  0  0
 17 40  1  0  0  0  0
 17 41  1  0  0  0  0
 18 19  1  0  0  0  0
 18 42  1  0  0  0  0
 19 20  2  0  0  0  0
M  END
> <s_m_source_file>
AV-unprocessed.smi

> <i_m_source_file_index>
2187

> <i_lp_mmshare_version>
43012

> <i_f3d_flags>
0

> <s_epik_input>
W0NIM11jMW5uKFtDSDNdKWMoW0NIM10pYzFbQ0gyXUMoPU8pW05IXVtDQEBIXTJbQ0gyXVtDSDJdW0NIMl1bQ0gyXVtOSF1DMj1P

> <s_epik_cmdline>
J2VwaWtfcHl0aG9uJywgJy1waCcsICc3LjAnLCAnLXRuJywgJzgnLCAnLW1hJywgJzIwMCcsICctbWV0YWxfYmluZGluZycsICctaW1hZScsICc8aW5maWxlLm1hZT4nLCAnLW9tYWUnLCAnPG91dGZpbGUubWFlPic=

> <r_lp_tautomer_probability>
1

> <r_epik_Ionization_Penalty>
0.00280384

> <r_epik_Ionization_Penalty_Charging>
0

> <r_epik_Ionization_Penalty_Neutral>
0.00280384

> <r_epik_State_Penalty>
0.00195959

> <r_epik_Charging_Adjusted_Penalty>
0.00195959

> <i_epik_Tot_Q>
0

> <i_epik_Tot_abs_Q>
0

> <r_epik_Metal_State_Penalty>
-0

> <b_epik_Metal_Only>
0

> <s_lp_Force_Field>
OPLS_2005

> <r_lp_Energy>
5.77256

> <b_lp_Chiralities_Consistent>
1

> <s_lp_Variant>
AV-unprocessed.smi:2187-2

> <Gold.Version>
5.8.1

> <Gold.Id.Protein>
6NUR|6NUR_protein|mol2

> <Gold.PLP.Fitness>
49.9259

> <Gold.PLP.PLP>
-44.7556

> <Gold.PLP.part.hbond>
-2.0000

> <Gold.PLP.part.metal>
0.0000

> <Gold.PLP.part.buried>
-6.5543

> <Gold.PLP.part.nonpolar>
-36.4772

> <Gold.PLP.part.repulsive>
0.3630

> <Gold.PLP.ligand.clash>
0.0000

> <Gold.PLP.ligand.torsion>
0.4041

> <Gold.PLP.Chemscore.Hbond>
1.9920

> <Gold.PLP.Chemscore.CHOScore>
0.0000

> <Gold.PLP.Chemscore.Metal>
0.0000

> <Gold.Chemscore.Hbonds>
donor molecule, donor type, donor heavy atom, donor atom, acceptor molecule, acceptor atom, score
      L1  H    12    32       P1  8028  1.00
      P1  H  7989  7998       L1    20  0.94

> <Gold.PLP.Chemscore.Internal.Correction>
0.0026

> <Gold.Rescore>
     Score         DG    S(hbond)    S(metal)    S(lipo)     H(rot)  DE(clash)    DE(int)     intcor
     16.55     -19.09       1.95        0.00      92.54       1.46       0.31       2.24       ----

> <Gold.Chemscore.Fitness>
16.5463

> <Gold.Chemscore.DG>
-19.0924

> <Gold.Chemscore.ZeroCoef>
-5.4800

> <Gold.Chemscore.Hbond>
1.9511

> <Gold.Chemscore.Metal>
0.0000

> <Gold.Chemscore.Lipo>
92.5442

> <Gold.Chemscore.Internal_Hbond>
0.0000

> <Gold.Chemscore.DEClash>
0.3053

> <Gold.Chemscore.DEInternal>
2.2408

> <Gold.Chemscore.Rot>
1.4578

> <Gold.Chemscore.Internal.Correction>
   9.000000E+99

> <Gold.Chemscore.Hbonds>
donor molecule, donor type, donor heavy atom, donor atom, acceptor molecule, acceptor atom, score
      L1  H    12    32       P1  8028  1.00
      P1  H  7989  7998       L1    20  0.20

> <Gold.Chemscore.Hbond.Weighted>
-6.5167

> <Gold.Chemscore.Metal.Weighted>
-0.0000

> <Gold.Chemscore.Lipo.Weighted>
-10.8277

> <Gold.Chemscore.Internal_Hbond.Weighted>
0.0000

> <Gold.Chemscore.DEClash.Weighted>
0.3053

> <Gold.Chemscore.DEInternal.Weighted>
2.2408

> <Gold.Chemscore.Rot.Weighted>
3.7321

> <Gold.Chemscore.Internal.Correction.Weighted>
   9.000000E+99

> <Gold.Protein.RotatedTorsions>
[ 6907 6896 6895 6894 ] final  178.52 input  -60.11 | X-H torsion
[ 7974 7965 7964 7962 ] final  -80.67 input  175.53 | X-H torsion
[ 8008 7997 7996 7995 ] final -156.95 input   59.86 | X-H torsion
[ 10167 10162 10161 10158 ] final -115.92 input  -65.29 | X-H torsion
[ 10718 10713 10712 10709 ] final   80.23 input   66.30 | X-H torsion
[ 10763 10752 10751 10750 ] final  -87.00 input  -60.55 | X-H torsion
[ 11005 11000 10999 10996 ] final   13.44 input  -57.11 | X-H torsion

> <Gold.Protein.ActiveResidues>
 VAL166  LYS551  ARG553  GLY616  TRP617  ASP618  TYR619  PRO620  LYS621  CYS622 
 ASP623  PHE694  ASN695  SER759  ASP760  ASP761  ALA762  ILE779  LEU786  VAL792 
 PHE793  MET794  SER795  GLU796  ALA797  LYS798  CYS799  TRP800  GLU811  SER814 

> <Gold.Protein.RotatedAtoms>
  151.6865  133.3311  159.3232 H   0  0  0  0  0  0  0  0  0  0  0  0  # atno 6907 bound_to 6896
  150.7798  134.6735  159.6414 H   0  0  0  0  0  0  0  0  0  0  0  0  # atno 6908 bound_to 6896
  152.3852  134.6531  160.0180 H   0  0  0  0  0  0  0  0  0  0  0  0  # atno 6909 bound_to 6896
  145.5568  140.9488  143.1469 H   0  0  0  0  0  0  0  0  0  0  0  0  # atno 7974 bound_to 7965
  155.7250  140.0795  157.2314 H   0  0  0  0  0  0  0  0  0  0  0  0  # atno 8008 bound_to 7997
  154.4040  140.1606  156.2499 H   0  0  0  0  0  0  0  0  0  0  0  0  # atno 8009 bound_to 7997
  155.9162  140.3401  155.6139 H   0  0  0  0  0  0  0  0  0  0  0  0  # atno 8010 bound_to 7997
  140.0848  143.4754  152.1905 H   0  0  0  0  0  0  0  0  0  0  0  0  # atno 10167 bound_to 10162
  157.6800  130.9950  150.2048 H   0  0  0  0  0  0  0  0  0  0  0  0  # atno 10718 bound_to 10713
  154.6287  135.5429  153.7656 H   0  0  0  0  0  0  0  0  0  0  0  0  # atno 10763 bound_to 10752
  153.0274  135.6430  154.1333 H   0  0  0  0  0  0  0  0  0  0  0  0  # atno 10764 bound_to 10752
  154.1264  135.2917  155.3176 H   0  0  0  0  0  0  0  0  0  0  0  0  # atno 10765 bound_to 10752
  140.4808  134.0938  155.7750 H   0  0  0  0  0  0  0  0  0  0  0  0  # atno 11005 bound_to 11000
  144.7502  139.7213  143.7276 LP  0  0  0  0  0  0  0  0  0  0  0  0  # atno 17320 bound_to 7965
  146.1879  139.5103  142.9824 LP  0  0  0  0  0  0  0  0  0  0  0  0  # atno 17321 bound_to 7965
  139.5758  144.7487  151.3768 LP  0  0  0  0  0  0  0  0  0  0  0  0  # atno 17342 bound_to 10162
  140.7059  143.7515  150.7481 LP  0  0  0  0  0  0  0  0  0  0  0  0  # atno 17343 bound_to 10162
  156.2732  130.3724  149.8010 LP  0  0  0  0  0  0  0  0  0  0  0  0  # atno 17370 bound_to 10713
  156.5721  130.8429  151.3359 LP  0  0  0  0  0  0  0  0  0  0  0  0  # atno 17371 bound_to 10713
  141.1532  133.8930  157.2044 LP  0  0  0  0  0  0  0  0  0  0  0  0  # atno 17394 bound_to 11000
  139.9828  135.0092  156.9790 LP  0  0  0  0  0  0  0  0  0  0  0  0  # atno 17395 bound_to 11000

$$$$
