AV-unprocessed.smi:526|AV-procd|sdf|2811|dock5
  -GOLD-   2262023293D 1   1.00000     0.00000
 Structure written by MMmdl.
 30 30  0  0  0  0  0  0  0  0  2 V2000
  152.1188  143.7729  161.6706 C   0  0  0  0  0  0  0  0  0  0  0  0
  152.3020  143.6740  160.3434 C   0  0  0  0  0  0  0  0  0  0  0  0
  151.6504  144.6363  159.3683 C   0  0  0  0  0  0  0  0  0  0  0  0
  153.1734  142.5940  159.7296 C   0  0  0  0  0  0  0  0  0  0  0  0
  152.2120  141.3770  158.7855 S   0  0  0  0  0  0  0  0  0  0  0  0
  153.2135  139.8794  159.0138 C   0  0  0  0  0  0  0  0  0  0  0  0
  154.5013  139.7534  159.0485 N   0  0  0  0  0  0  0  0  0  0  0  0
  155.0776  138.4917  159.2422 C   0  0  0  0  0  0  0  0  0  0  0  0
  156.5956  138.4595  159.2730 C   0  0  0  0  0  0  0  0  0  0  0  0
  154.3107  137.3752  159.3935 C   0  0  0  0  0  0  0  0  0  0  0  0
  154.9025  135.9814  159.6117 C   0  0  0  0  0  0  0  0  0  0  0  0
  154.5328  134.9513  158.5375 C   0  0  0  0  0  0  0  0  0  0  0  0
  153.9399  133.9238  158.9322 O   0  0  0  0  0  0  0  0  0  0  0  0
  154.8438  135.1925  157.3496 O   0  5  0  0  0  0  0  0  0  0  0  0
  152.8444  137.5056  159.3491 C   0  0  0  0  0  0  0  0  0  0  0  0
  152.0538  136.5708  159.4693 O   0  0  0  0  0  0  0  0  0  0  0  0
  152.3883  138.7640  159.1619 N   0  0  0  0  0  0  0  0  0  0  0  0
  151.3882  138.8970  159.1291 H   0  0  0  0  0  0  0  0  0  0  0  0
  151.4958  144.5467  162.0946 H   0  0  0  0  0  0  0  0  0  0  0  0
  152.5895  143.0818  162.3544 H   0  0  0  0  0  0  0  0  0  0  0  0
  151.0163  144.0927  158.6676 H   0  0  0  0  0  0  0  0  0  0  0  0
  152.4061  145.1775  158.7989 H   0  0  0  0  0  0  0  0  0  0  0  0
  151.0308  145.3687  159.8871 H   0  0  0  0  0  0  0  0  0  0  0  0
  153.9095  143.0461  159.0635 H   0  0  0  0  0  0  0  0  0  0  0  0
  153.7278  142.0872  160.5201 H   0  0  0  0  0  0  0  0  0  0  0  0
  156.9821  137.8667  158.4438 H   0  0  0  0  0  0  0  0  0  0  0  0
  156.9516  138.0244  160.2071 H   0  0  0  0  0  0  0  0  0  0  0  0
  157.0154  139.4629  159.1916 H   0  0  0  0  0  0  0  0  0  0  0  0
  155.9894  136.0305  159.6849 H   0  0  0  0  0  0  0  0  0  0  0  0
  154.5701  135.6010  160.5775 H   0  0  0  0  0  0  0  0  0  0  0  0
  1  2  2  0  0  0  0
  1 19  1  0  0  0  0
  1 20  1  0  0  0  0
  2  3  1  0  0  0  0
  2  4  1  0  0  0  0
  3 21  1  0  0  0  0
  3 22  1  0  0  0  0
  3 23  1  0  0  0  0
  4  5  1  0  0  0  0
  4 24  1  0  0  0  0
  4 25  1  0  0  0  0
  5  6  1  0  0  0  0
  6 17  1  0  0  0  0
  6  7  2  0  0  0  0
  7  8  1  0  0  0  0
  8  9  1  0  0  0  0
  8 10  2  0  0  0  0
  9 26  1  0  0  0  0
  9 27  1  0  0  0  0
  9 28  1  0  0  0  0
 10 11  1  0  0  0  0
 10 15  1  0  0  0  0
 11 12  1  0  0  0  0
 11 29  1  0  0  0  0
 11 30  1  0  0  0  0
 12 13  2  0  0  0  0
 12 14  1  0  0  0  0
 15 16  2  0  0  0  0
 15 17  1  0  0  0  0
 17 18  1  0  0  0  0
M  CHG  1  14  -1
M  END
> <s_m_source_file>
AV-unprocessed.smi

> <i_m_source_file_index>
526

> <i_lp_mmshare_version>
43012

> <i_f3d_flags>
0

> <s_epik_input>
W0NIMl09QyhbQ0gzXSlbQ0gyXVNjMW5jKFtDSDNdKWMoYyg9TylbbkhdMSlbQ0gyXUMoPU8pW09IXQ==

> <s_epik_cmdline>
J2VwaWtfcHl0aG9uJywgJy1waCcsICc3LjAnLCAnLXRuJywgJzgnLCAnLW1hJywgJzIwMCcsICctbWV0YWxfYmluZGluZycsICctaW1hZScsICc8aW5maWxlLm1hZT4nLCAnLW9tYWUnLCAnPG91dGZpbGUubWFlPic=

> <r_lp_tautomer_probability>
0.660323

> <r_epik_Ionization_Penalty>
0.000759783

> <r_epik_Ionization_Penalty_Charging>
0.000714454

> <r_epik_Ionization_Penalty_Neutral>
4.53284e-05

> <r_epik_State_Penalty>
0.230805

> <r_epik_Charging_Adjusted_Penalty>
0.231519

> <i_epik_Tot_Q>
-1

> <i_epik_Tot_abs_Q>
1

> <r_epik_Metal_State_Penalty>
0.34438

> <b_epik_Metal_Only>
0

> <s_lp_Force_Field>
OPLS_2005

> <r_lp_Energy>
1.72321

> <b_lp_Chiralities_Consistent>
1

> <s_lp_Variant>
AV-unprocessed.smi:526-1

> <Gold.Version>
5.8.1

> <Gold.Id.Protein>
6NUR|6NUR_protein|mol2

> <Gold.PLP.Fitness>
45.0392

> <Gold.PLP.PLP>
-28.2754

> <Gold.PLP.part.hbond>
-4.0000

> <Gold.PLP.part.metal>
0.0000

> <Gold.PLP.part.buried>
-1.9665

> <Gold.PLP.part.nonpolar>
-21.3841

> <Gold.PLP.part.repulsive>
0.0901

> <Gold.PLP.ligand.clash>
0.0000

> <Gold.PLP.ligand.torsion>
0.5822

> <Gold.PLP.Chemscore.Hbond>
5.9680

> <Gold.PLP.Chemscore.CHOScore>
0.0000

> <Gold.PLP.Chemscore.Metal>
0.0000

> <Gold.Chemscore.Hbonds>
donor molecule, donor type, donor heavy atom, donor atom, acceptor molecule, acceptor atom, score
      P1  H  6896  6907       L1    13  2.00
      P1  H  6896  6909       L1    16  1.00
      P1  H  7997  8009       L1     7  0.90
      P1  H 10752 10763       L1    14  1.72

> <Gold.PLP.Chemscore.Internal.Correction>
0.0243

> <Gold.Rescore>
     Score         DG    S(hbond)    S(metal)    S(lipo)     H(rot)  DE(clash)    DE(int)     intcor
     17.47     -18.09       3.05        0.00      72.07       2.34       0.13       0.49       ----

> <Gold.Chemscore.Fitness>
17.4743

> <Gold.Chemscore.DG>
-18.0940

> <Gold.Chemscore.ZeroCoef>
-5.4800

> <Gold.Chemscore.Hbond>
3.0471

> <Gold.Chemscore.Metal>
0.0000

> <Gold.Chemscore.Lipo>
72.0694

> <Gold.Chemscore.Internal_Hbond>
0.0000

> <Gold.Chemscore.DEClash>
0.1305

> <Gold.Chemscore.DEInternal>
0.4892

> <Gold.Chemscore.Rot>
2.3420

> <Gold.Chemscore.Internal.Correction>
   9.000000E+99

> <Gold.Chemscore.Hbonds>
donor molecule, donor type, donor heavy atom, donor atom, acceptor molecule, acceptor atom, score
      P1  H  6896  6907       L1    13  0.96
      P1  H  6896  6909       L1    16  0.93
      P1  H  7997  8009       L1     7  0.05
      P1  H 10752 10763       L1    14  0.84

> <Gold.Chemscore.Hbond.Weighted>
-10.1774

> <Gold.Chemscore.Metal.Weighted>
-0.0000

> <Gold.Chemscore.Lipo.Weighted>
-8.4321

> <Gold.Chemscore.Internal_Hbond.Weighted>
0.0000

> <Gold.Chemscore.DEClash.Weighted>
0.1305

> <Gold.Chemscore.DEInternal.Weighted>
0.4892

> <Gold.Chemscore.Rot.Weighted>
5.9955

> <Gold.Chemscore.Internal.Correction.Weighted>
   9.000000E+99

> <Gold.Protein.RotatedTorsions>
[ 6907 6896 6895 6894 ] final  117.67 input  -60.11 | X-H torsion
[ 7974 7965 7964 7962 ] final  -99.09 input  175.53 | X-H torsion
[ 8008 7997 7996 7995 ] final  138.67 input   59.86 | X-H torsion
[ 10167 10162 10161 10158 ] final -167.92 input  -65.29 | X-H torsion
[ 10718 10713 10712 10709 ] final  -30.46 input   66.30 | X-H torsion
[ 10763 10752 10751 10750 ] final  154.24 input  -60.55 | X-H torsion
[ 11005 11000 10999 10996 ] final -119.44 input  -57.11 | X-H torsion

> <Gold.Protein.ActiveResidues>
 VAL166  LYS551  ARG553  GLY616  TRP617  ASP618  TYR619  PRO620  LYS621  CYS622 
 ASP623  PHE694  ASN695  SER759  ASP760  ASP761  ALA762  ILE779  LEU786  VAL792 
 PHE793  MET794  SER795  GLU796  ALA797  LYS798  CYS799  TRP800  GLU811  SER814 

> <Gold.Protein.RotatedAtoms>
  152.4596  133.7795  159.6842 H   0  0  0  0  0  0  0  0  0  0  0  0  # atno 6907 bound_to 6896
  150.8535  133.7741  159.3023 H   0  0  0  0  0  0  0  0  0  0  0  0  # atno 6908 bound_to 6896
  151.5329  135.1071  159.9959 H   0  0  0  0  0  0  0  0  0  0  0  0  # atno 6909 bound_to 6896
  145.3121  140.9402  143.2764 H   0  0  0  0  0  0  0  0  0  0  0  0  # atno 7974 bound_to 7965
  156.2996  140.2387  156.4111 H   0  0  0  0  0  0  0  0  0  0  0  0  # atno 8008 bound_to 7997
  154.8440  140.0427  157.1580 H   0  0  0  0  0  0  0  0  0  0  0  0  # atno 8009 bound_to 7997
  154.9071  140.2985  155.5290 H   0  0  0  0  0  0  0  0  0  0  0  0  # atno 8010 bound_to 7997
  139.6018  144.0995  152.1751 H   0  0  0  0  0  0  0  0  0  0  0  0  # atno 10167 bound_to 10162
  156.3995  130.4387  149.7333 H   0  0  0  0  0  0  0  0  0  0  0  0  # atno 10718 bound_to 10713
  154.1491  135.2816  155.3140 H   0  0  0  0  0  0  0  0  0  0  0  0  # atno 10763 bound_to 10752
  154.6230  135.5461  153.7600 H   0  0  0  0  0  0  0  0  0  0  0  0  # atno 10764 bound_to 10752
  153.0226  135.6444  154.1636 H   0  0  0  0  0  0  0  0  0  0  0  0  # atno 10765 bound_to 10752
  141.0215  134.0116  157.3275 H   0  0  0  0  0  0  0  0  0  0  0  0  # atno 11005 bound_to 11000
  144.9007  139.4653  143.6634 LP  0  0  0  0  0  0  0  0  0  0  0  0  # atno 17320 bound_to 7965
  146.3114  139.7760  142.9017 LP  0  0  0  0  0  0  0  0  0  0  0  0  # atno 17321 bound_to 7965
  140.0593  144.5869  150.7275 LP  0  0  0  0  0  0  0  0  0  0  0  0  # atno 17342 bound_to 10162
  140.7255  143.2632  151.4134 LP  0  0  0  0  0  0  0  0  0  0  0  0  # atno 17343 bound_to 10162
  156.4355  130.7836  151.2856 LP  0  0  0  0  0  0  0  0  0  0  0  0  # atno 17370 bound_to 10713
  157.7503  131.0141  150.3450 LP  0  0  0  0  0  0  0  0  0  0  0  0  # atno 17371 bound_to 10713
  139.9149  135.0195  156.7842 LP  0  0  0  0  0  0  0  0  0  0  0  0  # atno 17394 bound_to 11000
  140.6564  133.9685  155.7781 LP  0  0  0  0  0  0  0  0  0  0  0  0  # atno 17395 bound_to 11000

$$$$
