AV-unprocessed.smi:3202|AV-procd|sdf|12248|dock8
  -GOLD-   2272018 83D 1   1.00000     0.00000
 Structure written by MMmdl.
 43 44  0  0  0  0  0  0  0  0  2 V2000
  151.1535  130.6248  157.5578 C   0  0  0  0  0  0  0  0  0  0  0  0
  150.6982  131.7329  156.6545 C   0  0  0  0  0  0  0  0  0  0  0  0
  150.1939  131.6334  155.3247 C   0  0  0  0  0  0  0  0  0  0  0  0
  149.9396  132.9263  154.9621 C   0  0  0  0  0  0  0  0  0  0  0  0
  149.4114  133.5071  153.6903 C   0  0  0  0  0  0  0  0  0  0  0  0
  147.9455  133.1389  153.3901 C   0  0  1  0  0  0  0  0  0  0  0  0
  146.9759  133.6149  154.4840 C   0  0  0  0  0  0  0  0  0  0  0  0
  147.5429  133.7161  152.0882 N   0  3  0  0  0  0  0  0  0  0  0  0
  146.0873  133.9049  151.8956 C   0  0  1  0  0  0  0  0  0  0  0  0
  145.7389  135.2137  151.1720 C   0  0  0  0  0  0  0  0  0  0  0  0
  144.3967  134.9552  150.4755 C   0  0  0  0  0  0  0  0  0  0  0  0
  144.0989  133.4592  150.6531 C   0  0  0  0  0  0  0  0  0  0  0  0
  145.4286  132.7931  151.0508 C   0  0  0  0  0  0  0  0  0  0  0  0
  146.2396  132.4424  149.7814 C   0  0  0  0  0  0  0  0  0  0  0  0
  145.1863  131.5157  151.8765 C   0  0  0  0  0  0  0  0  0  0  0  0
  150.2839  133.7035  156.0447 N   0  0  0  0  0  0  0  0  0  0  0  0
  150.7489  132.9851  157.0831 N   0  0  0  0  0  0  0  0  0  0  0  0
  150.2087  134.7099  156.0909 H   0  0  0  0  0  0  0  0  0  0  0  0
  150.9548  129.6485  157.1153 H   0  0  0  0  0  0  0  0  0  0  0  0
  150.6406  130.6630  158.5193 H   0  0  0  0  0  0  0  0  0  0  0  0
  152.2251  130.6898  157.7472 H   0  0  0  0  0  0  0  0  0  0  0  0
  150.0476  130.7458  154.7270 H   0  0  0  0  0  0  0  0  0  0  0  0
  150.0429  133.1794  152.8633 H   0  0  0  0  0  0  0  0  0  0  0  0
  149.5124  134.5924  153.7285 H   0  0  0  0  0  0  0  0  0  0  0  0
  147.8743  132.0512  153.3413 H   0  0  0  0  0  0  0  0  0  0  0  0
  147.2020  133.1566  155.4471 H   0  0  0  0  0  0  0  0  0  0  0  0
  145.9472  133.3506  154.2362 H   0  0  0  0  0  0  0  0  0  0  0  0
  147.0202  134.6970  154.6114 H   0  0  0  0  0  0  0  0  0  0  0  0
  147.9942  134.6129  151.9786 H   0  0  0  0  0  0  0  0  0  0  0  0
  145.6090  133.9171  152.8773 H   0  0  0  0  0  0  0  0  0  0  0  0
  145.6862  136.0593  151.8585 H   0  0  0  0  0  0  0  0  0  0  0  0
  146.4960  135.4517  150.4232 H   0  0  0  0  0  0  0  0  0  0  0  0
  143.5990  135.5628  150.9038 H   0  0  0  0  0  0  0  0  0  0  0  0
  144.4685  135.2116  149.4178 H   0  0  0  0  0  0  0  0  0  0  0  0
  143.3709  133.3448  151.4578 H   0  0  0  0  0  0  0  0  0  0  0  0
  143.6527  133.0181  149.7608 H   0  0  0  0  0  0  0  0  0  0  0  0
  145.6930  131.7409  149.1499 H   0  0  0  0  0  0  0  0  0  0  0  0
  147.1919  131.9723  150.0285 H   0  0  0  0  0  0  0  0  0  0  0  0
  146.4544  133.3222  149.1745 H   0  0  0  0  0  0  0  0  0  0  0  0
  144.6470  130.7673  151.2948 H   0  0  0  0  0  0  0  0  0  0  0  0
  144.5978  131.7195  152.7717 H   0  0  0  0  0  0  0  0  0  0  0  0
  146.1269  131.0679  152.1983 H   0  0  0  0  0  0  0  0  0  0  0  0
  147.8795  133.1019  151.3604 H   0  0  0  0  0  0  0  0  0  0  0  0
  1 19  1  0  0  0  0
  1 20  1  0  0  0  0
  1 21  1  0  0  0  0
  1  2  1  0  0  0  0
  2 17  2  0  0  0  0
  2  3  1  0  0  0  0
  3  4  2  0  0  0  0
  3 22  1  0  0  0  0
  4 16  1  0  0  0  0
  4  5  1  0  0  0  0
  5  6  1  0  0  0  0
  5 23  1  0  0  0  0
  5 24  1  0  0  0  0
  6  7  1  0  0  0  0
  6  8  1  0  0  0  0
  6 25  1  0  0  0  0
  7 26  1  0  0  0  0
  7 27  1  0  0  0  0
  7 28  1  0  0  0  0
  8  9  1  0  0  0  0
  8 29  1  0  0  0  0
  8 43  1  0  0  0  0
  9 13  1  0  0  0  0
  9 10  1  0  0  0  0
  9 30  1  0  0  0  0
 10 11  1  0  0  0  0
 10 31  1  0  0  0  0
 10 32  1  0  0  0  0
 11 12  1  0  0  0  0
 11 33  1  0  0  0  0
 11 34  1  0  0  0  0
 12 13  1  0  0  0  0
 12 35  1  0  0  0  0
 12 36  1  0  0  0  0
 13 14  1  0  0  0  0
 13 15  1  0  0  0  0
 14 37  1  0  0  0  0
 14 38  1  0  0  0  0
 14 39  1  0  0  0  0
 15 40  1  0  0  0  0
 15 41  1  0  0  0  0
 15 42  1  0  0  0  0
 16 17  1  0  0  0  0
 16 18  1  0  0  0  0
M  CHG  1   8   1
M  END
> <s_m_source_file>
AV-unprocessed.smi

> <i_m_source_file_index>
3202

> <i_lp_mmshare_version>
43012

> <i_f3d_flags>
0

> <s_epik_input>
W0NIM11jMVtjSF1jKG5bbkhdMSlbQ0gyXVtDQEhdKFtDSDNdKVtOSF1bQ0BASF0oQzIoW0NIM10pW0NIM10pW0NIMl1bQ0gyXVtDSDJdMg==

> <s_epik_cmdline>
J2VwaWtfcHl0aG9uJywgJy1waCcsICc3LjAnLCAnLXRuJywgJzgnLCAnLW1hJywgJzIwMCcsICctbWV0YWxfYmluZGluZycsICctaW1hZScsICc8aW5maWxlLm1hZT4nLCAnLW9tYWUnLCAnPG91dGZpbGUubWFlPic=

> <r_lp_tautomer_probability>
0.5

> <r_epik_Ionization_Penalty>
0.000449684

> <r_epik_Ionization_Penalty_Charging>
0.000404963

> <r_epik_Ionization_Penalty_Neutral>
4.47208e-05

> <r_epik_State_Penalty>
0.41068

> <r_epik_Charging_Adjusted_Penalty>
0.411085

> <i_epik_Tot_Q>
1

> <i_epik_Tot_abs_Q>
1

> <r_epik_Metal_State_Penalty>
0.410687

> <b_epik_Metal_Only>
0

> <s_lp_Force_Field>
OPLS_2005

> <r_lp_Energy>
32.3918

> <b_lp_Chiralities_Consistent>
1

> <s_lp_Variant>
AV-unprocessed.smi:3202-8

> <Gold.Version>
5.8.1

> <Gold.Id.Protein>
6NUR|6NUR_protein|mol2

> <Gold.PLP.Fitness>
37.7836

> <Gold.PLP.PLP>
-30.5542

> <Gold.PLP.part.hbond>
-2.0000

> <Gold.PLP.part.metal>
0.0000

> <Gold.PLP.part.buried>
-2.7007

> <Gold.PLP.part.nonpolar>
-25.5333

> <Gold.PLP.part.repulsive>
0.1206

> <Gold.PLP.ligand.clash>
0.0000

> <Gold.PLP.ligand.torsion>
0.8809

> <Gold.PLP.Chemscore.Hbond>
2.9920

> <Gold.PLP.Chemscore.CHOScore>
0.0000

> <Gold.PLP.Chemscore.Metal>
0.0000

> <Gold.Chemscore.Hbonds>
donor molecule, donor type, donor heavy atom, donor atom, acceptor molecule, acceptor atom, score
      L1  H     8    29       P1  7948  1.80
      P1  H  6896  6908       L1    17  0.57

> <Gold.PLP.Chemscore.Internal.Correction>
0.0151

> <Gold.Rescore>
     Score         DG    S(hbond)    S(metal)    S(lipo)     H(rot)  DE(clash)    DE(int)     intcor
     15.83     -16.62       1.81        0.00      75.63       1.46       0.00       0.79       ----

> <Gold.Chemscore.Fitness>
15.8311

> <Gold.Chemscore.DG>
-16.6218

> <Gold.Chemscore.ZeroCoef>
-5.4800

> <Gold.Chemscore.Hbond>
1.8054

> <Gold.Chemscore.Metal>
0.0000

> <Gold.Chemscore.Lipo>
75.6255

> <Gold.Chemscore.Internal_Hbond>
0.0000

> <Gold.Chemscore.DEClash>
0.0018

> <Gold.Chemscore.DEInternal>
0.7889

> <Gold.Chemscore.Rot>
1.4596

> <Gold.Chemscore.Internal.Correction>
   9.000000E+99

> <Gold.Chemscore.Hbonds>
donor molecule, donor type, donor heavy atom, donor atom, acceptor molecule, acceptor atom, score
      L1  H     8    29       P1  7948  0.18
      P1  H  6896  6908       L1    17  0.53

> <Gold.Chemscore.Hbond.Weighted>
-6.0301

> <Gold.Chemscore.Metal.Weighted>
-0.0000

> <Gold.Chemscore.Lipo.Weighted>
-8.8482

> <Gold.Chemscore.Internal_Hbond.Weighted>
0.0000

> <Gold.Chemscore.DEClash.Weighted>
0.0018

> <Gold.Chemscore.DEInternal.Weighted>
0.7889

> <Gold.Chemscore.Rot.Weighted>
3.7365

> <Gold.Chemscore.Internal.Correction.Weighted>
   9.000000E+99

> <Gold.Protein.RotatedTorsions>
[ 6907 6896 6895 6894 ] final   98.26 input  -60.11 | X-H torsion
[ 7974 7965 7964 7962 ] final  120.63 input  175.53 | X-H torsion
[ 8008 7997 7996 7995 ] final -166.50 input   59.86 | X-H torsion
[ 10167 10162 10161 10158 ] final -124.77 input  -65.29 | X-H torsion
[ 10718 10713 10712 10709 ] final  -30.52 input   66.30 | X-H torsion
[ 10763 10752 10751 10750 ] final   80.64 input  -60.55 | X-H torsion
[ 11005 11000 10999 10996 ] final -146.22 input  -57.11 | X-H torsion

> <Gold.Protein.ActiveResidues>
 VAL166  LYS551  ARG553  GLY616  TRP617  ASP618  TYR619  PRO620  LYS621  CYS622 
 ASP623  PHE694  ASN695  SER759  ASP760  ASP761  ALA762  ILE779  LEU786  VAL792 
 PHE793  MET794  SER795  GLU796  ALA797  LYS798  CYS799  TRP800  GLU811  SER814 

> <Gold.Protein.RotatedAtoms>
  152.5412  134.0608  159.8150 H   0  0  0  0  0  0  0  0  0  0  0  0  # atno 6907 bound_to 6896
  151.0736  133.5439  159.2632 H   0  0  0  0  0  0  0  0  0  0  0  0  # atno 6908 bound_to 6896
  151.2292  135.0556  159.9035 H   0  0  0  0  0  0  0  0  0  0  0  0  # atno 6909 bound_to 6896
  145.1288  139.3340  143.4676 H   0  0  0  0  0  0  0  0  0  0  0  0  # atno 7974 bound_to 7965
  155.8647  140.0983  157.1590 H   0  0  0  0  0  0  0  0  0  0  0  0  # atno 8008 bound_to 7997
  154.3993  140.1358  156.4066 H   0  0  0  0  0  0  0  0  0  0  0  0  # atno 8009 bound_to 7997
  155.7817  140.3458  155.5304 H   0  0  0  0  0  0  0  0  0  0  0  0  # atno 8010 bound_to 7997
  139.9892  143.5659  152.2348 H   0  0  0  0  0  0  0  0  0  0  0  0  # atno 10167 bound_to 10162
  156.3988  130.4386  149.7338 H   0  0  0  0  0  0  0  0  0  0  0  0  # atno 10718 bound_to 10713
  153.1050  135.4795  154.8935 H   0  0  0  0  0  0  0  0  0  0  0  0  # atno 10763 bound_to 10752
  154.7420  135.3084  154.8713 H   0  0  0  0  0  0  0  0  0  0  0  0  # atno 10764 bound_to 10752
  153.9319  135.6844  153.4799 H   0  0  0  0  0  0  0  0  0  0  0  0  # atno 10765 bound_to 10752
  140.7843  134.3043  157.5035 H   0  0  0  0  0  0  0  0  0  0  0  0  # atno 11005 bound_to 11000
  146.3515  140.1279  142.8598 LP  0  0  0  0  0  0  0  0  0  0  0  0  # atno 17320 bound_to 7965
  145.0658  140.9120  143.4911 LP  0  0  0  0  0  0  0  0  0  0  0  0  # atno 17321 bound_to 7965
  139.6352  144.7649  151.2452 LP  0  0  0  0  0  0  0  0  0  0  0  0  # atno 17342 bound_to 10162
  140.7461  143.6410  150.8335 LP  0  0  0  0  0  0  0  0  0  0  0  0  # atno 17343 bound_to 10162
  156.4363  130.7839  151.2860 LP  0  0  0  0  0  0  0  0  0  0  0  0  # atno 17370 bound_to 10713
  157.7503  131.0138  150.3441 LP  0  0  0  0  0  0  0  0  0  0  0  0  # atno 17371 bound_to 10713
  139.8739  134.9337  156.3586 LP  0  0  0  0  0  0  0  0  0  0  0  0  # atno 17394 bound_to 11000
  140.9452  133.7487  156.0199 LP  0  0  0  0  0  0  0  0  0  0  0  0  # atno 17395 bound_to 11000

$$$$
