AV-unprocessed.smi:2895|AV-procd|sdf|11135|dock2
  -GOLD-   2272016 13D 1   1.00000     0.00000
 Structure written by MMmdl.
 54 57  0  0  0  0  0  0  0  0  3 V2000
  150.6546  138.4007  154.3199 O   0  0  0  0  0  0  0  0  0  0  0  0
  149.9202  139.1155  155.0028 C   0  0  0  0  0  0  0  0  0  0  0  0
  148.6451  138.7794  155.2631 N   0  0  0  0  0  0  0  0  0  0  0  0
  147.9797  137.5681  154.7958 C   0  0  0  0  0  0  0  0  0  0  0  0
  147.6153  136.6296  155.9588 C   0  0  0  0  0  0  0  0  0  0  0  0
  146.5063  135.6625  155.5905 C   0  0  0  0  0  0  0  0  0  0  0  0
  145.2825  135.6770  156.2956 C   0  0  0  0  0  0  0  0  0  0  0  0
  144.2678  134.7679  155.9319 C   0  0  0  0  0  0  0  0  0  0  0  0
  144.4762  133.8966  154.9204 N   0  3  0  0  0  0  0  0  0  0  0  0
  145.6313  133.8497  154.2211 C   0  0  0  0  0  0  0  0  0  0  0  0
  146.6807  134.7363  154.5382 C   0  0  0  0  0  0  0  0  0  0  0  0
  150.3331  140.2774  155.5717 N   0  0  0  0  0  0  0  0  0  0  0  0
  151.7190  140.6401  155.9102 C   0  0  0  0  0  0  0  0  0  0  0  0
  151.8640  140.7036  157.4435 C   0  0  0  0  0  0  0  0  0  0  0  0
  150.8926  141.6529  158.0593 N   0  3  0  0  0  0  0  0  0  0  0  0
  151.2684  143.0941  157.9314 C   0  0  1  0  0  0  0  0  0  0  0  0
  150.3497  144.0588  158.7216 C   0  0  0  0  0  0  0  0  0  0  0  0
  151.3460  144.9314  159.5076 C   0  0  1  0  0  0  0  0  0  0  0  0
  151.9056  144.1096  160.6814 C   0  0  0  0  0  0  0  0  0  0  0  0
  152.8137  143.0899  159.9714 C   0  0  0  0  0  0  0  0  0  0  0  0
  152.6672  143.4721  158.4822 C   0  0  2  0  0  0  0  0  0  0  0  0
  152.5453  144.9899  158.5697 C   0  0  0  0  0  0  0  0  0  0  0  0
  149.4986  141.3617  157.6168 C   0  0  0  0  0  0  0  0  0  0  0  0
  149.3817  141.2722  156.0810 C   0  0  0  0  0  0  0  0  0  0  0  0
  148.1013  139.4019  155.8430 H   0  0  0  0  0  0  0  0  0  0  0  0
  147.0903  137.8324  154.2210 H   0  0  0  0  0  0  0  0  0  0  0  0
  148.6549  137.0595  154.1070 H   0  0  0  0  0  0  0  0  0  0  0  0
  148.4948  136.0665  156.2736 H   0  0  0  0  0  0  0  0  0  0  0  0
  147.2944  137.2069  156.8269 H   0  0  0  0  0  0  0  0  0  0  0  0
  145.1217  136.3762  157.1036 H   0  0  0  0  0  0  0  0  0  0  0  0
  143.3038  134.7117  156.4161 H   0  0  0  0  0  0  0  0  0  0  0  0
  145.6812  133.1099  153.4353 H   0  0  0  0  0  0  0  0  0  0  0  0
  147.6054  134.7027  153.9802 H   0  0  0  0  0  0  0  0  0  0  0  0
  152.4679  139.9567  155.5107 H   0  0  0  0  0  0  0  0  0  0  0  0
  151.9506  141.6091  155.4663 H   0  0  0  0  0  0  0  0  0  0  0  0
  151.6672  139.7135  157.8571 H   0  0  0  0  0  0  0  0  0  0  0  0
  152.8904  140.9326  157.7248 H   0  0  0  0  0  0  0  0  0  0  0  0
  151.2386  143.3690  156.8761 H   0  0  0  0  0  0  0  0  0  0  0  0
  149.7535  144.6632  158.0368 H   0  0  0  0  0  0  0  0  0  0  0  0
  149.6619  143.5496  159.3978 H   0  0  0  0  0  0  0  0  0  0  0  0
  150.9422  145.8996  159.8056 H   0  0  0  0  0  0  0  0  0  0  0  0
  152.4890  144.7407  161.3537 H   0  0  0  0  0  0  0  0  0  0  0  0
  151.1205  143.6326  161.2695 H   0  0  0  0  0  0  0  0  0  0  0  0
  153.8469  143.2109  160.2993 H   0  0  0  0  0  0  0  0  0  0  0  0
  152.5230  142.0599  160.1777 H   0  0  0  0  0  0  0  0  0  0  0  0
  153.4953  143.1364  157.8575 H   0  0  0  0  0  0  0  0  0  0  0  0
  152.3244  145.4661  157.6127 H   0  0  0  0  0  0  0  0  0  0  0  0
  153.4191  145.4703  159.0140 H   0  0  0  0  0  0  0  0  0  0  0  0
  149.2026  140.4058  158.0509 H   0  0  0  0  0  0  0  0  0  0  0  0
  148.7921  142.0939  158.0054 H   0  0  0  0  0  0  0  0  0  0  0  0
  149.5959  142.2377  155.6219 H   0  0  0  0  0  0  0  0  0  0  0  0
  148.3491  141.0485  155.8107 H   0  0  0  0  0  0  0  0  0  0  0  0
  150.9183  141.4690  159.0524 H   0  0  0  0  0  0  0  0  0  0  0  0
  143.7295  133.2458  154.6746 H   0  0  0  0  0  0  0  0  0  0  0  0
  1  2  2  0  0  0  0
  2  3  1  0  0  0  0
  2 12  1  0  0  0  0
  3  4  1  0  0  0  0
  3 25  1  0  0  0  0
  4  5  1  0  0  0  0
  4 26  1  0  0  0  0
  4 27  1  0  0  0  0
  5  6  1  0  0  0  0
  5 28  1  0  0  0  0
  5 29  1  0  0  0  0
  6 11  1  0  0  0  0
  6  7  2  0  0  0  0
  7  8  1  0  0  0  0
  7 30  1  0  0  0  0
  8  9  2  0  0  0  0
  8 31  1  0  0  0  0
  9 10  1  0  0  0  0
  9 54  1  0  0  0  0
 10 11  2  0  0  0  0
 10 32  1  0  0  0  0
 11 33  1  0  0  0  0
 12 24  1  0  0  0  0
 12 13  1  0  0  0  0
 13 14  1  0  0  0  0
 13 34  1  0  0  0  0
 13 35  1  0  0  0  0
 14 15  1  0  0  0  0
 14 36  1  0  0  0  0
 14 37  1  0  0  0  0
 15 16  1  0  0  0  0
 15 23  1  0  0  0  0
 15 53  1  0  0  0  0
 16 21  1  0  0  0  0
 16 17  1  0  0  0  0
 16 38  1  0  0  0  0
 17 18  1  0  0  0  0
 17 39  1  0  0  0  0
 17 40  1  0  0  0  0
 18 22  1  0  0  0  0
 18 19  1  0  0  0  0
 18 41  1  0  0  0  0
 19 20  1  0  0  0  0
 19 42  1  0  0  0  0
 19 43  1  0  0  0  0
 20 21  1  0  0  0  0
 20 44  1  0  0  0  0
 20 45  1  0  0  0  0
 21 22  1  0  0  0  0
 21 46  1  0  0  0  0
 22 47  1  0  0  0  0
 22 48  1  0  0  0  0
 23 24  1  0  0  0  0
 23 49  1  0  0  0  0
 23 50  1  0  0  0  0
 24 51  1  0  0  0  0
 24 52  1  0  0  0  0
M  CHG  1   9   1
M  CHG  1  15   1
M  END
> <s_m_source_file>
AV-unprocessed.smi

> <i_m_source_file_index>
2895

> <i_lp_mmshare_version>
43012

> <i_f3d_flags>
0

> <s_epik_input>
W0NIMl0xW0NIMl1bQ0BASF0oW0NIMl0yKVtDQEBIXShbQ0gyXVtDQEhdMTIpTihbQ0gyXVtDSDJdMylbQ0gyXVtDSDJdTjNDKD1PKVtOSF1bQ0gyXVtDSDJdYzRbY0hdW2NIXW5bY0hdW2NIXTQ=

> <s_epik_cmdline>
J2VwaWtfcHl0aG9uJywgJy1waCcsICc3LjAnLCAnLXRuJywgJzgnLCAnLW1hJywgJzIwMCcsICctbWV0YWxfYmluZGluZycsICctaW1hZScsICc8aW5maWxlLm1hZT4nLCAnLW9tYWUnLCAnPG91dGZpbGUubWFlPic=

> <r_epik_Ionization_Penalty>
1.44916

> <r_epik_Ionization_Penalty_Charging>
1.44913

> <r_epik_Ionization_Penalty_Neutral>
2.64641e-05

> <r_epik_State_Penalty>
1.53218

> <r_epik_Charging_Adjusted_Penalty>
2.98131

> <i_epik_Tot_Q>
2

> <i_epik_Tot_abs_Q>
2

> <r_epik_Metal_State_Penalty>
1.58241

> <b_epik_Metal_Only>
0

> <s_lp_Force_Field>
OPLS_2005

> <r_lp_Energy>
107.439

> <b_lp_Chiralities_Consistent>
1

> <s_lp_Variant>
AV-unprocessed.smi:2895-8

> <Gold.Version>
5.8.1

> <Gold.Id.Protein>
6NUR|6NUR_protein|mol2

> <Gold.PLP.Fitness>
43.5881

> <Gold.PLP.PLP>
-39.0654

> <Gold.PLP.part.hbond>
-1.0000

> <Gold.PLP.part.metal>
0.0000

> <Gold.PLP.part.buried>
-6.2452

> <Gold.PLP.part.nonpolar>
-31.9368

> <Gold.PLP.part.repulsive>
0.2759

> <Gold.PLP.ligand.clash>
0.9029

> <Gold.PLP.ligand.torsion>
0.3401

> <Gold.PLP.Chemscore.Hbond>
2.0000

> <Gold.PLP.Chemscore.CHOScore>
0.0000

> <Gold.PLP.Chemscore.Metal>
0.0000

> <Gold.Chemscore.Hbonds>
donor molecule, donor type, donor heavy atom, donor atom, acceptor molecule, acceptor atom, score
      L1  H     9    54       P1 10957  2.00

> <Gold.PLP.Chemscore.Internal.Correction>
0.1058

> <Gold.Rescore>
     Score         DG    S(hbond)    S(metal)    S(lipo)     H(rot)  DE(clash)    DE(int)     intcor
     17.83     -18.25       0.98        0.00     113.04       1.46       0.14       0.27       ----

> <Gold.Chemscore.Fitness>
17.8330

> <Gold.Chemscore.DG>
-18.2503

> <Gold.Chemscore.ZeroCoef>
-5.4800

> <Gold.Chemscore.Hbond>
0.9805

> <Gold.Chemscore.Metal>
0.0000

> <Gold.Chemscore.Lipo>
113.0435

> <Gold.Chemscore.Internal_Hbond>
0.0000

> <Gold.Chemscore.DEClash>
0.1440

> <Gold.Chemscore.DEInternal>
0.2733

> <Gold.Chemscore.Rot>
1.4572

> <Gold.Chemscore.Internal.Correction>
   9.000000E+99

> <Gold.Chemscore.Hbonds>
donor molecule, donor type, donor heavy atom, donor atom, acceptor molecule, acceptor atom, score
      L1  H     9    54       P1 10957  0.99

> <Gold.Chemscore.Hbond.Weighted>
-3.2747

> <Gold.Chemscore.Metal.Weighted>
-0.0000

> <Gold.Chemscore.Lipo.Weighted>
-13.2261

> <Gold.Chemscore.Internal_Hbond.Weighted>
0.0000

> <Gold.Chemscore.DEClash.Weighted>
0.1440

> <Gold.Chemscore.DEInternal.Weighted>
0.2733

> <Gold.Chemscore.Rot.Weighted>
3.7305

> <Gold.Chemscore.Internal.Correction.Weighted>
   9.000000E+99

> <Gold.Protein.RotatedTorsions>
[ 6907 6896 6895 6894 ] final  152.59 input  -60.11 | X-H torsion
[ 7974 7965 7964 7962 ] final    8.53 input  175.53 | X-H torsion
[ 8008 7997 7996 7995 ] final  -88.14 input   59.86 | X-H torsion
[ 10167 10162 10161 10158 ] final  -73.45 input  -65.29 | X-H torsion
[ 10718 10713 10712 10709 ] final  153.62 input   66.30 | X-H torsion
[ 10763 10752 10751 10750 ] final  117.46 input  -60.55 | X-H torsion
[ 11005 11000 10999 10996 ] final  173.89 input  -57.11 | X-H torsion

> <Gold.Protein.ActiveResidues>
 VAL166  LYS551  ARG553  GLY616  TRP617  ASP618  TYR619  PRO620  LYS621  CYS622 
 ASP623  PHE694  ASN695  SER759  ASP760  ASP761  ALA762  ILE779  LEU786  VAL792 
 PHE793  MET794  SER795  GLU796  ALA797  LYS798  CYS799  TRP800  GLU811  SER814 

> <Gold.Protein.RotatedAtoms>
  152.0846  133.4170  159.4516 H   0  0  0  0  0  0  0  0  0  0  0  0  # atno 6907 bound_to 6896
  150.6862  134.2942  159.4688 H   0  0  0  0  0  0  0  0  0  0  0  0  # atno 6908 bound_to 6896
  152.0787  134.9485  160.0624 H   0  0  0  0  0  0  0  0  0  0  0  0  # atno 6909 bound_to 6896
  146.2415  139.9919  142.8425 H   0  0  0  0  0  0  0  0  0  0  0  0  # atno 7974 bound_to 7965
  154.6713  140.0557  157.0169 H   0  0  0  0  0  0  0  0  0  0  0  0  # atno 8008 bound_to 7997
  155.1084  140.3236  155.4509 H   0  0  0  0  0  0  0  0  0  0  0  0  # atno 8009 bound_to 7997
  156.2658  140.2018  156.6209 H   0  0  0  0  0  0  0  0  0  0  0  0  # atno 8010 bound_to 7997
  140.5109  143.2345  151.7595 H   0  0  0  0  0  0  0  0  0  0  0  0  # atno 10167 bound_to 10162
  157.2424  131.0762  151.1783 H   0  0  0  0  0  0  0  0  0  0  0  0  # atno 10718 bound_to 10713
  153.5528  135.3536  155.2766 H   0  0  0  0  0  0  0  0  0  0  0  0  # atno 10763 bound_to 10752
  154.8705  135.4118  154.2918 H   0  0  0  0  0  0  0  0  0  0  0  0  # atno 10764 bound_to 10752
  153.3648  135.7061  153.6753 H   0  0  0  0  0  0  0  0  0  0  0  0  # atno 10765 bound_to 10752
  140.3453  134.7241  157.4231 H   0  0  0  0  0  0  0  0  0  0  0  0  # atno 11005 bound_to 11000
  145.1495  140.9615  143.4441 LP  0  0  0  0  0  0  0  0  0  0  0  0  # atno 17320 bound_to 7965
  145.0219  139.3417  143.6068 LP  0  0  0  0  0  0  0  0  0  0  0  0  # atno 17321 bound_to 7965
  139.4896  144.4392  151.9784 LP  0  0  0  0  0  0  0  0  0  0  0  0  # atno 17342 bound_to 10162
  140.3484  144.3119  150.5954 LP  0  0  0  0  0  0  0  0  0  0  0  0  # atno 17343 bound_to 10162
  157.3364  130.7011  149.6355 LP  0  0  0  0  0  0  0  0  0  0  0  0  # atno 17370 bound_to 10713
  155.9669  130.4292  150.4824 LP  0  0  0  0  0  0  0  0  0  0  0  0  # atno 17371 bound_to 10713
  140.0747  134.5814  155.8604 LP  0  0  0  0  0  0  0  0  0  0  0  0  # atno 17394 bound_to 11000
  141.2027  133.6627  156.6021 LP  0  0  0  0  0  0  0  0  0  0  0  0  # atno 17395 bound_to 11000

$$$$
