AV-unprocessed.smi:1957|AV-procd|sdf|7904|dock2
  -GOLD-   2272010 63D 1   1.00000     0.00000
 Structure written by MMmdl.
 42 43  0  0  0  0  0  0  0  0  1 V2000
  154.5848  136.3024  159.8165 C   0  0  0  0  0  0  0  0  0  0  0  0
  153.3559  136.0525  159.1581 O   0  0  0  0  0  0  0  0  0  0  0  0
  153.1192  136.9520  158.0870 C   0  0  0  0  0  0  0  0  0  0  0  0
  151.8684  136.5058  157.3130 C   0  0  0  0  0  0  0  0  0  0  0  0
  151.4621  137.4998  156.3133 N   0  0  0  0  0  0  0  0  0  0  0  0
  151.4008  138.7940  156.8007 N   0  0  0  0  0  0  0  0  0  0  0  0
  151.0706  139.7698  156.0180 C   0  0  0  0  0  0  0  0  0  0  0  0
  151.0011  141.1753  156.5041 C   0  0  0  0  0  0  0  0  0  0  0  0
  150.4829  142.0714  155.8357 O   0  0  0  0  0  0  0  0  0  0  0  0
  151.5446  141.3885  157.7162 N   0  0  0  0  0  0  0  0  0  0  0  0
  151.5863  142.6644  158.4295 C   0  0  2  0  0  0  0  0  0  0  0  0
  152.4479  142.5451  159.7135 C   0  0  0  0  0  0  0  0  0  0  0  0
  152.1134  143.5324  160.8512 C   0  0  0  0  0  0  0  0  0  0  0  0
  152.1145  145.0240  160.4594 C   0  0  0  0  0  0  0  0  0  0  0  0
  151.2186  145.4287  159.2647 C   0  0  0  0  0  0  0  0  0  0  0  0
  150.0857  144.5339  159.0330 N   0  0  0  0  0  0  0  0  0  0  0  0
  150.1766  143.2552  158.6286 C   0  0  0  0  0  0  0  0  0  0  0  0
  149.1728  142.5686  158.4416 O   0  0  0  0  0  0  0  0  0  0  0  0
  150.7526  139.5277  154.6208 C   0  0  0  0  0  0  0  0  0  0  0  0
  150.8179  138.2597  154.1590 C   0  0  0  0  0  0  0  0  0  0  0  0
  151.1966  137.1392  155.0217 C   0  0  0  0  0  0  0  0  0  0  0  0
  151.2739  135.9779  154.6216 O   0  0  0  0  0  0  0  0  0  0  0  0
  154.7205  135.5817  160.6228 H   0  0  0  0  0  0  0  0  0  0  0  0
  154.6023  137.3023  160.2520 H   0  0  0  0  0  0  0  0  0  0  0  0
  155.4273  136.2036  159.1309 H   0  0  0  0  0  0  0  0  0  0  0  0
  152.9990  137.9701  158.4610 H   0  0  0  0  0  0  0  0  0  0  0  0
  153.9799  136.9531  157.4169 H   0  0  0  0  0  0  0  0  0  0  0  0
  152.0588  135.5467  156.8283 H   0  0  0  0  0  0  0  0  0  0  0  0
  151.0531  136.3171  158.0137 H   0  0  0  0  0  0  0  0  0  0  0  0
  151.9455  140.5949  158.1962 H   0  0  0  0  0  0  0  0  0  0  0  0
  152.0927  143.3624  157.7614 H   0  0  0  0  0  0  0  0  0  0  0  0
  152.3526  141.5370  160.1195 H   0  0  0  0  0  0  0  0  0  0  0  0
  153.4991  142.6525  159.4433 H   0  0  0  0  0  0  0  0  0  0  0  0
  151.1446  143.2739  161.2807 H   0  0  0  0  0  0  0  0  0  0  0  0
  152.8278  143.3844  161.6615 H   0  0  0  0  0  0  0  0  0  0  0  0
  151.7968  145.5925  161.3343 H   0  0  0  0  0  0  0  0  0  0  0  0
  153.1363  145.3474  160.2585 H   0  0  0  0  0  0  0  0  0  0  0  0
  150.8338  146.4364  159.4238 H   0  0  0  0  0  0  0  0  0  0  0  0
  151.8158  145.4916  158.3545 H   0  0  0  0  0  0  0  0  0  0  0  0
  149.1629  144.9181  159.1763 H   0  0  0  0  0  0  0  0  0  0  0  0
  150.4706  140.3360  153.9617 H   0  0  0  0  0  0  0  0  0  0  0  0
  150.5846  138.0649  153.1225 H   0  0  0  0  0  0  0  0  0  0  0  0
  1  2  1  0  0  0  0
  1 23  1  0  0  0  0
  1 24  1  0  0  0  0
  1 25  1  0  0  0  0
  2  3  1  0  0  0  0
  3  4  1  0  0  0  0
  3 26  1  0  0  0  0
  3 27  1  0  0  0  0
  4  5  1  0  0  0  0
  4 28  1  0  0  0  0
  4 29  1  0  0  0  0
  5 21  1  0  0  0  0
  5  6  1  0  0  0  0
  6  7  2  0  0  0  0
  7  8  1  0  0  0  0
  7 19  1  0  0  0  0
  8  9  2  0  0  0  0
  8 10  1  0  0  0  0
 10 11  1  0  0  0  0
 10 30  1  0  0  0  0
 11 17  1  0  0  0  0
 11 12  1  0  0  0  0
 11 31  1  0  0  0  0
 12 13  1  0  0  0  0
 12 32  1  0  0  0  0
 12 33  1  0  0  0  0
 13 14  1  0  0  0  0
 13 34  1  0  0  0  0
 13 35  1  0  0  0  0
 14 15  1  0  0  0  0
 14 36  1  0  0  0  0
 14 37  1  0  0  0  0
 15 16  1  0  0  0  0
 15 38  1  0  0  0  0
 15 39  1  0  0  0  0
 16 17  1  0  0  0  0
 16 40  1  0  0  0  0
 17 18  2  0  0  0  0
 19 20  2  0  0  0  0
 19 41  1  0  0  0  0
 20 21  1  0  0  0  0
 20 42  1  0  0  0  0
 21 22  2  0  0  0  0
M  END
> <s_m_source_file>
AV-unprocessed.smi

> <i_m_source_file_index>
1957

> <i_lp_mmshare_version>
43012

> <i_f3d_flags>
0

> <s_epik_input>
W0NIM11PW0NIMl1bQ0gyXW4xbmMoW2NIXVtjSF1jMT1PKUMoPU8pW05IXVtDQEBIXTJbQ0gyXVtDSDJdW0NIMl1bQ0gyXVtOSF1DMj1P

> <s_epik_cmdline>
J2VwaWtfcHl0aG9uJywgJy1waCcsICc3LjAnLCAnLXRuJywgJzgnLCAnLW1hJywgJzIwMCcsICctbWV0YWxfYmluZGluZycsICctaW1hZScsICc8aW5maWxlLm1hZT4nLCAnLW9tYWUnLCAnPG91dGZpbGUubWFlPic=

> <r_lp_tautomer_probability>
1

> <r_epik_Ionization_Penalty>
2.17512e-06

> <r_epik_Ionization_Penalty_Charging>
5.0222e-09

> <r_epik_Ionization_Penalty_Neutral>
2.1701e-06

> <r_epik_State_Penalty>
-0

> <r_epik_Charging_Adjusted_Penalty>
5.0222e-09

> <i_epik_Tot_Q>
0

> <i_epik_Tot_abs_Q>
0

> <r_epik_Metal_State_Penalty>
-0

> <b_epik_Metal_Only>
0

> <s_lp_Force_Field>
OPLS_2005

> <r_lp_Energy>
35.215

> <b_lp_Chiralities_Consistent>
1

> <s_lp_Variant>
AV-unprocessed.smi:1957-1

> <Gold.Version>
5.8.1

> <Gold.Id.Protein>
6NUR|6NUR_protein|mol2

> <Gold.PLP.Fitness>
41.3718

> <Gold.PLP.PLP>
-36.0060

> <Gold.PLP.part.hbond>
-2.5724

> <Gold.PLP.part.metal>
0.0000

> <Gold.PLP.part.buried>
-4.3781

> <Gold.PLP.part.nonpolar>
-29.3648

> <Gold.PLP.part.repulsive>
0.7830

> <Gold.PLP.ligand.clash>
0.0000

> <Gold.PLP.ligand.torsion>
0.2407

> <Gold.PLP.Chemscore.Hbond>
1.9120

> <Gold.PLP.Chemscore.CHOScore>
0.0000

> <Gold.PLP.Chemscore.Metal>
0.0000

> <Gold.Chemscore.Hbonds>
donor molecule, donor type, donor heavy atom, donor atom, acceptor molecule, acceptor atom, score
      P1  H  6896  6908       L1     2  0.83
      P1  H 10752 10763       L1    22  1.00

> <Gold.PLP.Chemscore.Internal.Correction>
0.1112

> <Gold.Rescore>
     Score         DG    S(hbond)    S(metal)    S(lipo)     H(rot)  DE(clash)    DE(int)     intcor
     16.01     -16.39       1.66        0.00      84.81       1.78       0.02       0.36       ----

> <Gold.Chemscore.Fitness>
16.0124

> <Gold.Chemscore.DG>
-16.3873

> <Gold.Chemscore.ZeroCoef>
-5.4800

> <Gold.Chemscore.Hbond>
1.6583

> <Gold.Chemscore.Metal>
0.0000

> <Gold.Chemscore.Lipo>
84.8116

> <Gold.Chemscore.Internal_Hbond>
0.0000

> <Gold.Chemscore.DEClash>
0.0168

> <Gold.Chemscore.DEInternal>
0.3581

> <Gold.Chemscore.Rot>
1.7791

> <Gold.Chemscore.Internal.Correction>
   9.000000E+99

> <Gold.Chemscore.Hbonds>
donor molecule, donor type, donor heavy atom, donor atom, acceptor molecule, acceptor atom, score
      L1  H    16    40       P1  8029  0.01
      P1  H  6896  6908       L1     2  0.65
      P1  H 10752 10763       L1    22  0.60

> <Gold.Chemscore.Hbond.Weighted>
-5.5388

> <Gold.Chemscore.Metal.Weighted>
-0.0000

> <Gold.Chemscore.Lipo.Weighted>
-9.9230

> <Gold.Chemscore.Internal_Hbond.Weighted>
0.0000

> <Gold.Chemscore.DEClash.Weighted>
0.0168

> <Gold.Chemscore.DEInternal.Weighted>
0.3581

> <Gold.Chemscore.Rot.Weighted>
4.5544

> <Gold.Chemscore.Internal.Correction.Weighted>
   9.000000E+99

> <Gold.Protein.RotatedTorsions>
[ 6907 6896 6895 6894 ] final  -57.62 input  -60.11 | X-H torsion
[ 7974 7965 7964 7962 ] final  -37.62 input  175.53 | X-H torsion
[ 8008 7997 7996 7995 ] final  -17.22 input   59.86 | X-H torsion
[ 10167 10162 10161 10158 ] final  115.55 input  -65.29 | X-H torsion
[ 10718 10713 10712 10709 ] final -109.80 input   66.30 | X-H torsion
[ 10763 10752 10751 10750 ] final   58.31 input  -60.55 | X-H torsion
[ 11005 11000 10999 10996 ] final   65.64 input  -57.11 | X-H torsion

> <Gold.Protein.ActiveResidues>
 VAL166  LYS551  ARG553  GLY616  TRP617  ASP618  TYR619  PRO620  LYS621  CYS622 
 ASP623  PHE694  ASN695  SER759  ASP760  ASP761  ALA762  ILE779  LEU786  VAL792 
 PHE793  MET794  SER795  GLU796  ALA797  LYS798  CYS799  TRP800  GLU811  SER814 

> <Gold.Protein.RotatedAtoms>
  150.8071  134.7204  159.6654 H   0  0  0  0  0  0  0  0  0  0  0  0  # atno 6907 bound_to 6896
  152.4191  134.5984  160.0003 H   0  0  0  0  0  0  0  0  0  0  0  0  # atno 6908 bound_to 6896
  151.6205  133.3302  159.3123 H   0  0  0  0  0  0  0  0  0  0  0  0  # atno 6909 bound_to 6896
  146.0559  140.6417  142.9020 H   0  0  0  0  0  0  0  0  0  0  0  0  # atno 7974 bound_to 7965
  154.4994  140.2148  155.9378 H   0  0  0  0  0  0  0  0  0  0  0  0  # atno 8008 bound_to 7997
  156.1414  140.3179  155.8469 H   0  0  0  0  0  0  0  0  0  0  0  0  # atno 8009 bound_to 7997
  155.4113  140.0490  157.3022 H   0  0  0  0  0  0  0  0  0  0  0  0  # atno 8010 bound_to 7997
  139.6309  144.7114  151.2434 H   0  0  0  0  0  0  0  0  0  0  0  0  # atno 10167 bound_to 10162
  156.0556  130.5782  150.8150 H   0  0  0  0  0  0  0  0  0  0  0  0  # atno 10718 bound_to 10713
  152.9868  135.5611  154.5531 H   0  0  0  0  0  0  0  0  0  0  0  0  # atno 10763 bound_to 10752
  154.4965  135.2795  155.1457 H   0  0  0  0  0  0  0  0  0  0  0  0  # atno 10764 bound_to 10752
  154.2906  135.6327  153.5436 H   0  0  0  0  0  0  0  0  0  0  0  0  # atno 10765 bound_to 10752
  139.9882  134.6634  156.0138 H   0  0  0  0  0  0  0  0  0  0  0  0  # atno 11005 bound_to 11000
  144.7147  140.4169  143.7053 LP  0  0  0  0  0  0  0  0  0  0  0  0  # atno 17320 bound_to 7965
  145.6645  139.1587  143.2790 LP  0  0  0  0  0  0  0  0  0  0  0  0  # atno 17321 bound_to 7965
  140.7438  143.6482  150.8273 LP  0  0  0  0  0  0  0  0  0  0  0  0  # atno 17342 bound_to 10162
  140.0107  143.5646  152.2840 LP  0  0  0  0  0  0  0  0  0  0  0  0  # atno 17343 bound_to 10162
  157.5523  131.0944  150.9678 LP  0  0  0  0  0  0  0  0  0  0  0  0  # atno 17370 bound_to 10713
  156.9935  130.5572  149.5305 LP  0  0  0  0  0  0  0  0  0  0  0  0  # atno 17371 bound_to 10713
  141.1543  133.6544  156.4111 LP  0  0  0  0  0  0  0  0  0  0  0  0  # atno 17394 bound_to 11000
  140.4961  134.6530  157.5230 LP  0  0  0  0  0  0  0  0  0  0  0  0  # atno 17395 bound_to 11000

$$$$
