AV-unprocessed.smi:1815|AV-procd|sdf|7361|dock5
  -GOLD-   22720 9 23D 1   1.00000     0.00000
 Structure written by MMmdl.
 39 40  0  0  0  0  0  0  0  0  3 V2000
  149.1731  141.4393  154.5135 C   0  0  0  0  0  0  0  0  0  0  0  0
  149.6445  140.0334  154.9002 C   0  0  1  0  0  0  0  0  0  0  0  0
  148.9182  138.9375  154.0900 C   0  0  0  0  0  0  0  0  0  0  0  0
  149.4659  137.5871  154.3790 N   0  3  2  0  0  0  0  0  0  0  0  0
  149.0217  136.9994  155.6699 C   0  0  0  0  0  0  0  0  0  0  0  0
  149.2514  135.4777  155.7321 C   0  0  0  0  0  0  0  0  0  0  0  0
  149.2328  134.9975  157.1083 N   0  0  0  0  0  0  0  0  0  0  0  0
  148.3318  135.3406  158.0402 C   0  0  0  0  0  0  0  0  0  0  0  0
  147.4177  136.1179  157.7538 O   0  0  0  0  0  0  0  0  0  0  0  0
  148.5503  134.7681  159.2449 N   0  5  0  0  0  0  0  0  0  0  0  0
  147.9127  135.2302  160.3328 C   0  0  0  0  0  0  0  0  0  0  0  0
  147.5707  136.5142  160.4877 N   0  0  0  0  0  0  0  0  0  0  0  0
  146.9112  136.7717  161.6909 C   0  0  0  0  0  0  0  0  0  0  0  0
  146.7397  135.6559  162.4663 C   0  0  0  0  0  0  0  0  0  0  0  0
  147.4057  134.2400  161.7040 S   0  0  0  0  0  0  0  0  0  0  0  0
  150.9385  137.5817  154.2035 C   0  0  0  0  0  0  0  0  0  0  0  0
  151.6044  138.7011  155.0301 C   0  0  1  0  0  0  0  0  0  0  0  0
  153.1177  138.7665  154.7967 C   0  0  0  0  0  0  0  0  0  0  0  0
  151.0435  139.9525  154.6471 O   0  0  0  0  0  0  0  0  0  0  0  0
  148.1057  141.5599  154.6997 H   0  0  0  0  0  0  0  0  0  0  0  0
  149.3542  141.6413  153.4575 H   0  0  0  0  0  0  0  0  0  0  0  0
  149.6983  142.1991  155.0925 H   0  0  0  0  0  0  0  0  0  0  0  0
  149.4649  139.8991  155.9675 H   0  0  0  0  0  0  0  0  0  0  0  0
  147.8449  138.9747  154.2710 H   0  0  0  0  0  0  0  0  0  0  0  0
  149.0505  139.1305  153.0245 H   0  0  0  0  0  0  0  0  0  0  0  0
  149.5883  137.4549  156.4833 H   0  0  0  0  0  0  0  0  0  0  0  0
  147.9766  137.2438  155.8583 H   0  0  0  0  0  0  0  0  0  0  0  0
  148.5054  134.9304  155.1560 H   0  0  0  0  0  0  0  0  0  0  0  0
  150.2205  135.2299  155.2989 H   0  0  0  0  0  0  0  0  0  0  0  0
  149.9621  134.3549  157.3822 H   0  0  0  0  0  0  0  0  0  0  0  0
  146.5971  137.7806  161.9132 H   0  0  0  0  0  0  0  0  0  0  0  0
  146.2644  135.5798  163.4325 H   0  0  0  0  0  0  0  0  0  0  0  0
  151.3510  136.6060  154.4634 H   0  0  0  0  0  0  0  0  0  0  0  0
  151.1557  137.7322  153.1450 H   0  0  0  0  0  0  0  0  0  0  0  0
  151.4290  138.5377  156.0946 H   0  0  0  0  0  0  0  0  0  0  0  0
  153.5987  137.8294  155.0778 H   0  0  0  0  0  0  0  0  0  0  0  0
  153.5691  139.5620  155.3902 H   0  0  0  0  0  0  0  0  0  0  0  0
  153.3489  138.9609  153.7489 H   0  0  0  0  0  0  0  0  0  0  0  0
  149.1001  136.9677  153.6700 H   0  0  0  0  0  0  0  0  0  0  0  0
  1  2  1  0  0  0  0
  1 20  1  0  0  0  0
  1 21  1  0  0  0  0
  1 22  1  0  0  0  0
  2 19  1  0  0  0  0
  2  3  1  0  0  0  0
  2 23  1  0  0  0  0
  3  4  1  0  0  0  0
  3 24  1  0  0  0  0
  3 25  1  0  0  0  0
  4  5  1  0  0  0  0
  4 16  1  0  0  0  0
  4 39  1  0  0  0  0
  5  6  1  0  0  0  0
  5 26  1  0  0  0  0
  5 27  1  0  0  0  0
  6  7  1  0  0  0  0
  6 28  1  0  0  0  0
  6 29  1  0  0  0  0
  7  8  1  0  0  0  0
  7 30  1  0  0  0  0
  8  9  2  0  0  0  0
  8 10  1  0  0  0  0
 10 11  1  0  0  0  0
 11 15  1  0  0  0  0
 11 12  2  0  0  0  0
 12 13  1  0  0  0  0
 13 14  2  0  0  0  0
 13 31  1  0  0  0  0
 14 15  1  0  0  0  0
 14 32  1  0  0  0  0
 16 17  1  0  0  0  0
 16 33  1  0  0  0  0
 16 34  1  0  0  0  0
 17 18  1  0  0  0  0
 17 19  1  0  0  0  0
 17 35  1  0  0  0  0
 18 36  1  0  0  0  0
 18 37  1  0  0  0  0
 18 38  1  0  0  0  0
M  CHG  1   4   1
M  CHG  1  10  -1
M  END
> <s_m_source_file>
AV-unprocessed.smi

> <i_m_source_file_index>
1815

> <i_lp_mmshare_version>
43012

> <i_f3d_flags>
0

> <s_epik_input>
W0NIM11bQ0BASF0xW0NIMl1OKFtDSDJdW0NASF0oTzEpW0NIM10pW0NIMl1bQ0gyXVtOSF1DKD1PKVtOSF1jMm5bY0hdW2NIXXMy

> <s_epik_cmdline>
J2VwaWtfcHl0aG9uJywgJy1waCcsICc3LjAnLCAnLXRuJywgJzgnLCAnLW1hJywgJzIwMCcsICctbWV0YWxfYmluZGluZycsICctaW1hZScsICc8aW5maWxlLm1hZT4nLCAnLW9tYWUnLCAnPG91dGZpbGUubWFlPic=

> <r_lp_tautomer_probability>
0.999

> <r_epik_Ionization_Penalty>
6.71699

> <r_epik_Ionization_Penalty_Charging>
5.88592

> <r_epik_Ionization_Penalty_Neutral>
0.831074

> <r_epik_State_Penalty>
6.08365

> <r_epik_Charging_Adjusted_Penalty>
11.9696

> <i_epik_Tot_Q>
0

> <i_epik_Tot_abs_Q>
2

> <r_epik_Metal_State_Penalty>
2.0947

> <b_epik_Metal_Only>
1

> <s_lp_Force_Field>
OPLS_2005

> <r_lp_Energy>
5.04414

> <b_lp_Chiralities_Consistent>
1

> <s_lp_Variant>
AV-unprocessed.smi:1815-12

> <Gold.Version>
5.8.1

> <Gold.Id.Protein>
6NUR|6NUR_protein|mol2

> <Gold.PLP.Fitness>
47.4893

> <Gold.PLP.PLP>
-33.5025

> <Gold.PLP.part.hbond>
-3.0000

> <Gold.PLP.part.metal>
0.0000

> <Gold.PLP.part.buried>
-1.5644

> <Gold.PLP.part.nonpolar>
-28.5816

> <Gold.PLP.part.repulsive>
0.1536

> <Gold.PLP.ligand.clash>
0.0000

> <Gold.PLP.ligand.torsion>
0.5296

> <Gold.PLP.Chemscore.Hbond>
5.0000

> <Gold.PLP.Chemscore.CHOScore>
0.0000

> <Gold.PLP.Chemscore.Metal>
0.0000

> <Gold.Chemscore.Hbonds>
donor molecule, donor type, donor heavy atom, donor atom, acceptor molecule, acceptor atom, score
      L1  H     4    39       P1  7948  2.00
      P1  H  6896  6907       L1    10  1.56
      P1  H  7989  7998       L1    19  1.00

> <Gold.PLP.Chemscore.Internal.Correction>
0.0460

> <Gold.Rescore>
     Score         DG    S(hbond)    S(metal)    S(lipo)     H(rot)  DE(clash)    DE(int)     intcor
     16.68     -19.42       2.76        0.00      75.56       1.61       0.04       2.70       ----

> <Gold.Chemscore.Fitness>
16.6823

> <Gold.Chemscore.DG>
-19.4232

> <Gold.Chemscore.ZeroCoef>
-5.4800

> <Gold.Chemscore.Hbond>
2.7588

> <Gold.Chemscore.Metal>
0.0000

> <Gold.Chemscore.Lipo>
75.5551

> <Gold.Chemscore.Internal_Hbond>
0.0000

> <Gold.Chemscore.DEClash>
0.0376

> <Gold.Chemscore.DEInternal>
2.7034

> <Gold.Chemscore.Rot>
1.6060

> <Gold.Chemscore.Internal.Correction>
   9.000000E+99

> <Gold.Chemscore.Hbonds>
donor molecule, donor type, donor heavy atom, donor atom, acceptor molecule, acceptor atom, score
      L1  H     4    39       P1  7948  0.96
      P1  H  6896  6907       L1    10  0.52
      P1  H  7989  7998       L1    19  0.93

> <Gold.Chemscore.Hbond.Weighted>
-9.2145

> <Gold.Chemscore.Metal.Weighted>
-0.0000

> <Gold.Chemscore.Lipo.Weighted>
-8.8399

> <Gold.Chemscore.Internal_Hbond.Weighted>
0.0000

> <Gold.Chemscore.DEClash.Weighted>
0.0376

> <Gold.Chemscore.DEInternal.Weighted>
2.7034

> <Gold.Chemscore.Rot.Weighted>
4.1112

> <Gold.Chemscore.Internal.Correction.Weighted>
   9.000000E+99

> <Gold.Protein.RotatedTorsions>
[ 6907 6896 6895 6894 ] final  -81.91 input  -60.11 | X-H torsion
[ 7974 7965 7964 7962 ] final  -79.41 input  175.53 | X-H torsion
[ 8008 7997 7996 7995 ] final  144.36 input   59.86 | X-H torsion
[ 10167 10162 10161 10158 ] final  -98.48 input  -65.29 | X-H torsion
[ 10718 10713 10712 10709 ] final -109.70 input   66.30 | X-H torsion
[ 10763 10752 10751 10750 ] final -120.20 input  -60.55 | X-H torsion
[ 11005 11000 10999 10996 ] final   58.17 input  -57.11 | X-H torsion

> <Gold.Protein.ActiveResidues>
 VAL166  LYS551  ARG553  GLY616  TRP617  ASP618  TYR619  PRO620  LYS621  CYS622 
 ASP623  PHE694  ASN695  SER759  ASP760  ASP761  ALA762  ILE779  LEU786  VAL792 
 PHE793  MET794  SER795  GLU796  ALA797  LYS798  CYS799  TRP800  GLU811  SER814 

> <Gold.Protein.RotatedAtoms>
  150.6905  134.3745  159.5006 H   0  0  0  0  0  0  0  0  0  0  0  0  # atno 6907 bound_to 6896
  152.1556  134.8951  160.0554 H   0  0  0  0  0  0  0  0  0  0  0  0  # atno 6908 bound_to 6896
  152.0032  133.3798  159.4227 H   0  0  0  0  0  0  0  0  0  0  0  0  # atno 6909 bound_to 6896
  145.5736  140.9461  143.1382 H   0  0  0  0  0  0  0  0  0  0  0  0  # atno 7974 bound_to 7965
  156.2910  140.2238  156.5041 H   0  0  0  0  0  0  0  0  0  0  0  0  # atno 8008 bound_to 7997
  154.7664  140.0469  157.1037 H   0  0  0  0  0  0  0  0  0  0  0  0  # atno 8009 bound_to 7997
  154.9927  140.3092  155.4903 H   0  0  0  0  0  0  0  0  0  0  0  0  # atno 8010 bound_to 7997
  140.2725  143.3334  152.0520 H   0  0  0  0  0  0  0  0  0  0  0  0  # atno 10167 bound_to 10162
  156.0551  130.5777  150.8136 H   0  0  0  0  0  0  0  0  0  0  0  0  # atno 10718 bound_to 10713
  154.8638  135.4211  154.2422 H   0  0  0  0  0  0  0  0  0  0  0  0  # atno 10763 bound_to 10752
  153.3385  135.6992  153.6893 H   0  0  0  0  0  0  0  0  0  0  0  0  # atno 10764 bound_to 10752
  153.5881  135.3560  155.2873 H   0  0  0  0  0  0  0  0  0  0  0  0  # atno 10765 bound_to 10752
  140.0397  134.5891  155.9398 H   0  0  0  0  0  0  0  0  0  0  0  0  # atno 11005 bound_to 11000
  144.7426  139.7407  143.7305 LP  0  0  0  0  0  0  0  0  0  0  0  0  # atno 17320 bound_to 7965
  146.1767  139.4940  142.9893 LP  0  0  0  0  0  0  0  0  0  0  0  0  # atno 17321 bound_to 7965
  139.4985  144.6646  151.6385 LP  0  0  0  0  0  0  0  0  0  0  0  0  # atno 17342 bound_to 10162
  140.5878  143.9833  150.6306 LP  0  0  0  0  0  0  0  0  0  0  0  0  # atno 17343 bound_to 10162
  157.5514  131.0944  150.9691 LP  0  0  0  0  0  0  0  0  0  0  0  0  # atno 17370 bound_to 10713
  156.9950  130.5578  149.5306 LP  0  0  0  0  0  0  0  0  0  0  0  0  # atno 17371 bound_to 10713
  141.1876  133.6560  156.5290 LP  0  0  0  0  0  0  0  0  0  0  0  0  # atno 17394 bound_to 11000
  140.4089  134.7290  157.4824 LP  0  0  0  0  0  0  0  0  0  0  0  0  # atno 17395 bound_to 11000

$$$$
