#       Name:                AV-unprocessed.smi:675
#       Creating user name   scv26
#       Creation time:       Fri Mar 27 00:26:35 2020


#       File generated by GOLD software.
#

@<TRIPOS>MOLECULE
AV-unprocessed.smi:675
    35    36     1
SMALL
NO_CHARGES


@<TRIPOS>ATOM
      1 ****        -2.7106   3.7243  -1.1399 O.2            1 S1                 0.0000
      2 ****        -2.2928   2.5681  -1.1572 C.2            1 S1                 0.0000
      3 ****        -2.2878   1.8123   0.0188 N.am           1 S1                 0.0000
      4 ****        -1.8415   0.4959   0.1379 C.2            1 S1                 0.0000
      5 ****        -1.8748  -0.0617   1.2348 O.2            1 S1                 0.0000
      6 ****        -1.3565  -0.1209  -1.0403 N.am           1 S1                 0.0000
      7 ****        -0.8437  -1.4696  -0.9636 C.3            1 S1                 0.0000
      8 ****         0.6945  -1.5413  -0.8259 C.3            1 S1                 0.0000
      9 ****         1.0795  -2.8965  -0.9431 O.3            1 S1                 0.0000
     10 ****         1.2163  -0.8967   0.4585 C.ar           1 S1                 0.0000
     11 ****         1.1422  -1.6203   1.6710 C.ar           1 S1                 0.0000
     12 ****         1.5959  -1.0530   2.8763 C.ar           1 S1                 0.0000
     13 ****         2.1265   0.2492   2.8834 C.ar           1 S1                 0.0000
     14 ****         2.2009   0.9814   1.6845 C.ar           1 S1                 0.0000
     15 ****         1.7490   0.4188   0.4739 C.ar           1 S1                 0.0000
     16 ****         1.8517   1.3804  -0.9599 Cl             1 S1                 0.0000
     17 ****        -1.3421   0.5929  -2.2284 C.2            1 S1                 0.0000
     18 ****        -1.7754   1.8719  -2.3341 C.2            1 S1                 0.0000
     19 ****        -1.7140   2.6957  -3.8507 Cl             1 S1                 0.0000
     20 ****        -2.6337   2.2594   0.8554 H              1 S1                 0.0000
     21 ****        -1.3621  -2.0051  -0.1659 H              1 S1                 0.0000
     22 ****        -1.1666  -1.9441  -1.8922 H              1 S1                 0.0000
     23 ****         1.1426  -1.0502  -1.6883 H              1 S1                 0.0000
     24 ****         2.0232  -2.9379  -0.9732 H              1 S1                 0.0000
     25 ****         0.7269  -2.6173   1.6834 H              1 S1                 0.0000
     26 ****         1.5333  -1.6160   3.7959 H              1 S1                 0.0000
     27 ****         2.4727   0.6876   3.8078 H              1 S1                 0.0000
     28 ****         2.6039   1.9833   1.6951 H              1 S1                 0.0000
     29 ****        -0.9572   0.1081  -3.1144 H              1 S1                 0.0000
     30 ****        -2.7137   4.2675  -1.9795 LP             1 S1                 0.0000
     31 ****        -3.0473   4.1216  -0.2862 LP             1 S1                 0.0000
     32 ****        -2.2205   0.4288   2.0348 LP             1 S1                 0.0000
     33 ****        -1.5562  -1.0051   1.3260 LP             1 S1                 0.0000
     34 ****         0.6977  -3.2844  -1.7820 LP             1 S1                 0.0000
     35 ****         0.7440  -3.4120  -0.1546 LP             1 S1                 0.0000
@<TRIPOS>BOND
    1    1    2 2     
    2    2   18 1     
    3    2    3 1     
    4    3   20 1     
    5    3    4 1     
    6    4    5 2     
    7    4    6 1     
    8    6    7 1     
    9    6   17 1     
   10    7    8 1     
   11    7   21 1     
   12    7   22 1     
   13    8    9 1     
   14    8   10 1     
   15    8   23 1     
   16    9   24 1     
   17   10   15 ar    
   18   10   11 ar    
   19   11   12 ar    
   20   11   25 1     
   21   12   13 ar    
   22   12   26 1     
   23   13   14 ar    
   24   13   27 1     
   25   14   15 ar    
   26   14   28 1     
   27   15   16 1     
   28   17   18 2     
   29   17   29 1     
   30   18   19 1     
   31    1   30 1     
   32    1   31 1     
   33    5   32 1     
   34    5   33 1     
   35    9   34 1     
   36    9   35 1     
@<TRIPOS>SUBSTRUCTURE
      1 S1             1
@<TRIPOS>SET
LONE_PAIRS      STATIC     ATOMS    <user>   **** ""
6 30 31 32 33 34 35
DONOR_HYDROGENS      STATIC     ATOMS    <user>   **** ""
2 20 24
ATOM$BLUE        STATIC     ATOMS    COLORGROUP SYSTEM
6 30 31 32 33 34 35
ATOM$RED        STATIC     ATOMS    COLORGROUP SYSTEM
2 20 24
