AV-unprocessed.smi:224|AV-procd|sdf|1710|dock10
  -GOLD-   2262020173D 1   1.00000     0.00000
 Structure written by MMmdl.
 56 59  0  0  0  0  0  0  0  0  2 V2000
  144.4754  132.6147  150.2105 C   0  0  0  0  0  0  0  0  0  0  0  0
  145.7805  131.9546  150.6737 C   0  0  1  0  0  0  0  0  0  0  0  0
  146.4738  131.4986  149.5297 O   0  0  0  0  0  0  0  0  0  0  0  0
  146.6765  132.9360  151.4566 C   0  0  0  0  0  0  0  0  0  0  0  0
  147.6384  132.2689  152.3775 N   0  3  1  0  0  0  0  0  0  0  0  0
  148.1517  133.2000  153.4171 C   0  0  0  0  0  0  0  0  0  0  0  0
  149.2618  132.5449  154.2576 C   0  0  0  0  0  0  0  0  0  0  0  0
  148.8212  131.2654  154.8077 N   0  0  0  0  0  0  0  0  0  0  0  0
  148.2369  131.2283  156.0362 C   0  0  0  0  0  0  0  0  0  0  0  0
  147.4464  130.1738  156.3726 N   0  0  0  0  0  0  0  0  0  0  0  0
  146.8803  130.1070  157.5805 C   0  0  0  0  0  0  0  0  0  0  0  0
  146.9674  130.9735  158.5899 N   0  0  0  0  0  0  0  0  0  0  0  0
  147.7470  132.0418  158.2591 C   0  0  0  0  0  0  0  0  0  0  0  0
  148.4090  132.2497  157.0153 C   0  0  0  0  0  0  0  0  0  0  0  0
  149.0888  133.4620  157.0434 N   0  0  0  0  0  0  0  0  0  0  0  0
  148.8550  133.9345  158.2369 C   0  0  0  0  0  0  0  0  0  0  0  0
  148.0668  133.1403  159.0381 N   0  0  0  0  0  0  0  0  0  0  0  0
  147.6526  133.4223  160.4045 C   0  0  0  0  0  0  0  0  0  0  0  0
  146.9157  134.7736  160.5603 C   0  0  1  0  0  0  0  0  0  0  0  0
  145.6959  134.7182  159.8399 O   0  0  0  0  0  0  0  0  0  0  0  0
  146.5999  135.1148  162.0105 C   0  0  0  0  0  0  0  0  0  0  0  0
  146.5693  136.6371  161.9966 C   0  0  0  0  0  0  0  0  0  0  0  0
  147.6396  136.9710  161.1290 O   0  0  0  0  0  0  0  0  0  0  0  0
  147.7104  136.0065  160.0821 C   0  0  0  0  0  0  0  0  0  0  0  0
  148.3263  130.3274  153.8021 C   0  0  0  0  0  0  0  0  0  0  0  0
  147.2082  130.9465  152.9326 C   0  0  1  0  0  0  0  0  0  0  0  0
  145.8555  130.9983  153.6748 C   0  0  0  0  0  0  0  0  0  0  0  0
  143.8931  132.9680  151.0620 H   0  0  0  0  0  0  0  0  0  0  0  0
  143.8526  131.9110  149.6570 H   0  0  0  0  0  0  0  0  0  0  0  0
  144.6679  133.4703  149.5621 H   0  0  0  0  0  0  0  0  0  0  0  0
  145.5192  131.0945  151.2890 H   0  0  0  0  0  0  0  0  0  0  0  0
  147.3421  131.2288  149.7877 H   0  0  0  0  0  0  0  0  0  0  0  0
  147.2401  133.5325  150.7373 H   0  0  0  0  0  0  0  0  0  0  0  0
  146.0653  133.6474  152.0125 H   0  0  0  0  0  0  0  0  0  0  0  0
  148.5502  134.0977  152.9434 H   0  0  0  0  0  0  0  0  0  0  0  0
  147.3302  133.5256  154.0560 H   0  0  0  0  0  0  0  0  0  0  0  0
  150.1317  132.3570  153.6274 H   0  0  0  0  0  0  0  0  0  0  0  0
  149.6027  133.2193  155.0442 H   0  0  0  0  0  0  0  0  0  0  0  0
  146.2728  129.2335  157.7656 H   0  0  0  0  0  0  0  0  0  0  0  0
  149.2565  134.8808  158.5700 H   0  0  0  0  0  0  0  0  0  0  0  0
  147.0154  132.6044  160.7436 H   0  0  0  0  0  0  0  0  0  0  0  0
  148.5380  133.4018  161.0412 H   0  0  0  0  0  0  0  0  0  0  0  0
  145.8395  135.0855  158.9810 H   0  0  0  0  0  0  0  0  0  0  0  0
  145.6740  134.6688  162.3766 H   0  0  0  0  0  0  0  0  0  0  0  0
  147.4091  134.7821  162.6622 H   0  0  0  0  0  0  0  0  0  0  0  0
  145.6313  137.0071  161.5797 H   0  0  0  0  0  0  0  0  0  0  0  0
  146.7031  137.0725  162.9869 H   0  0  0  0  0  0  0  0  0  0  0  0
  148.7623  135.7788  159.9145 H   0  0  0  0  0  0  0  0  0  0  0  0
  147.3153  136.4216  159.1538 H   0  0  0  0  0  0  0  0  0  0  0  0
  149.1697  130.0589  153.1649 H   0  0  0  0  0  0  0  0  0  0  0  0
  147.9775  129.3931  154.2383 H   0  0  0  0  0  0  0  0  0  0  0  0
  147.0810  130.2598  152.0969 H   0  0  0  0  0  0  0  0  0  0  0  0
  145.6196  130.0283  154.1135 H   0  0  0  0  0  0  0  0  0  0  0  0
  145.0348  131.2461  153.0023 H   0  0  0  0  0  0  0  0  0  0  0  0
  145.8549  131.7284  154.4833 H   0  0  0  0  0  0  0  0  0  0  0  0
  148.4422  132.0578  151.8031 H   0  0  0  0  0  0  0  0  0  0  0  0
  1  2  1  0  0  0  0
  1 28  1  0  0  0  0
  1 29  1  0  0  0  0
  1 30  1  0  0  0  0
  2  3  1  0  0  0  0
  2  4  1  0  0  0  0
  2 31  1  0  0  0  0
  3 32  1  0  0  0  0
  4  5  1  0  0  0  0
  4 33  1  0  0  0  0
  4 34  1  0  0  0  0
  5 26  1  0  0  0  0
  5  6  1  0  0  0  0
  5 56  1  0  0  0  0
  6  7  1  0  0  0  0
  6 35  1  0  0  0  0
  6 36  1  0  0  0  0
  7  8  1  0  0  0  0
  7 37  1  0  0  0  0
  7 38  1  0  0  0  0
  8  9  1  0  0  0  0
  8 25  1  0  0  0  0
  9 14  1  0  0  0  0
  9 10  2  0  0  0  0
 10 11  1  0  0  0  0
 11 12  2  0  0  0  0
 11 39  1  0  0  0  0
 12 13  1  0  0  0  0
 13 17  1  0  0  0  0
 13 14  2  0  0  0  0
 14 15  1  0  0  0  0
 15 16  2  0  0  0  0
 16 17  1  0  0  0  0
 16 40  1  0  0  0  0
 17 18  1  0  0  0  0
 18 19  1  0  0  0  0
 18 41  1  0  0  0  0
 18 42  1  0  0  0  0
 19 24  1  0  0  0  0
 19 20  1  0  0  0  0
 19 21  1  0  0  0  0
 20 43  1  0  0  0  0
 21 22  1  0  0  0  0
 21 44  1  0  0  0  0
 21 45  1  0  0  0  0
 22 23  1  0  0  0  0
 22 46  1  0  0  0  0
 22 47  1  0  0  0  0
 23 24  1  0  0  0  0
 24 48  1  0  0  0  0
 24 49  1  0  0  0  0
 25 26  1  0  0  0  0
 25 50  1  0  0  0  0
 25 51  1  0  0  0  0
 26 27  1  0  0  0  0
 26 52  1  0  0  0  0
 27 53  1  0  0  0  0
 27 54  1  0  0  0  0
 27 55  1  0  0  0  0
M  CHG  1   5   1
M  END
> <s_m_source_file>
AV-unprocessed.smi

> <i_m_source_file_index>
224

> <i_lp_mmshare_version>
43012

> <i_f3d_flags>
0

> <s_epik_input>
W0NIM11bQ0BIXShbT0hdKVtDSDJdTjFbQ0gyXVtDSDJdTihbQ0gyXVtDQEhdMVtDSDNdKWMobltjSF1uMiljKGMyMyluW2NIXW4zW0NIMl1bQ0BAXTQoW09IXSlbQ0gyXVtDSDJdT1tDSDJdNA==

> <s_epik_cmdline>
J2VwaWtfcHl0aG9uJywgJy1waCcsICc3LjAnLCAnLXRuJywgJzgnLCAnLW1hJywgJzIwMCcsICctbWV0YWxfYmluZGluZycsICctaW1hZScsICc8aW5maWxlLm1hZT4nLCAnLW9tYWUnLCAnPG91dGZpbGUubWFlPic=

> <r_lp_tautomer_probability>
1

> <r_epik_Ionization_Penalty>
0.00516958

> <r_epik_Ionization_Penalty_Charging>
0.00509693

> <r_epik_Ionization_Penalty_Neutral>
7.26542e-05

> <r_epik_State_Penalty>
-0

> <r_epik_Charging_Adjusted_Penalty>
0.00509693

> <i_epik_Tot_Q>
1

> <i_epik_Tot_abs_Q>
1

> <r_epik_Metal_State_Penalty>
-0

> <b_epik_Metal_Only>
0

> <s_lp_Force_Field>
OPLS_2005

> <r_lp_Energy>
49.6762

> <b_lp_Chiralities_Consistent>
1

> <s_lp_Variant>
AV-unprocessed.smi:224-4

> <Gold.Version>
5.8.1

> <Gold.Id.Protein>
6NUR|6NUR_protein|mol2

> <Gold.PLP.Fitness>
43.9878

> <Gold.PLP.PLP>
-34.3937

> <Gold.PLP.part.hbond>
-4.0000

> <Gold.PLP.part.metal>
0.0000

> <Gold.PLP.part.buried>
-2.7225

> <Gold.PLP.part.nonpolar>
-29.2467

> <Gold.PLP.part.repulsive>
0.0133

> <Gold.PLP.ligand.clash>
0.0000

> <Gold.PLP.ligand.torsion>
0.7045

> <Gold.PLP.Chemscore.Hbond>
3.5524

> <Gold.PLP.Chemscore.CHOScore>
0.0000

> <Gold.PLP.Chemscore.Metal>
0.0000

> <Gold.Chemscore.Hbonds>
donor molecule, donor type, donor heavy atom, donor atom, acceptor molecule, acceptor atom, score
      L1  H     3    32       P1 10747  1.00
      L1  H     5    56       P1 10747  0.82
      P1  H  6931  6943       L1    23  0.98
      P1  H  6934  6947       L1    23  0.64

> <Gold.PLP.Chemscore.Internal.Correction>
0.3458

> <Gold.Rescore>
     Score         DG    S(hbond)    S(metal)    S(lipo)     H(rot)  DE(clash)    DE(int)     intcor
     14.16     -17.13       2.77        0.00      86.55       3.02       0.38       2.59       ----

> <Gold.Chemscore.Fitness>
14.1604

> <Gold.Chemscore.DG>
-17.1254

> <Gold.Chemscore.ZeroCoef>
-5.4800

> <Gold.Chemscore.Hbond>
2.7718

> <Gold.Chemscore.Metal>
0.0000

> <Gold.Chemscore.Lipo>
86.5543

> <Gold.Chemscore.Internal_Hbond>
0.0000

> <Gold.Chemscore.DEClash>
0.3794

> <Gold.Chemscore.DEInternal>
2.5856

> <Gold.Chemscore.Rot>
3.0231

> <Gold.Chemscore.Internal.Correction>
   9.000000E+99

> <Gold.Chemscore.Hbonds>
donor molecule, donor type, donor heavy atom, donor atom, acceptor molecule, acceptor atom, score
      L1  H     3    32       P1 10747  1.00
      L1  H     5    56       P1 10747  0.78
      P1  H  6931  6943       L1    23  0.79
      P1  H  6934  6947       L1    23  0.10

> <Gold.Chemscore.Hbond.Weighted>
-9.2577

> <Gold.Chemscore.Metal.Weighted>
-0.0000

> <Gold.Chemscore.Lipo.Weighted>
-10.1268

> <Gold.Chemscore.Internal_Hbond.Weighted>
0.0000

> <Gold.Chemscore.DEClash.Weighted>
0.3794

> <Gold.Chemscore.DEInternal.Weighted>
2.5856

> <Gold.Chemscore.Rot.Weighted>
7.7391

> <Gold.Chemscore.Internal.Correction.Weighted>
   9.000000E+99

> <Gold.Protein.RotatedTorsions>
[ 6907 6896 6895 6894 ] final  118.95 input  -60.11 | X-H torsion
[ 7974 7965 7964 7962 ] final   34.41 input  175.53 | X-H torsion
[ 8008 7997 7996 7995 ] final -173.44 input   59.86 | X-H torsion
[ 10167 10162 10161 10158 ] final  -91.47 input  -65.29 | X-H torsion
[ 10718 10713 10712 10709 ] final  -73.30 input   66.30 | X-H torsion
[ 10763 10752 10751 10750 ] final -178.74 input  -60.55 | X-H torsion
[ 11005 11000 10999 10996 ] final   49.90 input  -57.11 | X-H torsion

> <Gold.Protein.ActiveResidues>
 VAL166  LYS551  ARG553  GLY616  TRP617  ASP618  TYR619  PRO620  LYS621  CYS622 
 ASP623  PHE694  ASN695  SER759  ASP760  ASP761  ALA762  ILE779  LEU786  VAL792 
 PHE793  MET794  SER795  GLU796  ALA797  LYS798  CYS799  TRP800  GLU811  SER814 

> <Gold.Protein.RotatedAtoms>
  152.4507  133.7624  159.6753 H   0  0  0  0  0  0  0  0  0  0  0  0  # atno 6907 bound_to 6896
  150.8418  133.7913  159.3064 H   0  0  0  0  0  0  0  0  0  0  0  0  # atno 6908 bound_to 6896
  151.5536  135.1069  160.0007 H   0  0  0  0  0  0  0  0  0  0  0  0  # atno 6909 bound_to 6896
  146.1354  139.6272  142.9198 H   0  0  0  0  0  0  0  0  0  0  0  0  # atno 7974 bound_to 7965
  155.9575  140.1138  157.0924 H   0  0  0  0  0  0  0  0  0  0  0  0  # atno 8008 bound_to 7997
  154.4124  140.1188  156.5201 H   0  0  0  0  0  0  0  0  0  0  0  0  # atno 8009 bound_to 7997
  155.6763  140.3473  155.4840 H   0  0  0  0  0  0  0  0  0  0  0  0  # atno 8010 bound_to 7997
  140.3446  143.2924  151.9796 H   0  0  0  0  0  0  0  0  0  0  0  0  # atno 10167 bound_to 10162
  156.0286  130.4391  150.2721 H   0  0  0  0  0  0  0  0  0  0  0  0  # atno 10718 bound_to 10713
  154.5438  135.2808  155.1071 H   0  0  0  0  0  0  0  0  0  0  0  0  # atno 10763 bound_to 10752
  154.2543  135.6333  153.5255 H   0  0  0  0  0  0  0  0  0  0  0  0  # atno 10764 bound_to 10752
  152.9985  135.5590  154.5985 H   0  0  0  0  0  0  0  0  0  0  0  0  # atno 10765 bound_to 10752
  140.1063  134.5013  155.8717 H   0  0  0  0  0  0  0  0  0  0  0  0  # atno 11005 bound_to 11000
  145.5167  141.0433  143.2458 LP  0  0  0  0  0  0  0  0  0  0  0  0  # atno 17320 bound_to 7965
  144.7735  139.6683  143.7185 LP  0  0  0  0  0  0  0  0  0  0  0  0  # atno 17321 bound_to 7965
  139.4835  144.6128  151.7402 LP  0  0  0  0  0  0  0  0  0  0  0  0  # atno 17342 bound_to 10162
  140.5277  144.0780  150.6043 LP  0  0  0  0  0  0  0  0  0  0  0  0  # atno 17343 bound_to 10162
  157.0824  131.0147  151.3152 LP  0  0  0  0  0  0  0  0  0  0  0  0  # atno 17370 bound_to 10713
  157.4917  130.7826  149.7514 LP  0  0  0  0  0  0  0  0  0  0  0  0  # atno 17371 bound_to 10713
  141.2119  133.6712  156.6618 LP  0  0  0  0  0  0  0  0  0  0  0  0  # atno 17394 bound_to 11000
  140.3151  134.8054  157.4207 LP  0  0  0  0  0  0  0  0  0  0  0  0  # atno 17395 bound_to 11000

$$$$
