#       Name:                AV-unprocessed.smi:2137
#       Creating user name   scv26
#       Creation time:       Fri Mar 27 11:46:56 2020


#       File generated by GOLD software.
#

@<TRIPOS>MOLECULE
AV-unprocessed.smi:2137
    56    57     1
SMALL
NO_CHARGES


@<TRIPOS>ATOM
      1 ****        -3.5285  -0.0022  -1.9032 C.3            1 S1                 0.0000
      2 ****        -3.3399   1.5249  -1.9025 C.3            1 S1                 0.0000
      3 ****        -4.6346   2.2871  -1.5651 C.3            1 S1                 0.0000
      4 ****        -4.9687   2.1835  -0.0703 C.3            1 S1                 0.0000
      5 ****        -3.7745   2.6182   0.7940 C.3            1 S1                 0.0000
      6 ****        -2.5599   1.8293   0.4637 N.4            1 S1                 1.0000
      7 ****        -1.4328   2.1152   1.3870 C.3            1 S1                 0.0000
      8 ****        -0.4321   0.9500   1.4649 C.3            1 S1                 0.0000
      9 ****         0.6977   1.2153   2.4739 C.3            1 S1                 0.0000
     10 ****         1.6262   0.0932   2.5437 N.am           1 S1                 0.0000
     11 ****         2.5882  -0.1659   1.6452 C.2            1 S1                 0.0000
     12 ****         2.8059   0.5488   0.6657 O.2            1 S1                 0.0000
     13 ****         3.4376  -1.4172   1.9060 C.3            1 S1                 0.0000
     14 ****         3.9504  -2.0284   0.6727 N.am           1 S1                 0.0000
     15 ****         5.2632  -1.8116   0.2946 C.2            1 S1                 0.0000
     16 ****         5.8087  -2.3236  -0.8302 C.2            1 S1                 0.0000
     17 ****         5.0220  -3.1585  -1.7296 C.2            1 S1                 0.0000
     18 ****         5.4685  -3.6278  -2.7772 O.2            1 S1                 0.0000
     19 ****         3.6886  -3.3797  -1.3114 N.am           1 S1                 0.0000
     20 ****         2.8434  -4.1844  -2.1694 C.3            1 S1                 0.0000
     21 ****         3.1175  -2.8257  -0.1427 C.2            1 S1                 0.0000
     22 ****         1.9374  -3.0124   0.1642 O.2            1 S1                 0.0000
     23 ****        -2.1923   1.9691  -0.9721 C.3            1 S1                 0.0000
     24 ****        -3.7859  -0.3824  -0.9147 H              1 S1                 0.0000
     25 ****        -2.6161  -0.5074  -2.2214 H              1 S1                 0.0000
     26 ****        -4.3219  -0.2986  -2.5899 H              1 S1                 0.0000
     27 ****        -3.0595   1.7989  -2.9204 H              1 S1                 0.0000
     28 ****        -4.5108   3.3382  -1.8291 H              1 S1                 0.0000
     29 ****        -5.4661   1.9179  -2.1667 H              1 S1                 0.0000
     30 ****        -5.8367   2.8026   0.1583 H              1 S1                 0.0000
     31 ****        -5.2507   1.1600   0.1789 H              1 S1                 0.0000
     32 ****        -3.5701   3.6806   0.6503 H              1 S1                 0.0000
     33 ****        -4.0309   2.4833   1.8457 H              1 S1                 0.0000
     34 ****        -0.9337   3.0388   1.0903 H              1 S1                 0.0000
     35 ****        -1.8241   2.2866   2.3909 H              1 S1                 0.0000
     36 ****        -0.9595   0.0369   1.7443 H              1 S1                 0.0000
     37 ****         0.0040   0.7646   0.4839 H              1 S1                 0.0000
     38 ****         1.2362   2.1287   2.2156 H              1 S1                 0.0000
     39 ****         0.2805   1.3712   3.4691 H              1 S1                 0.0000
     40 ****         1.5220  -0.5405   3.3233 H              1 S1                 0.0000
     41 ****         4.2658  -1.1351   2.5572 H              1 S1                 0.0000
     42 ****         2.8570  -2.1513   2.4680 H              1 S1                 0.0000
     43 ****         5.8867  -1.1953   0.9260 H              1 S1                 0.0000
     44 ****         6.8401  -2.1095  -1.0698 H              1 S1                 0.0000
     45 ****         2.0561  -4.6565  -1.5804 H              1 S1                 0.0000
     46 ****         3.4427  -4.9753  -2.6228 H              1 S1                 0.0000
     47 ****         2.4291  -3.5141  -2.9237 H              1 S1                 0.0000
     48 ****        -1.3002   1.3874  -1.2011 H              1 S1                 0.0000
     49 ****        -1.9387   3.0113  -1.1729 H              1 S1                 0.0000
     50 ****        -2.8077   0.8610   0.6098 H              1 S1                 0.0000
     51 ****         2.2524   1.3672   0.5109 LP             1 S1                 0.0000
     52 ****         3.5361   0.3106   0.0253 LP             1 S1                 0.0000
     53 ****         6.4136  -3.4414  -3.0458 LP             1 S1                 0.0000
     54 ****         4.8860  -4.1952  -3.3592 LP             1 S1                 0.0000
     55 ****         1.5652  -2.5981   0.9947 LP             1 S1                 0.0000
     56 ****         1.3530  -3.5780  -0.4176 LP             1 S1                 0.0000
@<TRIPOS>BOND
    1    1    2 1     
    2    1   24 1     
    3    1   25 1     
    4    1   26 1     
    5    2   23 1     
    6    2    3 1     
    7    2   27 1     
    8    3    4 1     
    9    3   28 1     
   10    3   29 1     
   11    4    5 1     
   12    4   30 1     
   13    4   31 1     
   14    5    6 1     
   15    5   32 1     
   16    5   33 1     
   17    6    7 1     
   18    6   23 1     
   19    6   50 1     
   20    7    8 1     
   21    7   34 1     
   22    7   35 1     
   23    8    9 1     
   24    8   36 1     
   25    8   37 1     
   26    9   10 1     
   27    9   38 1     
   28    9   39 1     
   29   10   11 am    
   30   10   40 1     
   31   11   12 2     
   32   11   13 1     
   33   13   14 1     
   34   13   41 1     
   35   13   42 1     
   36   14   21 am    
   37   14   15 1     
   38   15   16 2     
   39   15   43 1     
   40   16   17 1     
   41   16   44 1     
   42   17   18 2     
   43   17   19 am    
   44   19   20 1     
   45   19   21 am    
   46   20   45 1     
   47   20   46 1     
   48   20   47 1     
   49   21   22 2     
   50   23   48 1     
   51   23   49 1     
   52   12   51 1     
   53   12   52 1     
   54   18   53 1     
   55   18   54 1     
   56   22   55 1     
   57   22   56 1     
@<TRIPOS>SUBSTRUCTURE
      1 S1             1
@<TRIPOS>SET
LONE_PAIRS      STATIC     ATOMS    <user>   **** ""
6 51 52 53 54 55 56
DONOR_HYDROGENS      STATIC     ATOMS    <user>   **** ""
2 50 40
ATOM$BLUE        STATIC     ATOMS    COLORGROUP SYSTEM
6 51 52 53 54 55 56
ATOM$RED        STATIC     ATOMS    COLORGROUP SYSTEM
2 50 40
