AV-unprocessed.smi:1683|AV-procd|sdf|6748|dock2
  -GOLD-   22720 7503D 1   1.00000     0.00000
 Structure written by MMmdl.
 36 37  0  0  0  0  0  0  0  0  1 V2000
  144.5827  137.3916  152.7702 O   0  0  0  0  0  0  0  0  0  0  0  0
  145.7584  137.1063  152.5420 C   0  0  0  0  0  0  0  0  0  0  0  0
  146.7991  137.8220  152.9917 N   0  0  0  0  0  0  0  0  0  0  0  0
  146.7114  139.0394  153.7936 C   0  0  0  0  0  0  0  0  0  0  0  0
  147.9526  139.9335  153.6113 C   0  0  1  0  0  0  0  0  0  0  0  0
  147.7765  141.3756  154.0851 C   0  0  0  0  0  0  0  0  0  0  0  0
  149.1437  141.7313  154.6533 C   0  0  0  0  0  0  0  0  0  0  0  0
  149.5231  140.4968  155.3249 N   0  0  0  0  0  0  0  0  0  0  0  0
  150.9314  140.4377  155.7115 C   0  0  0  0  0  0  0  0  0  0  0  0
  151.2158  141.0903  157.0782 C   0  0  0  0  0  0  0  0  0  0  0  0
  151.0837  142.4101  156.9534 F   0  0  0  0  0  0  0  0  0  0  0  0
  150.3566  140.6743  158.0082 F   0  0  0  0  0  0  0  0  0  0  0  0
  152.4608  140.8253  157.4747 F   0  0  0  0  0  0  0  0  0  0  0  0
  149.1865  139.4348  154.3809 C   0  0  0  0  0  0  0  0  0  0  0  0
  146.1692  136.0524  151.8179 N   0  0  0  0  0  0  0  0  0  0  0  0
  145.3601  135.0890  151.1637 C   0  0  0  0  0  0  0  0  0  0  0  0
  145.7599  133.7551  150.8793 C   0  0  0  0  0  0  0  0  0  0  0  0
  144.8004  133.0844  150.2582 N   0  0  0  0  0  0  0  0  0  0  0  0
  143.7924  133.9781  150.1417 N   0  0  0  0  0  0  0  0  0  0  0  0
  144.0883  135.2117  150.6785 C   0  0  0  0  0  0  0  0  0  0  0  0
  142.9182  133.7343  149.6981 H   0  0  0  0  0  0  0  0  0  0  0  0
  147.7273  137.5062  152.7519 H   0  0  0  0  0  0  0  0  0  0  0  0
  145.8017  139.5981  153.5668 H   0  0  0  0  0  0  0  0  0  0  0  0
  146.6297  138.7394  154.8385 H   0  0  0  0  0  0  0  0  0  0  0  0
  148.2130  139.9490  152.5517 H   0  0  0  0  0  0  0  0  0  0  0  0
  147.4661  142.0472  153.2843 H   0  0  0  0  0  0  0  0  0  0  0  0
  147.0307  141.4342  154.8791 H   0  0  0  0  0  0  0  0  0  0  0  0
  149.8458  141.9648  153.8510 H   0  0  0  0  0  0  0  0  0  0  0  0
  149.0924  142.5794  155.3357 H   0  0  0  0  0  0  0  0  0  0  0  0
  151.2150  139.3861  155.7723 H   0  0  0  0  0  0  0  0  0  0  0  0
  151.5570  140.8852  154.9377 H   0  0  0  0  0  0  0  0  0  0  0  0
  149.0116  138.4946  154.9055 H   0  0  0  0  0  0  0  0  0  0  0  0
  150.0081  139.2772  153.6801 H   0  0  0  0  0  0  0  0  0  0  0  0
  147.1661  135.9285  151.7187 H   0  0  0  0  0  0  0  0  0  0  0  0
  146.6950  133.2613  151.0985 H   0  0  0  0  0  0  0  0  0  0  0  0
  143.3867  136.0325  150.6627 H   0  0  0  0  0  0  0  0  0  0  0  0
  1  2  2  0  0  0  0
  2  3  1  0  0  0  0
  2 15  1  0  0  0  0
  3  4  1  0  0  0  0
  3 22  1  0  0  0  0
  4  5  1  0  0  0  0
  4 23  1  0  0  0  0
  4 24  1  0  0  0  0
  5 14  1  0  0  0  0
  5  6  1  0  0  0  0
  5 25  1  0  0  0  0
  6  7  1  0  0  0  0
  6 26  1  0  0  0  0
  6 27  1  0  0  0  0
  7  8  1  0  0  0  0
  7 28  1  0  0  0  0
  7 29  1  0  0  0  0
  8  9  1  0  0  0  0
  8 14  1  0  0  0  0
  9 10  1  0  0  0  0
  9 30  1  0  0  0  0
  9 31  1  0  0  0  0
 10 11  1  0  0  0  0
 10 12  1  0  0  0  0
 10 13  1  0  0  0  0
 14 32  1  0  0  0  0
 14 33  1  0  0  0  0
 15 16  1  0  0  0  0
 15 34  1  0  0  0  0
 16 20  2  0  0  0  0
 16 17  1  0  0  0  0
 17 18  2  0  0  0  0
 17 35  1  0  0  0  0
 18 19  1  0  0  0  0
 19 21  1  0  0  0  0
 19 20  1  0  0  0  0
 20 36  1  0  0  0  0
M  END
> <s_m_source_file>
AV-unprocessed.smi

> <i_m_source_file_index>
1683

> <i_lp_mmshare_version>
43012

> <i_f3d_flags>
0

> <s_epik_input>
W2NIXTFbbkhdbltjSF1jMVtOSF1DKD1PKVtOSF1bQ0gyXVtDQEBIXTJbQ0gyXVtDSDJdTihbQ0gyXTIpW0NIMl1DKEYpKEYpRg==

> <s_epik_cmdline>
J2VwaWtfcHl0aG9uJywgJy1waCcsICc3LjAnLCAnLXRuJywgJzgnLCAnLW1hJywgJzIwMCcsICctbWV0YWxfYmluZGluZycsICctaW1hZScsICc8aW5maWxlLm1hZT4nLCAnLW9tYWUnLCAnPG91dGZpbGUubWFlPic=

> <r_lp_tautomer_probability>
0.5

> <r_epik_Ionization_Penalty>
0.244885

> <r_epik_Ionization_Penalty_Charging>
0

> <r_epik_Ionization_Penalty_Neutral>
0.244885

> <r_epik_State_Penalty>
0.235951

> <r_epik_Charging_Adjusted_Penalty>
0.235951

> <i_epik_Tot_Q>
0

> <i_epik_Tot_abs_Q>
0

> <r_epik_Metal_State_Penalty>
0.23595

> <b_epik_Metal_Only>
0

> <s_lp_Force_Field>
OPLS_2005

> <r_lp_Energy>
31.7206

> <b_lp_Chiralities_Consistent>
1

> <s_lp_Variant>
AV-unprocessed.smi:1683-2

> <Gold.Version>
5.8.1

> <Gold.Id.Protein>
6NUR|6NUR_protein|mol2

> <Gold.PLP.Fitness>
43.6312

> <Gold.PLP.PLP>
-33.4385

> <Gold.PLP.part.hbond>
-3.0000

> <Gold.PLP.part.metal>
0.0000

> <Gold.PLP.part.buried>
-3.7748

> <Gold.PLP.part.nonpolar>
-28.1476

> <Gold.PLP.part.repulsive>
1.2557

> <Gold.PLP.ligand.clash>
0.0000

> <Gold.PLP.ligand.torsion>
0.8295

> <Gold.PLP.Chemscore.Hbond>
2.7454

> <Gold.PLP.Chemscore.CHOScore>
1.0000

> <Gold.PLP.Chemscore.Metal>
0.0000

> <Gold.Chemscore.Hbonds>
donor molecule, donor type, donor heavy atom, donor atom, acceptor molecule, acceptor atom, score
      L1  H     3    22       P1  7948  1.00
      L1  H    15    34       P1  7948  1.00
      L1  H    19    21       P1 10186  0.79
      L1  C    20    36       P1 10171  0.52

> <Gold.PLP.Chemscore.Internal.Correction>
0.6154

> <Gold.Rescore>
     Score         DG    S(hbond)    S(metal)    S(lipo)     H(rot)  DE(clash)    DE(int)     intcor
     16.20     -17.41       2.80        0.00      60.94       1.78       0.17       1.04       ----

> <Gold.Chemscore.Fitness>
16.1996

> <Gold.Chemscore.DG>
-17.4074

> <Gold.Chemscore.ZeroCoef>
-5.4800

> <Gold.Chemscore.Hbond>
2.8002

> <Gold.Chemscore.Metal>
0.0000

> <Gold.Chemscore.Lipo>
60.9397

> <Gold.Chemscore.Internal_Hbond>
0.0000

> <Gold.Chemscore.DEClash>
0.1689

> <Gold.Chemscore.DEInternal>
1.0389

> <Gold.Chemscore.Rot>
1.7793

> <Gold.Chemscore.Internal.Correction>
   9.000000E+99

> <Gold.Chemscore.Hbonds>
donor molecule, donor type, donor heavy atom, donor atom, acceptor molecule, acceptor atom, score
      L1  H     3    22       P1  7948  0.95
      L1  H    15    34       P1  7948  1.00
      L1  H    19    21       P1 10186  0.73

> <Gold.Chemscore.Hbond.Weighted>
-9.3526

> <Gold.Chemscore.Metal.Weighted>
-0.0000

> <Gold.Chemscore.Lipo.Weighted>
-7.1299

> <Gold.Chemscore.Internal_Hbond.Weighted>
0.0000

> <Gold.Chemscore.DEClash.Weighted>
0.1689

> <Gold.Chemscore.DEInternal.Weighted>
1.0389

> <Gold.Chemscore.Rot.Weighted>
4.5551

> <Gold.Chemscore.Internal.Correction.Weighted>
   9.000000E+99

> <Gold.Protein.RotatedTorsions>
[ 6907 6896 6895 6894 ] final  -79.56 input  -60.11 | X-H torsion
[ 7974 7965 7964 7962 ] final  -93.98 input  175.53 | X-H torsion
[ 8008 7997 7996 7995 ] final  -37.71 input   59.86 | X-H torsion
[ 10167 10162 10161 10158 ] final -169.63 input  -65.29 | X-H torsion
[ 10718 10713 10712 10709 ] final -163.86 input   66.30 | X-H torsion
[ 10763 10752 10751 10750 ] final  119.69 input  -60.55 | X-H torsion
[ 11005 11000 10999 10996 ] final   -1.69 input  -57.11 | X-H torsion

> <Gold.Protein.ActiveResidues>
 VAL166  LYS551  ARG553  GLY616  TRP617  ASP618  TYR619  PRO620  LYS621  CYS622 
 ASP623  PHE694  ASN695  SER759  ASP760  ASP761  ALA762  ILE779  LEU786  VAL792 
 PHE793  MET794  SER795  GLU796  ALA797  LYS798  CYS799  TRP800  GLU811  SER814 

> <Gold.Protein.RotatedAtoms>
  150.6947  134.4102  159.5158 H   0  0  0  0  0  0  0  0  0  0  0  0  # atno 6907 bound_to 6896
  152.1862  134.8709  160.0531 H   0  0  0  0  0  0  0  0  0  0  0  0  # atno 6908 bound_to 6896
  151.9681  133.3682  159.4097 H   0  0  0  0  0  0  0  0  0  0  0  0  # atno 6909 bound_to 6896
  145.3793  140.9515  143.2403 H   0  0  0  0  0  0  0  0  0  0  0  0  # atno 7974 bound_to 7965
  154.4049  140.1597  156.2580 H   0  0  0  0  0  0  0  0  0  0  0  0  # atno 8008 bound_to 7997
  155.9061  140.3430  155.6040 H   0  0  0  0  0  0  0  0  0  0  0  0  # atno 8009 bound_to 7997
  155.7391  140.0790  157.2244 H   0  0  0  0  0  0  0  0  0  0  0  0  # atno 8010 bound_to 7997
  139.5911  144.1212  152.1635 H   0  0  0  0  0  0  0  0  0  0  0  0  # atno 10167 bound_to 10162
  156.6307  130.8928  151.2977 H   0  0  0  0  0  0  0  0  0  0  0  0  # atno 10718 bound_to 10713
  153.5869  135.3473  155.2896 H   0  0  0  0  0  0  0  0  0  0  0  0  # atno 10763 bound_to 10752
  154.8659  135.4195  154.2559 H   0  0  0  0  0  0  0  0  0  0  0  0  # atno 10764 bound_to 10752
  153.3357  135.7047  153.6980 H   0  0  0  0  0  0  0  0  0  0  0  0  # atno 10765 bound_to 10752
  140.6501  133.9412  155.8375 H   0  0  0  0  0  0  0  0  0  0  0  0  # atno 11005 bound_to 11000
  144.8519  139.5308  143.6852 LP  0  0  0  0  0  0  0  0  0  0  0  0  # atno 17320 bound_to 7965
  146.2849  139.6978  142.9202 LP  0  0  0  0  0  0  0  0  0  0  0  0  # atno 17321 bound_to 7965
  140.0787  144.5719  150.7138 LP  0  0  0  0  0  0  0  0  0  0  0  0  # atno 17342 bound_to 10162
  140.7173  143.2556  151.4392 LP  0  0  0  0  0  0  0  0  0  0  0  0  # atno 17343 bound_to 10162
  157.7201  130.9547  150.1404 LP  0  0  0  0  0  0  0  0  0  0  0  0  # atno 17370 bound_to 10713
  156.2237  130.3676  149.8526 LP  0  0  0  0  0  0  0  0  0  0  0  0  # atno 17371 bound_to 10713
  141.0543  134.0439  157.3743 LP  0  0  0  0  0  0  0  0  0  0  0  0  # atno 17394 bound_to 11000
  139.9049  135.0176  156.7439 LP  0  0  0  0  0  0  0  0  0  0  0  0  # atno 17395 bound_to 11000

$$$$
