AV-unprocessed.smi:1790|AV-procd|sdf|7217|dock6
  -GOLD-   22720 8463D 1   1.00000     0.00000
 Structure written by MMmdl.
 32 33  0  0  0  0  0  0  0  0  2 V2000
  154.6904  141.3161  161.7853 O   0  0  0  0  0  0  0  0  0  0  0  0
  154.6850  140.3564  161.0155 C   0  0  0  0  0  0  0  0  0  0  0  0
  155.5619  139.1462  161.3331 C   0  0  0  0  0  0  0  0  0  0  0  0
  154.7308  138.0348  161.6285 O   0  0  0  0  0  0  0  0  0  0  0  0
  155.2732  137.1991  162.6353 C   0  0  0  0  0  0  0  0  0  0  0  0
  154.1640  136.3485  163.2157 C   0  0  0  0  0  0  0  0  0  0  0  0
  153.6930  136.5618  164.6363 C   0  0  0  0  0  0  0  0  0  0  0  0
  154.4674  135.3185  164.2801 C   0  0  0  0  0  0  0  0  0  0  0  0
  153.9370  140.2498  159.8992 N   0  0  0  0  0  0  0  0  0  0  0  0
  153.0408  141.1654  159.3204 C   0  0  0  0  0  0  0  0  0  0  0  0
  152.7031  142.3732  159.8523 C   0  0  0  0  0  0  0  0  0  0  0  0
  151.7717  143.2824  159.1958 C   0  0  0  0  0  0  0  0  0  0  0  0
  151.4339  144.6674  159.7192 C   0  0  0  0  0  0  0  0  0  0  0  0
  151.9520  144.8610  160.9323 F   0  0  0  0  0  0  0  0  0  0  0  0
  151.9314  145.5949  158.9025 F   0  0  0  0  0  0  0  0  0  0  0  0
  150.1143  144.8425  159.7928 F   0  0  0  0  0  0  0  0  0  0  0  0
  151.3170  142.7859  157.9896 C   0  0  0  0  0  0  0  0  0  0  0  0
  151.5925  141.6029  157.3985 N   0  5  0  0  0  0  0  0  0  0  0  0
  152.4589  140.7573  158.0246 C   0  0  0  0  0  0  0  0  0  0  0  0
  152.7623  139.6687  157.5351 O   0  0  0  0  0  0  0  0  0  0  0  0
  156.2081  138.9221  160.4825 H   0  0  0  0  0  0  0  0  0  0  0  0
  156.2004  139.3838  162.1855 H   0  0  0  0  0  0  0  0  0  0  0  0
  156.0393  136.5465  162.2143 H   0  0  0  0  0  0  0  0  0  0  0  0
  155.7340  137.7955  163.4245 H   0  0  0  0  0  0  0  0  0  0  0  0
  153.4011  136.0677  162.4921 H   0  0  0  0  0  0  0  0  0  0  0  0
  154.2020  137.3180  165.2310 H   0  0  0  0  0  0  0  0  0  0  0  0
  152.6281  136.4545  164.8321 H   0  0  0  0  0  0  0  0  0  0  0  0
  153.9195  134.3792  164.2409 H   0  0  0  0  0  0  0  0  0  0  0  0
  155.4921  135.2456  164.6393 H   0  0  0  0  0  0  0  0  0  0  0  0
  154.0084  139.3730  159.4032 H   0  0  0  0  0  0  0  0  0  0  0  0
  153.1273  142.7089  160.7834 H   0  0  0  0  0  0  0  0  0  0  0  0
  150.6317  143.4405  157.4101 H   0  0  0  0  0  0  0  0  0  0  0  0
  1  2  2  0  0  0  0
  2  3  1  0  0  0  0
  2  9  1  0  0  0  0
  3  4  1  0  0  0  0
  3 21  1  0  0  0  0
  3 22  1  0  0  0  0
  4  5  1  0  0  0  0
  5  6  1  0  0  0  0
  5 23  1  0  0  0  0
  5 24  1  0  0  0  0
  6  8  1  0  0  0  0
  6  7  1  0  0  0  0
  6 25  1  0  0  0  0
  7  8  1  0  0  0  0
  7 26  1  0  0  0  0
  7 27  1  0  0  0  0
  8 28  1  0  0  0  0
  8 29  1  0  0  0  0
  9 10  1  0  0  0  0
  9 30  1  0  0  0  0
 10 19  1  0  0  0  0
 10 11  2  0  0  0  0
 11 12  1  0  0  0  0
 11 31  1  0  0  0  0
 12 13  1  0  0  0  0
 12 17  2  0  0  0  0
 13 14  1  0  0  0  0
 13 15  1  0  0  0  0
 13 16  1  0  0  0  0
 17 18  1  0  0  0  0
 17 32  1  0  0  0  0
 18 19  1  0  0  0  0
 19 20  2  0  0  0  0
M  CHG  1  18  -1
M  END
> <s_m_source_file>
AV-unprocessed.smi

> <i_m_source_file_index>
1790

> <i_lp_mmshare_version>
43012

> <i_f3d_flags>
0

> <s_epik_input>
W0NIMl0xW0NIMl1bQ0hdMVtDSDJdT1tDSDJdQyg9TylbTkhdYzJbY0hdYyhDKEYpKEYpRilbY0hdW25IXWMyPU8=

> <s_epik_cmdline>
J2VwaWtfcHl0aG9uJywgJy1waCcsICc3LjAnLCAnLXRuJywgJzgnLCAnLW1hJywgJzIwMCcsICctbWV0YWxfYmluZGluZycsICctaW1hZScsICc8aW5maWxlLm1hZT4nLCAnLW9tYWUnLCAnPG91dGZpbGUubWFlPic=

> <r_epik_Ionization_Penalty>
2.6027

> <r_epik_Ionization_Penalty_Charging>
0.0561891

> <r_epik_Ionization_Penalty_Neutral>
2.54651

> <r_epik_State_Penalty>
2.71477

> <r_epik_Charging_Adjusted_Penalty>
2.77096

> <i_epik_Tot_Q>
-1

> <i_epik_Tot_abs_Q>
1

> <r_epik_Metal_State_Penalty>
0.521168

> <b_epik_Metal_Only>
0

> <s_lp_Force_Field>
OPLS_2005

> <r_lp_Energy>
28.814

> <b_lp_Chiralities_Consistent>
1

> <s_lp_Variant>
AV-unprocessed.smi:1790-2

> <Gold.Version>
5.8.1

> <Gold.Id.Protein>
6NUR|6NUR_protein|mol2

> <Gold.PLP.Fitness>
44.6870

> <Gold.PLP.PLP>
-42.7528

> <Gold.PLP.part.hbond>
-2.0000

> <Gold.PLP.part.metal>
0.0000

> <Gold.PLP.part.buried>
-1.8643

> <Gold.PLP.part.nonpolar>
-36.9531

> <Gold.PLP.part.repulsive>
0.0937

> <Gold.PLP.ligand.clash>
0.0000

> <Gold.PLP.ligand.torsion>
0.8583

> <Gold.PLP.Chemscore.Hbond>
1.0000

> <Gold.PLP.Chemscore.CHOScore>
0.0000

> <Gold.PLP.Chemscore.Metal>
0.0000

> <Gold.Chemscore.Hbonds>
donor molecule, donor type, donor heavy atom, donor atom, acceptor molecule, acceptor atom, score
      P1  H  7997  8009       L1    20  1.00

> <Gold.PLP.Chemscore.Internal.Correction>
0.6508

> <Gold.Rescore>
     Score         DG    S(hbond)    S(metal)    S(lipo)     H(rot)  DE(clash)    DE(int)     intcor
     10.21     -14.07       0.86        0.00      88.97       1.83       1.95       1.90       ----

> <Gold.Chemscore.Fitness>
10.2126

> <Gold.Chemscore.DG>
-14.0697

> <Gold.Chemscore.ZeroCoef>
-5.4800

> <Gold.Chemscore.Hbond>
0.8599

> <Gold.Chemscore.Metal>
0.0000

> <Gold.Chemscore.Lipo>
88.9667

> <Gold.Chemscore.Internal_Hbond>
0.0000

> <Gold.Chemscore.DEClash>
1.9522

> <Gold.Chemscore.DEInternal>
1.9048

> <Gold.Chemscore.Rot>
1.8326

> <Gold.Chemscore.Internal.Correction>
   9.000000E+99

> <Gold.Chemscore.Hbonds>
donor molecule, donor type, donor heavy atom, donor atom, acceptor molecule, acceptor atom, score
      P1  H  7997  8009       L1    20  0.25

> <Gold.Chemscore.Hbond.Weighted>
-2.8721

> <Gold.Chemscore.Metal.Weighted>
-0.0000

> <Gold.Chemscore.Lipo.Weighted>
-10.4091

> <Gold.Chemscore.Internal_Hbond.Weighted>
0.0000

> <Gold.Chemscore.DEClash.Weighted>
1.9522

> <Gold.Chemscore.DEInternal.Weighted>
1.9048

> <Gold.Chemscore.Rot.Weighted>
4.6916

> <Gold.Chemscore.Internal.Correction.Weighted>
   9.000000E+99

> <Gold.Protein.RotatedTorsions>
[ 6907 6896 6895 6894 ] final   74.66 input  -60.11 | X-H torsion
[ 7974 7965 7964 7962 ] final  138.90 input  175.53 | X-H torsion
[ 8008 7997 7996 7995 ] final  154.36 input   59.86 | X-H torsion
[ 10167 10162 10161 10158 ] final  -42.47 input  -65.29 | X-H torsion
[ 10718 10713 10712 10709 ] final  145.39 input   66.30 | X-H torsion
[ 10763 10752 10751 10750 ] final  -42.09 input  -60.55 | X-H torsion
[ 11005 11000 10999 10996 ] final   38.57 input  -57.11 | X-H torsion

> <Gold.Protein.ActiveResidues>
 VAL166  LYS551  ARG553  GLY616  TRP617  ASP618  TYR619  PRO620  LYS621  CYS622 
 ASP623  PHE694  ASN695  SER759  ASP760  ASP761  ALA762  ILE779  LEU786  VAL792 
 PHE793  MET794  SER795  GLU796  ALA797  LYS798  CYS799  TRP800  GLU811  SER814 

> <Gold.Protein.RotatedAtoms>
  152.4987  134.4238  159.9489 H   0  0  0  0  0  0  0  0  0  0  0  0  # atno 6907 bound_to 6896
  151.4212  133.3691  159.2764 H   0  0  0  0  0  0  0  0  0  0  0  0  # atno 6908 bound_to 6896
  150.9221  134.8661  159.7555 H   0  0  0  0  0  0  0  0  0  0  0  0  # atno 6909 bound_to 6896
  144.9329  139.5025  143.5609 H   0  0  0  0  0  0  0  0  0  0  0  0  # atno 7974 bound_to 7965
  156.2535  140.1969  156.6634 H   0  0  0  0  0  0  0  0  0  0  0  0  # atno 8008 bound_to 7997
  154.6447  140.0579  156.9912 H   0  0  0  0  0  0  0  0  0  0  0  0  # atno 8009 bound_to 7997
  155.1508  140.3251  155.4434 H   0  0  0  0  0  0  0  0  0  0  0  0  # atno 8010 bound_to 7997
  140.6968  143.3036  151.3214 H   0  0  0  0  0  0  0  0  0  0  0  0  # atno 10167 bound_to 10162
  157.3459  131.0943  151.1042 H   0  0  0  0  0  0  0  0  0  0  0  0  # atno 10718 bound_to 10713
  153.9732  135.6726  153.4747 H   0  0  0  0  0  0  0  0  0  0  0  0  # atno 10763 bound_to 10752
  153.0783  135.4937  154.8446 H   0  0  0  0  0  0  0  0  0  0  0  0  # atno 10764 bound_to 10752
  154.7207  135.3116  154.9013 H   0  0  0  0  0  0  0  0  0  0  0  0  # atno 10765 bound_to 10752
  140.2113  134.3752  155.8048 H   0  0  0  0  0  0  0  0  0  0  0  0  # atno 11005 bound_to 11000
  146.3254  139.8292  142.8911 LP  0  0  0  0  0  0  0  0  0  0  0  0  # atno 17320 bound_to 7965
  145.3113  141.0220  143.3553 LP  0  0  0  0  0  0  0  0  0  0  0  0  # atno 17321 bound_to 7965
  139.6433  144.0498  152.2571 LP  0  0  0  0  0  0  0  0  0  0  0  0  # atno 17342 bound_to 10162
  140.0011  144.6293  150.7729 LP  0  0  0  0  0  0  0  0  0  0  0  0  # atno 17343 bound_to 10162
  157.2236  130.6493  149.5821 LP  0  0  0  0  0  0  0  0  0  0  0  0  # atno 17370 bound_to 10713
  155.9714  130.4621  150.6134 LP  0  0  0  0  0  0  0  0  0  0  0  0  # atno 17371 bound_to 10713
  141.2226  133.7144  156.8422 LP  0  0  0  0  0  0  0  0  0  0  0  0  # atno 17394 bound_to 11000
  140.1948  134.8939  157.3102 LP  0  0  0  0  0  0  0  0  0  0  0  0  # atno 17395 bound_to 11000

$$$$
