AV-unprocessed.smi:3261|AV-procd|sdf|12479|dock2
  -GOLD-   2272018383D 1   1.00000     0.00000
 Structure written by MMmdl.
 30 31  0  0  0  0  0  0  0  0  1 V2000
  144.7123  136.5081  152.7553 O   0  0  0  0  0  0  0  0  0  0  0  0
  145.8741  136.4403  152.3607 C   0  0  0  0  0  0  0  0  0  0  0  0
  146.3828  135.4273  151.6309 N   0  0  0  0  0  0  0  0  0  0  0  0
  145.7283  134.2785  151.1091 C   0  0  0  0  0  0  0  0  0  0  0  0
  146.5387  133.2158  150.6586 C   0  0  0  0  0  0  0  0  0  0  0  0
  145.9203  132.0706  150.1189 C   0  0  0  0  0  0  0  0  0  0  0  0
  144.5828  131.9366  150.0008 N   0  0  0  0  0  0  0  0  0  0  0  0
  143.8086  132.9594  150.4208 C   0  0  0  0  0  0  0  0  0  0  0  0
  144.3247  134.1475  150.9757 C   0  0  0  0  0  0  0  0  0  0  0  0
  146.7665  137.3986  152.6698 N   0  0  0  0  0  0  0  0  0  0  0  0
  146.5507  138.6237  153.4416 C   0  0  1  0  0  0  0  0  0  0  0  0
  147.3007  138.5683  154.7855 C   0  0  0  0  0  0  0  0  0  0  0  0
  147.3400  139.9794  155.3849 C   0  0  0  0  0  0  0  0  0  0  0  0
  147.3635  141.1365  153.9631 S   0  0  0  0  0  0  0  0  0  0  0  0
  146.2048  142.0367  154.0627 O   0  0  0  0  0  0  0  0  0  0  0  0
  148.7224  141.6681  153.7796 O   0  0  0  0  0  0  0  0  0  0  0  0
  147.0391  139.8678  152.6822 C   0  0  0  0  0  0  0  0  0  0  0  0
  147.3756  135.4709  151.4547 H   0  0  0  0  0  0  0  0  0  0  0  0
  147.6154  133.2708  150.7265 H   0  0  0  0  0  0  0  0  0  0  0  0
  146.5169  131.2405  149.7705 H   0  0  0  0  0  0  0  0  0  0  0  0
  142.7426  132.8305  150.3057 H   0  0  0  0  0  0  0  0  0  0  0  0
  143.6390  134.9264  151.2702 H   0  0  0  0  0  0  0  0  0  0  0  0
  147.7132  137.2435  152.3536 H   0  0  0  0  0  0  0  0  0  0  0  0
  145.4897  138.7427  153.6689 H   0  0  0  0  0  0  0  0  0  0  0  0
  146.8473  137.8550  155.4746 H   0  0  0  0  0  0  0  0  0  0  0  0
  148.3253  138.2350  154.6123 H   0  0  0  0  0  0  0  0  0  0  0  0
  146.4386  140.1783  155.9651 H   0  0  0  0  0  0  0  0  0  0  0  0
  148.2080  140.1470  156.0227 H   0  0  0  0  0  0  0  0  0  0  0  0
  147.9794  139.6706  152.1659 H   0  0  0  0  0  0  0  0  0  0  0  0
  146.3163  140.2435  151.9577 H   0  0  0  0  0  0  0  0  0  0  0  0
  1  2  2  0  0  0  0
  2  3  1  0  0  0  0
  2 10  1  0  0  0  0
  3  4  1  0  0  0  0
  3 18  1  0  0  0  0
  4  9  1  0  0  0  0
  4  5  2  0  0  0  0
  5  6  1  0  0  0  0
  5 19  1  0  0  0  0
  6  7  2  0  0  0  0
  6 20  1  0  0  0  0
  7  8  1  0  0  0  0
  8  9  2  0  0  0  0
  8 21  1  0  0  0  0
  9 22  1  0  0  0  0
 10 11  1  0  0  0  0
 10 23  1  0  0  0  0
 11 17  1  0  0  0  0
 11 12  1  0  0  0  0
 11 24  1  0  0  0  0
 12 13  1  0  0  0  0
 12 25  1  0  0  0  0
 12 26  1  0  0  0  0
 13 14  1  0  0  0  0
 13 27  1  0  0  0  0
 13 28  1  0  0  0  0
 14 15  2  0  0  0  0
 14 16  2  0  0  0  0
 14 17  1  0  0  0  0
 17 29  1  0  0  0  0
 17 30  1  0  0  0  0
M  END
> <s_m_source_file>
AV-unprocessed.smi

> <i_m_source_file_index>
3261

> <i_lp_mmshare_version>
43012

> <i_f3d_flags>
0

> <s_epik_input>
Tz1TMSg9TylbQ0gyXVtDSDJdW0NASF0oW0NIMl0xKVtOSF1DKD1PKVtOSF1jMltjSF1bY0hdbltjSF1bY0hdMg==

> <s_epik_cmdline>
J2VwaWtfcHl0aG9uJywgJy1waCcsICc3LjAnLCAnLXRuJywgJzgnLCAnLW1hJywgJzIwMCcsICctbWV0YWxfYmluZGluZycsICctaW1hZScsICc8aW5maWxlLm1hZT4nLCAnLW9tYWUnLCAnPG91dGZpbGUubWFlPic=

> <r_epik_Ionization_Penalty>
0.0999693

> <r_epik_Ionization_Penalty_Charging>
0

> <r_epik_Ionization_Penalty_Neutral>
0.0999693

> <r_epik_State_Penalty>
0.0899812

> <r_epik_Charging_Adjusted_Penalty>
0.0899812

> <i_epik_Tot_Q>
0

> <i_epik_Tot_abs_Q>
0

> <r_epik_Metal_State_Penalty>
0.0778619

> <b_epik_Metal_Only>
0

> <s_lp_Force_Field>
OPLS_2005

> <r_lp_Energy>
18.6703

> <b_lp_Chiralities_Consistent>
1

> <s_lp_Variant>
AV-unprocessed.smi:3261-2

> <Gold.Version>
5.8.1

> <Gold.Id.Protein>
6NUR|6NUR_protein|mol2

> <Gold.PLP.Fitness>
39.2342

> <Gold.PLP.PLP>
-25.9314

> <Gold.PLP.part.hbond>
-3.0947

> <Gold.PLP.part.metal>
0.0000

> <Gold.PLP.part.buried>
-3.8271

> <Gold.PLP.part.nonpolar>
-19.6384

> <Gold.PLP.part.repulsive>
0.7886

> <Gold.PLP.ligand.clash>
0.0000

> <Gold.PLP.ligand.torsion>
0.1149

> <Gold.PLP.Chemscore.Hbond>
2.6160

> <Gold.PLP.Chemscore.CHOScore>
1.8946

> <Gold.PLP.Chemscore.Metal>
0.0000

> <Gold.Chemscore.Hbonds>
donor molecule, donor type, donor heavy atom, donor atom, acceptor molecule, acceptor atom, score
      L1  H     3    18       P1  7948  0.99
      L1  H    10    23       P1  7948  1.00
      P1  H  8011  8017       L1    16  0.62
      L1  C     6    20       P1 10747  0.94
      L1  C     8    21       P1 10186  1.00

> <Gold.PLP.Chemscore.Internal.Correction>
0.0006

> <Gold.Rescore>
     Score         DG    S(hbond)    S(metal)    S(lipo)     H(rot)  DE(clash)    DE(int)     intcor
     16.98     -17.32       2.56        0.00      49.93       1.00       0.10       0.25       ----

> <Gold.Chemscore.Fitness>
16.9754

> <Gold.Chemscore.DG>
-17.3205

> <Gold.Chemscore.ZeroCoef>
-5.4800

> <Gold.Chemscore.Hbond>
2.5624

> <Gold.Chemscore.Metal>
0.0000

> <Gold.Chemscore.Lipo>
49.9337

> <Gold.Chemscore.Internal_Hbond>
0.0000

> <Gold.Chemscore.DEClash>
0.0976

> <Gold.Chemscore.DEInternal>
0.2475

> <Gold.Chemscore.Rot>
1.0000

> <Gold.Chemscore.Internal.Correction>
   9.000000E+99

> <Gold.Chemscore.Hbonds>
donor molecule, donor type, donor heavy atom, donor atom, acceptor molecule, acceptor atom, score
      L1  H     3    18       P1  7948  0.87
      L1  H    10    23       P1  7948  0.96
      P1  H  8011  8017       L1    16  0.61

> <Gold.Chemscore.Hbond.Weighted>
-8.5583

> <Gold.Chemscore.Metal.Weighted>
-0.0000

> <Gold.Chemscore.Lipo.Weighted>
-5.8422

> <Gold.Chemscore.Internal_Hbond.Weighted>
0.0000

> <Gold.Chemscore.DEClash.Weighted>
0.0976

> <Gold.Chemscore.DEInternal.Weighted>
0.2475

> <Gold.Chemscore.Rot.Weighted>
2.5600

> <Gold.Chemscore.Internal.Correction.Weighted>
   9.000000E+99

> <Gold.Protein.RotatedTorsions>
[ 6907 6896 6895 6894 ] final -130.07 input  -60.11 | X-H torsion
[ 7974 7965 7964 7962 ] final  -90.98 input  175.53 | X-H torsion
[ 8008 7997 7996 7995 ] final -156.01 input   59.86 | X-H torsion
[ 10167 10162 10161 10158 ] final   82.04 input  -65.29 | X-H torsion
[ 10718 10713 10712 10709 ] final  -41.98 input   66.30 | X-H torsion
[ 10763 10752 10751 10750 ] final  124.08 input  -60.55 | X-H torsion
[ 11005 11000 10999 10996 ] final  -66.84 input  -57.11 | X-H torsion

> <Gold.Protein.ActiveResidues>
 VAL166  LYS551  ARG553  GLY616  TRP617  ASP618  TYR619  PRO620  LYS621  CYS622 
 ASP623  PHE694  ASN695  SER759  ASP760  ASP761  ALA762  ILE779  LEU786  VAL792 
 PHE793  MET794  SER795  GLU796  ALA797  LYS798  CYS799  TRP800  GLU811  SER814 

> <Gold.Protein.RotatedAtoms>
  150.9356  133.6716  159.2801 H   0  0  0  0  0  0  0  0  0  0  0  0  # atno 6907 bound_to 6896
  151.4122  135.0985  159.9598 H   0  0  0  0  0  0  0  0  0  0  0  0  # atno 6908 bound_to 6896
  152.5046  133.8826  159.7409 H   0  0  0  0  0  0  0  0  0  0  0  0  # atno 6909 bound_to 6896
  145.4192  140.9550  143.2190 H   0  0  0  0  0  0  0  0  0  0  0  0  # atno 7974 bound_to 7965
  155.7107  140.0778  157.2372 H   0  0  0  0  0  0  0  0  0  0  0  0  # atno 8008 bound_to 7997
  154.4059  140.1630  156.2346 H   0  0  0  0  0  0  0  0  0  0  0  0  # atno 8009 bound_to 7997
  155.9285  140.3393  155.6233 H   0  0  0  0  0  0  0  0  0  0  0  0  # atno 8010 bound_to 7997
  139.9330  144.6140  150.8326 H   0  0  0  0  0  0  0  0  0  0  0  0  # atno 10167 bound_to 10162
  156.2645  130.4200  149.8506 H   0  0  0  0  0  0  0  0  0  0  0  0  # atno 10718 bound_to 10713
  153.6557  135.3355  155.3113 H   0  0  0  0  0  0  0  0  0  0  0  0  # atno 10763 bound_to 10752
  154.8527  135.4351  154.1857 H   0  0  0  0  0  0  0  0  0  0  0  0  # atno 10764 bound_to 10752
  153.2811  135.7009  153.7459 H   0  0  0  0  0  0  0  0  0  0  0  0  # atno 10765 bound_to 10752
  141.1493  133.6707  156.6201 H   0  0  0  0  0  0  0  0  0  0  0  0  # atno 11005 bound_to 11000
  144.8256  139.5715  143.6967 LP  0  0  0  0  0  0  0  0  0  0  0  0  # atno 17320 bound_to 7965
  146.2665  139.6532  142.9326 LP  0  0  0  0  0  0  0  0  0  0  0  0  # atno 17321 bound_to 7965
  140.7632  143.3217  151.2606 LP  0  0  0  0  0  0  0  0  0  0  0  0  # atno 17342 bound_to 10162
  139.6767  143.9926  152.2785 LP  0  0  0  0  0  0  0  0  0  0  0  0  # atno 17343 bound_to 10162
  156.6009  130.8546  151.3431 LP  0  0  0  0  0  0  0  0  0  0  0  0  # atno 17370 bound_to 10713
  157.7262  130.9626  150.1647 LP  0  0  0  0  0  0  0  0  0  0  0  0  # atno 17371 bound_to 10713
  140.3547  134.7739  157.4492 LP  0  0  0  0  0  0  0  0  0  0  0  0  # atno 17394 bound_to 11000
  140.0833  134.5702  155.8518 LP  0  0  0  0  0  0  0  0  0  0  0  0  # atno 17395 bound_to 11000

$$$$
