AV-unprocessed.smi:287|AV-procd|sdf|2204|dock8
  -GOLD-   2262022 23D 1   1.00000     0.00000
 Structure written by MMmdl.
 55 58  0  0  0  0  0  0  0  0  1 V2000
  146.1494  129.0644  152.2024 C   0  0  0  0  0  0  0  0  0  0  0  0
  146.6694  130.2389  152.9579 C   0  0  0  0  0  0  0  0  0  0  0  0
  147.4191  130.3781  154.0895 C   0  0  0  0  0  0  0  0  0  0  0  0
  147.6009  131.7762  154.3115 C   0  0  0  0  0  0  0  0  0  0  0  0
  148.3699  132.4105  155.4628 C   0  0  2  0  0  0  0  0  0  0  0  0
  148.8548  131.3158  156.4275 C   0  0  0  0  0  0  0  0  0  0  0  0
  147.5693  133.2751  156.2458 O   0  0  0  0  0  0  0  0  0  0  0  0
  149.5674  133.2600  154.9789 C   0  0  0  0  0  0  0  0  0  0  0  0
  150.4126  133.7225  156.0721 N   0  0  0  0  0  0  0  0  0  0  0  0
  150.4014  135.0129  156.4670 C   0  0  0  0  0  0  0  0  0  0  0  0
  149.8996  135.2348  157.7045 N   0  0  0  0  0  0  0  0  0  0  0  0
  149.8341  136.4768  158.1884 C   0  0  0  0  0  0  0  0  0  0  0  0
  150.2127  137.6162  157.6094 N   0  0  0  0  0  0  0  0  0  0  0  0
  150.7308  137.4084  156.3633 C   0  0  0  0  0  0  0  0  0  0  0  0
  150.8533  136.1417  155.7190 C   0  0  0  0  0  0  0  0  0  0  0  0
  151.4017  136.3228  154.4550 N   0  0  0  0  0  0  0  0  0  0  0  0
  151.5825  137.6107  154.3612 C   0  0  0  0  0  0  0  0  0  0  0  0
  151.2375  138.3434  155.4758 N   0  0  0  0  0  0  0  0  0  0  0  0
  151.3116  139.8396  155.6383 C   0  0  1  0  0  0  0  0  0  0  0  0
  150.4737  140.4464  154.7035 O   0  0  0  0  0  0  0  0  0  0  0  0
  149.1890  140.6392  155.2806 C   0  0  2  0  0  0  0  0  0  0  0  0
  148.3353  141.6022  154.4373 C   0  0  0  0  0  0  0  0  0  0  0  0
  147.7996  140.9225  153.3218 O   0  0  0  0  0  0  0  0  0  0  0  0
  149.5644  141.1293  156.6839 C   0  0  2  0  0  0  0  0  0  0  0  0
  149.8724  142.5142  156.6641 O   0  0  0  0  0  0  0  0  0  0  0  0
  150.7755  140.2574  157.0254 C   0  0  2  0  0  0  0  0  0  0  0  0
  151.7365  140.9303  157.8181 O   0  0  0  0  0  0  0  0  0  0  0  0
  146.9191  132.3846  153.2851 C   0  0  0  0  0  0  0  0  0  0  0  0
  146.6719  133.8070  152.9048 C   0  0  0  0  0  0  0  0  0  0  0  0
  146.3560  131.4602  152.4581 O   0  0  0  0  0  0  0  0  0  0  0  0
  152.3591  140.0828  155.4564 H   0  0  0  0  0  0  0  0  0  0  0  0
  148.6847  139.6749  155.3735 H   0  0  0  0  0  0  0  0  0  0  0  0
  148.7499  140.9763  157.3925 H   0  0  0  0  0  0  0  0  0  0  0  0
  150.4298  139.3792  157.5713 H   0  0  0  0  0  0  0  0  0  0  0  0
  146.6338  128.1449  152.5313 H   0  0  0  0  0  0  0  0  0  0  0  0
  146.3329  129.1783  151.1337 H   0  0  0  0  0  0  0  0  0  0  0  0
  145.0753  128.9543  152.3523 H   0  0  0  0  0  0  0  0  0  0  0  0
  147.8006  129.5660  154.6905 H   0  0  0  0  0  0  0  0  0  0  0  0
  149.5205  130.6131  155.9247 H   0  0  0  0  0  0  0  0  0  0  0  0
  148.0182  130.7434  156.8308 H   0  0  0  0  0  0  0  0  0  0  0  0
  149.4025  131.7385  157.2709 H   0  0  0  0  0  0  0  0  0  0  0  0
  146.7706  133.4541  155.7738 H   0  0  0  0  0  0  0  0  0  0  0  0
  150.1614  132.7108  154.2469 H   0  0  0  0  0  0  0  0  0  0  0  0
  149.1788  134.1452  154.4734 H   0  0  0  0  0  0  0  0  0  0  0  0
  150.9905  133.0161  156.5052 H   0  0  0  0  0  0  0  0  0  0  0  0
  149.4202  136.5724  159.1814 H   0  0  0  0  0  0  0  0  0  0  0  0
  151.9823  138.0644  153.4660 H   0  0  0  0  0  0  0  0  0  0  0  0
  147.4972  141.9749  155.0264 H   0  0  0  0  0  0  0  0  0  0  0  0
  148.9149  142.4658  154.1099 H   0  0  0  0  0  0  0  0  0  0  0  0
  148.5138  140.6338  152.7745 H   0  0  0  0  0  0  0  0  0  0  0  0
  149.2796  142.9412  156.0643 H   0  0  0  0  0  0  0  0  0  0  0  0
  152.2193  140.2882  158.3156 H   0  0  0  0  0  0  0  0  0  0  0  0
  146.2431  134.3607  153.7400 H   0  0  0  0  0  0  0  0  0  0  0  0
  145.9794  133.8767  152.0656 H   0  0  0  0  0  0  0  0  0  0  0  0
  147.6019  134.2956  152.6141 H   0  0  0  0  0  0  0  0  0  0  0  0
  1  2  1  0  0  0  0
  1 35  1  0  0  0  0
  1 36  1  0  0  0  0
  1 37  1  0  0  0  0
  2 30  1  0  0  0  0
  2  3  2  0  0  0  0
  3  4  1  0  0  0  0
  3 38  1  0  0  0  0
  4  5  1  0  0  0  0
  4 28  2  0  0  0  0
  5  6  1  0  0  0  0
  5  7  1  0  0  0  0
  5  8  1  0  0  0  0
  6 39  1  0  0  0  0
  6 40  1  0  0  0  0
  6 41  1  0  0  0  0
  7 42  1  0  0  0  0
  8  9  1  0  0  0  0
  8 43  1  0  0  0  0
  8 44  1  0  0  0  0
  9 10  1  0  0  0  0
  9 45  1  0  0  0  0
 10 15  1  0  0  0  0
 10 11  2  0  0  0  0
 11 12  1  0  0  0  0
 12 13  2  0  0  0  0
 12 46  1  0  0  0  0
 13 14  1  0  0  0  0
 14 18  1  0  0  0  0
 14 15  2  0  0  0  0
 15 16  1  0  0  0  0
 16 17  2  0  0  0  0
 17 18  1  0  0  0  0
 17 47  1  0  0  0  0
 18 19  1  0  0  0  0
 19 31  1  0  0  0  0
 19 26  1  0  0  0  0
 19 20  1  0  0  0  0
 20 21  1  0  0  0  0
 21 32  1  0  0  0  0
 21 22  1  0  0  0  0
 21 24  1  0  0  0  0
 22 23  1  0  0  0  0
 22 48  1  0  0  0  0
 22 49  1  0  0  0  0
 23 50  1  0  0  0  0
 24 33  1  0  0  0  0
 24 25  1  0  0  0  0
 24 26  1  0  0  0  0
 25 51  1  0  0  0  0
 26 34  1  0  0  0  0
 26 27  1  0  0  0  0
 27 52  1  0  0  0  0
 28 29  1  0  0  0  0
 28 30  1  0  0  0  0
 29 53  1  0  0  0  0
 29 54  1  0  0  0  0
 29 55  1  0  0  0  0
M  END
> <s_m_source_file>
AV-unprocessed.smi

> <i_m_source_file_index>
287

> <i_lp_mmshare_version>
43012

> <i_f3d_flags>
0

> <s_epik_input>
W0NIM11jMVtjSF1jKGMobzEpW0NIM10pW0NAQF0oW0NIM10pKFtPSF0pW0NIMl1bTkhdYyhuW2NIXW4yKWMoYzIzKW5bY0hdbjNbQ0BASF00T1tDQEhdKFtDSDJdW09IXSlbQ0BASF0oW09IXSlbQ0BIXTRbT0hd

> <s_epik_cmdline>
J2VwaWtfcHl0aG9uJywgJy1waCcsICc3LjAnLCAnLXRuJywgJzgnLCAnLW1hJywgJzIwMCcsICctbWV0YWxfYmluZGluZycsICctaW1hZScsICc8aW5maWxlLm1hZT4nLCAnLW9tYWUnLCAnPG91dGZpbGUubWFlPic=

> <r_lp_tautomer_probability>
1

> <r_epik_Ionization_Penalty>
0.000992612

> <r_epik_Ionization_Penalty_Charging>
0

> <r_epik_Ionization_Penalty_Neutral>
0.000992612

> <r_epik_State_Penalty>
-0

> <r_epik_Charging_Adjusted_Penalty>
0

> <i_epik_Tot_Q>
0

> <i_epik_Tot_abs_Q>
0

> <r_epik_Metal_State_Penalty>
-0

> <b_epik_Metal_Only>
0

> <s_epik_Chemistry_Notes>
This compound contains an acetal/aminal-like group ( X-CH(R)-Y where X, Y are N, S, or O) that may be acid/base labile, releasing an aldehyde.

> <s_lp_Force_Field>
OPLS_2005

> <r_lp_Energy>
48.2808

> <b_lp_Chiralities_Consistent>
1

> <s_lp_Variant>
AV-unprocessed.smi:287-28

> <Gold.Version>
5.8.1

> <Gold.Id.Protein>
6NUR|6NUR_protein|mol2

> <Gold.PLP.Fitness>
49.5042

> <Gold.PLP.PLP>
-38.9784

> <Gold.PLP.part.hbond>
-4.8430

> <Gold.PLP.part.metal>
0.0000

> <Gold.PLP.part.buried>
-6.3045

> <Gold.PLP.part.nonpolar>
-30.5672

> <Gold.PLP.part.repulsive>
1.6715

> <Gold.PLP.ligand.clash>
0.0000

> <Gold.PLP.ligand.torsion>
0.9423

> <Gold.PLP.Chemscore.Hbond>
4.0905

> <Gold.PLP.Chemscore.CHOScore>
0.0000

> <Gold.PLP.Chemscore.Metal>
0.0000

> <Gold.Chemscore.Hbonds>
donor molecule, donor type, donor heavy atom, donor atom, acceptor molecule, acceptor atom, score
      L1  H    23    50       P1  7957  0.99
      L1  H    25    51       P1  8028  0.69
      P1  H  6896  6907       L1    11  0.68
      P1  H  7989  7998       L1    20  1.00
      P1  H 10752 10765       L1    16  1.00

> <Gold.PLP.Chemscore.Internal.Correction>
0.1389

> <Gold.Rescore>
     Score         DG    S(hbond)    S(metal)    S(lipo)     H(rot)  DE(clash)    DE(int)     intcor
      9.28     -12.10       3.50        0.00      71.80       5.27       0.07       2.75       ----

> <Gold.Chemscore.Fitness>
9.2758

> <Gold.Chemscore.DG>
-12.1031

> <Gold.Chemscore.ZeroCoef>
-5.4800

> <Gold.Chemscore.Hbond>
3.5049

> <Gold.Chemscore.Metal>
0.0000

> <Gold.Chemscore.Lipo>
71.7994

> <Gold.Chemscore.Internal_Hbond>
0.0000

> <Gold.Chemscore.DEClash>
0.0730

> <Gold.Chemscore.DEInternal>
2.7543

> <Gold.Chemscore.Rot>
5.2672

> <Gold.Chemscore.Internal.Correction>
   9.000000E+99

> <Gold.Chemscore.Hbonds>
donor molecule, donor type, donor heavy atom, donor atom, acceptor molecule, acceptor atom, score
      L1  H    23    50       P1  7957  0.93
      L1  H    25    51       P1  8028  0.70
      P1  H  6896  6907       L1    11  0.17
      P1  H  7989  7998       L1    20  0.25
      P1  H 10752 10765       L1    16  0.43

> <Gold.Chemscore.Hbond.Weighted>
-11.7065

> <Gold.Chemscore.Metal.Weighted>
-0.0000

> <Gold.Chemscore.Lipo.Weighted>
-8.4005

> <Gold.Chemscore.Internal_Hbond.Weighted>
0.0000

> <Gold.Chemscore.DEClash.Weighted>
0.0730

> <Gold.Chemscore.DEInternal.Weighted>
2.7543

> <Gold.Chemscore.Rot.Weighted>
13.4839

> <Gold.Chemscore.Internal.Correction.Weighted>
   9.000000E+99

> <Gold.Protein.RotatedTorsions>
[ 6907 6896 6895 6894 ] final  -93.93 input  -60.11 | X-H torsion
[ 7974 7965 7964 7962 ] final   -9.60 input  175.53 | X-H torsion
[ 8008 7997 7996 7995 ] final   42.46 input   59.86 | X-H torsion
[ 10167 10162 10161 10158 ] final  -30.56 input  -65.29 | X-H torsion
[ 10718 10713 10712 10709 ] final  117.83 input   66.30 | X-H torsion
[ 10763 10752 10751 10750 ] final  162.92 input  -60.55 | X-H torsion
[ 11005 11000 10999 10996 ] final   57.87 input  -57.11 | X-H torsion

> <Gold.Protein.ActiveResidues>
 VAL166  LYS551  ARG553  GLY616  TRP617  ASP618  TYR619  PRO620  LYS621  CYS622 
 ASP623  PHE694  ASN695  SER759  ASP760  ASP761  ALA762  ILE779  LEU786  VAL792 
 PHE793  MET794  SER795  GLU796  ALA797  LYS798  CYS799  TRP800  GLU811  SER814 

> <Gold.Protein.RotatedAtoms>
  150.6932  134.1891  159.4278 H   0  0  0  0  0  0  0  0  0  0  0  0  # atno 6907 bound_to 6896
  151.9863  135.0000  160.0569 H   0  0  0  0  0  0  0  0  0  0  0  0  # atno 6908 bound_to 6896
  152.1709  133.4608  159.4945 H   0  0  0  0  0  0  0  0  0  0  0  0  # atno 6909 bound_to 6896
  146.2247  140.2640  142.8353 H   0  0  0  0  0  0  0  0  0  0  0  0  # atno 7974 bound_to 7965
  155.2865  140.3376  155.4255 H   0  0  0  0  0  0  0  0  0  0  0  0  # atno 8008 bound_to 7997
  156.2066  140.1753  156.7827 H   0  0  0  0  0  0  0  0  0  0  0  0  # atno 8009 bound_to 7997
  154.5629  140.0684  156.8831 H   0  0  0  0  0  0  0  0  0  0  0  0  # atno 8010 bound_to 7997
  140.7248  143.3839  151.1551 H   0  0  0  0  0  0  0  0  0  0  0  0  # atno 10167 bound_to 10162
  157.6071  131.1041  150.7670 H   0  0  0  0  0  0  0  0  0  0  0  0  # atno 10718 bound_to 10713
  154.2858  135.2762  155.2677 H   0  0  0  0  0  0  0  0  0  0  0  0  # atno 10763 bound_to 10752
  154.5178  135.5765  153.6659 H   0  0  0  0  0  0  0  0  0  0  0  0  # atno 10764 bound_to 10752
  152.9922  135.6197  154.3020 H   0  0  0  0  0  0  0  0  0  0  0  0  # atno 10765 bound_to 10752
  140.0420  134.5860  155.9370 H   0  0  0  0  0  0  0  0  0  0  0  0  # atno 11005 bound_to 11000
  144.9318  140.7983  143.5684 LP  0  0  0  0  0  0  0  0  0  0  0  0  # atno 17320 bound_to 7965
  145.2584  139.2002  143.4905 LP  0  0  0  0  0  0  0  0  0  0  0  0  # atno 17321 bound_to 7965
  139.7433  143.8891  152.3056 LP  0  0  0  0  0  0  0  0  0  0  0  0  # atno 17342 bound_to 10162
  139.8720  144.7063  150.8977 LP  0  0  0  0  0  0  0  0  0  0  0  0  # atno 17343 bound_to 10162
  156.8056  130.4935  149.5363 LP  0  0  0  0  0  0  0  0  0  0  0  0  # atno 17370 bound_to 10713
  156.1160  130.6075  151.0121 LP  0  0  0  0  0  0  0  0  0  0  0  0  # atno 17371 bound_to 10713
  141.1887  133.6563  156.5338 LP  0  0  0  0  0  0  0  0  0  0  0  0  # atno 17394 bound_to 11000
  140.4054  134.7319  157.4805 LP  0  0  0  0  0  0  0  0  0  0  0  0  # atno 17395 bound_to 11000

$$$$
