AV-unprocessed.smi:3028|AV-procd|sdf|11521|dock4
  -GOLD-   2272016463D 1   1.00000     0.00000
 Structure written by MMmdl.
 47 48  0  0  0  0  0  0  0  0  1 V2000
  150.5059  141.9751  157.9967 C   0  0  0  0  0  0  0  0  0  0  0  0
  150.5028  141.0519  156.8128 C   0  0  0  0  0  0  0  0  0  0  0  0
  151.5577  140.8108  155.8878 C   0  0  0  0  0  0  0  0  0  0  0  0
  151.2306  139.9367  154.9506 N   0  0  0  0  0  0  0  0  0  0  0  0
  149.9585  139.5866  155.2404 N   0  0  0  0  0  0  0  0  0  0  0  0
  149.2606  138.6236  154.3970 C   0  0  2  0  0  0  0  0  0  0  0  0
  147.9854  139.2722  153.8252 C   0  0  0  0  0  0  0  0  0  0  0  0
  148.9742  137.2950  155.1481 C   0  0  2  0  0  0  0  0  0  0  0  0
  150.2604  136.5503  155.5695 C   0  0  0  0  0  0  0  0  0  0  0  0
  148.1848  136.4379  154.2667 N   0  0  0  0  0  0  0  0  0  0  0  0
  147.7392  135.1889  154.9021 C   0  0  0  0  0  0  0  0  0  0  0  0
  146.8576  134.3314  153.9801 C   0  0  0  0  0  0  0  0  0  0  0  0
  146.2678  133.3465  154.4233 O   0  0  0  0  0  0  0  0  0  0  0  0
  146.7346  134.6766  152.6871 N   0  0  0  0  0  0  0  0  0  0  0  0
  145.9524  134.0020  151.6532 C   0  0  0  0  0  0  0  0  0  0  0  0
  144.4820  133.9173  152.0898 C   0  0  0  0  0  0  0  0  0  0  0  0
  143.6658  133.0775  151.0935 C   0  0  0  0  0  0  0  0  0  0  0  0
  144.2419  131.7824  150.9611 O   0  0  0  0  0  0  0  0  0  0  0  0
  145.5676  131.8150  150.4431 C   0  0  0  0  0  0  0  0  0  0  0  0
  146.4894  132.5822  151.4048 C   0  0  0  0  0  0  0  0  0  0  0  0
  149.4958  140.2469  156.3611 C   0  0  0  0  0  0  0  0  0  0  0  0
  151.5054  142.3522  158.2146 H   0  0  0  0  0  0  0  0  0  0  0  0
  150.1478  141.4764  158.8977 H   0  0  0  0  0  0  0  0  0  0  0  0
  149.8649  142.8412  157.8314 H   0  0  0  0  0  0  0  0  0  0  0  0
  152.5469  141.2444  155.8695 H   0  0  0  0  0  0  0  0  0  0  0  0
  149.9178  138.3981  153.5542 H   0  0  0  0  0  0  0  0  0  0  0  0
  147.4967  138.6239  153.0979 H   0  0  0  0  0  0  0  0  0  0  0  0
  148.2189  140.2082  153.3169 H   0  0  0  0  0  0  0  0  0  0  0  0
  147.2619  139.4920  154.6108 H   0  0  0  0  0  0  0  0  0  0  0  0
  148.3941  137.5295  156.0421 H   0  0  0  0  0  0  0  0  0  0  0  0
  150.8713  137.1506  156.2436 H   0  0  0  0  0  0  0  0  0  0  0  0
  150.8745  136.3016  154.7033 H   0  0  0  0  0  0  0  0  0  0  0  0
  150.0438  135.6239  156.1000 H   0  0  0  0  0  0  0  0  0  0  0  0
  148.6906  136.2663  153.4092 H   0  0  0  0  0  0  0  0  0  0  0  0
  148.6041  134.5949  155.1947 H   0  0  0  0  0  0  0  0  0  0  0  0
  147.1774  135.4270  155.8056 H   0  0  0  0  0  0  0  0  0  0  0  0
  147.2395  135.4990  152.3896 H   0  0  0  0  0  0  0  0  0  0  0  0
  145.9875  134.5644  150.7194 H   0  0  0  0  0  0  0  0  0  0  0  0
  144.4128  133.4635  153.0795 H   0  0  0  0  0  0  0  0  0  0  0  0
  144.0543  134.9169  152.1740 H   0  0  0  0  0  0  0  0  0  0  0  0
  142.6396  132.9717  151.4459 H   0  0  0  0  0  0  0  0  0  0  0  0
  143.6180  133.5667  150.1193 H   0  0  0  0  0  0  0  0  0  0  0  0
  145.9228  130.7918  150.3202 H   0  0  0  0  0  0  0  0  0  0  0  0
  145.5713  132.2737  149.4530 H   0  0  0  0  0  0  0  0  0  0  0  0
  147.5008  132.6182  150.9996 H   0  0  0  0  0  0  0  0  0  0  0  0
  146.5523  132.0389  152.3488 H   0  0  0  0  0  0  0  0  0  0  0  0
  148.4965  140.0909  156.7405 H   0  0  0  0  0  0  0  0  0  0  0  0
  1  2  1  0  0  0  0
  1 22  1  0  0  0  0
  1 23  1  0  0  0  0
  1 24  1  0  0  0  0
  2 21  2  0  0  0  0
  2  3  1  0  0  0  0
  3  4  2  0  0  0  0
  3 25  1  0  0  0  0
  4  5  1  0  0  0  0
  5  6  1  0  0  0  0
  5 21  1  0  0  0  0
  6  7  1  0  0  0  0
  6  8  1  0  0  0  0
  6 26  1  0  0  0  0
  7 27  1  0  0  0  0
  7 28  1  0  0  0  0
  7 29  1  0  0  0  0
  8  9  1  0  0  0  0
  8 10  1  0  0  0  0
  8 30  1  0  0  0  0
  9 31  1  0  0  0  0
  9 32  1  0  0  0  0
  9 33  1  0  0  0  0
 10 11  1  0  0  0  0
 10 34  1  0  0  0  0
 11 12  1  0  0  0  0
 11 35  1  0  0  0  0
 11 36  1  0  0  0  0
 12 13  2  0  0  0  0
 12 14  1  0  0  0  0
 14 15  1  0  0  0  0
 14 37  1  0  0  0  0
 15 20  1  0  0  0  0
 15 16  1  0  0  0  0
 15 38  1  0  0  0  0
 16 17  1  0  0  0  0
 16 39  1  0  0  0  0
 16 40  1  0  0  0  0
 17 18  1  0  0  0  0
 17 41  1  0  0  0  0
 17 42  1  0  0  0  0
 18 19  1  0  0  0  0
 19 20  1  0  0  0  0
 19 43  1  0  0  0  0
 19 44  1  0  0  0  0
 20 45  1  0  0  0  0
 20 46  1  0  0  0  0
 21 47  1  0  0  0  0
M  END
> <s_m_source_file>
AV-unprocessed.smi

> <i_m_source_file_index>
3028

> <i_lp_mmshare_version>
43012

> <i_f3d_flags>
0

> <s_epik_input>
W0NIM11jMVtjSF1ubihbY0hdMSlbQ0BIXShbQ0gzXSlbQ0BIXShbQ0gzXSlbTkhdW0NIMl1DKD1PKVtOSF1bQ0hdMltDSDJdW0NIMl1PW0NIMl1bQ0gyXTI=

> <s_epik_cmdline>
J2VwaWtfcHl0aG9uJywgJy1waCcsICc3LjAnLCAnLXRuJywgJzgnLCAnLW1hJywgJzIwMCcsICctbWV0YWxfYmluZGluZycsICctaW1hZScsICc8aW5maWxlLm1hZT4nLCAnLW9tYWUnLCAnPG91dGZpbGUubWFlPic=

> <r_lp_tautomer_probability>
1

> <r_epik_Ionization_Penalty>
0.88617

> <r_epik_Ionization_Penalty_Charging>
0

> <r_epik_Ionization_Penalty_Neutral>
0.88617

> <r_epik_State_Penalty>
0.921066

> <r_epik_Charging_Adjusted_Penalty>
0.921066

> <i_epik_Tot_Q>
0

> <i_epik_Tot_abs_Q>
0

> <r_epik_Metal_State_Penalty>
0.917309

> <b_epik_Metal_Only>
0

> <s_lp_Force_Field>
OPLS_2005

> <r_lp_Energy>
19.247

> <b_lp_Chiralities_Consistent>
1

> <s_lp_Variant>
AV-unprocessed.smi:3028-5

> <Gold.Version>
5.8.1

> <Gold.Id.Protein>
6NUR|6NUR_protein|mol2

> <Gold.PLP.Fitness>
39.1081

> <Gold.PLP.PLP>
-30.5812

> <Gold.PLP.part.hbond>
-2.9588

> <Gold.PLP.part.metal>
0.0000

> <Gold.PLP.part.buried>
-4.7826

> <Gold.PLP.part.nonpolar>
-22.6550

> <Gold.PLP.part.repulsive>
0.2843

> <Gold.PLP.ligand.clash>
0.0000

> <Gold.PLP.ligand.torsion>
0.1915

> <Gold.PLP.Chemscore.Hbond>
2.9440

> <Gold.PLP.Chemscore.CHOScore>
0.0000

> <Gold.PLP.Chemscore.Metal>
0.0000

> <Gold.Chemscore.Hbonds>
donor molecule, donor type, donor heavy atom, donor atom, acceptor molecule, acceptor atom, score
      L1  H    10    34       P1  7948  1.00
      L1  H    14    37       P1  7948  0.91
      P1  H  7989  7998       L1     4  1.00

> <Gold.PLP.Chemscore.Internal.Correction>
0.0779

> <Gold.Rescore>
     Score         DG    S(hbond)    S(metal)    S(lipo)     H(rot)  DE(clash)    DE(int)     intcor
     16.94     -18.19       2.69        0.00      73.86       1.92       0.04       1.22       ----

> <Gold.Chemscore.Fitness>
16.9416

> <Gold.Chemscore.DG>
-18.1940

> <Gold.Chemscore.ZeroCoef>
-5.4800

> <Gold.Chemscore.Hbond>
2.6935

> <Gold.Chemscore.Metal>
0.0000

> <Gold.Chemscore.Lipo>
73.8572

> <Gold.Chemscore.Internal_Hbond>
0.0000

> <Gold.Chemscore.DEClash>
0.0354

> <Gold.Chemscore.DEInternal>
1.2170

> <Gold.Chemscore.Rot>
1.9233

> <Gold.Chemscore.Internal.Correction>
   9.000000E+99

> <Gold.Chemscore.Hbonds>
donor molecule, donor type, donor heavy atom, donor atom, acceptor molecule, acceptor atom, score
      L1  H    10    34       P1  7948  0.95
      L1  H    14    37       P1  7948  0.88
      P1  H  7989  7998       L1     4  0.25

> <Gold.Chemscore.Hbond.Weighted>
-8.9962

> <Gold.Chemscore.Metal.Weighted>
-0.0000

> <Gold.Chemscore.Lipo.Weighted>
-8.6413

> <Gold.Chemscore.Internal_Hbond.Weighted>
0.0000

> <Gold.Chemscore.DEClash.Weighted>
0.0354

> <Gold.Chemscore.DEInternal.Weighted>
1.2170

> <Gold.Chemscore.Rot.Weighted>
4.9235

> <Gold.Chemscore.Internal.Correction.Weighted>
   9.000000E+99

> <Gold.Protein.RotatedTorsions>
[ 6907 6896 6895 6894 ] final  116.39 input  -60.11 | X-H torsion
[ 7974 7965 7964 7962 ] final -127.33 input  175.53 | X-H torsion
[ 8008 7997 7996 7995 ] final  -37.43 input   59.86 | X-H torsion
[ 10167 10162 10161 10158 ] final    4.39 input  -65.29 | X-H torsion
[ 10718 10713 10712 10709 ] final -147.01 input   66.30 | X-H torsion
[ 10763 10752 10751 10750 ] final  169.36 input  -60.55 | X-H torsion
[ 11005 11000 10999 10996 ] final -113.51 input  -57.11 | X-H torsion

> <Gold.Protein.ActiveResidues>
 VAL166  LYS551  ARG553  GLY616  TRP617  ASP618  TYR619  PRO620  LYS621  CYS622 
 ASP623  PHE694  ASN695  SER759  ASP760  ASP761  ALA762  ILE779  LEU786  VAL792 
 PHE793  MET794  SER795  GLU796  ALA797  LYS798  CYS799  TRP800  GLU811  SER814 

> <Gold.Protein.RotatedAtoms>
  152.4681  133.7967  159.6930 H   0  0  0  0  0  0  0  0  0  0  0  0  # atno 6907 bound_to 6896
  150.8655  133.7571  159.2984 H   0  0  0  0  0  0  0  0  0  0  0  0  # atno 6908 bound_to 6896
  151.5122  135.1068  159.9909 H   0  0  0  0  0  0  0  0  0  0  0  0  # atno 6909 bound_to 6896
  144.9782  140.7614  143.4629 H   0  0  0  0  0  0  0  0  0  0  0  0  # atno 7974 bound_to 7965
  154.4053  140.1604  156.2536 H   0  0  0  0  0  0  0  0  0  0  0  0  # atno 8008 bound_to 7997
  155.9097  140.3428  155.6067 H   0  0  0  0  0  0  0  0  0  0  0  0  # atno 8009 bound_to 7997
  155.7350  140.0785  157.2262 H   0  0  0  0  0  0  0  0  0  0  0  0  # atno 8010 bound_to 7997
  140.6537  143.7481  150.7617 H   0  0  0  0  0  0  0  0  0  0  0  0  # atno 10167 bound_to 10162
  156.4021  130.7939  151.2150 H   0  0  0  0  0  0  0  0  0  0  0  0  # atno 10718 bound_to 10713
  154.3820  135.2753  155.2205 H   0  0  0  0  0  0  0  0  0  0  0  0  # atno 10763 bound_to 10752
  154.4308  135.5978  153.6071 H   0  0  0  0  0  0  0  0  0  0  0  0  # atno 10764 bound_to 10752
  152.9834  135.5995  154.4064 H   0  0  0  0  0  0  0  0  0  0  0  0  # atno 10765 bound_to 10752
  141.0610  133.9536  157.2667 H   0  0  0  0  0  0  0  0  0  0  0  0  # atno 11005 bound_to 11000
  145.2460  139.2052  143.4968 LP  0  0  0  0  0  0  0  0  0  0  0  0  # atno 17320 bound_to 7965
  146.3401  140.2364  142.8594 LP  0  0  0  0  0  0  0  0  0  0  0  0  # atno 17321 bound_to 7965
  140.1136  143.4676  152.2355 LP  0  0  0  0  0  0  0  0  0  0  0  0  # atno 17342 bound_to 10162
  139.5756  144.7485  151.3774 LP  0  0  0  0  0  0  0  0  0  0  0  0  # atno 17343 bound_to 10162
  157.7504  131.0283  150.4045 LP  0  0  0  0  0  0  0  0  0  0  0  0  # atno 17370 bound_to 10713
  156.4327  130.3975  149.6750 LP  0  0  0  0  0  0  0  0  0  0  0  0  # atno 17371 bound_to 10713
  139.9432  135.0188  156.8773 LP  0  0  0  0  0  0  0  0  0  0  0  0  # atno 17394 bound_to 11000
  140.5869  134.0299  155.7485 LP  0  0  0  0  0  0  0  0  0  0  0  0  # atno 17395 bound_to 11000

$$$$
