AV-unprocessed.smi:1644|AV-procd|sdf|6596|dock7
  -GOLD-   22720 7293D 1   1.00000     0.00000
 Structure written by MMmdl.
 49 51  0  0  0  0  0  0  0  0  3 V2000
  147.8451  136.3687  161.6557 C   0  0  0  0  0  0  0  0  0  0  0  0
  148.0940  135.6017  160.3529 C   0  0  0  0  0  0  0  0  0  0  0  0
  148.4418  136.5391  159.1764 C   0  0  0  0  0  0  0  0  0  0  0  0
  148.7110  135.8548  157.8138 C   0  0  2  0  0  0  0  0  0  0  0  0
  149.9280  135.0701  157.8365 N   0  5  0  0  0  0  0  0  0  0  0  0
  150.7392  135.5118  156.8467 C   0  0  0  0  0  0  0  0  0  0  0  0
  151.8641  135.0921  156.5751 O   0  0  0  0  0  0  0  0  0  0  0  0
  150.1676  136.5244  156.1652 N   0  0  0  0  0  0  0  0  0  0  0  0
  150.7981  137.2581  155.0639 C   0  0  0  0  0  0  0  0  0  0  0  0
  150.5564  138.7768  155.1885 C   0  0  2  0  0  0  0  0  0  0  0  0
  150.6292  139.3671  153.9052 O   0  0  0  0  0  0  0  0  0  0  0  0
  151.6027  139.4563  156.0930 C   0  0  0  0  0  0  0  0  0  0  0  0
  151.2159  140.8220  156.4664 N   0  0  0  0  0  0  0  0  0  0  0  0
  150.4135  141.7173  155.8299 C   0  0  0  0  0  0  0  0  0  0  0  0
  150.3687  142.8433  156.5955 N   0  3  0  0  0  0  0  0  0  0  0  0
  151.1504  142.6610  157.7393 C   0  0  0  0  0  0  0  0  0  0  0  0
  151.4109  143.5060  158.8118 C   0  0  0  0  0  0  0  0  0  0  0  0
  152.2539  143.0112  159.8330 C   0  0  0  0  0  0  0  0  0  0  0  0
  152.5517  143.9056  161.0242 C   0  0  0  0  0  0  0  0  0  0  0  0
  152.8114  141.7084  159.7531 C   0  0  0  0  0  0  0  0  0  0  0  0
  153.7159  141.1852  160.8556 C   0  0  0  0  0  0  0  0  0  0  0  0
  152.5376  140.8662  158.6525 C   0  0  0  0  0  0  0  0  0  0  0  0
  151.6997  141.3673  157.6596 C   0  0  0  0  0  0  0  0  0  0  0  0
  148.9666  136.8173  156.6719 C   0  0  0  0  0  0  0  0  0  0  0  0
  148.1900  137.7033  156.3135 O   0  0  0  0  0  0  0  0  0  0  0  0
  147.5927  135.6851  162.4664 H   0  0  0  0  0  0  0  0  0  0  0  0
  147.0208  137.0739  161.5459 H   0  0  0  0  0  0  0  0  0  0  0  0
  148.7301  136.9301  161.9562 H   0  0  0  0  0  0  0  0  0  0  0  0
  148.8992  134.8854  160.5175 H   0  0  0  0  0  0  0  0  0  0  0  0
  147.2059  135.0169  160.1123 H   0  0  0  0  0  0  0  0  0  0  0  0
  147.6343  137.2614  159.0491 H   0  0  0  0  0  0  0  0  0  0  0  0
  149.3189  137.1284  159.4471 H   0  0  0  0  0  0  0  0  0  0  0  0
  147.8477  135.2421  157.5511 H   0  0  0  0  0  0  0  0  0  0  0  0
  151.8685  137.0487  155.1001 H   0  0  0  0  0  0  0  0  0  0  0  0
  150.4709  136.8833  154.0921 H   0  0  0  0  0  0  0  0  0  0  0  0
  149.5616  138.9656  155.5933 H   0  0  0  0  0  0  0  0  0  0  0  0
  150.2389  138.7753  153.2804 H   0  0  0  0  0  0  0  0  0  0  0  0
  151.7508  138.8887  157.0126 H   0  0  0  0  0  0  0  0  0  0  0  0
  152.5733  139.5031  155.5970 H   0  0  0  0  0  0  0  0  0  0  0  0
  149.9013  141.5606  154.8916 H   0  0  0  0  0  0  0  0  0  0  0  0
  150.9837  144.4968  158.8661 H   0  0  0  0  0  0  0  0  0  0  0  0
  152.2488  143.4210  161.9529 H   0  0  0  0  0  0  0  0  0  0  0  0
  152.0181  144.8541  160.9550 H   0  0  0  0  0  0  0  0  0  0  0  0
  153.6182  144.1251  161.0791 H   0  0  0  0  0  0  0  0  0  0  0  0
  154.0943  140.1893  160.6217 H   0  0  0  0  0  0  0  0  0  0  0  0
  153.1712  141.1217  161.7979 H   0  0  0  0  0  0  0  0  0  0  0  0
  154.5744  141.8428  160.9934 H   0  0  0  0  0  0  0  0  0  0  0  0
  152.9566  139.8717  158.5933 H   0  0  0  0  0  0  0  0  0  0  0  0
  149.8391  143.6715  156.3548 H   0  0  0  0  0  0  0  0  0  0  0  0
  1  2  1  0  0  0  0
  1 26  1  0  0  0  0
  1 27  1  0  0  0  0
  1 28  1  0  0  0  0
  2  3  1  0  0  0  0
  2 29  1  0  0  0  0
  2 30  1  0  0  0  0
  3  4  1  0  0  0  0
  3 31  1  0  0  0  0
  3 32  1  0  0  0  0
  4 24  1  0  0  0  0
  4  5  1  0  0  0  0
  4 33  1  0  0  0  0
  5  6  1  0  0  0  0
  6  7  2  0  0  0  0
  6  8  1  0  0  0  0
  8  9  1  0  0  0  0
  8 24  1  0  0  0  0
  9 10  1  0  0  0  0
  9 34  1  0  0  0  0
  9 35  1  0  0  0  0
 10 11  1  0  0  0  0
 10 12  1  0  0  0  0
 10 36  1  0  0  0  0
 11 37  1  0  0  0  0
 12 13  1  0  0  0  0
 12 38  1  0  0  0  0
 12 39  1  0  0  0  0
 13 23  1  0  0  0  0
 13 14  1  0  0  0  0
 14 15  2  0  0  0  0
 14 40  1  0  0  0  0
 15 16  1  0  0  0  0
 15 49  1  0  0  0  0
 16 23  2  0  0  0  0
 16 17  1  0  0  0  0
 17 18  2  0  0  0  0
 17 41  1  0  0  0  0
 18 19  1  0  0  0  0
 18 20  1  0  0  0  0
 19 42  1  0  0  0  0
 19 43  1  0  0  0  0
 19 44  1  0  0  0  0
 20 21  1  0  0  0  0
 20 22  2  0  0  0  0
 21 45  1  0  0  0  0
 21 46  1  0  0  0  0
 21 47  1  0  0  0  0
 22 23  1  0  0  0  0
 22 48  1  0  0  0  0
 24 25  2  0  0  0  0
M  CHG  1   5  -1
M  CHG  1  15   1
M  END
> <s_m_source_file>
AV-unprocessed.smi

> <i_m_source_file_index>
1644

> <i_lp_mmshare_version>
43012

> <i_f3d_flags>
0

> <s_epik_input>
W0NIM11bQ0gyXVtDSDJdW0NAQEhdMVtOSF1DKD1PKU4oQzE9TylbQ0gyXVtDQEhdKFtPSF0pW0NIMl1uKFtjSF1uMiljKGMyMylbY0hdYyhbQ0gzXSljKFtjSF0zKVtDSDNd

> <s_epik_cmdline>
J2VwaWtfcHl0aG9uJywgJy1waCcsICc3LjAnLCAnLXRuJywgJzgnLCAnLW1hJywgJzIwMCcsICctbWV0YWxfYmluZGluZycsICctaW1hZScsICc8aW5maWxlLm1hZT4nLCAnLW9tYWUnLCAnPG91dGZpbGUubWFlPic=

> <r_lp_tautomer_probability>
1

> <r_epik_Ionization_Penalty>
6.86868

> <r_epik_Ionization_Penalty_Charging>
6.86868

> <r_epik_Ionization_Penalty_Neutral>
5.84798e-07

> <r_epik_State_Penalty>
6.92818

> <r_epik_Charging_Adjusted_Penalty>
13.7969

> <i_epik_Tot_Q>
0

> <i_epik_Tot_abs_Q>
2

> <r_epik_Metal_State_Penalty>
2.98017

> <b_epik_Metal_Only>
1

> <s_lp_Force_Field>
OPLS_2005

> <r_lp_Energy>
22.7735

> <b_lp_Chiralities_Consistent>
1

> <s_lp_Variant>
AV-unprocessed.smi:1644-13

> <Gold.Version>
5.8.1

> <Gold.Id.Protein>
6NUR|6NUR_protein|mol2

> <Gold.PLP.Fitness>
62.4604

> <Gold.PLP.PLP>
-47.1075

> <Gold.PLP.part.hbond>
-5.0000

> <Gold.PLP.part.metal>
0.0000

> <Gold.PLP.part.buried>
-5.5168

> <Gold.PLP.part.nonpolar>
-37.4438

> <Gold.PLP.part.repulsive>
0.0643

> <Gold.PLP.ligand.clash>
0.0000

> <Gold.PLP.ligand.torsion>
1.0051

> <Gold.PLP.Chemscore.Hbond>
5.7600

> <Gold.PLP.Chemscore.CHOScore>
0.0000

> <Gold.PLP.Chemscore.Metal>
0.0000

> <Gold.Chemscore.Hbonds>
donor molecule, donor type, donor heavy atom, donor atom, acceptor molecule, acceptor atom, score
      L1  H    15    49       P1  8028  2.00
      P1  H  6896  6907       L1     5  1.79
      P1  H  7989  7998       L1    11  1.00
      P1  H 10752 10764       L1     7  1.00

> <Gold.PLP.Chemscore.Internal.Correction>
0.0831

> <Gold.Rescore>
     Score         DG    S(hbond)    S(metal)    S(lipo)     H(rot)  DE(clash)    DE(int)     intcor
     22.17     -24.54       3.75        0.00     115.44       2.72       0.02       2.35       ----

> <Gold.Chemscore.Fitness>
22.1673

> <Gold.Chemscore.DG>
-24.5359

> <Gold.Chemscore.ZeroCoef>
-5.4800

> <Gold.Chemscore.Hbond>
3.7497

> <Gold.Chemscore.Metal>
0.0000

> <Gold.Chemscore.Lipo>
115.4419

> <Gold.Chemscore.Internal_Hbond>
0.0000

> <Gold.Chemscore.DEClash>
0.0179

> <Gold.Chemscore.DEInternal>
2.3507

> <Gold.Chemscore.Rot>
2.7245

> <Gold.Chemscore.Internal.Correction>
   9.000000E+99

> <Gold.Chemscore.Hbonds>
donor molecule, donor type, donor heavy atom, donor atom, acceptor molecule, acceptor atom, score
      L1  H    15    49       P1  8028  0.97
      P1  H  6896  6907       L1     5  0.85
      P1  H  7989  7998       L1    11  0.98
      P1  H 10752 10764       L1     7  0.94

> <Gold.Chemscore.Hbond.Weighted>
-12.5240

> <Gold.Chemscore.Metal.Weighted>
-0.0000

> <Gold.Chemscore.Lipo.Weighted>
-13.5067

> <Gold.Chemscore.Internal_Hbond.Weighted>
0.0000

> <Gold.Chemscore.DEClash.Weighted>
0.0179

> <Gold.Chemscore.DEInternal.Weighted>
2.3507

> <Gold.Chemscore.Rot.Weighted>
6.9748

> <Gold.Chemscore.Internal.Correction.Weighted>
   9.000000E+99

> <Gold.Protein.RotatedTorsions>
[ 6907 6896 6895 6894 ] final  -84.72 input  -60.11 | X-H torsion
[ 7974 7965 7964 7962 ] final   84.20 input  175.53 | X-H torsion
[ 8008 7997 7996 7995 ] final    7.76 input   59.86 | X-H torsion
[ 10167 10162 10161 10158 ] final  154.45 input  -65.29 | X-H torsion
[ 10718 10713 10712 10709 ] final  -55.93 input   66.30 | X-H torsion
[ 10763 10752 10751 10750 ] final  -17.45 input  -60.55 | X-H torsion
[ 11005 11000 10999 10996 ] final   84.29 input  -57.11 | X-H torsion

> <Gold.Protein.ActiveResidues>
 VAL166  LYS551  ARG553  GLY616  TRP617  ASP618  TYR619  PRO620  LYS621  CYS622 
 ASP623  PHE694  ASN695  SER759  ASP760  ASP761  ALA762  ILE779  LEU786  VAL792 
 PHE793  MET794  SER795  GLU796  ALA797  LYS798  CYS799  TRP800  GLU811  SER814 

> <Gold.Protein.RotatedAtoms>
  150.6874  134.3315  159.4828 H   0  0  0  0  0  0  0  0  0  0  0  0  # atno 6907 bound_to 6896
  152.1179  134.9224  160.0573 H   0  0  0  0  0  0  0  0  0  0  0  0  # atno 6908 bound_to 6896
  152.0442  133.3956  159.4386 H   0  0  0  0  0  0  0  0  0  0  0  0  # atno 6909 bound_to 6896
  145.6019  139.2354  143.2241 H   0  0  0  0  0  0  0  0  0  0  0  0  # atno 7974 bound_to 7965
  154.7580  140.2779  155.6238 H   0  0  0  0  0  0  0  0  0  0  0  0  # atno 8008 bound_to 7997
  156.2909  140.2665  156.2277 H   0  0  0  0  0  0  0  0  0  0  0  0  # atno 8009 bound_to 7997
  155.0054  140.0372  157.2367 H   0  0  0  0  0  0  0  0  0  0  0  0  # atno 8010 bound_to 7997
  139.4823  144.5185  151.7913 H   0  0  0  0  0  0  0  0  0  0  0  0  # atno 10167 bound_to 10162
  156.1329  130.4158  150.0237 H   0  0  0  0  0  0  0  0  0  0  0  0  # atno 10718 bound_to 10713
  153.5740  135.7007  153.5492 H   0  0  0  0  0  0  0  0  0  0  0  0  # atno 10763 bound_to 10752
  153.3319  135.4045  155.1502 H   0  0  0  0  0  0  0  0  0  0  0  0  # atno 10764 bound_to 10752
  154.8628  135.3721  154.5264 H   0  0  0  0  0  0  0  0  0  0  0  0  # atno 10765 bound_to 10752
  139.9005  134.8206  156.2425 H   0  0  0  0  0  0  0  0  0  0  0  0  # atno 11005 bound_to 11000
  146.1570  140.6844  142.9295 LP  0  0  0  0  0  0  0  0  0  0  0  0  # atno 17320 bound_to 7965
  144.7306  140.4660  143.6940 LP  0  0  0  0  0  0  0  0  0  0  0  0  # atno 17321 bound_to 7965
  140.4696  144.1605  150.5916 LP  0  0  0  0  0  0  0  0  0  0  0  0  # atno 17342 bound_to 10162
  140.4396  143.2532  151.9490 LP  0  0  0  0  0  0  0  0  0  0  0  0  # atno 17343 bound_to 10162
  156.8144  130.9336  151.3643 LP  0  0  0  0  0  0  0  0  0  0  0  0  # atno 17370 bound_to 10713
  157.6505  130.8880  149.9623 LP  0  0  0  0  0  0  0  0  0  0  0  0  # atno 17371 bound_to 10713
  141.0276  133.7006  156.1374 LP  0  0  0  0  0  0  0  0  0  0  0  0  # atno 17394 bound_to 11000
  140.7144  134.4427  157.5579 LP  0  0  0  0  0  0  0  0  0  0  0  0  # atno 17395 bound_to 11000

$$$$
