#       Name:                AV-unprocessed.smi:2004
#       Creating user name   scv26
#       Creation time:       Fri Mar 27 10:36:01 2020


#       File generated by GOLD software.
#

@<TRIPOS>MOLECULE
AV-unprocessed.smi:2004
    44    46     1
SMALL
NO_CHARGES


@<TRIPOS>ATOM
      1 ****        -0.7495   0.3851  -2.0443 O.3            1 S1                 0.0000
      2 ****        -0.2201   0.8502  -0.8182 C.3            1 S1                 0.0000
      3 ****         1.3119   0.7602  -0.8825 C.3            1 S1                 0.0000
      4 ****         1.7039  -0.5776  -0.6226 O.3            1 S1                 0.0000
      5 ****         3.1099  -0.7579  -0.6705 C.3            1 S1                 0.0000
      6 ****         3.5027  -2.1923  -0.3748 C.ar           1 S1                 0.0000
      7 ****         2.9470  -2.8632   0.7351 C.ar           1 S1                 0.0000
      8 ****         3.3221  -4.1905   1.0213 C.ar           1 S1                 0.0000
      9 ****         4.2579  -4.8505   0.2016 C.ar           1 S1                 0.0000
     10 ****         4.8200  -4.1821  -0.9031 C.ar           1 S1                 0.0000
     11 ****         4.4457  -2.8546  -1.1894 C.ar           1 S1                 0.0000
     12 ****        -0.7034   2.2953  -0.5846 C.3            1 S1                 0.0000
     13 ****        -2.1673   2.4061  -0.5406 N.pl3          1 S1                 0.0000
     14 ****        -3.0443   2.8044  -1.5015 C.2            1 S1                 0.0000
     15 ****        -4.2971   2.7251  -0.9729 N.pl3          1 S1                 1.0000
     16 ****        -4.2189   2.2693   0.3451 C.ar           1 S1                 0.0000
     17 ****        -5.2135   2.0258   1.2875 C.ar           1 S1                 0.0000
     18 ****        -4.7895   1.5592   2.5494 C.ar           1 S1                 0.0000
     19 ****        -3.4242   1.3522   2.8359 C.ar           1 S1                 0.0000
     20 ****        -2.4242   1.6028   1.8733 C.ar           1 S1                 0.0000
     21 ****        -2.8524   2.0632   0.6290 C.ar           1 S1                 0.0000
     22 ****        -0.4527  -0.5024  -2.1783 H              1 S1                 0.0000
     23 ****        -0.5876   0.2139  -0.0124 H              1 S1                 0.0000
     24 ****         1.6881   1.1082  -1.8461 H              1 S1                 0.0000
     25 ****         1.7501   1.3993  -0.1142 H              1 S1                 0.0000
     26 ****         3.4832  -0.4704  -1.6548 H              1 S1                 0.0000
     27 ****         3.5940  -0.1112   0.0626 H              1 S1                 0.0000
     28 ****         2.2314  -2.3613   1.3698 H              1 S1                 0.0000
     29 ****         2.8930  -4.7018   1.8704 H              1 S1                 0.0000
     30 ****         4.5461  -5.8680   0.4213 H              1 S1                 0.0000
     31 ****         5.5395  -4.6870  -1.5305 H              1 S1                 0.0000
     32 ****         4.8846  -2.3488  -2.0371 H              1 S1                 0.0000
     33 ****        -0.3008   2.6990   0.3453 H              1 S1                 0.0000
     34 ****        -0.3496   2.9476  -1.3845 H              1 S1                 0.0000
     35 ****        -2.7915   3.1201  -2.5035 H              1 S1                 0.0000
     36 ****        -6.2600   2.1828   1.0708 H              1 S1                 0.0000
     37 ****        -5.5261   1.3558   3.3133 H              1 S1                 0.0000
     38 ****        -3.1379   0.9934   3.8139 H              1 S1                 0.0000
     39 ****        -1.3810   1.4398   2.1001 H              1 S1                 0.0000
     40 ****        -5.1410   2.9625  -1.4783 H              1 S1                 0.0000
     41 ****        -0.4289   0.9655  -2.7929 LP             1 S1                 0.0000
     42 ****        -1.7487   0.4060  -2.0108 LP             1 S1                 0.0000
     43 ****         1.2821  -1.1727  -1.3066 LP             1 S1                 0.0000
     44 ****         1.3798  -0.8343   0.2879 LP             1 S1                 0.0000
@<TRIPOS>BOND
    1    1    2 1     
    2    1   22 1     
    3    2    3 1     
    4    2   12 1     
    5    2   23 1     
    6    3    4 1     
    7    3   24 1     
    8    3   25 1     
    9    4    5 1     
   10    5    6 1     
   11    5   26 1     
   12    5   27 1     
   13    6   11 ar    
   14    6    7 ar    
   15    7    8 ar    
   16    7   28 1     
   17    8    9 ar    
   18    8   29 1     
   19    9   10 ar    
   20    9   30 1     
   21   10   11 ar    
   22   10   31 1     
   23   11   32 1     
   24   12   13 1     
   25   12   33 1     
   26   12   34 1     
   27   13   21 1     
   28   13   14 1     
   29   14   15 2     
   30   14   35 1     
   31   15   16 1     
   32   15   40 1     
   33   16   21 ar    
   34   16   17 ar    
   35   17   18 ar    
   36   17   36 1     
   37   18   19 ar    
   38   18   37 1     
   39   19   20 ar    
   40   19   38 1     
   41   20   21 ar    
   42   20   39 1     
   43    1   41 1     
   44    1   42 1     
   45    4   43 1     
   46    4   44 1     
@<TRIPOS>SUBSTRUCTURE
      1 S1             1
@<TRIPOS>SET
LONE_PAIRS      STATIC     ATOMS    <user>   **** ""
4 41 42 43 44
DONOR_HYDROGENS      STATIC     ATOMS    <user>   **** ""
2 22 40
ATOM$BLUE        STATIC     ATOMS    COLORGROUP SYSTEM
4 41 42 43 44
ATOM$RED        STATIC     ATOMS    COLORGROUP SYSTEM
2 22 40
