AV-unprocessed.smi:2976|AV-procd|sdf|11365|dock5
  -GOLD-   2272016283D 1   1.00000     0.00000
 Structure written by MMmdl.
 40 41  0  0  0  0  0  0  0  0  1 V2000
  151.8834  145.5277  160.3574 C   0  0  0  0  0  0  0  0  0  0  0  0
  151.7123  144.0469  159.9793 C   0  0  2  0  0  0  0  0  0  0  0  0
  152.9086  143.1939  160.4475 C   0  0  0  0  0  0  0  0  0  0  0  0
  152.6815  141.7015  160.1598 C   0  0  0  0  0  0  0  0  0  0  0  0
  152.3568  141.4542  158.6787 C   0  0  0  0  0  0  0  0  0  0  0  0
  151.1599  142.3082  158.2173 C   0  0  2  0  0  0  0  0  0  0  0  0
  150.8580  142.0205  156.8166 N   0  0  0  0  0  0  0  0  0  0  0  0
  149.6609  141.6465  156.3397 C   0  0  0  0  0  0  0  0  0  0  0  0
  148.6655  141.5077  157.0526 O   0  0  0  0  0  0  0  0  0  0  0  0
  149.5909  141.4121  154.8230 C   0  0  0  0  0  0  0  0  0  0  0  0
  148.7460  140.2709  154.4407 N   0  0  0  0  0  0  0  0  0  0  0  0
  147.7364  140.5925  153.5505 N   0  0  0  0  0  0  0  0  0  0  0  0
  146.9168  139.6771  153.1631 C   0  0  0  0  0  0  0  0  0  0  0  0
  147.0144  138.3100  153.6243 C   0  0  0  0  0  0  0  0  0  0  0  0
  145.8843  137.1255  153.0702 Cl  0  0  0  0  0  0  0  0  0  0  0  0
  148.0120  138.0036  154.4915 C   0  0  0  0  0  0  0  0  0  0  0  0
  148.1928  136.3894  155.0879 Cl  0  0  0  0  0  0  0  0  0  0  0  0
  148.9659  139.0213  154.9543 C   0  0  0  0  0  0  0  0  0  0  0  0
  149.8851  138.7829  155.7386 O   0  0  0  0  0  0  0  0  0  0  0  0
  151.4036  143.8215  158.4752 C   0  0  2  0  0  0  0  0  0  0  0  0
  152.4589  144.4396  157.5283 C   0  0  0  0  0  0  0  0  0  0  0  0
  152.7970  145.9504  159.9399 H   0  0  0  0  0  0  0  0  0  0  0  0
  151.9364  145.6469  161.4399 H   0  0  0  0  0  0  0  0  0  0  0  0
  151.0424  146.1245  160.0034 H   0  0  0  0  0  0  0  0  0  0  0  0
  150.8393  143.6962  160.5323 H   0  0  0  0  0  0  0  0  0  0  0  0
  153.8244  143.5280  159.9590 H   0  0  0  0  0  0  0  0  0  0  0  0
  153.0676  143.3335  161.5172 H   0  0  0  0  0  0  0  0  0  0  0  0
  153.5633  141.1287  160.4482 H   0  0  0  0  0  0  0  0  0  0  0  0
  151.8605  141.3342  160.7769 H   0  0  0  0  0  0  0  0  0  0  0  0
  153.2345  141.6730  158.0700 H   0  0  0  0  0  0  0  0  0  0  0  0
  152.1385  140.3960  158.5290 H   0  0  0  0  0  0  0  0  0  0  0  0
  150.2969  141.9975  158.8102 H   0  0  0  0  0  0  0  0  0  0  0  0
  151.6197  142.1137  156.1604 H   0  0  0  0  0  0  0  0  0  0  0  0
  149.2186  142.3255  154.3556 H   0  0  0  0  0  0  0  0  0  0  0  0
  150.6025  141.2786  154.4349 H   0  0  0  0  0  0  0  0  0  0  0  0
  146.1047  139.8849  152.4662 H   0  0  0  0  0  0  0  0  0  0  0  0
  150.4670  144.3401  158.2653 H   0  0  0  0  0  0  0  0  0  0  0  0
  153.4474  144.0065  157.6765 H   0  0  0  0  0  0  0  0  0  0  0  0
  152.5457  145.5155  157.6755 H   0  0  0  0  0  0  0  0  0  0  0  0
  152.1917  144.2953  156.4816 H   0  0  0  0  0  0  0  0  0  0  0  0
  1  2  1  0  0  0  0
  1 22  1  0  0  0  0
  1 23  1  0  0  0  0
  1 24  1  0  0  0  0
  2 20  1  0  0  0  0
  2  3  1  0  0  0  0
  2 25  1  0  0  0  0
  3  4  1  0  0  0  0
  3 26  1  0  0  0  0
  3 27  1  0  0  0  0
  4  5  1  0  0  0  0
  4 28  1  0  0  0  0
  4 29  1  0  0  0  0
  5  6  1  0  0  0  0
  5 30  1  0  0  0  0
  5 31  1  0  0  0  0
  6  7  1  0  0  0  0
  6 20  1  0  0  0  0
  6 32  1  0  0  0  0
  7  8  1  0  0  0  0
  7 33  1  0  0  0  0
  8  9  2  0  0  0  0
  8 10  1  0  0  0  0
 10 11  1  0  0  0  0
 10 34  1  0  0  0  0
 10 35  1  0  0  0  0
 11 18  1  0  0  0  0
 11 12  1  0  0  0  0
 12 13  2  0  0  0  0
 13 14  1  0  0  0  0
 13 36  1  0  0  0  0
 14 15  1  0  0  0  0
 14 16  2  0  0  0  0
 16 17  1  0  0  0  0
 16 18  1  0  0  0  0
 18 19  2  0  0  0  0
 20 21  1  0  0  0  0
 20 37  1  0  0  0  0
 21 38  1  0  0  0  0
 21 39  1  0  0  0  0
 21 40  1  0  0  0  0
M  END
> <s_m_source_file>
AV-unprocessed.smi

> <i_m_source_file_index>
2976

> <i_lp_mmshare_version>
43012

> <i_f3d_flags>
0

> <s_epik_input>
W0NIM11bQ0BASF0xW0NIMl1bQ0gyXVtDSDJdW0NASF0oW0NASF0xW0NIM10pW05IXUMoPU8pW0NIMl1uMm5bY0hdYyhDbCljKENsKWMyPU8=

> <s_epik_cmdline>
J2VwaWtfcHl0aG9uJywgJy1waCcsICc3LjAnLCAnLXRuJywgJzgnLCAnLW1hJywgJzIwMCcsICctbWV0YWxfYmluZGluZycsICctaW1hZScsICc8aW5maWxlLm1hZT4nLCAnLW9tYWUnLCAnPG91dGZpbGUubWFlPic=

> <r_lp_tautomer_probability>
1

> <r_epik_Ionization_Penalty>
1.90777e-08

> <r_epik_Ionization_Penalty_Charging>
3.07942e-11

> <r_epik_Ionization_Penalty_Neutral>
1.90469e-08

> <r_epik_State_Penalty>
-0

> <r_epik_Charging_Adjusted_Penalty>
3.07942e-11

> <i_epik_Tot_Q>
0

> <i_epik_Tot_abs_Q>
0

> <r_epik_Metal_State_Penalty>
-0

> <b_epik_Metal_Only>
0

> <s_lp_Force_Field>
OPLS_2005

> <r_lp_Energy>
28.3124

> <b_lp_Chiralities_Consistent>
1

> <s_lp_Variant>
AV-unprocessed.smi:2976-7

> <Gold.Version>
5.8.1

> <Gold.Id.Protein>
6NUR|6NUR_protein|mol2

> <Gold.PLP.Fitness>
40.3415

> <Gold.PLP.PLP>
-38.1098

> <Gold.PLP.part.hbond>
0.0000

> <Gold.PLP.part.metal>
0.0000

> <Gold.PLP.part.buried>
-4.5472

> <Gold.PLP.part.nonpolar>
-34.5330

> <Gold.PLP.part.repulsive>
0.7365

> <Gold.PLP.ligand.clash>
0.0000

> <Gold.PLP.ligand.torsion>
0.3909

> <Gold.PLP.Chemscore.Hbond>
0.0000

> <Gold.PLP.Chemscore.CHOScore>
1.0000

> <Gold.PLP.Chemscore.Metal>
0.0000

> <Gold.Chemscore.Hbonds>
donor molecule, donor type, donor heavy atom, donor atom, acceptor molecule, acceptor atom, score
      L1  C    13    36       P1 10175  1.00

> <Gold.PLP.Chemscore.Internal.Correction>
0.0135

> <Gold.Rescore>
     Score         DG    S(hbond)    S(metal)    S(lipo)     H(rot)  DE(clash)    DE(int)     intcor
     13.87     -15.34       0.00        0.00     116.80       1.49       0.09       1.38       ----

> <Gold.Chemscore.Fitness>
13.8726

> <Gold.Chemscore.DG>
-15.3396

> <Gold.Chemscore.ZeroCoef>
-5.4800

> <Gold.Chemscore.Hbond>
0.0000

> <Gold.Chemscore.Metal>
0.0000

> <Gold.Chemscore.Lipo>
116.7968

> <Gold.Chemscore.Internal_Hbond>
0.0000

> <Gold.Chemscore.DEClash>
0.0877

> <Gold.Chemscore.DEInternal>
1.3793

> <Gold.Chemscore.Rot>
1.4866

> <Gold.Chemscore.Internal.Correction>
   9.000000E+99

> <Gold.Chemscore.Hbond.Weighted>
-0.0000

> <Gold.Chemscore.Metal.Weighted>
-0.0000

> <Gold.Chemscore.Lipo.Weighted>
-13.6652

> <Gold.Chemscore.Internal_Hbond.Weighted>
0.0000

> <Gold.Chemscore.DEClash.Weighted>
0.0877

> <Gold.Chemscore.DEInternal.Weighted>
1.3793

> <Gold.Chemscore.Rot.Weighted>
3.8057

> <Gold.Chemscore.Internal.Correction.Weighted>
   9.000000E+99

> <Gold.Protein.RotatedTorsions>
[ 6907 6896 6895 6894 ] final  -91.70 input  -60.11 | X-H torsion
[ 7974 7965 7964 7962 ] final  -13.45 input  175.53 | X-H torsion
[ 8008 7997 7996 7995 ] final -115.61 input   59.86 | X-H torsion
[ 10167 10162 10161 10158 ] final -126.64 input  -65.29 | X-H torsion
[ 10718 10713 10712 10709 ] final   -0.21 input   66.30 | X-H torsion
[ 10763 10752 10751 10750 ] final   10.13 input  -60.55 | X-H torsion
[ 11005 11000 10999 10996 ] final  127.39 input  -57.11 | X-H torsion

> <Gold.Protein.ActiveResidues>
 VAL166  LYS551  ARG553  GLY616  TRP617  ASP618  TYR619  PRO620  LYS621  CYS622 
 ASP623  PHE694  ASN695  SER759  ASP760  ASP761  ALA762  ILE779  LEU786  VAL792 
 PHE793  MET794  SER795  GLU796  ALA797  LYS798  CYS799  TRP800  GLU811  SER814 

> <Gold.Protein.RotatedAtoms>
  150.6896  134.2237  159.4406 H   0  0  0  0  0  0  0  0  0  0  0  0  # atno 6907 bound_to 6896
  152.0191  134.9830  160.0579 H   0  0  0  0  0  0  0  0  0  0  0  0  # atno 6908 bound_to 6896
  152.1414  133.4431  159.4805 H   0  0  0  0  0  0  0  0  0  0  0  0  # atno 6909 bound_to 6896
  146.2113  140.3205  142.8390 H   0  0  0  0  0  0  0  0  0  0  0  0  # atno 7974 bound_to 7965
  155.0548  140.0393  157.2556 H   0  0  0  0  0  0  0  0  0  0  0  0  # atno 8008 bound_to 7997
  154.7108  140.2692  155.6607 H   0  0  0  0  0  0  0  0  0  0  0  0  # atno 8009 bound_to 7997
  156.2789  140.2722  156.1749 H   0  0  0  0  0  0  0  0  0  0  0  0  # atno 8010 bound_to 7997
  139.9693  143.5863  152.2418 H   0  0  0  0  0  0  0  0  0  0  0  0  # atno 10167 bound_to 10162
  156.8237  130.5465  149.5694 H   0  0  0  0  0  0  0  0  0  0  0  0  # atno 10718 bound_to 10713
  153.2065  135.6863  153.8166 H   0  0  0  0  0  0  0  0  0  0  0  0  # atno 10763 bound_to 10752
  153.7414  135.3237  155.3306 H   0  0  0  0  0  0  0  0  0  0  0  0  # atno 10764 bound_to 10752
  154.8199  135.4659  154.0854 H   0  0  0  0  0  0  0  0  0  0  0  0  # atno 10765 bound_to 10752
  139.9505  134.9623  156.8847 H   0  0  0  0  0  0  0  0  0  0  0  0  # atno 11005 bound_to 11000
  144.8923  140.7539  143.5919 LP  0  0  0  0  0  0  0  0  0  0  0  0  # atno 17320 bound_to 7965
  145.3128  139.1813  143.4629 LP  0  0  0  0  0  0  0  0  0  0  0  0  # atno 17321 bound_to 7965
  139.6493  144.7660  151.2180 LP  0  0  0  0  0  0  0  0  0  0  0  0  # atno 17342 bound_to 10162
  140.7527  143.6187  150.8534 LP  0  0  0  0  0  0  0  0  0  0  0  0  # atno 17343 bound_to 10162
  156.0974  130.5942  150.9836 LP  0  0  0  0  0  0  0  0  0  0  0  0  # atno 17370 bound_to 10713
  157.6443  131.0906  150.8186 LP  0  0  0  0  0  0  0  0  0  0  0  0  # atno 17371 bound_to 10713
  140.5731  134.0424  155.7437 LP  0  0  0  0  0  0  0  0  0  0  0  0  # atno 17394 bound_to 11000
  141.1166  133.9529  157.2810 LP  0  0  0  0  0  0  0  0  0  0  0  0  # atno 17395 bound_to 11000

$$$$
