AV-unprocessed.smi:3280|AV-procd|sdf|12553|dock1
  -GOLD-   2272018473D 1   1.00000     0.00000
 Structure written by MMmdl.
 39 40  0  0  0  0  0  0  0  0  2 V2000
  147.7420  144.8418  161.1840 C   0  0  0  0  0  0  0  0  0  0  0  0
  146.4080  144.2582  160.6954 C   0  0  0  0  0  0  0  0  0  0  0  0
  145.5231  143.7455  161.8414 C   0  0  0  0  0  0  0  0  0  0  0  0
  146.6123  143.2130  159.6416 C   0  0  0  0  0  0  0  0  0  0  0  0
  146.1039  141.9928  159.7728 N   0  0  0  0  0  0  0  0  0  0  0  0
  146.5077  141.3426  158.5980 O   0  0  0  0  0  0  0  0  0  0  0  0
  147.2313  142.2523  157.9037 C   0  0  0  0  0  0  0  0  0  0  0  0
  147.7672  141.8765  156.5635 C   0  0  0  0  0  0  0  0  0  0  0  0
  149.2234  141.4000  156.6318 C   0  0  0  0  0  0  0  0  0  0  0  0
  150.1609  142.5347  156.5138 N   0  3  0  0  0  0  0  0  0  0  0  0
  150.7860  142.9568  157.7862 C   0  0  1  0  0  0  0  0  0  0  0  0
  151.6750  141.8224  158.3308 C   0  0  0  0  0  0  0  0  0  0  0  0
  152.3130  142.1667  159.6868 C   0  0  0  0  0  0  0  0  0  0  0  0
  153.2210  143.4021  159.6111 C   0  0  0  0  0  0  0  0  0  0  0  0
  152.2822  144.8748  159.1237 S   0  0  0  0  0  0  0  0  0  0  0  0
  151.5885  144.2516  157.5681 C   0  0  0  0  0  0  0  0  0  0  0  0
  147.3118  143.4413  158.4941 N   0  0  0  0  0  0  0  0  0  0  0  0
  148.3136  145.2605  160.3552 H   0  0  0  0  0  0  0  0  0  0  0  0
  148.3578  144.0802  161.6632 H   0  0  0  0  0  0  0  0  0  0  0  0
  147.5786  145.6399  161.9087 H   0  0  0  0  0  0  0  0  0  0  0  0
  145.8633  145.0832  160.2327 H   0  0  0  0  0  0  0  0  0  0  0  0
  144.5555  143.4077  161.4687 H   0  0  0  0  0  0  0  0  0  0  0  0
  145.3385  144.5303  162.5753 H   0  0  0  0  0  0  0  0  0  0  0  0
  145.9906  142.9090  162.3616 H   0  0  0  0  0  0  0  0  0  0  0  0
  147.1340  141.0936  156.1437 H   0  0  0  0  0  0  0  0  0  0  0  0
  147.6817  142.7387  155.9007 H   0  0  0  0  0  0  0  0  0  0  0  0
  149.4032  140.8828  157.5754 H   0  0  0  0  0  0  0  0  0  0  0  0
  149.4197  140.6884  155.8284 H   0  0  0  0  0  0  0  0  0  0  0  0
  150.8957  142.2758  155.8709 H   0  0  0  0  0  0  0  0  0  0  0  0
  150.0031  143.1599  158.5194 H   0  0  0  0  0  0  0  0  0  0  0  0
  151.0785  140.9161  158.4430 H   0  0  0  0  0  0  0  0  0  0  0  0
  152.4586  141.5847  157.6099 H   0  0  0  0  0  0  0  0  0  0  0  0
  151.5335  142.3282  160.4325 H   0  0  0  0  0  0  0  0  0  0  0  0
  152.8963  141.3141  160.0360 H   0  0  0  0  0  0  0  0  0  0  0  0
  153.6861  143.5890  160.5794 H   0  0  0  0  0  0  0  0  0  0  0  0
  154.0273  143.2397  158.8953 H   0  0  0  0  0  0  0  0  0  0  0  0
  152.4021  144.0859  156.8607 H   0  0  0  0  0  0  0  0  0  0  0  0
  150.9505  145.0284  157.1451 H   0  0  0  0  0  0  0  0  0  0  0  0
  149.6622  143.3238  156.1278 H   0  0  0  0  0  0  0  0  0  0  0  0
  1  2  1  0  0  0  0
  1 18  1  0  0  0  0
  1 19  1  0  0  0  0
  1 20  1  0  0  0  0
  2  3  1  0  0  0  0
  2  4  1  0  0  0  0
  2 21  1  0  0  0  0
  3 22  1  0  0  0  0
  3 23  1  0  0  0  0
  3 24  1  0  0  0  0
  4 17  1  0  0  0  0
  4  5  2  0  0  0  0
  5  6  1  0  0  0  0
  6  7  1  0  0  0  0
  7  8  1  0  0  0  0
  7 17  2  0  0  0  0
  8  9  1  0  0  0  0
  8 25  1  0  0  0  0
  8 26  1  0  0  0  0
  9 10  1  0  0  0  0
  9 27  1  0  0  0  0
  9 28  1  0  0  0  0
 10 11  1  0  0  0  0
 10 29  1  0  0  0  0
 10 39  1  0  0  0  0
 11 16  1  0  0  0  0
 11 12  1  0  0  0  0
 11 30  1  0  0  0  0
 12 13  1  0  0  0  0
 12 31  1  0  0  0  0
 12 32  1  0  0  0  0
 13 14  1  0  0  0  0
 13 33  1  0  0  0  0
 13 34  1  0  0  0  0
 14 15  1  0  0  0  0
 14 35  1  0  0  0  0
 14 36  1  0  0  0  0
 15 16  1  0  0  0  0
 16 37  1  0  0  0  0
 16 38  1  0  0  0  0
M  CHG  1  10   1
M  END
> <s_m_source_file>
AV-unprocessed.smi

> <i_m_source_file_index>
3280

> <i_lp_mmshare_version>
43012

> <i_f3d_flags>
0

> <s_epik_input>
W0NIM11bQ0hdKFtDSDNdKWMxbm9jKG4xKVtDSDJdW0NIMl1bTkhdW0NAQEhdMltDSDJdW0NIMl1bQ0gyXVNbQ0gyXTI=

> <s_epik_cmdline>
J2VwaWtfcHl0aG9uJywgJy1waCcsICc3LjAnLCAnLXRuJywgJzgnLCAnLW1hJywgJzIwMCcsICctbWV0YWxfYmluZGluZycsICctaW1hZScsICc8aW5maWxlLm1hZT4nLCAnLW9tYWUnLCAnPG91dGZpbGUubWFlPic=

> <r_lp_tautomer_probability>
1

> <r_epik_Ionization_Penalty>
0.0103043

> <r_epik_Ionization_Penalty_Charging>
0.0103043

> <r_epik_Ionization_Penalty_Neutral>
2.61801e-13

> <r_epik_State_Penalty>
0.0078728

> <r_epik_Charging_Adjusted_Penalty>
0.0181771

> <i_epik_Tot_Q>
1

> <i_epik_Tot_abs_Q>
1

> <r_epik_Metal_State_Penalty>
0.0078728

> <b_epik_Metal_Only>
0

> <s_lp_Force_Field>
OPLS_2005

> <r_lp_Energy>
2.51022

> <b_lp_Chiralities_Consistent>
1

> <s_lp_Variant>
AV-unprocessed.smi:3280-2

> <Gold.Version>
5.8.1

> <Gold.Id.Protein>
6NUR|6NUR_protein|mol2

> <Gold.PLP.Fitness>
43.3043

> <Gold.PLP.PLP>
-37.1476

> <Gold.PLP.part.hbond>
-3.0000

> <Gold.PLP.part.metal>
0.0000

> <Gold.PLP.part.buried>
-5.4114

> <Gold.PLP.part.nonpolar>
-30.3830

> <Gold.PLP.part.repulsive>
1.8818

> <Gold.PLP.ligand.clash>
0.0000

> <Gold.PLP.ligand.torsion>
0.8812

> <Gold.PLP.Chemscore.Hbond>
2.6000

> <Gold.PLP.Chemscore.CHOScore>
0.0000

> <Gold.PLP.Chemscore.Metal>
0.0000

> <Gold.Chemscore.Hbonds>
donor molecule, donor type, donor heavy atom, donor atom, acceptor molecule, acceptor atom, score
      L1  H    10    39       P1  8028  2.00
      P1  H  6934  6946       L1     5  0.55

> <Gold.PLP.Chemscore.Internal.Correction>
0.1191

> <Gold.Rescore>
     Score         DG    S(hbond)    S(metal)    S(lipo)     H(rot)  DE(clash)    DE(int)     intcor
     14.87     -15.99       1.20        0.00      93.94       1.76       0.13       0.98       ----

> <Gold.Chemscore.Fitness>
14.8741

> <Gold.Chemscore.DG>
-15.9881

> <Gold.Chemscore.ZeroCoef>
-5.4800

> <Gold.Chemscore.Hbond>
1.2023

> <Gold.Chemscore.Metal>
0.0000

> <Gold.Chemscore.Lipo>
93.9377

> <Gold.Chemscore.Internal_Hbond>
0.0000

> <Gold.Chemscore.DEClash>
0.1325

> <Gold.Chemscore.DEInternal>
0.9815

> <Gold.Chemscore.Rot>
1.7572

> <Gold.Chemscore.Internal.Correction>
   9.000000E+99

> <Gold.Chemscore.Hbonds>
donor molecule, donor type, donor heavy atom, donor atom, acceptor molecule, acceptor atom, score
      L1  H    10    39       P1  8028  1.00
      P1  H  6934  6946       L1     5  0.03

> <Gold.Chemscore.Hbond.Weighted>
-4.0158

> <Gold.Chemscore.Metal.Weighted>
-0.0000

> <Gold.Chemscore.Lipo.Weighted>
-10.9907

> <Gold.Chemscore.Internal_Hbond.Weighted>
0.0000

> <Gold.Chemscore.DEClash.Weighted>
0.1325

> <Gold.Chemscore.DEInternal.Weighted>
0.9815

> <Gold.Chemscore.Rot.Weighted>
4.4984

> <Gold.Chemscore.Internal.Correction.Weighted>
   9.000000E+99

> <Gold.Protein.RotatedTorsions>
[ 6907 6896 6895 6894 ] final   16.34 input  -60.11 | X-H torsion
[ 7974 7965 7964 7962 ] final   43.53 input  175.53 | X-H torsion
[ 8008 7997 7996 7995 ] final  155.06 input   59.86 | X-H torsion
[ 10167 10162 10161 10158 ] final  154.21 input  -65.29 | X-H torsion
[ 10718 10713 10712 10709 ] final   77.67 input   66.30 | X-H torsion
[ 10763 10752 10751 10750 ] final -116.16 input  -60.55 | X-H torsion
[ 11005 11000 10999 10996 ] final  179.01 input  -57.11 | X-H torsion

> <Gold.Protein.ActiveResidues>
 VAL166  LYS551  ARG553  GLY616  TRP617  ASP618  TYR619  PRO620  LYS621  CYS622 
 ASP623  PHE694  ASN695  SER759  ASP760  ASP761  ALA762  ILE779  LEU786  VAL792 
 PHE793  MET794  SER795  GLU796  ALA797  LYS798  CYS799  TRP800  GLU811  SER814 

> <Gold.Protein.RotatedAtoms>
  151.8324  135.0617  160.0438 H   0  0  0  0  0  0  0  0  0  0  0  0  # atno 6907 bound_to 6896
  152.2871  133.5521  159.5542 H   0  0  0  0  0  0  0  0  0  0  0  0  # atno 6908 bound_to 6896
  150.7214  134.0398  159.3804 H   0  0  0  0  0  0  0  0  0  0  0  0  # atno 6909 bound_to 6896
  146.0647  139.5176  142.9636 H   0  0  0  0  0  0  0  0  0  0  0  0  # atno 7974 bound_to 7965
  156.2498  140.1950  156.6743 H   0  0  0  0  0  0  0  0  0  0  0  0  # atno 8008 bound_to 7997
  154.6369  140.0588  156.9826 H   0  0  0  0  0  0  0  0  0  0  0  0  # atno 8009 bound_to 7997
  155.1622  140.3261  155.4412 H   0  0  0  0  0  0  0  0  0  0  0  0  # atno 8010 bound_to 7997
  139.4824  144.5206  151.7882 H   0  0  0  0  0  0  0  0  0  0  0  0  # atno 10167 bound_to 10162
  157.6718  130.9832  150.1675 H   0  0  0  0  0  0  0  0  0  0  0  0  # atno 10718 bound_to 10713
  154.8509  135.4355  154.1778 H   0  0  0  0  0  0  0  0  0  0  0  0  # atno 10763 bound_to 10752
  153.2876  135.6959  153.7331 H   0  0  0  0  0  0  0  0  0  0  0  0  # atno 10764 bound_to 10752
  153.6510  135.3451  155.3074 H   0  0  0  0  0  0  0  0  0  0  0  0  # atno 10765 bound_to 10752
  140.4014  134.6774  157.4564 H   0  0  0  0  0  0  0  0  0  0  0  0  # atno 11005 bound_to 11000
  145.6498  141.0265  143.1766 LP  0  0  0  0  0  0  0  0  0  0  0  0  # atno 17320 bound_to 7965
  144.7195  139.8079  143.7387 LP  0  0  0  0  0  0  0  0  0  0  0  0  # atno 17321 bound_to 7965
  140.4720  144.1573  150.5919 LP  0  0  0  0  0  0  0  0  0  0  0  0  # atno 17342 bound_to 10162
  140.4372  143.2542  151.9520 LP  0  0  0  0  0  0  0  0  0  0  0  0  # atno 17343 bound_to 10162
  156.2437  130.3693  149.8309 LP  0  0  0  0  0  0  0  0  0  0  0  0  # atno 17370 bound_to 10713
  156.6101  130.8583  151.3452 LP  0  0  0  0  0  0  0  0  0  0  0  0  # atno 17371 bound_to 10713
  140.0334  134.6373  155.9076 LP  0  0  0  0  0  0  0  0  0  0  0  0  # atno 17394 bound_to 11000
  141.1855  133.6555  156.5202 LP  0  0  0  0  0  0  0  0  0  0  0  0  # atno 17395 bound_to 11000

$$$$
