#       Name:                AV-unprocessed.smi:1570
#       Creating user name   scv26
#       Creation time:       Fri Mar 27 06:52:28 2020


#       File generated by GOLD software.
#

@<TRIPOS>MOLECULE
AV-unprocessed.smi:1570
    58    60     1
SMALL
NO_CHARGES


@<TRIPOS>ATOM
      1 ****        -2.3987   3.2929   1.8163 C.3            1 S1                 0.0000
      2 ****        -3.6035   2.6764   1.0939 C.3            1 S1                 0.0000
      3 ****        -3.1781   1.6834   0.1109 N.am           1 S1                 0.0000
      4 ****        -3.0063   0.3581   0.3263 C.2            1 S1                 0.0000
      5 ****        -3.1937  -0.2325   1.3897 O.2            1 S1                 0.0000
      6 ****        -2.5538  -0.2001  -0.8217 N.am           1 S1                 0.0000
      7 ****        -2.1846  -1.6003  -1.0276 C.3            1 S1                 0.0000
      8 ****        -0.6594  -1.8137  -0.9430 C.3            1 S1                 0.0000
      9 ****        -0.3783  -3.1263  -1.3845 O.3            1 S1                 0.0000
     10 ****        -0.1006  -1.6455   0.4866 C.3            1 S1                 0.0000
     11 ****         1.3817  -1.7023   0.5306 N.4            1 S1                 1.0000
     12 ****         2.0327  -0.4437   0.0903 C.3            1 S1                 0.0000
     13 ****         3.5656  -0.5879   0.1207 C.3            1 S1                 0.0000
     14 ****         4.2737   0.7207  -0.2473 C.3            1 S1                 0.0000
     15 ****         3.9722  -0.9584   1.4336 O.3            1 S1                 0.0000
     16 ****         3.4293  -2.2089   1.8432 C.3            1 S1                 0.0000
     17 ****         4.0030  -2.5494   3.2231 C.3            1 S1                 0.0000
     18 ****         1.8924  -2.1075   1.8612 C.3            1 S1                 0.0000
     19 ****        -2.4222   0.8000  -1.7958 C.ar           1 S1                 0.0000
     20 ****        -1.9836   0.7390  -3.1301 C.ar           1 S1                 0.0000
     21 ****        -1.9550   1.9519  -3.8573 C.ar           1 S1                 0.0000
     22 ****        -2.3532   3.1721  -3.2520 C.ar           1 S1                 0.0000
     23 ****        -2.7902   3.2050  -1.9069 C.ar           1 S1                 0.0000
     24 ****        -2.8120   1.9852  -1.2084 C.ar           1 S1                 0.0000
     25 ****        -2.7232   4.0326   2.5483 H              1 S1                 0.0000
     26 ****        -1.7302   3.7918   1.1140 H              1 S1                 0.0000
     27 ****        -1.8233   2.5324   2.3452 H              1 S1                 0.0000
     28 ****        -4.2754   2.2162   1.8200 H              1 S1                 0.0000
     29 ****        -4.1826   3.4567   0.5993 H              1 S1                 0.0000
     30 ****        -2.6987  -2.2404  -0.3083 H              1 S1                 0.0000
     31 ****        -2.5505  -1.9027  -2.0098 H              1 S1                 0.0000
     32 ****        -0.1718  -1.1256  -1.6325 H              1 S1                 0.0000
     33 ****        -0.7310  -3.2349  -2.2549 H              1 S1                 0.0000
     34 ****        -0.4195  -0.7005   0.9260 H              1 S1                 0.0000
     35 ****        -0.5233  -2.4287   1.1184 H              1 S1                 0.0000
     36 ****         1.7139  -0.1826  -0.9183 H              1 S1                 0.0000
     37 ****         1.7215   0.3737   0.7432 H              1 S1                 0.0000
     38 ****         3.8775  -1.3610  -0.5838 H              1 S1                 0.0000
     39 ****         4.0054   1.0429  -1.2538 H              1 S1                 0.0000
     40 ****         5.3568   0.6004  -0.2154 H              1 S1                 0.0000
     41 ****         4.0074   1.5219   0.4428 H              1 S1                 0.0000
     42 ****         3.7385  -2.9832   1.1385 H              1 S1                 0.0000
     43 ****         3.6234  -3.5064   3.5816 H              1 S1                 0.0000
     44 ****         3.7413  -1.7883   3.9588 H              1 S1                 0.0000
     45 ****         5.0906  -2.6164   3.1868 H              1 S1                 0.0000
     46 ****         1.5686  -1.3831   2.6105 H              1 S1                 0.0000
     47 ****         1.4647  -3.0715   2.1403 H              1 S1                 0.0000
     48 ****        -1.6794  -0.1922  -3.5848 H              1 S1                 0.0000
     49 ****        -1.6247   1.9494  -4.8857 H              1 S1                 0.0000
     50 ****        -2.3216   4.0872  -3.8248 H              1 S1                 0.0000
     51 ****        -3.0918   4.1311  -1.4406 H              1 S1                 0.0000
     52 ****         1.6602  -2.4288  -0.1140 H              1 S1                 0.0000
     53 ****        -3.5016   0.2738   2.1953 LP             1 S1                 0.0000
     54 ****        -3.0381  -1.2186   1.4482 LP             1 S1                 0.0000
     55 ****        -0.8012  -3.7876  -0.7650 LP             1 S1                 0.0000
     56 ****         0.6110  -3.2710  -1.4017 LP             1 S1                 0.0000
     57 ****         3.6689  -0.2526   2.0738 LP             1 S1                 0.0000
     58 ****         4.9701  -1.0204   1.4542 LP             1 S1                 0.0000
@<TRIPOS>BOND
    1    1    2 1     
    2    1   25 1     
    3    1   26 1     
    4    1   27 1     
    5    2    3 1     
    6    2   28 1     
    7    2   29 1     
    8    3   24 1     
    9    3    4 am    
   10    4    5 2     
   11    4    6 am    
   12    6    7 1     
   13    6   19 1     
   14    7    8 1     
   15    7   30 1     
   16    7   31 1     
   17    8    9 1     
   18    8   10 1     
   19    8   32 1     
   20    9   33 1     
   21   10   11 1     
   22   10   34 1     
   23   10   35 1     
   24   11   18 1     
   25   11   12 1     
   26   11   52 1     
   27   12   13 1     
   28   12   36 1     
   29   12   37 1     
   30   13   14 1     
   31   13   15 1     
   32   13   38 1     
   33   14   39 1     
   34   14   40 1     
   35   14   41 1     
   36   15   16 1     
   37   16   17 1     
   38   16   18 1     
   39   16   42 1     
   40   17   43 1     
   41   17   44 1     
   42   17   45 1     
   43   18   46 1     
   44   18   47 1     
   45   19   24 ar    
   46   19   20 ar    
   47   20   21 ar    
   48   20   48 1     
   49   21   22 ar    
   50   21   49 1     
   51   22   23 ar    
   52   22   50 1     
   53   23   24 ar    
   54   23   51 1     
   55    5   53 1     
   56    5   54 1     
   57    9   55 1     
   58    9   56 1     
   59   15   57 1     
   60   15   58 1     
@<TRIPOS>SUBSTRUCTURE
      1 S1             1
@<TRIPOS>SET
LONE_PAIRS      STATIC     ATOMS    <user>   **** ""
6 53 54 55 56 57 58
DONOR_HYDROGENS      STATIC     ATOMS    <user>   **** ""
2 33 52
ATOM$BLUE        STATIC     ATOMS    COLORGROUP SYSTEM
6 53 54 55 56 57 58
ATOM$RED        STATIC     ATOMS    COLORGROUP SYSTEM
2 33 52
