AV-unprocessed.smi:242|AV-procd|sdf|1845|dock3
  -GOLD-   2262020463D 1   1.00000     0.00000
 Structure written by MMmdl.
 58 61  0  0  0  0  0  0  0  0  2 V2000
  149.6253  133.6874  154.4912 C   0  0  0  0  0  0  0  0  0  0  0  0
  148.2013  133.9923  153.9875 C   0  0  0  0  0  0  0  0  0  0  0  0
  148.0287  133.4297  152.5637 C   0  0  0  0  0  0  0  0  0  0  0  0
  147.9017  135.4515  154.0270 N   0  3  1  0  0  0  0  0  0  0  0  0
  146.5186  135.8246  153.6336 C   0  0  0  0  0  0  0  0  0  0  0  0
  146.0511  136.9107  154.6101 C   0  0  0  0  0  0  0  0  0  0  0  0
  147.3416  137.4083  155.2673 C   0  0  1  0  0  0  0  0  0  0  0  0
  147.1607  138.0405  156.5759 N   0  0  0  0  0  0  0  0  0  0  0  0
  146.3157  137.3367  157.5330 C   0  0  0  0  0  0  0  0  0  0  0  0
  148.3072  138.4616  157.1535 C   0  0  0  0  0  0  0  0  0  0  0  0
  148.8678  137.6507  158.0835 N   0  0  0  0  0  0  0  0  0  0  0  0
  149.9952  138.0222  158.6981 C   0  0  0  0  0  0  0  0  0  0  0  0
  150.7071  139.1396  158.5339 N   0  0  0  0  0  0  0  0  0  0  0  0
  150.1448  139.9540  157.5950 C   0  0  0  0  0  0  0  0  0  0  0  0
  148.9564  139.6931  156.8579 C   0  0  0  0  0  0  0  0  0  0  0  0
  148.6955  140.7444  155.9875 N   0  0  0  0  0  0  0  0  0  0  0  0
  149.6757  141.5801  156.1982 C   0  0  0  0  0  0  0  0  0  0  0  0
  150.5844  141.1908  157.1569 N   0  0  0  0  0  0  0  0  0  0  0  0
  151.7593  141.9272  157.5974 C   0  0  0  0  0  0  0  0  0  0  0  0
  151.4536  143.3649  158.0874 C   0  0  0  0  0  0  0  0  0  0  0  0
  151.3453  144.2015  156.9484 O   0  0  0  0  0  0  0  0  0  0  0  0
  150.1119  143.3985  158.8468 C   0  0  0  0  0  0  0  0  0  0  0  0
  149.8500  144.7650  159.5049 C   0  0  0  0  0  0  0  0  0  0  0  0
  150.9343  145.1083  160.3586 O   0  0  0  0  0  0  0  0  0  0  0  0
  152.1585  145.2631  159.6514 C   0  0  0  0  0  0  0  0  0  0  0  0
  152.5657  143.9301  158.9981 C   0  0  0  0  0  0  0  0  0  0  0  0
  148.1703  136.1253  155.3161 C   0  0  0  0  0  0  0  0  0  0  0  0
  149.8455  132.6221  154.4150 H   0  0  0  0  0  0  0  0  0  0  0  0
  149.7568  133.9595  155.5384 H   0  0  0  0  0  0  0  0  0  0  0  0
  150.3763  134.2215  153.9080 H   0  0  0  0  0  0  0  0  0  0  0  0
  147.4954  133.4837  154.6461 H   0  0  0  0  0  0  0  0  0  0  0  0
  148.2722  132.3673  152.5312 H   0  0  0  0  0  0  0  0  0  0  0  0
  148.6833  133.9388  151.8555 H   0  0  0  0  0  0  0  0  0  0  0  0
  147.0055  133.5299  152.2019 H   0  0  0  0  0  0  0  0  0  0  0  0
  146.5331  136.1966  152.6088 H   0  0  0  0  0  0  0  0  0  0  0  0
  145.8343  134.9759  153.6708 H   0  0  0  0  0  0  0  0  0  0  0  0
  145.4932  137.7066  154.1150 H   0  0  0  0  0  0  0  0  0  0  0  0
  145.3966  136.4631  155.3601 H   0  0  0  0  0  0  0  0  0  0  0  0
  147.8351  138.1102  154.5933 H   0  0  0  0  0  0  0  0  0  0  0  0
  146.3485  137.8088  158.5163 H   0  0  0  0  0  0  0  0  0  0  0  0
  146.6317  136.2983  157.6408 H   0  0  0  0  0  0  0  0  0  0  0  0
  145.2778  137.3449  157.2001 H   0  0  0  0  0  0  0  0  0  0  0  0
  150.3814  137.3250  159.4271 H   0  0  0  0  0  0  0  0  0  0  0  0
  149.7593  142.5151  155.6631 H   0  0  0  0  0  0  0  0  0  0  0  0
  152.2456  141.3534  158.3876 H   0  0  0  0  0  0  0  0  0  0  0  0
  152.4672  141.9575  156.7680 H   0  0  0  0  0  0  0  0  0  0  0  0
  150.4321  144.3989  156.8053 H   0  0  0  0  0  0  0  0  0  0  0  0
  149.2876  143.1406  158.1804 H   0  0  0  0  0  0  0  0  0  0  0  0
  150.1210  142.6376  159.6283 H   0  0  0  0  0  0  0  0  0  0  0  0
  149.7014  145.5427  158.7541 H   0  0  0  0  0  0  0  0  0  0  0  0
  148.9368  144.7228  160.0986 H   0  0  0  0  0  0  0  0  0  0  0  0
  152.0631  146.0532  158.9051 H   0  0  0  0  0  0  0  0  0  0  0  0
  152.9293  145.5841  160.3520 H   0  0  0  0  0  0  0  0  0  0  0  0
  152.7849  143.2098  159.7873 H   0  0  0  0  0  0  0  0  0  0  0  0
  153.4932  144.0673  158.4411 H   0  0  0  0  0  0  0  0  0  0  0  0
  147.8356  135.4920  156.1403 H   0  0  0  0  0  0  0  0  0  0  0  0
  149.2336  136.3282  155.4484 H   0  0  0  0  0  0  0  0  0  0  0  0
  148.5099  135.8962  153.3543 H   0  0  0  0  0  0  0  0  0  0  0  0
  1  2  1  0  0  0  0
  1 28  1  0  0  0  0
  1 29  1  0  0  0  0
  1 30  1  0  0  0  0
  2  3  1  0  0  0  0
  2  4  1  0  0  0  0
  2 31  1  0  0  0  0
  3 32  1  0  0  0  0
  3 33  1  0  0  0  0
  3 34  1  0  0  0  0
  4 27  1  0  0  0  0
  4  5  1  0  0  0  0
  4 58  1  0  0  0  0
  5  6  1  0  0  0  0
  5 35  1  0  0  0  0
  5 36  1  0  0  0  0
  6  7  1  0  0  0  0
  6 37  1  0  0  0  0
  6 38  1  0  0  0  0
  7  8  1  0  0  0  0
  7 27  1  0  0  0  0
  7 39  1  0  0  0  0
  8  9  1  0  0  0  0
  8 10  1  0  0  0  0
  9 40  1  0  0  0  0
  9 41  1  0  0  0  0
  9 42  1  0  0  0  0
 10 15  1  0  0  0  0
 10 11  2  0  0  0  0
 11 12  1  0  0  0  0
 12 13  2  0  0  0  0
 12 43  1  0  0  0  0
 13 14  1  0  0  0  0
 14 18  1  0  0  0  0
 14 15  2  0  0  0  0
 15 16  1  0  0  0  0
 16 17  2  0  0  0  0
 17 18  1  0  0  0  0
 17 44  1  0  0  0  0
 18 19  1  0  0  0  0
 19 20  1  0  0  0  0
 19 45  1  0  0  0  0
 19 46  1  0  0  0  0
 20 26  1  0  0  0  0
 20 21  1  0  0  0  0
 20 22  1  0  0  0  0
 21 47  1  0  0  0  0
 22 23  1  0  0  0  0
 22 48  1  0  0  0  0
 22 49  1  0  0  0  0
 23 24  1  0  0  0  0
 23 50  1  0  0  0  0
 23 51  1  0  0  0  0
 24 25  1  0  0  0  0
 25 26  1  0  0  0  0
 25 52  1  0  0  0  0
 25 53  1  0  0  0  0
 26 54  1  0  0  0  0
 26 55  1  0  0  0  0
 27 56  1  0  0  0  0
 27 57  1  0  0  0  0
M  CHG  1   4   1
M  END
> <s_m_source_file>
AV-unprocessed.smi

> <i_m_source_file_index>
242

> <i_lp_mmshare_version>
43012

> <i_f3d_flags>
0

> <s_epik_input>
W0NIM11bQ0hdKFtDSDNdKU4xW0NIMl1bQ0gyXVtDQEhdKFtDSDJdMSlOKFtDSDNdKWMobltjSF1uMiljKGMyMyluW2NIXW4zW0NIMl1DNChbT0hdKVtDSDJdW0NIMl1PW0NIMl1bQ0gyXTQ=

> <s_epik_cmdline>
J2VwaWtfcHl0aG9uJywgJy1waCcsICc3LjAnLCAnLXRuJywgJzgnLCAnLW1hJywgJzIwMCcsICctbWV0YWxfYmluZGluZycsICctaW1hZScsICc8aW5maWxlLm1hZT4nLCAnLW9tYWUnLCAnPG91dGZpbGUubWFlPic=

> <r_lp_tautomer_probability>
1

> <r_epik_Ionization_Penalty>
0.000825961

> <r_epik_Ionization_Penalty_Charging>
0.00034898

> <r_epik_Ionization_Penalty_Neutral>
0.000476981

> <r_epik_State_Penalty>
-0

> <r_epik_Charging_Adjusted_Penalty>
0.00034898

> <i_epik_Tot_Q>
1

> <i_epik_Tot_abs_Q>
1

> <r_epik_Metal_State_Penalty>
-0

> <b_epik_Metal_Only>
0

> <s_lp_Force_Field>
OPLS_2005

> <r_lp_Energy>
46.4754

> <b_lp_Chiralities_Consistent>
1

> <s_lp_Variant>
AV-unprocessed.smi:242-2

> <Gold.Version>
5.8.1

> <Gold.Id.Protein>
6NUR|6NUR_protein|mol2

> <Gold.PLP.Fitness>
45.4439

> <Gold.PLP.PLP>
-35.2916

> <Gold.PLP.part.hbond>
-2.0000

> <Gold.PLP.part.metal>
0.0000

> <Gold.PLP.part.buried>
-6.7148

> <Gold.PLP.part.nonpolar>
-25.8047

> <Gold.PLP.part.repulsive>
0.2328

> <Gold.PLP.ligand.clash>
0.0000

> <Gold.PLP.ligand.torsion>
1.0901

> <Gold.PLP.Chemscore.Hbond>
2.9920

> <Gold.PLP.Chemscore.CHOScore>
0.9788

> <Gold.PLP.Chemscore.Metal>
0.0000

> <Gold.Chemscore.Hbonds>
donor molecule, donor type, donor heavy atom, donor atom, acceptor molecule, acceptor atom, score
      L1  H     4    58       P1  7948  2.00
      L1  H    21    47       P1  8028  1.00
      L1  C    17    44       P1  8028  1.00

> <Gold.PLP.Chemscore.Internal.Correction>
0.4200

> <Gold.Rescore>
     Score         DG    S(hbond)    S(metal)    S(lipo)     H(rot)  DE(clash)    DE(int)     intcor
     13.79     -14.94       1.96        0.00      79.59       2.50       0.02       1.13       ----

> <Gold.Chemscore.Fitness>
13.7910

> <Gold.Chemscore.DG>
-14.9426

> <Gold.Chemscore.ZeroCoef>
-5.4800

> <Gold.Chemscore.Hbond>
1.9608

> <Gold.Chemscore.Metal>
0.0000

> <Gold.Chemscore.Lipo>
79.5939

> <Gold.Chemscore.Internal_Hbond>
0.0000

> <Gold.Chemscore.DEClash>
0.0174

> <Gold.Chemscore.DEInternal>
1.1342

> <Gold.Chemscore.Rot>
2.4996

> <Gold.Chemscore.Internal.Correction>
   9.000000E+99

> <Gold.Chemscore.Hbonds>
donor molecule, donor type, donor heavy atom, donor atom, acceptor molecule, acceptor atom, score
      L1  H     4    58       P1  7948  0.94
      L1  H    21    47       P1  8028  0.91

> <Gold.Chemscore.Hbond.Weighted>
-6.5490

> <Gold.Chemscore.Metal.Weighted>
-0.0000

> <Gold.Chemscore.Lipo.Weighted>
-9.3125

> <Gold.Chemscore.Internal_Hbond.Weighted>
0.0000

> <Gold.Chemscore.DEClash.Weighted>
0.0174

> <Gold.Chemscore.DEInternal.Weighted>
1.1342

> <Gold.Chemscore.Rot.Weighted>
6.3990

> <Gold.Chemscore.Internal.Correction.Weighted>
   9.000000E+99

> <Gold.Protein.RotatedTorsions>
[ 6907 6896 6895 6894 ] final  106.67 input  -60.11 | X-H torsion
[ 7974 7965 7964 7962 ] final  -91.94 input  175.53 | X-H torsion
[ 8008 7997 7996 7995 ] final    7.50 input   59.86 | X-H torsion
[ 10167 10162 10161 10158 ] final  150.04 input  -65.29 | X-H torsion
[ 10718 10713 10712 10709 ] final   35.12 input   66.30 | X-H torsion
[ 10763 10752 10751 10750 ] final -175.44 input  -60.55 | X-H torsion
[ 11005 11000 10999 10996 ] final -102.81 input  -57.11 | X-H torsion

> <Gold.Protein.ActiveResidues>
 VAL166  LYS551  ARG553  GLY616  TRP617  ASP618  TYR619  PRO620  LYS621  CYS622 
 ASP623  PHE694  ASN695  SER759  ASP760  ASP761  ALA762  ILE779  LEU786  VAL792 
 PHE793  MET794  SER795  GLU796  ALA797  LYS798  CYS799  TRP800  GLU811  SER814 

> <Gold.Protein.RotatedAtoms>
  152.5184  133.9347  159.7597 H   0  0  0  0  0  0  0  0  0  0  0  0  # atno 6907 bound_to 6896
  150.9689  133.6356  159.2748 H   0  0  0  0  0  0  0  0  0  0  0  0  # atno 6908 bound_to 6896
  151.3574  135.0902  159.9476 H   0  0  0  0  0  0  0  0  0  0  0  0  # atno 6909 bound_to 6896
  145.4064  140.9541  143.2258 H   0  0  0  0  0  0  0  0  0  0  0  0  # atno 7974 bound_to 7965
  154.7546  140.2773  155.6264 H   0  0  0  0  0  0  0  0  0  0  0  0  # atno 8008 bound_to 7997
  156.2903  140.2672  156.2235 H   0  0  0  0  0  0  0  0  0  0  0  0  # atno 8009 bound_to 7997
  155.0094  140.0372  157.2383 H   0  0  0  0  0  0  0  0  0  0  0  0  # atno 8010 bound_to 7997
  139.4854  144.5554  151.7326 H   0  0  0  0  0  0  0  0  0  0  0  0  # atno 10167 bound_to 10162
  157.3188  130.7437  149.6772 H   0  0  0  0  0  0  0  0  0  0  0  0  # atno 10718 bound_to 10713
  154.5844  135.2839  155.0700 H   0  0  0  0  0  0  0  0  0  0  0  0  # atno 10763 bound_to 10752
  154.2024  135.6422  153.5095 H   0  0  0  0  0  0  0  0  0  0  0  0  # atno 10764 bound_to 10752
  153.0099  135.5472  154.6508 H   0  0  0  0  0  0  0  0  0  0  0  0  # atno 10765 bound_to 10752
  141.1173  133.8589  157.1407 H   0  0  0  0  0  0  0  0  0  0  0  0  # atno 11005 bound_to 11000
  144.8339  139.5583  143.6931 LP  0  0  0  0  0  0  0  0  0  0  0  0  # atno 17320 bound_to 7965
  146.2726  139.6674  142.9285 LP  0  0  0  0  0  0  0  0  0  0  0  0  # atno 17321 bound_to 7965
  140.5115  144.1018  150.5996 LP  0  0  0  0  0  0  0  0  0  0  0  0  # atno 17342 bound_to 10162
  140.3945  143.2735  152.0021 LP  0  0  0  0  0  0  0  0  0  0  0  0  # atno 17343 bound_to 10162
  155.9684  130.4229  150.4538 LP  0  0  0  0  0  0  0  0  0  0  0  0  # atno 17370 bound_to 10713
  157.2550  131.0554  151.2356 LP  0  0  0  0  0  0  0  0  0  0  0  0  # atno 17371 bound_to 10713
  140.0104  134.9990  157.0383 LP  0  0  0  0  0  0  0  0  0  0  0  0  # atno 17394 bound_to 11000
  140.4609  134.1485  155.7191 LP  0  0  0  0  0  0  0  0  0  0  0  0  # atno 17395 bound_to 11000

$$$$
