AV-unprocessed.smi:2701|AV-procd|sdf|10428|dock3
  -GOLD-   2272014463D 1   1.00000     0.00000
 Structure written by MMmdl.
 31 32  0  0  0  0  0  0  0  0  2 V2000
  151.8033  137.8163  159.4154 C   0  0  0  0  0  0  0  0  0  0  0  0
  153.2591  137.3905  159.1370 C   0  0  1  0  0  0  0  0  0  0  0  0
  153.5505  137.3194  157.6175 C   0  0  0  0  0  0  0  0  0  0  0  0
  153.8590  136.2398  157.1106 O   0  0  0  0  0  0  0  0  0  0  0  0
  153.4110  138.5215  157.0069 N   0  5  0  0  0  0  0  0  0  0  0  0
  152.3505  138.7987  155.8115 S   0  0  0  0  0  0  0  0  0  0  0  0
  152.9240  139.6270  154.7390 O   0  0  0  0  0  0  0  0  0  0  0  0
  151.6758  137.5570  155.4025 O   0  0  0  0  0  0  0  0  0  0  0  0
  151.0589  139.8442  156.6338 C   0  0  0  0  0  0  0  0  0  0  0  0
  150.1185  140.4359  155.6204 C   0  0  0  0  0  0  0  0  0  0  0  0
  148.9161  141.1598  155.8517 C   0  0  0  0  0  0  0  0  0  0  0  0
  148.4776  141.4614  154.5949 C   0  0  0  0  0  0  0  0  0  0  0  0
  149.3390  140.9811  153.6631 O   0  0  0  0  0  0  0  0  0  0  0  0
  150.3869  140.3339  154.3274 N   0  0  0  0  0  0  0  0  0  0  0  0
  154.2845  138.2547  159.9003 C   0  0  0  0  0  0  0  0  0  0  0  0
  155.3626  137.2600  160.2698 C   0  0  0  0  0  0  0  0  0  0  0  0
  154.5268  136.0292  160.5887 C   0  0  0  0  0  0  0  0  0  0  0  0
  153.4279  136.0762  159.6831 O   0  0  0  0  0  0  0  0  0  0  0  0
  151.6344  138.8641  159.1638 H   0  0  0  0  0  0  0  0  0  0  0  0
  151.5548  137.6909  160.4696 H   0  0  0  0  0  0  0  0  0  0  0  0
  151.0963  137.2165  158.8408 H   0  0  0  0  0  0  0  0  0  0  0  0
  150.5263  139.2487  157.3737 H   0  0  0  0  0  0  0  0  0  0  0  0
  151.5785  140.6333  157.1770 H   0  0  0  0  0  0  0  0  0  0  0  0
  148.4489  141.4116  156.7914 H   0  0  0  0  0  0  0  0  0  0  0  0
  147.6157  141.9905  154.2164 H   0  0  0  0  0  0  0  0  0  0  0  0
  154.6773  139.0979  159.3315 H   0  0  0  0  0  0  0  0  0  0  0  0
  153.8367  138.6614  160.8081 H   0  0  0  0  0  0  0  0  0  0  0  0
  156.0127  137.0665  159.4157 H   0  0  0  0  0  0  0  0  0  0  0  0
  155.9799  137.5865  161.1068 H   0  0  0  0  0  0  0  0  0  0  0  0
  155.0893  135.1010  160.4872 H   0  0  0  0  0  0  0  0  0  0  0  0
  154.1417  136.0846  161.6077 H   0  0  0  0  0  0  0  0  0  0  0  0
  1  2  1  0  0  0  0
  1 19  1  0  0  0  0
  1 20  1  0  0  0  0
  1 21  1  0  0  0  0
  2 18  1  0  0  0  0
  2  3  1  0  0  0  0
  2 15  1  0  0  0  0
  3  4  2  0  0  0  0
  3  5  1  0  0  0  0
  5  6  1  0  0  0  0
  6  7  2  0  0  0  0
  6  8  2  0  0  0  0
  6  9  1  0  0  0  0
  9 10  1  0  0  0  0
  9 22  1  0  0  0  0
  9 23  1  0  0  0  0
 10 14  2  0  0  0  0
 10 11  1  0  0  0  0
 11 12  2  0  0  0  0
 11 24  1  0  0  0  0
 12 13  1  0  0  0  0
 12 25  1  0  0  0  0
 13 14  1  0  0  0  0
 15 16  1  0  0  0  0
 15 26  1  0  0  0  0
 15 27  1  0  0  0  0
 16 17  1  0  0  0  0
 16 28  1  0  0  0  0
 16 29  1  0  0  0  0
 17 18  1  0  0  0  0
 17 30  1  0  0  0  0
 17 31  1  0  0  0  0
M  CHG  1   5  -1
M  END
> <s_m_source_file>
AV-unprocessed.smi

> <i_m_source_file_index>
2701

> <i_lp_mmshare_version>
43012

> <i_f3d_flags>
0

> <s_epik_input>
TzFbQ0gyXVtDSDJdW0NIMl1bQ0BAXTEoW0NIM10pQyg9TylbTkhdUyg9TykoPU8pW0NIMl1jMltjSF1bY0hdb24y

> <s_epik_cmdline>
J2VwaWtfcHl0aG9uJywgJy1waCcsICc3LjAnLCAnLXRuJywgJzgnLCAnLW1hJywgJzIwMCcsICctbWV0YWxfYmluZGluZycsICctaW1hZScsICc8aW5maWxlLm1hZT4nLCAnLW9tYWUnLCAnPG91dGZpbGUubWFlPic=

> <r_lp_tautomer_probability>
1

> <r_epik_Ionization_Penalty>
0.000279175

> <r_epik_Ionization_Penalty_Charging>
0.000279174

> <r_epik_Ionization_Penalty_Neutral>
1.67252e-10

> <r_epik_State_Penalty>
-0

> <r_epik_Charging_Adjusted_Penalty>
0.000279174

> <i_epik_Tot_Q>
-1

> <i_epik_Tot_abs_Q>
1

> <r_epik_Metal_State_Penalty>
-0

> <b_epik_Metal_Only>
0

> <s_lp_Force_Field>
OPLS_2005

> <r_lp_Energy>
15.6344

> <b_lp_Chiralities_Consistent>
1

> <s_lp_Variant>
AV-unprocessed.smi:2701-1

> <Gold.Version>
5.8.1

> <Gold.Id.Protein>
6NUR|6NUR_protein|mol2

> <Gold.PLP.Fitness>
40.1092

> <Gold.PLP.PLP>
-24.1347

> <Gold.PLP.part.hbond>
-7.9412

> <Gold.PLP.part.metal>
0.0000

> <Gold.PLP.part.buried>
-4.2699

> <Gold.PLP.part.nonpolar>
-14.1297

> <Gold.PLP.part.repulsive>
2.1688

> <Gold.PLP.ligand.clash>
0.0000

> <Gold.PLP.ligand.torsion>
1.3659

> <Gold.PLP.Chemscore.Hbond>
5.8720

> <Gold.PLP.Chemscore.CHOScore>
0.0000

> <Gold.PLP.Chemscore.Metal>
0.0000

> <Gold.Chemscore.Hbonds>
donor molecule, donor type, donor heavy atom, donor atom, acceptor molecule, acceptor atom, score
      P1  H  6896  6907       L1    18  1.00
      P1  H  7989  7998       L1    14  1.00
      P1  H  7997  8009       L1     5  1.88
      P1  H  8011  8017       L1    13  1.00
      P1  H 10752 10765       L1     4  1.00

> <Gold.PLP.Chemscore.Internal.Correction>
1.0903

> <Gold.Rescore>
     Score         DG    S(hbond)    S(metal)    S(lipo)     H(rot)  DE(clash)    DE(int)     intcor
     14.79     -17.85       3.51        0.00      39.67       1.56       0.08       2.98       ----

> <Gold.Chemscore.Fitness>
14.7865

> <Gold.Chemscore.DG>
-17.8525

> <Gold.Chemscore.ZeroCoef>
-5.4800

> <Gold.Chemscore.Hbond>
3.5096

> <Gold.Chemscore.Metal>
0.0000

> <Gold.Chemscore.Lipo>
39.6733

> <Gold.Chemscore.Internal_Hbond>
0.0000

> <Gold.Chemscore.DEClash>
0.0811

> <Gold.Chemscore.DEInternal>
2.9849

> <Gold.Chemscore.Rot>
1.5591

> <Gold.Chemscore.Internal.Correction>
   9.000000E+99

> <Gold.Chemscore.Hbonds>
donor molecule, donor type, donor heavy atom, donor atom, acceptor molecule, acceptor atom, score
      P1  H  6896  6907       L1    18  0.90
      P1  H  7989  7998       L1     7  0.30
      P1  H  7997  8009       L1     5  0.20
      P1  H  8011  8017       L1    13  0.65
      P1  H 10752 10765       L1     4  0.96

> <Gold.Chemscore.Hbond.Weighted>
-11.7221

> <Gold.Chemscore.Metal.Weighted>
-0.0000

> <Gold.Chemscore.Lipo.Weighted>
-4.6418

> <Gold.Chemscore.Internal_Hbond.Weighted>
0.0000

> <Gold.Chemscore.DEClash.Weighted>
0.0811

> <Gold.Chemscore.DEInternal.Weighted>
2.9849

> <Gold.Chemscore.Rot.Weighted>
3.9914

> <Gold.Chemscore.Internal.Correction.Weighted>
   9.000000E+99

> <Gold.Protein.RotatedTorsions>
[ 6907 6896 6895 6894 ] final   31.68 input  -60.11 | X-H torsion
[ 7974 7965 7964 7962 ] final -167.97 input  175.53 | X-H torsion
[ 8008 7997 7996 7995 ] final  168.73 input   59.86 | X-H torsion
[ 10167 10162 10161 10158 ] final  134.30 input  -65.29 | X-H torsion
[ 10718 10713 10712 10709 ] final -121.81 input   66.30 | X-H torsion
[ 10763 10752 10751 10750 ] final  -90.25 input  -60.55 | X-H torsion
[ 11005 11000 10999 10996 ] final -166.73 input  -57.11 | X-H torsion

> <Gold.Protein.ActiveResidues>
 VAL166  LYS551  ARG553  GLY616  TRP617  ASP618  TYR619  PRO620  LYS621  CYS622 
 ASP623  PHE694  ASN695  SER759  ASP760  ASP761  ALA762  ILE779  LEU786  VAL792 
 PHE793  MET794  SER795  GLU796  ALA797  LYS798  CYS799  TRP800  GLU811  SER814 

> <Gold.Protein.RotatedAtoms>
  152.0637  134.9578  160.0574 H   0  0  0  0  0  0  0  0  0  0  0  0  # atno 6907 bound_to 6896
  152.0931  133.4206  159.4561 H   0  0  0  0  0  0  0  0  0  0  0  0  # atno 6908 bound_to 6896
  150.6837  134.2768  159.4654 H   0  0  0  0  0  0  0  0  0  0  0  0  # atno 6909 bound_to 6896
  144.7212  140.2440  143.6287 H   0  0  0  0  0  0  0  0  0  0  0  0  # atno 7974 bound_to 7965
  156.1521  140.1583  156.8753 H   0  0  0  0  0  0  0  0  0  0  0  0  # atno 8008 bound_to 7997
  154.5080  140.0808  156.7971 H   0  0  0  0  0  0  0  0  0  0  0  0  # atno 8009 bound_to 7997
  155.3876  140.3408  155.4252 H   0  0  0  0  0  0  0  0  0  0  0  0  # atno 8010 bound_to 7997
  139.5261  144.6574  151.5120 H   0  0  0  0  0  0  0  0  0  0  0  0  # atno 10167 bound_to 10162
  156.1367  130.6436  150.9708 H   0  0  0  0  0  0  0  0  0  0  0  0  # atno 10718 bound_to 10713
  154.6638  135.5311  153.8051 H   0  0  0  0  0  0  0  0  0  0  0  0  # atno 10763 bound_to 10752
  153.0458  135.6512  154.0831 H   0  0  0  0  0  0  0  0  0  0  0  0  # atno 10764 bound_to 10752
  154.0737  135.2952  155.3283 H   0  0  0  0  0  0  0  0  0  0  0  0  # atno 10765 bound_to 10752
  140.5612  134.5331  157.5143 H   0  0  0  0  0  0  0  0  0  0  0  0  # atno 11005 bound_to 11000
  145.8292  139.2078  143.1892 LP  0  0  0  0  0  0  0  0  0  0  0  0  # atno 17320 bound_to 7965
  146.0446  140.8131  142.9812 LP  0  0  0  0  0  0  0  0  0  0  0  0  # atno 17321 bound_to 7965
  140.6406  143.8897  150.6688 LP  0  0  0  0  0  0  0  0  0  0  0  0  # atno 17342 bound_to 10162
  140.2230  143.3794  152.1627 LP  0  0  0  0  0  0  0  0  0  0  0  0  # atno 17343 bound_to 10162
  157.6539  131.0892  150.7990 LP  0  0  0  0  0  0  0  0  0  0  0  0  # atno 17370 bound_to 10713
  156.8070  130.4940  149.5361 LP  0  0  0  0  0  0  0  0  0  0  0  0  # atno 17371 bound_to 10713
  139.9407  134.7793  156.0687 LP  0  0  0  0  0  0  0  0  0  0  0  0  # atno 17394 bound_to 11000
  141.1113  133.6642  156.2986 LP  0  0  0  0  0  0  0  0  0  0  0  0  # atno 17395 bound_to 11000

$$$$
