AV-unprocessed.smi:2143|AV-procd|sdf|8727|dock1
  -GOLD-   2272011493D 1   1.00000     0.00000
 Structure written by MMmdl.
 44 45  0  0  0  0  0  0  0  0  1 V2000
  151.9114  144.2720  159.6772 C   0  0  0  0  0  0  0  0  0  0  0  0
  152.5931  142.9363  159.3265 C   0  0  1  0  0  0  0  0  0  0  0  0
  152.8562  142.1396  160.6199 C   0  0  0  0  0  0  0  0  0  0  0  0
  153.5649  140.8106  160.3383 C   0  0  0  0  0  0  0  0  0  0  0  0
  152.7487  139.9618  159.3595 C   0  0  0  0  0  0  0  0  0  0  0  0
  152.4817  140.7217  158.0454 C   0  0  1  0  0  0  0  0  0  0  0  0
  151.6682  139.8864  157.1633 N   0  0  0  0  0  0  0  0  0  0  0  0
  151.9785  139.5555  155.9006 C   0  0  0  0  0  0  0  0  0  0  0  0
  152.9993  139.9440  155.3312 O   0  0  0  0  0  0  0  0  0  0  0  0
  150.9661  138.6629  155.1703 C   0  0  0  0  0  0  0  0  0  0  0  0
  150.5572  137.4951  155.9616 N   0  0  0  0  0  0  0  0  0  0  0  0
  149.6081  137.6391  156.9569 C   0  0  0  0  0  0  0  0  0  0  0  0
  149.1636  136.6139  157.7160 C   0  0  0  0  0  0  0  0  0  0  0  0
  149.6759  135.2625  157.5243 C   0  0  0  0  0  0  0  0  0  0  0  0
  149.2839  134.2974  158.1811 O   0  0  0  0  0  0  0  0  0  0  0  0
  150.6565  135.1458  156.5098 N   0  0  0  0  0  0  0  0  0  0  0  0
  151.2135  133.8389  156.2286 C   0  0  0  0  0  0  0  0  0  0  0  0
  151.1059  136.2193  155.7092 C   0  0  0  0  0  0  0  0  0  0  0  0
  151.9410  136.0604  154.8151 O   0  0  0  0  0  0  0  0  0  0  0  0
  151.7887  142.0883  158.2997 C   0  0  2  0  0  0  0  0  0  0  0  0
  151.5602  142.8496  156.9754 C   0  0  0  0  0  0  0  0  0  0  0  0
  150.8975  144.1149  160.0461 H   0  0  0  0  0  0  0  0  0  0  0  0
  151.8594  144.9411  158.8191 H   0  0  0  0  0  0  0  0  0  0  0  0
  152.4659  144.8019  160.4523 H   0  0  0  0  0  0  0  0  0  0  0  0
  153.5620  143.1714  158.8831 H   0  0  0  0  0  0  0  0  0  0  0  0
  153.4636  142.7311  161.3059 H   0  0  0  0  0  0  0  0  0  0  0  0
  151.9129  141.9469  161.1332 H   0  0  0  0  0  0  0  0  0  0  0  0
  154.5570  140.9994  159.9260 H   0  0  0  0  0  0  0  0  0  0  0  0
  153.7137  140.2638  161.2697 H   0  0  0  0  0  0  0  0  0  0  0  0
  153.2812  139.0317  159.1568 H   0  0  0  0  0  0  0  0  0  0  0  0
  151.8025  139.6803  159.8240 H   0  0  0  0  0  0  0  0  0  0  0  0
  153.4399  140.9197  157.5606 H   0  0  0  0  0  0  0  0  0  0  0  0
  150.8063  139.5269  157.5474 H   0  0  0  0  0  0  0  0  0  0  0  0
  150.0884  139.2488  154.8906 H   0  0  0  0  0  0  0  0  0  0  0  0
  151.4152  138.3384  154.2307 H   0  0  0  0  0  0  0  0  0  0  0  0
  149.1935  138.6208  157.1350 H   0  0  0  0  0  0  0  0  0  0  0  0
  148.4154  136.7955  158.4737 H   0  0  0  0  0  0  0  0  0  0  0  0
  152.2892  133.9473  156.0789 H   0  0  0  0  0  0  0  0  0  0  0  0
  150.7197  133.4717  155.3277 H   0  0  0  0  0  0  0  0  0  0  0  0
  151.0523  133.1627  157.0681 H   0  0  0  0  0  0  0  0  0  0  0  0
  150.8076  141.8867  158.7335 H   0  0  0  0  0  0  0  0  0  0  0  0
  152.5072  143.1295  156.5135 H   0  0  0  0  0  0  0  0  0  0  0  0
  150.9793  143.7585  157.1257 H   0  0  0  0  0  0  0  0  0  0  0  0
  151.0051  142.2526  156.2523 H   0  0  0  0  0  0  0  0  0  0  0  0
  1  2  1  0  0  0  0
  1 22  1  0  0  0  0
  1 23  1  0  0  0  0
  1 24  1  0  0  0  0
  2 20  1  0  0  0  0
  2  3  1  0  0  0  0
  2 25  1  0  0  0  0
  3  4  1  0  0  0  0
  3 26  1  0  0  0  0
  3 27  1  0  0  0  0
  4  5  1  0  0  0  0
  4 28  1  0  0  0  0
  4 29  1  0  0  0  0
  5  6  1  0  0  0  0
  5 30  1  0  0  0  0
  5 31  1  0  0  0  0
  6  7  1  0  0  0  0
  6 20  1  0  0  0  0
  6 32  1  0  0  0  0
  7  8  1  0  0  0  0
  7 33  1  0  0  0  0
  8  9  2  0  0  0  0
  8 10  1  0  0  0  0
 10 11  1  0  0  0  0
 10 34  1  0  0  0  0
 10 35  1  0  0  0  0
 11 18  1  0  0  0  0
 11 12  1  0  0  0  0
 12 13  2  0  0  0  0
 12 36  1  0  0  0  0
 13 14  1  0  0  0  0
 13 37  1  0  0  0  0
 14 15  2  0  0  0  0
 14 16  1  0  0  0  0
 16 17  1  0  0  0  0
 16 18  1  0  0  0  0
 17 38  1  0  0  0  0
 17 39  1  0  0  0  0
 17 40  1  0  0  0  0
 18 19  2  0  0  0  0
 20 21  1  0  0  0  0
 20 41  1  0  0  0  0
 21 42  1  0  0  0  0
 21 43  1  0  0  0  0
 21 44  1  0  0  0  0
M  END
> <s_m_source_file>
AV-unprocessed.smi

> <i_m_source_file_index>
2143

> <i_lp_mmshare_version>
43012

> <i_f3d_flags>
0

> <s_epik_input>
W0NIM11bQ0BASF0xW0NIMl1bQ0gyXVtDSDJdW0NASF0oW0NASF0xW0NIM10pW05IXUMoPU8pW0NIMl1uMltjSF1bY0hdYyg9TyluKFtDSDNdKWMyPU8=

> <s_epik_cmdline>
J2VwaWtfcHl0aG9uJywgJy1waCcsICc3LjAnLCAnLXRuJywgJzgnLCAnLW1hJywgJzIwMCcsICctbWV0YWxfYmluZGluZycsICctaW1hZScsICc8aW5maWxlLm1hZT4nLCAnLW9tYWUnLCAnPG91dGZpbGUubWFlPic=

> <r_lp_tautomer_probability>
1

> <r_epik_Ionization_Penalty>
3.18445e-08

> <r_epik_Ionization_Penalty_Charging>
1.27977e-08

> <r_epik_Ionization_Penalty_Neutral>
1.90469e-08

> <r_epik_State_Penalty>
-0

> <r_epik_Charging_Adjusted_Penalty>
1.27977e-08

> <i_epik_Tot_Q>
0

> <i_epik_Tot_abs_Q>
0

> <r_epik_Metal_State_Penalty>
-0

> <b_epik_Metal_Only>
0

> <s_lp_Force_Field>
OPLS_2005

> <r_lp_Energy>
20.3985

> <b_lp_Chiralities_Consistent>
1

> <s_lp_Variant>
AV-unprocessed.smi:2143-6

> <Gold.Version>
5.8.1

> <Gold.Id.Protein>
6NUR|6NUR_protein|mol2

> <Gold.PLP.Fitness>
45.5690

> <Gold.PLP.PLP>
-36.0514

> <Gold.PLP.part.hbond>
-4.0000

> <Gold.PLP.part.metal>
0.0000

> <Gold.PLP.part.buried>
-3.1311

> <Gold.PLP.part.nonpolar>
-28.7860

> <Gold.PLP.part.repulsive>
0.2459

> <Gold.PLP.ligand.clash>
0.0000

> <Gold.PLP.ligand.torsion>
0.4474

> <Gold.PLP.Chemscore.Hbond>
3.4655

> <Gold.PLP.Chemscore.CHOScore>
0.0000

> <Gold.PLP.Chemscore.Metal>
0.0000

> <Gold.Chemscore.Hbonds>
donor molecule, donor type, donor heavy atom, donor atom, acceptor molecule, acceptor atom, score
      P1  H  6896  6908       L1    15  1.00
      P1  H  7997  8008       L1     9  1.00

> <Gold.PLP.Chemscore.Internal.Correction>
0.0160

> <Gold.Rescore>
     Score         DG    S(hbond)    S(metal)    S(lipo)     H(rot)  DE(clash)    DE(int)     intcor
     20.89     -22.22       2.84        0.00      95.02       1.51       0.82       0.51       ----

> <Gold.Chemscore.Fitness>
20.8918

> <Gold.Chemscore.DG>
-22.2163

> <Gold.Chemscore.ZeroCoef>
-5.4800

> <Gold.Chemscore.Hbond>
2.8421

> <Gold.Chemscore.Metal>
0.0000

> <Gold.Chemscore.Lipo>
95.0191

> <Gold.Chemscore.Internal_Hbond>
0.0000

> <Gold.Chemscore.DEClash>
0.8163

> <Gold.Chemscore.DEInternal>
0.5082

> <Gold.Chemscore.Rot>
1.5131

> <Gold.Chemscore.Internal.Correction>
   9.000000E+99

> <Gold.Chemscore.Hbonds>
donor molecule, donor type, donor heavy atom, donor atom, acceptor molecule, acceptor atom, score
      P1  H  6896  6908       L1    15  0.35
      P1  H  7997  8008       L1     9  0.93
      P1  H 10752 10763       L1    19  0.07

> <Gold.Chemscore.Hbond.Weighted>
-9.4925

> <Gold.Chemscore.Metal.Weighted>
-0.0000

> <Gold.Chemscore.Lipo.Weighted>
-11.1172

> <Gold.Chemscore.Internal_Hbond.Weighted>
0.0000

> <Gold.Chemscore.DEClash.Weighted>
0.8163

> <Gold.Chemscore.DEInternal.Weighted>
0.5082

> <Gold.Chemscore.Rot.Weighted>
3.8734

> <Gold.Chemscore.Internal.Correction.Weighted>
   9.000000E+99

> <Gold.Protein.RotatedTorsions>
[ 6907 6896 6895 6894 ] final  135.30 input  -60.11 | X-H torsion
[ 7974 7965 7964 7962 ] final  -87.73 input  175.53 | X-H torsion
[ 8008 7997 7996 7995 ] final  -37.37 input   59.86 | X-H torsion
[ 10167 10162 10161 10158 ] final  -14.29 input  -65.29 | X-H torsion
[ 10718 10713 10712 10709 ] final -134.49 input   66.30 | X-H torsion
[ 10763 10752 10751 10750 ] final   65.65 input  -60.55 | X-H torsion
[ 11005 11000 10999 10996 ] final -104.37 input  -57.11 | X-H torsion

> <Gold.Protein.ActiveResidues>
 VAL166  LYS551  ARG553  GLY616  TRP617  ASP618  TYR619  PRO620  LYS621  CYS622 
 ASP623  PHE694  ASN695  SER759  ASP760  ASP761  ALA762  ILE779  LEU786  VAL792 
 PHE793  MET794  SER795  GLU796  ALA797  LYS798  CYS799  TRP800  GLU811  SER814 

> <Gold.Protein.RotatedAtoms>
  152.3019  133.5664  159.5623 H   0  0  0  0  0  0  0  0  0  0  0  0  # atno 6907 bound_to 6896
  150.7282  134.0278  159.3732 H   0  0  0  0  0  0  0  0  0  0  0  0  # atno 6908 bound_to 6896
  151.8177  135.0661  160.0472 H   0  0  0  0  0  0  0  0  0  0  0  0  # atno 6909 bound_to 6896
  145.4626  140.9561  143.1961 H   0  0  0  0  0  0  0  0  0  0  0  0  # atno 7974 bound_to 7965
  154.4055  140.1606  156.2525 H   0  0  0  0  0  0  0  0  0  0  0  0  # atno 8008 bound_to 7997
  155.9107  140.3427  155.6074 H   0  0  0  0  0  0  0  0  0  0  0  0  # atno 8009 bound_to 7997
  155.7340  140.0784  157.2267 H   0  0  0  0  0  0  0  0  0  0  0  0  # atno 8010 bound_to 7997
  140.7198  143.5337  150.9489 H   0  0  0  0  0  0  0  0  0  0  0  0  # atno 10167 bound_to 10162
  156.2560  130.7181  151.1098 H   0  0  0  0  0  0  0  0  0  0  0  0  # atno 10718 bound_to 10713
  153.0105  135.5349  154.6700 H   0  0  0  0  0  0  0  0  0  0  0  0  # atno 10763 bound_to 10752
  154.5887  135.2856  155.0660 H   0  0  0  0  0  0  0  0  0  0  0  0  # atno 10764 bound_to 10752
  154.1762  135.6524  153.5074 H   0  0  0  0  0  0  0  0  0  0  0  0  # atno 10765 bound_to 10752
  141.1104  133.8717  157.1602 H   0  0  0  0  0  0  0  0  0  0  0  0  # atno 11005 bound_to 11000
  144.7994  139.6171  143.7078 LP  0  0  0  0  0  0  0  0  0  0  0  0  # atno 17320 bound_to 7965
  146.2443  139.6065  142.9470 LP  0  0  0  0  0  0  0  0  0  0  0  0  # atno 17321 bound_to 7965
  139.9058  143.6780  152.3123 LP  0  0  0  0  0  0  0  0  0  0  0  0  # atno 17342 bound_to 10162
  139.7145  144.7614  151.1056 LP  0  0  0  0  0  0  0  0  0  0  0  0  # atno 17343 bound_to 10162
  157.7233  131.0667  150.6044 LP  0  0  0  0  0  0  0  0  0  0  0  0  # atno 17370 bound_to 10713
  156.6127  130.4384  149.5852 LP  0  0  0  0  0  0  0  0  0  0  0  0  # atno 17371 bound_to 10713
  139.9994  135.0034  157.0156 LP  0  0  0  0  0  0  0  0  0  0  0  0  # atno 17394 bound_to 11000
  140.4791  134.1307  155.7214 LP  0  0  0  0  0  0  0  0  0  0  0  0  # atno 17395 bound_to 11000

$$$$
