AV-unprocessed.smi:3232|AV-procd|sdf|12342|dock8
  -GOLD-   2272018203D 1   1.00000     0.00000
 Structure written by MMmdl.
 40 41  0  0  0  0  0  0  0  0  2 V2000
  146.8276  137.0703  156.2320 C   0  0  0  0  0  0  0  0  0  0  0  0
  147.2577  136.8196  154.7804 C   0  0  0  0  0  0  0  0  0  0  0  0
  148.6205  136.2416  154.6910 N   0  3  1  0  0  0  0  0  0  0  0  0
  149.6941  137.0967  155.2388 C   0  0  0  0  0  0  0  0  0  0  0  0
  150.8332  136.1390  155.5621 C   0  0  0  0  0  0  0  0  0  0  0  0
  150.1032  134.8964  156.0588 C   0  0  0  0  0  0  0  0  0  0  0  0
  148.7554  134.8980  155.3086 C   0  0  2  0  0  0  0  0  0  0  0  0
  148.6431  133.7980  154.2319 C   0  0  0  0  0  0  0  0  0  0  0  0
  147.8649  134.2349  153.0789 N   0  0  0  0  0  0  0  0  0  0  0  0
  146.9702  133.4804  152.4220 C   0  0  0  0  0  0  0  0  0  0  0  0
  146.6722  132.3373  152.7709 O   0  0  0  0  0  0  0  0  0  0  0  0
  146.3438  134.1140  151.1704 C   0  0  2  0  0  0  0  0  0  0  0  0
  145.6627  135.4653  151.4551 C   0  0  0  0  0  0  0  0  0  0  0  0
  145.4123  133.1793  150.5538 N   0  0  0  0  0  0  0  0  0  0  0  0
  145.6087  131.9700  150.0203 C   0  0  0  0  0  0  0  0  0  0  0  0
  144.5096  131.4140  149.5309 N   0  0  0  0  0  0  0  0  0  0  0  0
  143.6076  132.3978  149.8223 C   0  0  0  0  0  0  0  0  0  0  0  0
  144.0972  133.4786  150.4299 N   0  0  0  0  0  0  0  0  0  0  0  0
  145.8510  137.5536  156.2661 H   0  0  0  0  0  0  0  0  0  0  0  0
  147.5358  137.7199  156.7468 H   0  0  0  0  0  0  0  0  0  0  0  0
  146.7511  136.1407  156.7961 H   0  0  0  0  0  0  0  0  0  0  0  0
  146.5407  136.1690  154.2776 H   0  0  0  0  0  0  0  0  0  0  0  0
  147.2458  137.7702  154.2455 H   0  0  0  0  0  0  0  0  0  0  0  0
  149.9931  137.8735  154.5345 H   0  0  0  0  0  0  0  0  0  0  0  0
  149.3528  137.5818  156.1550 H   0  0  0  0  0  0  0  0  0  0  0  0
  151.3900  135.9038  154.6540 H   0  0  0  0  0  0  0  0  0  0  0  0
  151.5338  136.5425  156.2939 H   0  0  0  0  0  0  0  0  0  0  0  0
  150.6909  133.9903  155.9088 H   0  0  0  0  0  0  0  0  0  0  0  0
  149.9212  134.9871  157.1306 H   0  0  0  0  0  0  0  0  0  0  0  0
  147.9621  134.7620  156.0460 H   0  0  0  0  0  0  0  0  0  0  0  0
  149.6346  133.4827  153.9020 H   0  0  0  0  0  0  0  0  0  0  0  0
  148.1619  132.9133  154.6502 H   0  0  0  0  0  0  0  0  0  0  0  0
  148.0474  135.1646  152.7281 H   0  0  0  0  0  0  0  0  0  0  0  0
  147.1555  134.2992  150.4641 H   0  0  0  0  0  0  0  0  0  0  0  0
  146.3607  136.1736  151.9030 H   0  0  0  0  0  0  0  0  0  0  0  0
  144.8152  135.3577  152.1334 H   0  0  0  0  0  0  0  0  0  0  0  0
  145.2909  135.9132  150.5331 H   0  0  0  0  0  0  0  0  0  0  0  0
  146.5761  131.4905  149.9839 H   0  0  0  0  0  0  0  0  0  0  0  0
  142.5594  132.3173  149.5745 H   0  0  0  0  0  0  0  0  0  0  0  0
  148.8313  136.1155  153.7114 H   0  0  0  0  0  0  0  0  0  0  0  0
  1  2  1  0  0  0  0
  1 19  1  0  0  0  0
  1 20  1  0  0  0  0
  1 21  1  0  0  0  0
  2  3  1  0  0  0  0
  2 22  1  0  0  0  0
  2 23  1  0  0  0  0
  3  7  1  0  0  0  0
  3  4  1  0  0  0  0
  3 40  1  0  0  0  0
  4  5  1  0  0  0  0
  4 24  1  0  0  0  0
  4 25  1  0  0  0  0
  5  6  1  0  0  0  0
  5 26  1  0  0  0  0
  5 27  1  0  0  0  0
  6  7  1  0  0  0  0
  6 28  1  0  0  0  0
  6 29  1  0  0  0  0
  7  8  1  0  0  0  0
  7 30  1  0  0  0  0
  8  9  1  0  0  0  0
  8 31  1  0  0  0  0
  8 32  1  0  0  0  0
  9 10  1  0  0  0  0
  9 33  1  0  0  0  0
 10 11  2  0  0  0  0
 10 12  1  0  0  0  0
 12 13  1  0  0  0  0
 12 14  1  0  0  0  0
 12 34  1  0  0  0  0
 13 35  1  0  0  0  0
 13 36  1  0  0  0  0
 13 37  1  0  0  0  0
 14 18  1  0  0  0  0
 14 15  1  0  0  0  0
 15 16  2  0  0  0  0
 15 38  1  0  0  0  0
 16 17  1  0  0  0  0
 17 18  2  0  0  0  0
 17 39  1  0  0  0  0
M  CHG  1   3   1
M  END
> <s_m_source_file>
AV-unprocessed.smi

> <i_m_source_file_index>
3232

> <i_lp_mmshare_version>
43012

> <i_f3d_flags>
0

> <s_epik_input>
W0NIM11bQ0gyXU4xW0NIMl1bQ0gyXVtDSDJdW0NASF0xW0NIMl1bTkhdQyg9TylbQ0BIXShbQ0gzXSluMltjSF1uW2NIXW4y

> <s_epik_cmdline>
J2VwaWtfcHl0aG9uJywgJy1waCcsICc3LjAnLCAnLXRuJywgJzgnLCAnLW1hJywgJzIwMCcsICctbWV0YWxfYmluZGluZycsICctaW1hZScsICc8aW5maWxlLm1hZT4nLCAnLW9tYWUnLCAnPG91dGZpbGUubWFlPic=

> <r_lp_tautomer_probability>
1

> <r_epik_Ionization_Penalty>
0.00177695

> <r_epik_Ionization_Penalty_Charging>
0.00176881

> <r_epik_Ionization_Penalty_Neutral>
8.13528e-06

> <r_epik_State_Penalty>
0.00119827

> <r_epik_Charging_Adjusted_Penalty>
0.00296709

> <i_epik_Tot_Q>
1

> <i_epik_Tot_abs_Q>
1

> <r_epik_Metal_State_Penalty>
-0

> <b_epik_Metal_Only>
0

> <s_lp_Force_Field>
OPLS_2005

> <r_lp_Energy>
32.398

> <b_lp_Chiralities_Consistent>
1

> <s_lp_Variant>
AV-unprocessed.smi:3232-4

> <Gold.Version>
5.8.1

> <Gold.Id.Protein>
6NUR|6NUR_protein|mol2

> <Gold.PLP.Fitness>
41.2012

> <Gold.PLP.PLP>
-24.2385

> <Gold.PLP.part.hbond>
-2.9778

> <Gold.PLP.part.metal>
0.0000

> <Gold.PLP.part.buried>
-1.5681

> <Gold.PLP.part.nonpolar>
-20.4766

> <Gold.PLP.part.repulsive>
0.4346

> <Gold.PLP.ligand.clash>
0.0000

> <Gold.PLP.ligand.torsion>
0.6756

> <Gold.PLP.Chemscore.Hbond>
3.4640

> <Gold.PLP.Chemscore.CHOScore>
2.6143

> <Gold.PLP.Chemscore.Metal>
0.0000

> <Gold.Chemscore.Hbonds>
donor molecule, donor type, donor heavy atom, donor atom, acceptor molecule, acceptor atom, score
      L1  H     3    40       P1  7948  2.00
      L1  H     9    33       P1  7948  0.99
      P1  H 10785 10796       L1    16  0.35
      L1  C    15    38       P1 10747  1.00
      L1  C    17    39       P1 10186  0.68
      L1  C    17    39       P1 10952  0.78

> <Gold.PLP.Chemscore.Internal.Correction>
0.0788

> <Gold.Rescore>
     Score         DG    S(hbond)    S(metal)    S(lipo)     H(rot)  DE(clash)    DE(int)     intcor
      9.21     -11.53       2.51        0.00      34.65       2.49       0.53       1.79       ----

> <Gold.Chemscore.Fitness>
9.2119

> <Gold.Chemscore.DG>
-11.5319

> <Gold.Chemscore.ZeroCoef>
-5.4800

> <Gold.Chemscore.Hbond>
2.5052

> <Gold.Chemscore.Metal>
0.0000

> <Gold.Chemscore.Lipo>
34.6526

> <Gold.Chemscore.Internal_Hbond>
0.0000

> <Gold.Chemscore.DEClash>
0.5288

> <Gold.Chemscore.DEInternal>
1.7912

> <Gold.Chemscore.Rot>
2.4882

> <Gold.Chemscore.Internal.Correction>
   9.000000E+99

> <Gold.Chemscore.Hbonds>
donor molecule, donor type, donor heavy atom, donor atom, acceptor molecule, acceptor atom, score
      L1  H     3    40       P1  7948  1.00
      L1  H     9    33       P1  7948  0.91
      P1  H 10785 10796       L1    16  0.07

> <Gold.Chemscore.Hbond.Weighted>
-8.3673

> <Gold.Chemscore.Metal.Weighted>
-0.0000

> <Gold.Chemscore.Lipo.Weighted>
-4.0544

> <Gold.Chemscore.Internal_Hbond.Weighted>
0.0000

> <Gold.Chemscore.DEClash.Weighted>
0.5288

> <Gold.Chemscore.DEInternal.Weighted>
1.7912

> <Gold.Chemscore.Rot.Weighted>
6.3697

> <Gold.Chemscore.Internal.Correction.Weighted>
   9.000000E+99

> <Gold.Protein.RotatedTorsions>
[ 6907 6896 6895 6894 ] final  140.13 input  -60.11 | X-H torsion
[ 7974 7965 7964 7962 ] final   -6.34 input  175.53 | X-H torsion
[ 8008 7997 7996 7995 ] final  115.34 input   59.86 | X-H torsion
[ 10167 10162 10161 10158 ] final   94.78 input  -65.29 | X-H torsion
[ 10718 10713 10712 10709 ] final -143.19 input   66.30 | X-H torsion
[ 10763 10752 10751 10750 ] final -160.01 input  -60.55 | X-H torsion
[ 11005 11000 10999 10996 ] final   78.11 input  -57.11 | X-H torsion

> <Gold.Protein.ActiveResidues>
 VAL166  LYS551  ARG553  GLY616  TRP617  ASP618  TYR619  PRO620  LYS621  CYS622 
 ASP623  PHE694  ASN695  SER759  ASP760  ASP761  ALA762  ILE779  LEU786  VAL792 
 PHE793  MET794  SER795  GLU796  ALA797  LYS798  CYS799  TRP800  GLU811  SER814 

> <Gold.Protein.RotatedAtoms>
  152.2468  133.5181  159.5301 H   0  0  0  0  0  0  0  0  0  0  0  0  # atno 6907 bound_to 6896
  150.7081  134.1015  159.3976 H   0  0  0  0  0  0  0  0  0  0  0  0  # atno 6908 bound_to 6896
  151.8935  135.0407  160.0550 H   0  0  0  0  0  0  0  0  0  0  0  0  # atno 6909 bound_to 6896
  146.2333  140.2155  142.8336 H   0  0  0  0  0  0  0  0  0  0  0  0  # atno 7974 bound_to 7965
  156.2375  140.2940  156.0353 H   0  0  0  0  0  0  0  0  0  0  0  0  # atno 8008 bound_to 7997
  155.2048  140.0410  157.2940 H   0  0  0  0  0  0  0  0  0  0  0  0  # atno 8009 bound_to 7997
  154.6106  140.2451  155.7681 H   0  0  0  0  0  0  0  0  0  0  0  0  # atno 8010 bound_to 7997
  139.8051  144.6797  150.9714 H   0  0  0  0  0  0  0  0  0  0  0  0  # atno 10167 bound_to 10162
  156.3549  130.7708  151.1866 H   0  0  0  0  0  0  0  0  0  0  0  0  # atno 10718 bound_to 10713
  154.7427  135.3072  154.8700 H   0  0  0  0  0  0  0  0  0  0  0  0  # atno 10763 bound_to 10752
  153.9510  135.6764  153.4748 H   0  0  0  0  0  0  0  0  0  0  0  0  # atno 10764 bound_to 10752
  153.1025  135.4905  154.8817 H   0  0  0  0  0  0  0  0  0  0  0  0  # atno 10765 bound_to 10752
  139.9226  134.7737  156.1607 H   0  0  0  0  0  0  0  0  0  0  0  0  # atno 11005 bound_to 11000
  144.9673  140.8334  143.5477 LP  0  0  0  0  0  0  0  0  0  0  0  0  # atno 17320 bound_to 7965
  145.2133  139.2194  143.5131 LP  0  0  0  0  0  0  0  0  0  0  0  0  # atno 17321 bound_to 7965
  140.7819  143.4242  151.0794 LP  0  0  0  0  0  0  0  0  0  0  0  0  # atno 17342 bound_to 10162
  139.7912  143.8216  152.3152 LP  0  0  0  0  0  0  0  0  0  0  0  0  # atno 17343 bound_to 10162
  157.7466  131.0417  150.4657 LP  0  0  0  0  0  0  0  0  0  0  0  0  # atno 17370 bound_to 10713
  156.4858  130.4084  149.6435 LP  0  0  0  0  0  0  0  0  0  0  0  0  # atno 17371 bound_to 10713
  141.0759  133.6775  156.2236 LP  0  0  0  0  0  0  0  0  0  0  0  0  # atno 17394 bound_to 11000
  140.6429  134.5147  157.5571 LP  0  0  0  0  0  0  0  0  0  0  0  0  # atno 17395 bound_to 11000

$$$$
