#       Name:                AV-unprocessed.smi:157
#       Creating user name   scv26
#       Creation time:       Thu Mar 26 19:01:35 2020


#       File generated by GOLD software.
#

@<TRIPOS>MOLECULE
AV-unprocessed.smi:157
    45    47     1
SMALL
NO_CHARGES


@<TRIPOS>ATOM
      1 ****        -4.7580   2.4597   1.5349 O.3            1 S1                 0.0000
      2 ****        -4.3076   1.3083   0.8539 C.3            1 S1                 0.0000
      3 ****        -2.7795   1.3552   0.6805 C.3            1 S1                 0.0000
      4 ****        -2.2916   0.1507   0.0981 O.3            1 S1                 0.0000
      5 ****        -1.1088   0.3982  -0.6055 C.3            1 S1                 0.0000
      6 ****         0.0142  -0.3227   0.0695 N.pl3          1 S1                 0.0000
      7 ****         0.0660  -0.7102   1.3619 C.2            1 S1                 0.0000
      8 ****         1.1867  -1.3243   1.7017 N.pl3          1 S1                 1.0000
      9 ****         1.9711  -1.3624   0.5683 C.2            1 S1                 0.0000
     10 ****         1.2228  -0.7426  -0.4356 C.2            1 S1                 0.0000
     11 ****         1.5432  -0.5088  -1.7816 N.2            1 S1                 0.0000
     12 ****         2.5097  -1.1163  -2.3896 C.2            1 S1                 0.0000
     13 ****         3.4451  -1.9997  -1.8772 N.pl3          1 S1                 0.0000
     14 ****         4.1729  -1.7554  -0.6445 C.3            1 S1                 0.0000
     15 ****         3.3346  -1.9775   0.6215 C.3            1 S1                 0.0000
     16 ****         3.2937  -3.3620   0.8987 O.3            1 S1                 0.0000
     17 ****        -0.8530   1.9096  -0.5747 C.3            1 S1                 0.0000
     18 ****        -2.2175   2.4640  -0.2194 C.3            1 S1                 0.0000
     19 ****        -2.9976   2.6587  -1.3838 O.3            1 S1                 0.0000
     20 ****        -2.3124   1.4380   1.6636 H              1 S1                 0.0000
     21 ****        -1.1678  -0.0239  -1.6093 H              1 S1                 0.0000
     22 ****         3.8700  -1.5210   1.4548 H              1 S1                 0.0000
     23 ****        -2.1425   3.4152   0.3086 H              1 S1                 0.0000
     24 ****        -5.6955   2.3992   1.6403 H              1 S1                 0.0000
     25 ****        -4.5877   0.4329   1.4399 H              1 S1                 0.0000
     26 ****        -4.8185   1.2232  -0.1053 H              1 S1                 0.0000
     27 ****        -0.7364  -0.5316   2.0549 H              1 S1                 0.0000
     28 ****         2.6576  -0.9376  -3.4556 H              1 S1                 0.0000
     29 ****         3.9890  -2.5537  -2.5235 H              1 S1                 0.0000
     30 ****         5.0756  -2.3669  -0.6232 H              1 S1                 0.0000
     31 ****         4.5110  -0.7182  -0.6666 H              1 S1                 0.0000
     32 ****         2.9335  -3.4891   1.7628 H              1 S1                 0.0000
     33 ****        -0.1388   2.1485   0.2152 H              1 S1                 0.0000
     34 ****        -0.4551   2.2660  -1.5256 H              1 S1                 0.0000
     35 ****        -3.8471   2.9819  -1.1243 H              1 S1                 0.0000
     36 ****         1.4204  -1.6854   2.6177 H              1 S1                 0.0000
     37 ****        -4.5304   3.2760   1.0040 LP             1 S1                 0.0000
     38 ****        -4.3206   2.5132   2.4325 LP             1 S1                 0.0000
     39 ****        -2.9790  -0.2146  -0.5297 LP             1 S1                 0.0000
     40 ****        -2.1124  -0.5166   0.8209 LP             1 S1                 0.0000
     41 ****         1.0002   0.1570  -2.2934 LP             1 S1                 0.0000
     42 ****         4.2188  -3.7397   0.8613 LP             1 S1                 0.0000
     43 ****         2.7179  -3.8231   0.2234 LP             1 S1                 0.0000
     44 ****        -3.1008   1.7909  -1.8700 LP             1 S1                 0.0000
     45 ****        -2.5514   3.3247  -1.9816 LP             1 S1                 0.0000
@<TRIPOS>BOND
    1    1    2 1     
    2    1   24 1     
    3    2    3 1     
    4    2   25 1     
    5    2   26 1     
    6    3   20 1     
    7    3   18 1     
    8    3    4 1     
    9    4    5 1     
   10    5   21 1     
   11    5    6 1     
   12    5   17 1     
   13    6   10 1     
   14    6    7 1     
   15    7    8 2     
   16    7   27 1     
   17    8    9 1     
   18    8   36 1     
   19    9   15 1     
   20    9   10 2     
   21   10   11 1     
   22   11   12 2     
   23   12   13 1     
   24   12   28 1     
   25   13   14 1     
   26   13   29 1     
   27   14   15 1     
   28   14   30 1     
   29   14   31 1     
   30   15   22 1     
   31   15   16 1     
   32   16   32 1     
   33   17   18 1     
   34   17   33 1     
   35   17   34 1     
   36   18   23 1     
   37   18   19 1     
   38   19   35 1     
   39    1   37 1     
   40    1   38 1     
   41    4   39 1     
   42    4   40 1     
   43   11   41 1     
   44   16   42 1     
   45   16   43 1     
   46   19   44 1     
   47   19   45 1     
@<TRIPOS>SUBSTRUCTURE
      1 S1             1
@<TRIPOS>SET
LONE_PAIRS      STATIC     ATOMS    <user>   **** ""
9 37 38 39 40 41 42 43 44 45
DONOR_HYDROGENS      STATIC     ATOMS    <user>   **** ""
5 24 36 29 32 35
ATOM$BLUE        STATIC     ATOMS    COLORGROUP SYSTEM
9 37 38 39 40 41 42 43 44 45
ATOM$RED        STATIC     ATOMS    COLORGROUP SYSTEM
5 24 36 29 32 35
