AV-unprocessed.smi:1929|AV-procd|sdf|7808|dock5
  -GOLD-   22720 9553D 1   1.00000     0.00000
 Structure written by MMmdl.
 43 44  0  0  0  0  0  0  0  0  4 V2000
  149.1011  132.7818  154.2446 C   0  0  0  0  0  0  0  0  0  0  0  0
  148.5618  134.1326  154.3452 N   0  5  0  0  0  0  0  0  0  0  0  0
  148.1892  134.7067  155.5206 C   0  0  0  0  0  0  0  0  0  0  0  0
  148.1870  134.2592  156.6723 O   0  0  0  0  0  0  0  0  0  0  0  0
  147.6773  136.1345  155.2977 C   0  0  0  0  0  0  0  0  0  0  0  0
  148.7344  136.9770  154.6832 N   0  3  2  0  0  0  0  0  0  0  0  0
  150.0514  136.8602  155.3671 C   0  0  0  0  0  0  0  0  0  0  0  0
  151.1370  137.6597  154.6259 C   0  0  0  0  0  0  0  0  0  0  0  0
  150.7481  139.1418  154.4611 C   0  0  2  0  0  0  0  0  0  0  0  0
  150.7632  139.8519  155.7404 N   0  0  0  0  0  0  0  0  0  0  0  0
  151.8212  139.9496  156.5588 C   0  0  0  0  0  0  0  0  0  0  0  0
  152.9200  139.4563  156.3066 O   0  0  0  0  0  0  0  0  0  0  0  0
  151.5116  140.6258  157.6788 N   0  0  0  0  0  0  0  0  0  0  0  0
  152.3364  140.8939  158.8053 C   0  0  0  0  0  0  0  0  0  0  0  0
  152.2223  142.1650  159.4110 C   0  0  0  0  0  0  0  0  0  0  0  0
  153.0271  142.4801  160.5248 C   0  0  0  0  0  0  0  0  0  0  0  0
  153.9072  141.5715  160.9969 N   0  3  0  0  0  0  0  0  0  0  0  0
  154.0631  140.3501  160.4427 C   0  0  0  0  0  0  0  0  0  0  0  0
  153.2851  139.9778  159.3275 C   0  0  0  0  0  0  0  0  0  0  0  0
  149.3592  139.2358  153.8065 C   0  0  0  0  0  0  0  0  0  0  0  0
  148.3079  138.3940  154.5532 C   0  0  0  0  0  0  0  0  0  0  0  0
  149.2301  132.4737  153.2072 H   0  0  0  0  0  0  0  0  0  0  0  0
  148.4535  132.0372  154.7089 H   0  0  0  0  0  0  0  0  0  0  0  0
  150.0787  132.6900  154.7180 H   0  0  0  0  0  0  0  0  0  0  0  0
  146.8241  136.0607  154.6219 H   0  0  0  0  0  0  0  0  0  0  0  0
  147.3041  136.5984  156.2136 H   0  0  0  0  0  0  0  0  0  0  0  0
  149.9608  137.2082  156.3972 H   0  0  0  0  0  0  0  0  0  0  0  0
  150.3624  135.8166  155.4174 H   0  0  0  0  0  0  0  0  0  0  0  0
  152.0906  137.5659  155.1464 H   0  0  0  0  0  0  0  0  0  0  0  0
  151.2912  137.2187  153.6401 H   0  0  0  0  0  0  0  0  0  0  0  0
  151.4684  139.6252  153.7987 H   0  0  0  0  0  0  0  0  0  0  0  0
  149.8996  140.2897  156.0265 H   0  0  0  0  0  0  0  0  0  0  0  0
  150.5472  140.9099  157.7717 H   0  0  0  0  0  0  0  0  0  0  0  0
  151.5189  142.8931  159.0331 H   0  0  0  0  0  0  0  0  0  0  0  0
  152.9941  143.4249  161.0476 H   0  0  0  0  0  0  0  0  0  0  0  0
  154.8043  139.7121  160.9016 H   0  0  0  0  0  0  0  0  0  0  0  0
  153.4403  139.0034  158.8903 H   0  0  0  0  0  0  0  0  0  0  0  0
  149.0358  140.2761  153.7508 H   0  0  0  0  0  0  0  0  0  0  0  0
  149.4263  138.8850  152.7756 H   0  0  0  0  0  0  0  0  0  0  0  0
  147.3632  138.4433  154.0103 H   0  0  0  0  0  0  0  0  0  0  0  0
  148.1227  138.8099  155.5446 H   0  0  0  0  0  0  0  0  0  0  0  0
  148.8581  136.6252  153.7444 H   0  0  0  0  0  0  0  0  0  0  0  0
  154.4817  141.8197  161.8031 H   0  0  0  0  0  0  0  0  0  0  0  0
  1  2  1  0  0  0  0
  1 22  1  0  0  0  0
  1 23  1  0  0  0  0
  1 24  1  0  0  0  0
  2  3  1  0  0  0  0
  3  4  2  0  0  0  0
  3  5  1  0  0  0  0
  5  6  1  0  0  0  0
  5 25  1  0  0  0  0
  5 26  1  0  0  0  0
  6 21  1  0  0  0  0
  6  7  1  0  0  0  0
  6 42  1  0  0  0  0
  7  8  1  0  0  0  0
  7 27  1  0  0  0  0
  7 28  1  0  0  0  0
  8  9  1  0  0  0  0
  8 29  1  0  0  0  0
  8 30  1  0  0  0  0
  9 10  1  0  0  0  0
  9 20  1  0  0  0  0
  9 31  1  0  0  0  0
 10 11  1  0  0  0  0
 10 32  1  0  0  0  0
 11 12  2  0  0  0  0
 11 13  1  0  0  0  0
 13 14  1  0  0  0  0
 13 33  1  0  0  0  0
 14 19  1  0  0  0  0
 14 15  2  0  0  0  0
 15 16  1  0  0  0  0
 15 34  1  0  0  0  0
 16 17  2  0  0  0  0
 16 35  1  0  0  0  0
 17 18  1  0  0  0  0
 17 43  1  0  0  0  0
 18 19  2  0  0  0  0
 18 36  1  0  0  0  0
 19 37  1  0  0  0  0
 20 21  1  0  0  0  0
 20 38  1  0  0  0  0
 20 39  1  0  0  0  0
 21 40  1  0  0  0  0
 21 41  1  0  0  0  0
M  CHG  1   2  -1
M  CHG  1   6   1
M  CHG  1  17   1
M  END
> <s_m_source_file>
AV-unprocessed.smi

> <i_m_source_file_index>
1929

> <i_lp_mmshare_version>
43012

> <i_f3d_flags>
0

> <s_epik_input>
W0NIM11bTkhdQyg9TylbQ0gyXU4xW0NIMl1bQ0gyXVtDSF0oW0NIMl1bQ0gyXTEpW05IXUMoPU8pW05IXWMyW2NIXVtjSF1uW2NIXVtjSF0y

> <s_epik_cmdline>
J2VwaWtfcHl0aG9uJywgJy1waCcsICc3LjAnLCAnLXRuJywgJzgnLCAnLW1hJywgJzIwMCcsICctbWV0YWxfYmluZGluZycsICctaW1hZScsICc8aW5maWxlLm1hZT4nLCAnLW9tYWUnLCAnPG91dGZpbGUubWFlPic=

> <r_epik_Ionization_Penalty>
7.25133

> <r_epik_Ionization_Penalty_Charging>
7.25131

> <r_epik_Ionization_Penalty_Neutral>
1.84563e-05

> <r_epik_State_Penalty>
8.093

> <r_epik_Charging_Adjusted_Penalty>
15.3443

> <i_epik_Tot_Q>
1

> <i_epik_Tot_abs_Q>
3

> <r_epik_Metal_State_Penalty>
4.12368

> <b_epik_Metal_Only>
1

> <s_lp_Force_Field>
OPLS_2005

> <r_lp_Energy>
20.7097

> <b_lp_Chiralities_Consistent>
1

> <s_lp_Variant>
AV-unprocessed.smi:1929-10

> <Gold.Version>
5.8.1

> <Gold.Id.Protein>
6NUR|6NUR_protein|mol2

> <Gold.PLP.Fitness>
40.5868

> <Gold.PLP.PLP>
-32.1998

> <Gold.PLP.part.hbond>
-2.0000

> <Gold.PLP.part.metal>
0.0000

> <Gold.PLP.part.buried>
-2.7301

> <Gold.PLP.part.nonpolar>
-27.4642

> <Gold.PLP.part.repulsive>
0.3038

> <Gold.PLP.ligand.clash>
0.0000

> <Gold.PLP.ligand.torsion>
0.3299

> <Gold.PLP.Chemscore.Hbond>
3.0000

> <Gold.PLP.Chemscore.CHOScore>
0.0000

> <Gold.PLP.Chemscore.Metal>
0.0000

> <Gold.Chemscore.Hbonds>
donor molecule, donor type, donor heavy atom, donor atom, acceptor molecule, acceptor atom, score
      L1  H     6    42       P1  7948  2.00
      P1  H  7997  8008       L1    12  1.00

> <Gold.PLP.Chemscore.Internal.Correction>
0.0469

> <Gold.Rescore>
     Score         DG    S(hbond)    S(metal)    S(lipo)     H(rot)  DE(clash)    DE(int)     intcor
     15.32     -17.85       2.00        0.00      84.98       1.66       1.32       1.21       ----

> <Gold.Chemscore.Fitness>
15.3243

> <Gold.Chemscore.DG>
-17.8511

> <Gold.Chemscore.ZeroCoef>
-5.4800

> <Gold.Chemscore.Hbond>
1.9975

> <Gold.Chemscore.Metal>
0.0000

> <Gold.Chemscore.Lipo>
84.9774

> <Gold.Chemscore.Internal_Hbond>
0.0000

> <Gold.Chemscore.DEClash>
1.3195

> <Gold.Chemscore.DEInternal>
1.2073

> <Gold.Chemscore.Rot>
1.6574

> <Gold.Chemscore.Internal.Correction>
   9.000000E+99

> <Gold.Chemscore.Hbonds>
donor molecule, donor type, donor heavy atom, donor atom, acceptor molecule, acceptor atom, score
      L1  H     6    42       P1  7948  1.00
      P1  H  7997  8008       L1    12  0.97

> <Gold.Chemscore.Hbond.Weighted>
-6.6717

> <Gold.Chemscore.Metal.Weighted>
-0.0000

> <Gold.Chemscore.Lipo.Weighted>
-9.9424

> <Gold.Chemscore.Internal_Hbond.Weighted>
0.0000

> <Gold.Chemscore.DEClash.Weighted>
1.3195

> <Gold.Chemscore.DEInternal.Weighted>
1.2073

> <Gold.Chemscore.Rot.Weighted>
4.2430

> <Gold.Chemscore.Internal.Correction.Weighted>
   9.000000E+99

> <Gold.Protein.RotatedTorsions>
[ 6907 6896 6895 6894 ] final   15.48 input  -60.11 | X-H torsion
[ 7974 7965 7964 7962 ] final -147.78 input  175.53 | X-H torsion
[ 8008 7997 7996 7995 ] final  -40.93 input   59.86 | X-H torsion
[ 10167 10162 10161 10158 ] final  -54.38 input  -65.29 | X-H torsion
[ 10718 10713 10712 10709 ] final  156.87 input   66.30 | X-H torsion
[ 10763 10752 10751 10750 ] final   89.48 input  -60.55 | X-H torsion
[ 11005 11000 10999 10996 ] final  -20.85 input  -57.11 | X-H torsion

> <Gold.Protein.ActiveResidues>
 VAL166  LYS551  ARG553  GLY616  TRP617  ASP618  TYR619  PRO620  LYS621  CYS622 
 ASP623  PHE694  ASN695  SER759  ASP760  ASP761  ALA762  ILE779  LEU786  VAL792 
 PHE793  MET794  SER795  GLU796  ALA797  LYS798  CYS799  TRP800  GLU811  SER814 

> <Gold.Protein.RotatedAtoms>
  151.8188  135.0658  160.0422 H   0  0  0  0  0  0  0  0  0  0  0  0  # atno 6907 bound_to 6896
  152.2966  133.5609  159.5600 H   0  0  0  0  0  0  0  0  0  0  0  0  # atno 6908 bound_to 6896
  150.7254  134.0268  159.3762 H   0  0  0  0  0  0  0  0  0  0  0  0  # atno 6909 bound_to 6896
  144.8071  140.5282  143.5667 H   0  0  0  0  0  0  0  0  0  0  0  0  # atno 7974 bound_to 7965
  154.4008  140.1512  156.3108 H   0  0  0  0  0  0  0  0  0  0  0  0  # atno 8008 bound_to 7997
  155.8617  140.3453  155.5739 H   0  0  0  0  0  0  0  0  0  0  0  0  # atno 8009 bound_to 7997
  155.7873  140.0852  157.2018 H   0  0  0  0  0  0  0  0  0  0  0  0  # atno 8010 bound_to 7997
  140.6434  143.2520  151.4928 H   0  0  0  0  0  0  0  0  0  0  0  0  # atno 10167 bound_to 10162
  157.1991  131.0672  151.2035 H   0  0  0  0  0  0  0  0  0  0  0  0  # atno 10718 bound_to 10713
  153.1875  135.4469  155.0107 H   0  0  0  0  0  0  0  0  0  0  0  0  # atno 10763 bound_to 10752
  154.8070  135.3278  154.7409 H   0  0  0  0  0  0  0  0  0  0  0  0  # atno 10764 bound_to 10752
  153.7866  135.6973  153.4934 H   0  0  0  0  0  0  0  0  0  0  0  0  # atno 10765 bound_to 10752
  140.8504  133.7861  155.9960 H   0  0  0  0  0  0  0  0  0  0  0  0  # atno 11005 bound_to 11000
  145.5412  139.1475  143.3446 LP  0  0  0  0  0  0  0  0  0  0  0  0  # atno 17320 bound_to 7965
  146.2364  140.5551  142.8953 LP  0  0  0  0  0  0  0  0  0  0  0  0  # atno 17321 bound_to 7965
  139.5643  144.2080  152.1741 LP  0  0  0  0  0  0  0  0  0  0  0  0  # atno 17342 bound_to 10162
  140.1357  144.5248  150.6775 LP  0  0  0  0  0  0  0  0  0  0  0  0  # atno 17343 bound_to 10162
  157.3785  130.7218  149.6613 LP  0  0  0  0  0  0  0  0  0  0  0  0  # atno 17370 bound_to 10713
  155.9702  130.4179  150.4302 LP  0  0  0  0  0  0  0  0  0  0  0  0  # atno 17371 bound_to 10713
  140.8796  134.2627  157.5150 LP  0  0  0  0  0  0  0  0  0  0  0  0  # atno 17394 bound_to 11000
  139.8704  134.9608  156.4377 LP  0  0  0  0  0  0  0  0  0  0  0  0  # atno 17395 bound_to 11000

$$$$
