AV-unprocessed.smi:1761|AV-procd|sdf|7098|dock9
  -GOLD-   22720 8313D 1   1.00000     0.00000
 Structure written by MMmdl.
 34 35  0  0  0  0  0  0  0  0  1 V2000
  150.0140  140.9430  157.9900 O   0  0  0  0  0  0  0  0  0  0  0  0
  149.7455  141.9291  157.3031 C   0  0  0  0  0  0  0  0  0  0  0  0
  150.0910  143.1957  157.5932 N   0  0  0  0  0  0  0  0  0  0  0  0
  150.7975  143.6756  158.7283 C   0  0  0  0  0  0  0  0  0  0  0  0
  151.5895  142.7106  159.3911 C   0  0  0  0  0  0  0  0  0  0  0  0
  152.3323  143.0857  160.5271 C   0  0  0  0  0  0  0  0  0  0  0  0
  152.2648  144.4182  160.9712 C   0  0  0  0  0  0  0  0  0  0  0  0
  151.4526  145.3161  160.2544 C   0  0  0  0  0  0  0  0  0  0  0  0
  150.7396  144.9586  159.1655 N   0  0  0  0  0  0  0  0  0  0  0  0
  149.0635  141.8671  156.1501 N   0  0  0  0  0  0  0  0  0  0  0  0
  148.5468  140.6469  155.5332 C   0  0  1  0  0  0  0  0  0  0  0  0
  147.3472  140.1622  156.3737 C   0  0  0  0  0  0  0  0  0  0  0  0
  146.6337  138.9647  155.7302 C   0  0  0  0  0  0  0  0  0  0  0  0
  146.1857  139.2973  154.3009 C   0  0  0  0  0  0  0  0  0  0  0  0
  147.3829  139.7327  153.4454 C   0  0  0  0  0  0  0  0  0  0  0  0
  148.1270  140.9289  154.0700 C   0  0  2  0  0  0  0  0  0  0  0  0
  149.2727  141.1738  153.2788 O   0  0  0  0  0  0  0  0  0  0  0  0
  149.8128  143.8998  156.9260 H   0  0  0  0  0  0  0  0  0  0  0  0
  151.6301  141.6910  159.0357 H   0  0  0  0  0  0  0  0  0  0  0  0
  152.9425  142.3625  161.0476 H   0  0  0  0  0  0  0  0  0  0  0  0
  152.8206  144.7438  161.8381 H   0  0  0  0  0  0  0  0  0  0  0  0
  151.3731  146.3481  160.5622 H   0  0  0  0  0  0  0  0  0  0  0  0
  148.8947  142.7293  155.6531 H   0  0  0  0  0  0  0  0  0  0  0  0
  149.3002  139.8566  155.5425 H   0  0  0  0  0  0  0  0  0  0  0  0
  147.6804  139.8937  157.3769 H   0  0  0  0  0  0  0  0  0  0  0  0
  146.6302  140.9755  156.4970 H   0  0  0  0  0  0  0  0  0  0  0  0
  147.3024  138.1031  155.7165 H   0  0  0  0  0  0  0  0  0  0  0  0
  145.7715  138.6780  156.3329 H   0  0  0  0  0  0  0  0  0  0  0  0
  145.7019  138.4302  153.8505 H   0  0  0  0  0  0  0  0  0  0  0  0
  145.4402  140.0931  154.3232 H   0  0  0  0  0  0  0  0  0  0  0  0
  148.0657  138.8886  153.3356 H   0  0  0  0  0  0  0  0  0  0  0  0
  147.0436  139.9869  152.4406 H   0  0  0  0  0  0  0  0  0  0  0  0
  147.4836  141.8093  154.0314 H   0  0  0  0  0  0  0  0  0  0  0  0
  149.3876  140.4488  152.6832 H   0  0  0  0  0  0  0  0  0  0  0  0
  1  2  2  0  0  0  0
  2  3  1  0  0  0  0
  2 10  1  0  0  0  0
  3  4  1  0  0  0  0
  3 18  1  0  0  0  0
  4  9  1  0  0  0  0
  4  5  2  0  0  0  0
  5  6  1  0  0  0  0
  5 19  1  0  0  0  0
  6  7  2  0  0  0  0
  6 20  1  0  0  0  0
  7  8  1  0  0  0  0
  7 21  1  0  0  0  0
  8  9  2  0  0  0  0
  8 22  1  0  0  0  0
 10 11  1  0  0  0  0
 10 23  1  0  0  0  0
 11 16  1  0  0  0  0
 11 12  1  0  0  0  0
 11 24  1  0  0  0  0
 12 13  1  0  0  0  0
 12 25  1  0  0  0  0
 12 26  1  0  0  0  0
 13 14  1  0  0  0  0
 13 27  1  0  0  0  0
 13 28  1  0  0  0  0
 14 15  1  0  0  0  0
 14 29  1  0  0  0  0
 14 30  1  0  0  0  0
 15 16  1  0  0  0  0
 15 31  1  0  0  0  0
 15 32  1  0  0  0  0
 16 17  1  0  0  0  0
 16 33  1  0  0  0  0
 17 34  1  0  0  0  0
M  END
> <s_m_source_file>
AV-unprocessed.smi

> <i_m_source_file_index>
1761

> <i_lp_mmshare_version>
43012

> <i_f3d_flags>
0

> <s_epik_input>
bjFbY0hdW2NIXVtjSF1bY0hdYzFbTkhdQyg9TylbTkhdW0NAQEhdMltDSDJdW0NIMl1bQ0gyXVtDSDJdW0NASF0yW09IXQ==

> <s_epik_cmdline>
J2VwaWtfcHl0aG9uJywgJy1waCcsICc3LjAnLCAnLXRuJywgJzgnLCAnLW1hJywgJzIwMCcsICctbWV0YWxfYmluZGluZycsICctaW1hZScsICc8aW5maWxlLm1hZT4nLCAnLW9tYWUnLCAnPG91dGZpbGUubWFlPic=

> <r_lp_tautomer_probability>
1

> <r_epik_Ionization_Penalty>
4.92589e-05

> <r_epik_Ionization_Penalty_Charging>
0

> <r_epik_Ionization_Penalty_Neutral>
4.92589e-05

> <r_epik_State_Penalty>
-0

> <r_epik_Charging_Adjusted_Penalty>
0

> <i_epik_Tot_Q>
0

> <i_epik_Tot_abs_Q>
0

> <r_epik_Metal_State_Penalty>
-0

> <b_epik_Metal_Only>
0

> <s_lp_Force_Field>
OPLS_2005

> <r_lp_Energy>
12.6575

> <b_lp_Chiralities_Consistent>
1

> <s_lp_Variant>
AV-unprocessed.smi:1761-4

> <Gold.Version>
5.8.1

> <Gold.Id.Protein>
6NUR|6NUR_protein|mol2

> <Gold.PLP.Fitness>
40.2319

> <Gold.PLP.PLP>
-29.0722

> <Gold.PLP.part.hbond>
-4.6214

> <Gold.PLP.part.metal>
0.0000

> <Gold.PLP.part.buried>
-6.0068

> <Gold.PLP.part.nonpolar>
-20.1230

> <Gold.PLP.part.repulsive>
0.2587

> <Gold.PLP.ligand.clash>
0.0000

> <Gold.PLP.ligand.torsion>
0.2544

> <Gold.PLP.Chemscore.Hbond>
3.8891

> <Gold.PLP.Chemscore.CHOScore>
0.0000

> <Gold.PLP.Chemscore.Metal>
0.0000

> <Gold.Chemscore.Hbonds>
donor molecule, donor type, donor heavy atom, donor atom, acceptor molecule, acceptor atom, score
      L1  H     3    18       P1  8028  1.00
      L1  H    10    23       P1  8028  0.99
      L1  H    17    34       P1  7957  0.88
      P1  H  8011  8017       L1    17  1.00

> <Gold.PLP.Chemscore.Internal.Correction>
0.0011

> <Gold.Rescore>
     Score         DG    S(hbond)    S(metal)    S(lipo)     H(rot)  DE(clash)    DE(int)     intcor
     18.66     -20.49       3.19        0.00      69.37       1.47       0.10       1.73       ----

> <Gold.Chemscore.Fitness>
18.6645

> <Gold.Chemscore.DG>
-20.4949

> <Gold.Chemscore.ZeroCoef>
-5.4800

> <Gold.Chemscore.Hbond>
3.1884

> <Gold.Chemscore.Metal>
0.0000

> <Gold.Chemscore.Lipo>
69.3747

> <Gold.Chemscore.Internal_Hbond>
0.0000

> <Gold.Chemscore.DEClash>
0.0997

> <Gold.Chemscore.DEInternal>
1.7307

> <Gold.Chemscore.Rot>
1.4653

> <Gold.Chemscore.Internal.Correction>
   9.000000E+99

> <Gold.Chemscore.Hbonds>
donor molecule, donor type, donor heavy atom, donor atom, acceptor molecule, acceptor atom, score
      L1  H     3    18       P1  8028  0.94
      L1  H    10    23       P1  8028  0.91
      L1  H    17    34       P1  7957  0.85
      P1  H  8011  8017       L1    17  0.25

> <Gold.Chemscore.Hbond.Weighted>
-10.6491

> <Gold.Chemscore.Metal.Weighted>
-0.0000

> <Gold.Chemscore.Lipo.Weighted>
-8.1168

> <Gold.Chemscore.Internal_Hbond.Weighted>
0.0000

> <Gold.Chemscore.DEClash.Weighted>
0.0997

> <Gold.Chemscore.DEInternal.Weighted>
1.7307

> <Gold.Chemscore.Rot.Weighted>
3.7511

> <Gold.Chemscore.Internal.Correction.Weighted>
   9.000000E+99

> <Gold.Protein.RotatedTorsions>
[ 6907 6896 6895 6894 ] final    6.22 input  -60.11 | X-H torsion
[ 7974 7965 7964 7962 ] final -115.92 input  175.53 | X-H torsion
[ 8008 7997 7996 7995 ] final  -43.36 input   59.86 | X-H torsion
[ 10167 10162 10161 10158 ] final  165.54 input  -65.29 | X-H torsion
[ 10718 10713 10712 10709 ] final  -74.40 input   66.30 | X-H torsion
[ 10763 10752 10751 10750 ] final  -66.15 input  -60.55 | X-H torsion
[ 11005 11000 10999 10996 ] final  -96.29 input  -57.11 | X-H torsion

> <Gold.Protein.ActiveResidues>
 VAL166  LYS551  ARG553  GLY616  TRP617  ASP618  TYR619  PRO620  LYS621  CYS622 
 ASP623  PHE694  ASN695  SER759  ASP760  ASP761  ALA762  ILE779  LEU786  VAL792 
 PHE793  MET794  SER795  GLU796  ALA797  LYS798  CYS799  TRP800  GLU811  SER814 

> <Gold.Protein.RotatedAtoms>
  151.6702  135.0977  160.0196 H   0  0  0  0  0  0  0  0  0  0  0  0  # atno 6907 bound_to 6896
  152.3896  133.6655  159.6235 H   0  0  0  0  0  0  0  0  0  0  0  0  # atno 6908 bound_to 6896
  150.7814  133.8894  159.3350 H   0  0  0  0  0  0  0  0  0  0  0  0  # atno 6909 bound_to 6896
  145.1027  140.8562  143.3916 H   0  0  0  0  0  0  0  0  0  0  0  0  # atno 7974 bound_to 7965
  154.3997  140.1450  156.3506 H   0  0  0  0  0  0  0  0  0  0  0  0  # atno 8008 bound_to 7997
  155.8272  140.3467  155.5529 H   0  0  0  0  0  0  0  0  0  0  0  0  # atno 8009 bound_to 7997
  155.8226  140.0900  157.1830 H   0  0  0  0  0  0  0  0  0  0  0  0  # atno 8010 bound_to 7997
  139.4908  144.4122  151.9286 H   0  0  0  0  0  0  0  0  0  0  0  0  # atno 10167 bound_to 10162
  156.0244  130.4416  150.2887 H   0  0  0  0  0  0  0  0  0  0  0  0  # atno 10718 bound_to 10713
  154.3555  135.6127  153.5664 H   0  0  0  0  0  0  0  0  0  0  0  0  # atno 10763 bound_to 10752
  152.9796  135.5802  154.4694 H   0  0  0  0  0  0  0  0  0  0  0  0  # atno 10764 bound_to 10752
  154.4422  135.2850  155.1817 H   0  0  0  0  0  0  0  0  0  0  0  0  # atno 10765 bound_to 10752
  141.1416  133.8087  157.0551 H   0  0  0  0  0  0  0  0  0  0  0  0  # atno 11005 bound_to 11000
  145.0937  139.2872  143.5722 LP  0  0  0  0  0  0  0  0  0  0  0  0  # atno 17320 bound_to 7965
  146.3529  140.0482  142.8638 LP  0  0  0  0  0  0  0  0  0  0  0  0  # atno 17321 bound_to 7965
  140.3563  144.3027  150.5940 LP  0  0  0  0  0  0  0  0  0  0  0  0  # atno 17342 bound_to 10162
  140.5441  143.2218  151.8035 LP  0  0  0  0  0  0  0  0  0  0  0  0  # atno 17343 bound_to 10162
  157.0991  131.0190  151.3092 LP  0  0  0  0  0  0  0  0  0  0  0  0  # atno 17370 bound_to 10713
  157.4794  130.7756  149.7399 LP  0  0  0  0  0  0  0  0  0  0  0  0  # atno 17371 bound_to 10713
  140.0607  134.9756  157.1300 LP  0  0  0  0  0  0  0  0  0  0  0  0  # atno 17394 bound_to 11000
  140.3852  134.2243  155.7169 LP  0  0  0  0  0  0  0  0  0  0  0  0  # atno 17395 bound_to 11000

$$$$
