AV-unprocessed.smi:283|AV-procd|sdf|2138|dock6
  -GOLD-   2262021463D 1   1.00000     0.00000
 Structure written by MMmdl.
 48 51  0  0  0  0  0  0  0  0  1 V2000
  151.5103  140.8110  155.8107 C   0  0  0  0  0  0  0  0  0  0  0  0
  150.6471  141.8551  156.5317 C   0  0  1  0  0  0  0  0  0  0  0  0
  149.3798  141.2505  156.9357 N   0  0  0  0  0  0  0  0  0  0  0  0
  148.6040  140.5925  156.0462 C   0  0  0  0  0  0  0  0  0  0  0  0
  148.7765  140.9461  154.7511 N   0  0  0  0  0  0  0  0  0  0  0  0
  148.0741  140.3391  153.7921 C   0  0  0  0  0  0  0  0  0  0  0  0
  147.1557  139.3805  153.9139 N   0  0  0  0  0  0  0  0  0  0  0  0
  146.9527  139.0305  155.2181 C   0  0  0  0  0  0  0  0  0  0  0  0
  147.6408  139.5812  156.3384 C   0  0  0  0  0  0  0  0  0  0  0  0
  147.1851  138.9714  157.4994 N   0  0  0  0  0  0  0  0  0  0  0  0
  146.3011  138.1067  157.0870 C   0  0  0  0  0  0  0  0  0  0  0  0
  146.0611  138.1018  155.7290 N   0  0  0  0  0  0  0  0  0  0  0  0
  145.1213  137.2055  154.9603 C   0  0  2  0  0  0  0  0  0  0  0  0
  145.6457  135.9174  154.9061 O   0  0  0  0  0  0  0  0  0  0  0  0
  146.5613  135.8380  153.8240 C   0  0  1  0  0  0  0  0  0  0  0  0
  146.8233  134.3690  153.4615 C   0  0  0  0  0  0  0  0  0  0  0  0
  147.6057  134.2933  152.2890 O   0  0  0  0  0  0  0  0  0  0  0  0
  145.8338  136.6251  152.7270 C   0  0  2  0  0  0  0  0  0  0  0  0
  146.7797  137.2674  151.8947 O   0  0  0  0  0  0  0  0  0  0  0  0
  144.9967  137.6565  153.4905 C   0  0  1  0  0  0  0  0  0  0  0  0
  143.6508  137.6308  153.0610 O   0  0  0  0  0  0  0  0  0  0  0  0
  151.4383  142.5033  157.6714 C   0  0  0  0  0  0  0  0  0  0  0  0
  151.5935  143.9089  157.7125 C   0  0  0  0  0  0  0  0  0  0  0  0
  152.3154  144.5224  158.7532 C   0  0  0  0  0  0  0  0  0  0  0  0
  152.8825  143.7369  159.7724 C   0  0  0  0  0  0  0  0  0  0  0  0
  152.7227  142.3392  159.7504 C   0  0  0  0  0  0  0  0  0  0  0  0
  152.0022  141.7194  158.7096 C   0  0  0  0  0  0  0  0  0  0  0  0
  151.8252  139.9996  158.7431 Cl  0  0  0  0  0  0  0  0  0  0  0  0
  144.1933  137.2463  155.5323 H   0  0  0  0  0  0  0  0  0  0  0  0
  147.4913  136.3433  154.0945 H   0  0  0  0  0  0  0  0  0  0  0  0
  145.1986  135.9640  152.1351 H   0  0  0  0  0  0  0  0  0  0  0  0
  145.3779  138.6680  153.3539 H   0  0  0  0  0  0  0  0  0  0  0  0
  152.4256  141.2592  155.4228 H   0  0  0  0  0  0  0  0  0  0  0  0
  150.9765  140.3740  154.9661 H   0  0  0  0  0  0  0  0  0  0  0  0
  151.7960  139.9997  156.4811 H   0  0  0  0  0  0  0  0  0  0  0  0
  150.3974  142.6153  155.7941 H   0  0  0  0  0  0  0  0  0  0  0  0
  149.0033  141.6091  157.8010 H   0  0  0  0  0  0  0  0  0  0  0  0
  148.2757  140.6677  152.7833 H   0  0  0  0  0  0  0  0  0  0  0  0
  145.7953  137.4480  157.7777 H   0  0  0  0  0  0  0  0  0  0  0  0
  147.3094  133.8367  154.2794 H   0  0  0  0  0  0  0  0  0  0  0  0
  145.8805  133.8606  153.2580 H   0  0  0  0  0  0  0  0  0  0  0  0
  148.0640  135.1125  152.1799 H   0  0  0  0  0  0  0  0  0  0  0  0
  147.5071  136.6799  151.7574 H   0  0  0  0  0  0  0  0  0  0  0  0
  143.4429  138.4671  152.6728 H   0  0  0  0  0  0  0  0  0  0  0  0
  151.1594  144.5289  156.9419 H   0  0  0  0  0  0  0  0  0  0  0  0
  152.4313  145.5962  158.7699 H   0  0  0  0  0  0  0  0  0  0  0  0
  153.4347  144.2061  160.5732 H   0  0  0  0  0  0  0  0  0  0  0  0
  153.1533  141.7399  160.5391 H   0  0  0  0  0  0  0  0  0  0  0  0
  1  2  1  0  0  0  0
  1 33  1  0  0  0  0
  1 34  1  0  0  0  0
  1 35  1  0  0  0  0
  2  3  1  0  0  0  0
  2 22  1  0  0  0  0
  2 36  1  0  0  0  0
  3  4  1  0  0  0  0
  3 37  1  0  0  0  0
  4  9  1  0  0  0  0
  4  5  2  0  0  0  0
  5  6  1  0  0  0  0
  6  7  2  0  0  0  0
  6 38  1  0  0  0  0
  7  8  1  0  0  0  0
  8 12  1  0  0  0  0
  8  9  2  0  0  0  0
  9 10  1  0  0  0  0
 10 11  2  0  0  0  0
 11 12  1  0  0  0  0
 11 39  1  0  0  0  0
 12 13  1  0  0  0  0
 13 29  1  0  0  0  0
 13 20  1  0  0  0  0
 13 14  1  0  0  0  0
 14 15  1  0  0  0  0
 15 30  1  0  0  0  0
 15 16  1  0  0  0  0
 15 18  1  0  0  0  0
 16 17  1  0  0  0  0
 16 40  1  0  0  0  0
 16 41  1  0  0  0  0
 17 42  1  0  0  0  0
 18 31  1  0  0  0  0
 18 19  1  0  0  0  0
 18 20  1  0  0  0  0
 19 43  1  0  0  0  0
 20 32  1  0  0  0  0
 20 21  1  0  0  0  0
 21 44  1  0  0  0  0
 22 27  1  0  0  0  0
 22 23  2  0  0  0  0
 23 24  1  0  0  0  0
 23 45  1  0  0  0  0
 24 25  2  0  0  0  0
 24 46  1  0  0  0  0
 25 26  1  0  0  0  0
 25 47  1  0  0  0  0
 26 27  2  0  0  0  0
 26 48  1  0  0  0  0
 27 28  1  0  0  0  0
M  END
> <s_m_source_file>
AV-unprocessed.smi

> <i_m_source_file_index>
283

> <i_lp_mmshare_version>
43012

> <i_f3d_flags>
0

> <s_epik_input>
Q2xjMVtjSF1bY0hdW2NIXVtjSF1jMVtDQEhdKFtDSDNdKVtOSF1jKG5bY0hdbjIpYyhjMjMpbltjSF1uM1tDQEBIXTRPW0NASF0oW0NIMl1bT0hdKVtDQEBIXShbT0hdKVtDQEhdNFtPSF0=

> <s_epik_cmdline>
J2VwaWtfcHl0aG9uJywgJy1waCcsICc3LjAnLCAnLXRuJywgJzgnLCAnLW1hJywgJzIwMCcsICctbWV0YWxfYmluZGluZycsICctaW1hZScsICc8aW5maWxlLm1hZT4nLCAnLW9tYWUnLCAnPG91dGZpbGUubWFlPic=

> <r_lp_tautomer_probability>
1

> <r_epik_Ionization_Penalty>
0.000266407

> <r_epik_Ionization_Penalty_Charging>
0

> <r_epik_Ionization_Penalty_Neutral>
0.000266407

> <r_epik_State_Penalty>
-0

> <r_epik_Charging_Adjusted_Penalty>
0

> <i_epik_Tot_Q>
0

> <i_epik_Tot_abs_Q>
0

> <r_epik_Metal_State_Penalty>
-0

> <b_epik_Metal_Only>
0

> <s_epik_Chemistry_Notes>
This compound contains an acetal/aminal-like group ( X-CH(R)-Y where X, Y are N, S, or O) that may be acid/base labile, releasing an aldehyde.

> <s_lp_Force_Field>
OPLS_2005

> <r_lp_Energy>
39.8379

> <b_lp_Chiralities_Consistent>
1

> <s_lp_Variant>
AV-unprocessed.smi:283-14

> <Gold.Version>
5.8.1

> <Gold.Id.Protein>
6NUR|6NUR_protein|mol2

> <Gold.PLP.Fitness>
48.7276

> <Gold.PLP.PLP>
-37.6931

> <Gold.PLP.part.hbond>
-2.6533

> <Gold.PLP.part.metal>
0.0000

> <Gold.PLP.part.buried>
-3.7856

> <Gold.PLP.part.nonpolar>
-30.9661

> <Gold.PLP.part.repulsive>
0.3165

> <Gold.PLP.ligand.clash>
0.0000

> <Gold.PLP.ligand.torsion>
0.5405

> <Gold.PLP.Chemscore.Hbond>
3.0000

> <Gold.PLP.Chemscore.CHOScore>
1.0000

> <Gold.PLP.Chemscore.Metal>
0.0000

> <Gold.Chemscore.Hbonds>
donor molecule, donor type, donor heavy atom, donor atom, acceptor molecule, acceptor atom, score
      L1  H    17    42       P1  7948  0.73
      L1  H    19    43       P1  7948  0.89
      L1  H    21    44       P1 10175  1.00
      L1  C     6    38       P1  7957  1.00

> <Gold.PLP.Chemscore.Internal.Correction>
0.1155

> <Gold.Rescore>
     Score         DG    S(hbond)    S(metal)    S(lipo)     H(rot)  DE(clash)    DE(int)     intcor
     14.57     -16.77       2.92        0.00     102.66       4.10       0.27       1.93       ----

> <Gold.Chemscore.Fitness>
14.5701

> <Gold.Chemscore.DG>
-16.7672

> <Gold.Chemscore.ZeroCoef>
-5.4800

> <Gold.Chemscore.Hbond>
2.9233

> <Gold.Chemscore.Metal>
0.0000

> <Gold.Chemscore.Lipo>
102.6602

> <Gold.Chemscore.Internal_Hbond>
0.0000

> <Gold.Chemscore.DEClash>
0.2706

> <Gold.Chemscore.DEInternal>
1.9265

> <Gold.Chemscore.Rot>
4.0968

> <Gold.Chemscore.Internal.Correction>
   9.000000E+99

> <Gold.Chemscore.Hbonds>
donor molecule, donor type, donor heavy atom, donor atom, acceptor molecule, acceptor atom, score
      L1  H    17    42       P1  7948  0.54
      L1  H    19    43       P1  7948  0.86
      L1  H    21    44       P1 10175  0.95

> <Gold.Chemscore.Hbond.Weighted>
-9.7639

> <Gold.Chemscore.Metal.Weighted>
-0.0000

> <Gold.Chemscore.Lipo.Weighted>
-12.0112

> <Gold.Chemscore.Internal_Hbond.Weighted>
0.0000

> <Gold.Chemscore.DEClash.Weighted>
0.2706

> <Gold.Chemscore.DEInternal.Weighted>
1.9265

> <Gold.Chemscore.Rot.Weighted>
10.4879

> <Gold.Chemscore.Internal.Correction.Weighted>
   9.000000E+99

> <Gold.Protein.RotatedTorsions>
[ 6907 6896 6895 6894 ] final    9.46 input  -60.11 | X-H torsion
[ 7974 7965 7964 7962 ] final   38.82 input  175.53 | X-H torsion
[ 8008 7997 7996 7995 ] final -151.06 input   59.86 | X-H torsion
[ 10167 10162 10161 10158 ] final -139.90 input  -65.29 | X-H torsion
[ 10718 10713 10712 10709 ] final  -84.38 input   66.30 | X-H torsion
[ 10763 10752 10751 10750 ] final  -69.46 input  -60.55 | X-H torsion
[ 11005 11000 10999 10996 ] final  -77.96 input  -57.11 | X-H torsion

> <Gold.Protein.ActiveResidues>
 VAL166  LYS551  ARG553  GLY616  TRP617  ASP618  TYR619  PRO620  LYS621  CYS622 
 ASP623  PHE694  ASN695  SER759  ASP760  ASP761  ALA762  ILE779  LEU786  VAL792 
 PHE793  MET794  SER795  GLU796  ALA797  LYS798  CYS799  TRP800  GLU811  SER814 

> <Gold.Protein.RotatedAtoms>
  151.7225  135.0891  160.0286 H   0  0  0  0  0  0  0  0  0  0  0  0  # atno 6907 bound_to 6896
  152.3593  133.6272  159.6011 H   0  0  0  0  0  0  0  0  0  0  0  0  # atno 6908 bound_to 6896
  150.7593  133.9366  159.3484 H   0  0  0  0  0  0  0  0  0  0  0  0  # atno 6909 bound_to 6896
  146.1032  139.5726  142.9400 H   0  0  0  0  0  0  0  0  0  0  0  0  # atno 7974 bound_to 7965
  155.6334  140.0694  157.2642 H   0  0  0  0  0  0  0  0  0  0  0  0  # atno 8008 bound_to 7997
  154.4200  140.1763  156.1545 H   0  0  0  0  0  0  0  0  0  0  0  0  # atno 8009 bound_to 7997
  155.9915  140.3344  155.6760 H   0  0  0  0  0  0  0  0  0  0  0  0  # atno 8010 bound_to 7997
  139.8334  143.7417  152.2665 H   0  0  0  0  0  0  0  0  0  0  0  0  # atno 10167 bound_to 10162
  156.0007  130.4696  150.4400 H   0  0  0  0  0  0  0  0  0  0  0  0  # atno 10718 bound_to 10713
  154.4037  135.6025  153.5912 H   0  0  0  0  0  0  0  0  0  0  0  0  # atno 10763 bound_to 10752
  152.9788  135.5913  154.4153 H   0  0  0  0  0  0  0  0  0  0  0  0  # atno 10764 bound_to 10752
  154.3955  135.2842  155.2107 H   0  0  0  0  0  0  0  0  0  0  0  0  # atno 10765 bound_to 10752
  141.1663  133.7043  156.7899 H   0  0  0  0  0  0  0  0  0  0  0  0  # atno 11005 bound_to 11000
  145.5812  141.0382  143.2121 LP  0  0  0  0  0  0  0  0  0  0  0  0  # atno 17320 bound_to 7965
  144.7450  139.7345  143.7296 LP  0  0  0  0  0  0  0  0  0  0  0  0  # atno 17321 bound_to 7965
  139.7632  144.7500  151.0334 LP  0  0  0  0  0  0  0  0  0  0  0  0  # atno 17342 bound_to 10162
  140.7805  143.4728  151.0123 LP  0  0  0  0  0  0  0  0  0  0  0  0  # atno 17343 bound_to 10162
  157.2442  131.0532  151.2418 LP  0  0  0  0  0  0  0  0  0  0  0  0  # atno 17370 bound_to 10713
  157.3591  130.7122  149.6490 LP  0  0  0  0  0  0  0  0  0  0  0  0  # atno 17371 bound_to 10713
  140.2333  134.8669  157.3499 LP  0  0  0  0  0  0  0  0  0  0  0  0  # atno 17394 bound_to 11000
  140.1869  134.4419  155.7738 LP  0  0  0  0  0  0  0  0  0  0  0  0  # atno 17395 bound_to 11000

$$$$
