AV-unprocessed.smi:196|AV-procd|sdf|1532|dock8
  -GOLD-   2262019383D 1   1.00000     0.00000
 Structure written by MMmdl.
 47 50  0  0  0  0  0  0  0  0  1 V2000
  154.2564  133.7091  162.5955 C   0  0  0  0  0  0  0  0  0  0  0  0
  154.5297  135.1267  163.1218 C   0  0  2  0  0  0  0  0  0  0  0  0
  153.6435  135.3736  164.2093 O   0  0  0  0  0  0  0  0  0  0  0  0
  153.4222  136.7691  164.2991 C   0  0  0  0  0  0  0  0  0  0  0  0
  153.2673  137.1651  162.8387 C   0  0  0  0  0  0  0  0  0  0  0  0
  154.3106  136.3036  162.1282 C   0  0  1  0  0  0  0  0  0  0  0  0
  155.5172  137.0451  162.0672 O   0  0  0  0  0  0  0  0  0  0  0  0
  153.9072  135.9164  160.6807 C   0  0  0  0  0  0  0  0  0  0  0  0
  153.5982  137.0627  159.8390 N   0  0  0  0  0  0  0  0  0  0  0  0
  154.4706  138.0486  159.4338 C   0  0  0  0  0  0  0  0  0  0  0  0
  153.9518  138.9756  158.6755 N   0  0  0  0  0  0  0  0  0  0  0  0
  152.6189  138.6044  158.5561 C   0  0  0  0  0  0  0  0  0  0  0  0
  151.4980  139.1538  157.8810 C   0  0  0  0  0  0  0  0  0  0  0  0
  151.5883  140.2818  157.1386 N   0  0  0  0  0  0  0  0  0  0  0  0
  152.0337  141.4678  157.8673 C   0  0  0  0  0  0  0  0  0  0  0  0
  150.8754  142.4569  157.7958 C   0  0  1  0  0  0  0  0  0  0  0  0
  151.2736  143.7247  157.8958 F   0  0  0  0  0  0  0  0  0  0  0  0
  150.2626  142.1395  156.4401 C   0  0  0  0  0  0  0  0  0  0  0  0
  150.3863  140.6088  156.3539 C   0  0  1  0  0  0  0  0  0  0  0  0
  150.4318  140.1228  154.8939 C   0  0  0  0  0  0  0  0  0  0  0  0
  149.4744  140.5200  154.0499 N   0  0  0  0  0  0  0  0  0  0  0  0
  151.3461  139.3881  154.5269 O   0  0  0  0  0  0  0  0  0  0  0  0
  150.3063  138.5099  157.9969 N   0  0  0  0  0  0  0  0  0  0  0  0
  150.2203  137.3921  158.7245 C   0  0  0  0  0  0  0  0  0  0  0  0
  151.1820  136.7608  159.4020 N   0  0  0  0  0  0  0  0  0  0  0  0
  152.3767  137.4091  159.2883 C   0  0  0  0  0  0  0  0  0  0  0  0
  150.1566  142.2659  158.5939 H   0  0  0  0  0  0  0  0  0  0  0  0
  149.5017  140.1675  156.8178 H   0  0  0  0  0  0  0  0  0  0  0  0
  154.9175  133.4586  161.7657 H   0  0  0  0  0  0  0  0  0  0  0  0
  153.2256  133.5962  162.2589 H   0  0  0  0  0  0  0  0  0  0  0  0
  154.4245  132.9707  163.3796 H   0  0  0  0  0  0  0  0  0  0  0  0
  155.5455  135.1536  163.5213 H   0  0  0  0  0  0  0  0  0  0  0  0
  152.5395  136.9998  164.8958 H   0  0  0  0  0  0  0  0  0  0  0  0
  154.2876  137.2556  164.7519 H   0  0  0  0  0  0  0  0  0  0  0  0
  152.2649  136.8873  162.5109 H   0  0  0  0  0  0  0  0  0  0  0  0
  153.3859  138.2363  162.6695 H   0  0  0  0  0  0  0  0  0  0  0  0
  155.7057  137.2391  161.1616 H   0  0  0  0  0  0  0  0  0  0  0  0
  154.7039  135.3463  160.2012 H   0  0  0  0  0  0  0  0  0  0  0  0
  153.0282  135.2715  160.6901 H   0  0  0  0  0  0  0  0  0  0  0  0
  155.5133  138.0569  159.7170 H   0  0  0  0  0  0  0  0  0  0  0  0
  152.3338  141.2715  158.8983 H   0  0  0  0  0  0  0  0  0  0  0  0
  152.9064  141.8665  157.3486 H   0  0  0  0  0  0  0  0  0  0  0  0
  149.2316  142.4848  156.3572 H   0  0  0  0  0  0  0  0  0  0  0  0
  150.8433  142.6235  155.6522 H   0  0  0  0  0  0  0  0  0  0  0  0
  149.4892  140.2078  153.0894 H   0  0  0  0  0  0  0  0  0  0  0  0
  148.7384  141.1290  154.3764 H   0  0  0  0  0  0  0  0  0  0  0  0
  149.2414  136.9379  158.7693 H   0  0  0  0  0  0  0  0  0  0  0  0
  1  2  1  0  0  0  0
  1 29  1  0  0  0  0
  1 30  1  0  0  0  0
  1 31  1  0  0  0  0
  2  6  1  0  0  0  0
  2  3  1  0  0  0  0
  2 32  1  0  0  0  0
  3  4  1  0  0  0  0
  4  5  1  0  0  0  0
  4 33  1  0  0  0  0
  4 34  1  0  0  0  0
  5  6  1  0  0  0  0
  5 35  1  0  0  0  0
  5 36  1  0  0  0  0
  6  7  1  0  0  0  0
  6  8  1  0  0  0  0
  7 37  1  0  0  0  0
  8  9  1  0  0  0  0
  8 38  1  0  0  0  0
  8 39  1  0  0  0  0
  9 26  1  0  0  0  0
  9 10  1  0  0  0  0
 10 11  2  0  0  0  0
 10 40  1  0  0  0  0
 11 12  1  0  0  0  0
 12 26  2  0  0  0  0
 12 13  1  0  0  0  0
 13 14  1  0  0  0  0
 13 23  2  0  0  0  0
 14 19  1  0  0  0  0
 14 15  1  0  0  0  0
 15 16  1  0  0  0  0
 15 41  1  0  0  0  0
 15 42  1  0  0  0  0
 16 27  1  0  0  0  0
 16 17  1  0  0  0  0
 16 18  1  0  0  0  0
 18 19  1  0  0  0  0
 18 43  1  0  0  0  0
 18 44  1  0  0  0  0
 19 28  1  0  0  0  0
 19 20  1  0  0  0  0
 20 21  1  0  0  0  0
 20 22  2  0  0  0  0
 21 45  1  0  0  0  0
 21 46  1  0  0  0  0
 23 24  1  0  0  0  0
 24 25  2  0  0  0  0
 24 47  1  0  0  0  0
 25 26  1  0  0  0  0
M  END
> <s_m_source_file>
AV-unprocessed.smi

> <i_m_source_file_index>
196

> <i_lp_mmshare_version>
43012

> <i_f3d_flags>
0

> <s_epik_input>
W0NIMl0xW0NIMl1PW0NAQEhdKFtDSDNdKVtDQEBdMShbT0hdKVtDSDJdbihbY0hdbjIpYyhjMjMpbltjSF1uYzNONFtDSDJdW0NASF0oRilbQ0gyXVtDQEhdNEMoPU8pW05IMl0=

> <s_epik_cmdline>
J2VwaWtfcHl0aG9uJywgJy1waCcsICc3LjAnLCAnLXRuJywgJzgnLCAnLW1hJywgJzIwMCcsICctbWV0YWxfYmluZGluZycsICctaW1hZScsICc8aW5maWxlLm1hZT4nLCAnLW9tYWUnLCAnPG91dGZpbGUubWFlPic=

> <r_lp_tautomer_probability>
1

> <r_epik_Ionization_Penalty>
0.000857933

> <r_epik_Ionization_Penalty_Charging>
0

> <r_epik_Ionization_Penalty_Neutral>
0.000857933

> <r_epik_State_Penalty>
0.000462053

> <r_epik_Charging_Adjusted_Penalty>
0.000462053

> <i_epik_Tot_Q>
0

> <i_epik_Tot_abs_Q>
0

> <r_epik_Metal_State_Penalty>
-0

> <b_epik_Metal_Only>
0

> <s_lp_Force_Field>
OPLS_2005

> <r_lp_Energy>
45.3025

> <b_lp_Chiralities_Consistent>
1

> <s_lp_Variant>
AV-unprocessed.smi:196-5

> <Gold.Version>
5.8.1

> <Gold.Id.Protein>
6NUR|6NUR_protein|mol2

> <Gold.PLP.Fitness>
46.5304

> <Gold.PLP.PLP>
-37.8536

> <Gold.PLP.part.hbond>
-3.9316

> <Gold.PLP.part.metal>
0.0000

> <Gold.PLP.part.buried>
-3.5296

> <Gold.PLP.part.nonpolar>
-30.2937

> <Gold.PLP.part.repulsive>
0.9652

> <Gold.PLP.ligand.clash>
0.0000

> <Gold.PLP.ligand.torsion>
0.2413

> <Gold.PLP.Chemscore.Hbond>
3.0263

> <Gold.PLP.Chemscore.CHOScore>
0.0000

> <Gold.PLP.Chemscore.Metal>
0.0000

> <Gold.Chemscore.Hbonds>
donor molecule, donor type, donor heavy atom, donor atom, acceptor molecule, acceptor atom, score
      L1  H    21    45       P1  7957  1.00
      P1  H  6896  6908       L1    25  1.00
      P1  H  7997  8009       L1    11  0.98

> <Gold.PLP.Chemscore.Internal.Correction>
0.0806

> <Gold.Rescore>
     Score         DG    S(hbond)    S(metal)    S(lipo)     H(rot)  DE(clash)    DE(int)     intcor
     16.16     -17.55       3.55        0.00      68.35       3.04       0.45       0.95       ----

> <Gold.Chemscore.Fitness>
16.1569

> <Gold.Chemscore.DG>
-17.5527

> <Gold.Chemscore.ZeroCoef>
-5.4800

> <Gold.Chemscore.Hbond>
3.5515

> <Gold.Chemscore.Metal>
0.0000

> <Gold.Chemscore.Lipo>
68.3456

> <Gold.Chemscore.Internal_Hbond>
0.0000

> <Gold.Chemscore.DEClash>
0.4483

> <Gold.Chemscore.DEInternal>
0.9475

> <Gold.Chemscore.Rot>
3.0413

> <Gold.Chemscore.Internal.Correction>
   9.000000E+99

> <Gold.Chemscore.Hbonds>
donor molecule, donor type, donor heavy atom, donor atom, acceptor molecule, acceptor atom, score
      L1  H    21    45       P1  7957  0.99
      P1  H  6896  6908       L1    25  0.94
      P1  H  7997  8009       L1    11  0.91

> <Gold.Chemscore.Hbond.Weighted>
-11.8619

> <Gold.Chemscore.Metal.Weighted>
-0.0000

> <Gold.Chemscore.Lipo.Weighted>
-7.9964

> <Gold.Chemscore.Internal_Hbond.Weighted>
0.0000

> <Gold.Chemscore.DEClash.Weighted>
0.4483

> <Gold.Chemscore.DEInternal.Weighted>
0.9475

> <Gold.Chemscore.Rot.Weighted>
7.7856

> <Gold.Chemscore.Internal.Correction.Weighted>
   9.000000E+99

> <Gold.Protein.RotatedTorsions>
[ 6907 6896 6895 6894 ] final -140.73 input  -60.11 | X-H torsion
[ 7974 7965 7964 7962 ] final  -85.96 input  175.53 | X-H torsion
[ 8008 7997 7996 7995 ] final  120.75 input   59.86 | X-H torsion
[ 10167 10162 10161 10158 ] final   75.63 input  -65.29 | X-H torsion
[ 10718 10713 10712 10709 ] final   -5.12 input   66.30 | X-H torsion
[ 10763 10752 10751 10750 ] final   63.57 input  -60.55 | X-H torsion
[ 11005 11000 10999 10996 ] final -125.90 input  -57.11 | X-H torsion

> <Gold.Protein.ActiveResidues>
 VAL166  LYS551  ARG553  GLY616  TRP617  ASP618  TYR619  PRO620  LYS621  CYS622 
 ASP623  PHE694  ASN695  SER759  ASP760  ASP761  ALA762  ILE779  LEU786  VAL792 
 PHE793  MET794  SER795  GLU796  ALA797  LYS798  CYS799  TRP800  GLU811  SER814 

> <Gold.Protein.RotatedAtoms>
  151.0645  133.5516  159.2631 H   0  0  0  0  0  0  0  0  0  0  0  0  # atno 6907 bound_to 6896
  151.2479  135.0611  159.9060 H   0  0  0  0  0  0  0  0  0  0  0  0  # atno 6908 bound_to 6896
  152.5402  134.0410  159.8121 H   0  0  0  0  0  0  0  0  0  0  0  0  # atno 6909 bound_to 6896
  145.4863  140.9555  143.1837 H   0  0  0  0  0  0  0  0  0  0  0  0  # atno 7974 bound_to 7965
  156.2656  140.2824  156.1199 H   0  0  0  0  0  0  0  0  0  0  0  0  # atno 8008 bound_to 7997
  155.1167  140.0391  157.2756 H   0  0  0  0  0  0  0  0  0  0  0  0  # atno 8009 bound_to 7997
  154.6701  140.2586  155.7022 H   0  0  0  0  0  0  0  0  0  0  0  0  # atno 8010 bound_to 7997
  140.0009  144.5686  150.7738 H   0  0  0  0  0  0  0  0  0  0  0  0  # atno 10167 bound_to 10162
  156.7513  130.5240  149.5803 H   0  0  0  0  0  0  0  0  0  0  0  0  # atno 10718 bound_to 10713
  153.0022  135.5424  154.6372 H   0  0  0  0  0  0  0  0  0  0  0  0  # atno 10763 bound_to 10752
  154.5636  135.2836  155.0898 H   0  0  0  0  0  0  0  0  0  0  0  0  # atno 10764 bound_to 10752
  154.2091  135.6470  153.5162 H   0  0  0  0  0  0  0  0  0  0  0  0  # atno 10765 bound_to 10752
  140.9725  134.0786  157.3854 H   0  0  0  0  0  0  0  0  0  0  0  0  # atno 11005 bound_to 11000
  144.7860  139.6426  143.7134 LP  0  0  0  0  0  0  0  0  0  0  0  0  # atno 17320 bound_to 7965
  146.2311  139.5816  142.9554 LP  0  0  0  0  0  0  0  0  0  0  0  0  # atno 17321 bound_to 7965
  140.7419  143.2824  151.3559 LP  0  0  0  0  0  0  0  0  0  0  0  0  # atno 17342 bound_to 10162
  139.6272  144.0791  152.2445 LP  0  0  0  0  0  0  0  0  0  0  0  0  # atno 17343 bound_to 10162
  156.1399  130.6237  151.0453 LP  0  0  0  0  0  0  0  0  0  0  0  0  # atno 17370 bound_to 10713
  157.6776  131.0846  150.7455 LP  0  0  0  0  0  0  0  0  0  0  0  0  # atno 17371 bound_to 10713
  139.8918  135.0120  156.6809 LP  0  0  0  0  0  0  0  0  0  0  0  0  # atno 17394 bound_to 11000
  140.7307  133.9061  155.8210 LP  0  0  0  0  0  0  0  0  0  0  0  0  # atno 17395 bound_to 11000

$$$$
