AV-unprocessed.smi:203|AV-procd|sdf|1585|dock4
  -GOLD-   2262019473D 1   1.00000     0.00000
 Structure written by MMmdl.
 57 61  0  0  0  0  0  0  0  0  1 V2000
  149.4227  130.5465  153.8979 O   0  0  0  0  0  0  0  0  0  0  0  0
  148.8184  131.6108  154.0070 C   0  0  0  0  0  0  0  0  0  0  0  0
  147.3094  131.7343  153.8869 C   0  0  0  0  0  0  0  0  0  0  0  0
  147.0703  133.2579  153.8645 C   0  0  2  0  0  0  0  0  0  0  0  0
  146.5641  133.8161  152.4957 C   0  0  1  0  0  0  0  0  0  0  0  0
  146.0682  132.7017  151.5370 C   0  0  0  0  0  0  0  0  0  0  0  0
  145.5886  133.2780  150.1981 C   0  0  0  0  0  0  0  0  0  0  0  0
  144.5044  134.3333  150.4425 C   0  0  0  0  0  0  0  0  0  0  0  0
  145.0219  135.4223  151.3916 C   0  0  0  0  0  0  0  0  0  0  0  0
  145.5197  134.8467  152.6404 N   0  0  0  0  0  0  0  0  0  0  0  0
  145.7581  135.8212  153.5459 C   0  0  0  0  0  0  0  0  0  0  0  0
  145.5922  135.5053  154.8536 N   0  0  0  0  0  0  0  0  0  0  0  0
  145.8488  136.4166  155.7970 C   0  0  0  0  0  0  0  0  0  0  0  0
  146.2772  137.6724  155.6505 N   0  0  0  0  0  0  0  0  0  0  0  0
  146.4353  137.9929  154.3341 C   0  0  0  0  0  0  0  0  0  0  0  0
  146.1863  137.1394  153.2238 C   0  0  0  0  0  0  0  0  0  0  0  0
  146.4435  137.8151  152.0370 N   0  0  0  0  0  0  0  0  0  0  0  0
  146.8428  138.9952  152.4245 C   0  0  0  0  0  0  0  0  0  0  0  0
  146.8962  139.1777  153.7882 N   0  0  0  0  0  0  0  0  0  0  0  0
  147.3359  140.3709  154.4892 C   0  0  0  0  0  0  0  0  0  0  0  0
  148.8685  140.5804  154.4447 C   0  0  2  0  0  0  0  0  0  0  0  0
  149.1944  141.2607  153.2502 O   0  0  0  0  0  0  0  0  0  0  0  0
  149.7586  139.3187  154.5586 C   0  0  2  0  0  0  0  0  0  0  0  0
  149.5528  138.4389  155.7939 C   0  0  0  0  0  0  0  0  0  0  0  0
  150.8642  137.6868  155.8442 C   0  0  0  0  0  0  0  0  0  0  0  0
  151.8637  138.7548  155.4055 C   0  0  0  0  0  0  0  0  0  0  0  0
  151.1485  139.6365  154.5433 O   0  0  0  0  0  0  0  0  0  0  0  0
  148.4080  133.8790  154.3205 C   0  0  0  0  0  0  0  0  0  0  0  0
  149.3713  132.7983  154.2446 N   0  0  0  0  0  0  0  0  0  0  0  0
  146.9367  131.2239  152.9987 H   0  0  0  0  0  0  0  0  0  0  0  0
  146.8415  131.2772  154.7596 H   0  0  0  0  0  0  0  0  0  0  0  0
  146.3429  133.5007  154.6393 H   0  0  0  0  0  0  0  0  0  0  0  0
  147.4141  134.2938  152.0078 H   0  0  0  0  0  0  0  0  0  0  0  0
  146.8557  131.9740  151.3446 H   0  0  0  0  0  0  0  0  0  0  0  0
  145.2471  132.1479  151.9922 H   0  0  0  0  0  0  0  0  0  0  0  0
  146.4283  133.7259  149.6653 H   0  0  0  0  0  0  0  0  0  0  0  0
  145.2017  132.4812  149.5623 H   0  0  0  0  0  0  0  0  0  0  0  0
  144.1923  134.7777  149.4972 H   0  0  0  0  0  0  0  0  0  0  0  0
  143.6204  133.8610  150.8730 H   0  0  0  0  0  0  0  0  0  0  0  0
  145.8232  135.9824  150.9074 H   0  0  0  0  0  0  0  0  0  0  0  0
  144.2201  136.1322  151.6011 H   0  0  0  0  0  0  0  0  0  0  0  0
  145.6978  136.0901  156.8153 H   0  0  0  0  0  0  0  0  0  0  0  0
  147.1315  139.7618  151.7202 H   0  0  0  0  0  0  0  0  0  0  0  0
  146.8220  141.2311  154.0582 H   0  0  0  0  0  0  0  0  0  0  0  0
  146.9979  140.2995  155.5238 H   0  0  0  0  0  0  0  0  0  0  0  0
  149.1461  141.2509  155.2586 H   0  0  0  0  0  0  0  0  0  0  0  0
  149.0774  140.6669  152.5246 H   0  0  0  0  0  0  0  0  0  0  0  0
  149.5967  138.6999  153.6740 H   0  0  0  0  0  0  0  0  0  0  0  0
  149.4387  139.0333  156.6993 H   0  0  0  0  0  0  0  0  0  0  0  0
  148.6873  137.7815  155.7070 H   0  0  0  0  0  0  0  0  0  0  0  0
  151.0858  137.2754  156.8294 H   0  0  0  0  0  0  0  0  0  0  0  0
  150.8522  136.8664  155.1254 H   0  0  0  0  0  0  0  0  0  0  0  0
  152.2157  139.3227  156.2669 H   0  0  0  0  0  0  0  0  0  0  0  0
  152.7341  138.3286  154.9057 H   0  0  0  0  0  0  0  0  0  0  0  0
  148.7173  134.7309  153.7148 H   0  0  0  0  0  0  0  0  0  0  0  0
  148.3455  134.2186  155.3551 H   0  0  0  0  0  0  0  0  0  0  0  0
  150.3636  132.9456  154.3606 H   0  0  0  0  0  0  0  0  0  0  0  0
  1  2  2  0  0  0  0
  2 29  1  0  0  0  0
  2  3  1  0  0  0  0
  3  4  1  0  0  0  0
  3 30  1  0  0  0  0
  3 31  1  0  0  0  0
  4  5  1  0  0  0  0
  4 28  1  0  0  0  0
  4 32  1  0  0  0  0
  5 10  1  0  0  0  0
  5  6  1  0  0  0  0
  5 33  1  0  0  0  0
  6  7  1  0  0  0  0
  6 34  1  0  0  0  0
  6 35  1  0  0  0  0
  7  8  1  0  0  0  0
  7 36  1  0  0  0  0
  7 37  1  0  0  0  0
  8  9  1  0  0  0  0
  8 38  1  0  0  0  0
  8 39  1  0  0  0  0
  9 10  1  0  0  0  0
  9 40  1  0  0  0  0
  9 41  1  0  0  0  0
 10 11  1  0  0  0  0
 11 16  1  0  0  0  0
 11 12  2  0  0  0  0
 12 13  1  0  0  0  0
 13 14  2  0  0  0  0
 13 42  1  0  0  0  0
 14 15  1  0  0  0  0
 15 19  1  0  0  0  0
 15 16  2  0  0  0  0
 16 17  1  0  0  0  0
 17 18  2  0  0  0  0
 18 19  1  0  0  0  0
 18 43  1  0  0  0  0
 19 20  1  0  0  0  0
 20 21  1  0  0  0  0
 20 44  1  0  0  0  0
 20 45  1  0  0  0  0
 21 22  1  0  0  0  0
 21 23  1  0  0  0  0
 21 46  1  0  0  0  0
 22 47  1  0  0  0  0
 23 27  1  0  0  0  0
 23 24  1  0  0  0  0
 23 48  1  0  0  0  0
 24 25  1  0  0  0  0
 24 49  1  0  0  0  0
 24 50  1  0  0  0  0
 25 26  1  0  0  0  0
 25 51  1  0  0  0  0
 25 52  1  0  0  0  0
 26 27  1  0  0  0  0
 26 53  1  0  0  0  0
 26 54  1  0  0  0  0
 28 29  1  0  0  0  0
 28 55  1  0  0  0  0
 28 56  1  0  0  0  0
 29 57  1  0  0  0  0
M  END
> <s_m_source_file>
AV-unprocessed.smi

> <i_m_source_file_index>
203

> <i_lp_mmshare_version>
43012

> <i_f3d_flags>
0

> <s_epik_input>
Tz1DMVtDSDJdW0NASF0oW0NIMl1bTkhdMSlbQ0BASF0yW0NIMl1bQ0gyXVtDSDJdW0NIMl1OMmMobltjSF1uMyljKGMzNCluW2NIXW40W0NIMl1bQ0BIXShbT0hdKVtDQEBIXTVbQ0gyXVtDSDJdW0NIMl1PNQ==

> <s_epik_cmdline>
J2VwaWtfcHl0aG9uJywgJy1waCcsICc3LjAnLCAnLXRuJywgJzgnLCAnLW1hJywgJzIwMCcsICctbWV0YWxfYmluZGluZycsICctaW1hZScsICc8aW5maWxlLm1hZT4nLCAnLW9tYWUnLCAnPG91dGZpbGUubWFlPic=

> <r_lp_tautomer_probability>
1

> <r_epik_Ionization_Penalty>
0.00175146

> <r_epik_Ionization_Penalty_Charging>
0

> <r_epik_Ionization_Penalty_Neutral>
0.00175146

> <r_epik_State_Penalty>
0.00109045

> <r_epik_Charging_Adjusted_Penalty>
0.00109045

> <i_epik_Tot_Q>
0

> <i_epik_Tot_abs_Q>
0

> <r_epik_Metal_State_Penalty>
-0

> <b_epik_Metal_Only>
0

> <s_lp_Force_Field>
OPLS_2005

> <r_lp_Energy>
55.4262

> <b_lp_Chiralities_Consistent>
1

> <s_lp_Variant>
AV-unprocessed.smi:203-4

> <Gold.Version>
5.8.1

> <Gold.Id.Protein>
6NUR|6NUR_protein|mol2

> <Gold.PLP.Fitness>
44.2985

> <Gold.PLP.PLP>
-37.8719

> <Gold.PLP.part.hbond>
-3.3668

> <Gold.PLP.part.metal>
0.0000

> <Gold.PLP.part.buried>
-4.0780

> <Gold.PLP.part.nonpolar>
-31.0519

> <Gold.PLP.part.repulsive>
1.7379

> <Gold.PLP.ligand.clash>
0.0000

> <Gold.PLP.ligand.torsion>
2.2238

> <Gold.PLP.Chemscore.Hbond>
2.7675

> <Gold.PLP.Chemscore.CHOScore>
0.7566

> <Gold.PLP.Chemscore.Metal>
0.0000

> <Gold.Chemscore.Hbonds>
donor molecule, donor type, donor heavy atom, donor atom, acceptor molecule, acceptor atom, score
      L1  H    22    47       P1  7957  0.99
      P1  H  7989  7998       L1    27  1.00
      P1  H  8011  8017       L1    22  0.65
      L1  C    18    43       P1  7957  0.79

> <Gold.PLP.Chemscore.Internal.Correction>
0.3019

> <Gold.Rescore>
     Score         DG    S(hbond)    S(metal)    S(lipo)     H(rot)  DE(clash)    DE(int)     intcor
      9.89     -15.35       2.33        0.00      77.23       2.72       0.67       4.79       ----

> <Gold.Chemscore.Fitness>
9.8866

> <Gold.Chemscore.DG>
-15.3467

> <Gold.Chemscore.ZeroCoef>
-5.4800

> <Gold.Chemscore.Hbond>
2.3312

> <Gold.Chemscore.Metal>
0.0000

> <Gold.Chemscore.Lipo>
77.2319

> <Gold.Chemscore.Internal_Hbond>
0.0000

> <Gold.Chemscore.DEClash>
0.6692

> <Gold.Chemscore.DEInternal>
4.7909

> <Gold.Chemscore.Rot>
2.7171

> <Gold.Chemscore.Internal.Correction>
   9.000000E+99

> <Gold.Chemscore.Hbonds>
donor molecule, donor type, donor heavy atom, donor atom, acceptor molecule, acceptor atom, score
      L1  H    22    47       P1  7957  0.91
      P1  H  7989  7998       L1    27  0.94
      P1  H  8011  8017       L1    22  0.05

> <Gold.Chemscore.Hbond.Weighted>
-7.7862

> <Gold.Chemscore.Metal.Weighted>
-0.0000

> <Gold.Chemscore.Lipo.Weighted>
-9.0361

> <Gold.Chemscore.Internal_Hbond.Weighted>
0.0000

> <Gold.Chemscore.DEClash.Weighted>
0.6692

> <Gold.Chemscore.DEInternal.Weighted>
4.7909

> <Gold.Chemscore.Rot.Weighted>
6.9557

> <Gold.Chemscore.Internal.Correction.Weighted>
   9.000000E+99

> <Gold.Protein.RotatedTorsions>
[ 6907 6896 6895 6894 ] final   55.25 input  -60.11 | X-H torsion
[ 7974 7965 7964 7962 ] final    7.92 input  175.53 | X-H torsion
[ 8008 7997 7996 7995 ] final -114.60 input   59.86 | X-H torsion
[ 10167 10162 10161 10158 ] final  155.29 input  -65.29 | X-H torsion
[ 10718 10713 10712 10709 ] final  -56.98 input   66.30 | X-H torsion
[ 10763 10752 10751 10750 ] final -146.52 input  -60.55 | X-H torsion
[ 11005 11000 10999 10996 ] final   60.98 input  -57.11 | X-H torsion

> <Gold.Protein.ActiveResidues>
 VAL166  LYS551  ARG553  GLY616  TRP617  ASP618  TYR619  PRO620  LYS621  CYS622 
 ASP623  PHE694  ASN695  SER759  ASP760  ASP761  ALA762  ILE779  LEU786  VAL792 
 PHE793  MET794  SER795  GLU796  ALA797  LYS798  CYS799  TRP800  GLU811  SER814 

> <Gold.Protein.RotatedAtoms>
  152.3520  134.6992  160.0233 H   0  0  0  0  0  0  0  0  0  0  0  0  # atno 6907 bound_to 6896
  151.7342  133.3313  159.3356 H   0  0  0  0  0  0  0  0  0  0  0  0  # atno 6908 bound_to 6896
  150.7547  134.6269  159.6210 H   0  0  0  0  0  0  0  0  0  0  0  0  # atno 6909 bound_to 6896
  146.2422  140.0011  142.8416 H   0  0  0  0  0  0  0  0  0  0  0  0  # atno 7974 bound_to 7965
  155.0389  140.0392  157.2502 H   0  0  0  0  0  0  0  0  0  0  0  0  # atno 8008 bound_to 7997
  154.7233  140.2716  155.6498 H   0  0  0  0  0  0  0  0  0  0  0  0  # atno 8009 bound_to 7997
  156.2822  140.2698  156.1911 H   0  0  0  0  0  0  0  0  0  0  0  0  # atno 8010 bound_to 7997
  139.4821  144.5112  151.8022 H   0  0  0  0  0  0  0  0  0  0  0  0  # atno 10167 bound_to 10162
  156.1246  130.4163  150.0378 H   0  0  0  0  0  0  0  0  0  0  0  0  # atno 10718 bound_to 10713
  154.8332  135.3384  154.6675 H   0  0  0  0  0  0  0  0  0  0  0  0  # atno 10763 bound_to 10752
  153.7292  135.6953  153.4998 H   0  0  0  0  0  0  0  0  0  0  0  0  # atno 10764 bound_to 10752
  153.2324  135.4412  155.0562 H   0  0  0  0  0  0  0  0  0  0  0  0  # atno 10765 bound_to 10752
  140.0193  134.6177  155.9663 H   0  0  0  0  0  0  0  0  0  0  0  0  # atno 11005 bound_to 11000
  145.1415  140.9573  143.4486 LP  0  0  0  0  0  0  0  0  0  0  0  0  # atno 17320 bound_to 7965
  145.0292  139.3356  143.6033 LP  0  0  0  0  0  0  0  0  0  0  0  0  # atno 17321 bound_to 7965
  140.4615  144.1715  150.5907 LP  0  0  0  0  0  0  0  0  0  0  0  0  # atno 17342 bound_to 10162
  140.4479  143.2499  151.9386 LP  0  0  0  0  0  0  0  0  0  0  0  0  # atno 17343 bound_to 10162
  156.8307  130.9391  151.3637 LP  0  0  0  0  0  0  0  0  0  0  0  0  # atno 17370 bound_to 10713
  157.6428  130.8820  149.9481 LP  0  0  0  0  0  0  0  0  0  0  0  0  # atno 17371 bound_to 10713
  141.1763  133.6541  156.4843 LP  0  0  0  0  0  0  0  0  0  0  0  0  # atno 17394 bound_to 11000
  140.4415  134.7011  157.4994 LP  0  0  0  0  0  0  0  0  0  0  0  0  # atno 17395 bound_to 11000

$$$$
