AV-unprocessed.smi:498|AV-procd|sdf|2731|dock5
  -GOLD-   2262023183D 1   1.00000     0.00000
 Structure written by MMmdl.
 42 44  0  0  0  0  0  0  0  0  3 V2000
  150.6276  136.8611  156.2789 C   0  0  0  0  0  0  0  0  0  0  0  0
  151.3504  137.7803  155.2913 C   0  0  0  0  0  0  0  0  0  0  0  0
  151.1153  139.1286  155.6611 O   0  0  0  0  0  0  0  0  0  0  0  0
  151.9144  139.5440  156.7552 C   0  0  0  0  0  0  0  0  0  0  0  0
  151.4504  140.9351  157.2046 C   0  0  0  0  0  0  0  0  0  0  0  0
  152.4642  141.6103  158.0392 N   0  0  0  0  0  0  0  0  0  0  0  0
  153.8268  141.4613  158.1252 C   0  0  0  0  0  0  0  0  0  0  0  0
  154.7208  140.5299  157.3501 C   0  0  0  0  0  0  0  0  0  0  0  0
  155.2499  141.1482  156.1356 N   0  5  0  0  0  0  0  0  0  0  0  0
  156.4633  140.8421  155.5971 C   0  0  0  0  0  0  0  0  0  0  0  0
  157.4758  140.3856  156.1389 O   0  0  0  0  0  0  0  0  0  0  0  0
  156.4978  141.0799  154.1355 C   0  0  0  0  0  0  0  0  0  0  0  0
  157.3897  140.7004  153.1642 C   0  0  0  0  0  0  0  0  0  0  0  0
  156.8898  141.1979  151.9292 C   0  0  0  0  0  0  0  0  0  0  0  0
  155.7218  141.8372  152.2287 C   0  0  0  0  0  0  0  0  0  0  0  0
  155.4666  141.7690  153.5634 O   0  0  0  0  0  0  0  0  0  0  0  0
  154.2621  142.3558  159.0595 N   0  3  0  0  0  0  0  0  0  0  0  0
  153.1890  143.0807  159.5725 C   0  0  0  0  0  0  0  0  0  0  0  0
  153.1464  144.0875  160.5315 C   0  0  0  0  0  0  0  0  0  0  0  0
  151.8778  144.6303  160.8223 C   0  0  0  0  0  0  0  0  0  0  0  0
  150.7164  144.1701  160.1686 C   0  0  0  0  0  0  0  0  0  0  0  0
  150.7735  143.1471  159.1993 C   0  0  0  0  0  0  0  0  0  0  0  0
  152.0317  142.6127  158.9190 C   0  0  0  0  0  0  0  0  0  0  0  0
  150.7908  135.8130  156.0273 H   0  0  0  0  0  0  0  0  0  0  0  0
  149.5529  137.0438  156.2689 H   0  0  0  0  0  0  0  0  0  0  0  0
  150.9861  137.0207  157.2962 H   0  0  0  0  0  0  0  0  0  0  0  0
  152.4205  137.5685  155.3013 H   0  0  0  0  0  0  0  0  0  0  0  0
  150.9860  137.5976  154.2795 H   0  0  0  0  0  0  0  0  0  0  0  0
  151.8217  138.8348  157.5795 H   0  0  0  0  0  0  0  0  0  0  0  0
  152.9641  139.5718  156.4591 H   0  0  0  0  0  0  0  0  0  0  0  0
  151.2191  141.5663  156.3465 H   0  0  0  0  0  0  0  0  0  0  0  0
  150.5233  140.8587  157.7728 H   0  0  0  0  0  0  0  0  0  0  0  0
  155.5256  140.2052  158.0095 H   0  0  0  0  0  0  0  0  0  0  0  0
  154.1406  139.6334  157.1291 H   0  0  0  0  0  0  0  0  0  0  0  0
  158.2943  140.1321  153.3234 H   0  0  0  0  0  0  0  0  0  0  0  0
  157.3273  141.0969  150.9470 H   0  0  0  0  0  0  0  0  0  0  0  0
  154.9827  142.3649  151.6443 H   0  0  0  0  0  0  0  0  0  0  0  0
  154.0371  144.4412  161.0297 H   0  0  0  0  0  0  0  0  0  0  0  0
  151.7945  145.4157  161.5595 H   0  0  0  0  0  0  0  0  0  0  0  0
  149.7616  144.6113  160.4154 H   0  0  0  0  0  0  0  0  0  0  0  0
  149.8769  142.8056  158.7037 H   0  0  0  0  0  0  0  0  0  0  0  0
  155.2363  142.4458  159.3195 H   0  0  0  0  0  0  0  0  0  0  0  0
  1  2  1  0  0  0  0
  1 24  1  0  0  0  0
  1 25  1  0  0  0  0
  1 26  1  0  0  0  0
  2  3  1  0  0  0  0
  2 27  1  0  0  0  0
  2 28  1  0  0  0  0
  3  4  1  0  0  0  0
  4  5  1  0  0  0  0
  4 29  1  0  0  0  0
  4 30  1  0  0  0  0
  5  6  1  0  0  0  0
  5 31  1  0  0  0  0
  5 32  1  0  0  0  0
  6 23  1  0  0  0  0
  6  7  1  0  0  0  0
  7  8  1  0  0  0  0
  7 17  2  0  0  0  0
  8  9  1  0  0  0  0
  8 33  1  0  0  0  0
  8 34  1  0  0  0  0
  9 10  1  0  0  0  0
 10 11  2  0  0  0  0
 10 12  1  0  0  0  0
 12 16  1  0  0  0  0
 12 13  2  0  0  0  0
 13 14  1  0  0  0  0
 13 35  1  0  0  0  0
 14 15  2  0  0  0  0
 14 36  1  0  0  0  0
 15 16  1  0  0  0  0
 15 37  1  0  0  0  0
 17 18  1  0  0  0  0
 17 42  1  0  0  0  0
 18 23  2  0  0  0  0
 18 19  1  0  0  0  0
 19 20  2  0  0  0  0
 19 38  1  0  0  0  0
 20 21  1  0  0  0  0
 20 39  1  0  0  0  0
 21 22  2  0  0  0  0
 21 40  1  0  0  0  0
 22 23  1  0  0  0  0
 22 41  1  0  0  0  0
M  CHG  1   9  -1
M  CHG  1  17   1
M  END
> <s_m_source_file>
AV-unprocessed.smi

> <i_m_source_file_index>
498

> <i_lp_mmshare_version>
43012

> <i_f3d_flags>
0

> <s_epik_input>
W0NIM11bQ0gyXU9bQ0gyXVtDSDJdbihjKGMxMilbY0hdW2NIXVtjSF1bY0hdMiljKG4xKVtDSDJdW05IXUMoPU8pYzNbY0hdW2NIXVtjSF1vMw==

> <s_epik_cmdline>
J2VwaWtfcHl0aG9uJywgJy1waCcsICc3LjAnLCAnLXRuJywgJzgnLCAnLW1hJywgJzIwMCcsICctbWV0YWxfYmluZGluZycsICctaW1hZScsICc8aW5maWxlLm1hZT4nLCAnLW9tYWUnLCAnPG91dGZpbGUubWFlPic=

> <r_epik_Ionization_Penalty>
6.05973

> <r_epik_Ionization_Penalty_Charging>
6.05973

> <r_epik_Ionization_Penalty_Neutral>
2.61143e-12

> <r_epik_State_Penalty>
7.27867

> <r_epik_Charging_Adjusted_Penalty>
13.3384

> <i_epik_Tot_Q>
0

> <i_epik_Tot_abs_Q>
2

> <r_epik_Metal_State_Penalty>
3.28829

> <b_epik_Metal_Only>
1

> <s_lp_Force_Field>
OPLS_2005

> <r_lp_Energy>
13.3144

> <b_lp_Chiralities_Consistent>
1

> <s_lp_Variant>
AV-unprocessed.smi:498-4

> <Gold.Version>
5.8.1

> <Gold.Id.Protein>
6NUR|6NUR_protein|mol2

> <Gold.PLP.Fitness>
49.7823

> <Gold.PLP.PLP>
-42.4949

> <Gold.PLP.part.hbond>
-2.6383

> <Gold.PLP.part.metal>
0.0000

> <Gold.PLP.part.buried>
-7.6864

> <Gold.PLP.part.nonpolar>
-32.5847

> <Gold.PLP.part.repulsive>
0.2239

> <Gold.PLP.ligand.clash>
0.0000

> <Gold.PLP.ligand.torsion>
1.2682

> <Gold.PLP.Chemscore.Hbond>
3.2240

> <Gold.PLP.Chemscore.CHOScore>
0.0000

> <Gold.PLP.Chemscore.Metal>
0.0000

> <Gold.Chemscore.Hbonds>
donor molecule, donor type, donor heavy atom, donor atom, acceptor molecule, acceptor atom, score
      L1  C    15    37       P1  7978  1.00

> <Gold.PLP.Chemscore.Internal.Correction>
0.1519

> <Gold.Rescore>
     Score         DG    S(hbond)    S(metal)    S(lipo)     H(rot)  DE(clash)    DE(int)     intcor
     18.96     -20.58       1.94        0.00     116.66       1.96       0.29       1.33       ----

> <Gold.Chemscore.Fitness>
18.9564

> <Gold.Chemscore.DG>
-20.5828

> <Gold.Chemscore.ZeroCoef>
-5.4800

> <Gold.Chemscore.Hbond>
1.9404

> <Gold.Chemscore.Metal>
0.0000

> <Gold.Chemscore.Lipo>
116.6550

> <Gold.Chemscore.Internal_Hbond>
0.0000

> <Gold.Chemscore.DEClash>
0.2946

> <Gold.Chemscore.DEInternal>
1.3317

> <Gold.Chemscore.Rot>
1.9637

> <Gold.Chemscore.Internal.Correction>
   9.000000E+99

> <Gold.Chemscore.Hbond.Weighted>
-6.4811

> <Gold.Chemscore.Metal.Weighted>
-0.0000

> <Gold.Chemscore.Lipo.Weighted>
-13.6486

> <Gold.Chemscore.Internal_Hbond.Weighted>
0.0000

> <Gold.Chemscore.DEClash.Weighted>
0.2946

> <Gold.Chemscore.DEInternal.Weighted>
1.3317

> <Gold.Chemscore.Rot.Weighted>
5.0270

> <Gold.Chemscore.Internal.Correction.Weighted>
   9.000000E+99

> <Gold.Protein.RotatedTorsions>
[ 6907 6896 6895 6894 ] final -143.73 input  -60.11 | X-H torsion
[ 7974 7965 7964 7962 ] final  153.70 input  175.53 | X-H torsion
[ 8008 7997 7996 7995 ] final  127.53 input   59.86 | X-H torsion
[ 10167 10162 10161 10158 ] final  -16.39 input  -65.29 | X-H torsion
[ 10718 10713 10712 10709 ] final -150.41 input   66.30 | X-H torsion
[ 10763 10752 10751 10750 ] final -149.01 input  -60.55 | X-H torsion
[ 11005 11000 10999 10996 ] final  147.57 input  -57.11 | X-H torsion

> <Gold.Protein.ActiveResidues>
 VAL166  LYS551  ARG553  GLY616  TRP617  ASP618  TYR619  PRO620  LYS621  CYS622 
 ASP623  PHE694  ASN695  SER759  ASP760  ASP761  ALA762  ILE779  LEU786  VAL792 
 PHE793  MET794  SER795  GLU796  ALA797  LYS798  CYS799  TRP800  GLU811  SER814 

> <Gold.Protein.RotatedAtoms>
  151.1044  133.5219  159.2608 H   0  0  0  0  0  0  0  0  0  0  0  0  # atno 6907 bound_to 6896
  151.2038  135.0453  159.8893 H   0  0  0  0  0  0  0  0  0  0  0  0  # atno 6908 bound_to 6896
  152.5445  134.0869  159.8313 H   0  0  0  0  0  0  0  0  0  0  0  0  # atno 6909 bound_to 6896
  144.8137  139.6835  143.6130 H   0  0  0  0  0  0  0  0  0  0  0  0  # atno 7974 bound_to 7965
  156.2893  140.2666  156.2288 H   0  0  0  0  0  0  0  0  0  0  0  0  # atno 8008 bound_to 7997
  155.0093  140.0387  157.2411 H   0  0  0  0  0  0  0  0  0  0  0  0  # atno 8009 bound_to 7997
  154.7532  140.2747  155.6280 H   0  0  0  0  0  0  0  0  0  0  0  0  # atno 8010 bound_to 7997
  140.7233  143.5121  150.9737 H   0  0  0  0  0  0  0  0  0  0  0  0  # atno 10167 bound_to 10162
  156.4458  130.8144  151.2374 H   0  0  0  0  0  0  0  0  0  0  0  0  # atno 10718 bound_to 10713
  154.8201  135.3320  154.7062 H   0  0  0  0  0  0  0  0  0  0  0  0  # atno 10763 bound_to 10752
  153.7697  135.6926  153.4913 H   0  0  0  0  0  0  0  0  0  0  0  0  # atno 10764 bound_to 10752
  153.2053  135.4501  155.0264 H   0  0  0  0  0  0  0  0  0  0  0  0  # atno 10765 bound_to 10752
  140.0886  134.9054  157.1616 H   0  0  0  0  0  0  0  0  0  0  0  0  # atno 11005 bound_to 11000
  146.2438  139.6057  142.9473 LP  0  0  0  0  0  0  0  0  0  0  0  0  # atno 17320 bound_to 7965
  145.5263  141.0429  143.2407 LP  0  0  0  0  0  0  0  0  0  0  0  0  # atno 17321 bound_to 7965
  139.8835  143.7042  152.3154 LP  0  0  0  0  0  0  0  0  0  0  0  0  # atno 17342 bound_to 10162
  139.7333  144.7577  151.0767 LP  0  0  0  0  0  0  0  0  0  0  0  0  # atno 17343 bound_to 10162
  157.7505  131.0154  150.3501 LP  0  0  0  0  0  0  0  0  0  0  0  0  # atno 17370 bound_to 10713
  156.3869  130.3890  149.7059 LP  0  0  0  0  0  0  0  0  0  0  0  0  # atno 17371 bound_to 10713
  140.3384  134.2731  155.7216 LP  0  0  0  0  0  0  0  0  0  0  0  0  # atno 17394 bound_to 11000
  141.2071  133.7816  157.0140 LP  0  0  0  0  0  0  0  0  0  0  0  0  # atno 17395 bound_to 11000

$$$$
