#       Name:                AV-unprocessed.smi:2945
#       Creating user name   scv26
#       Creation time:       Fri Mar 27 16:17:03 2020


#       File generated by GOLD software.
#

@<TRIPOS>MOLECULE
AV-unprocessed.smi:2945
    41    42     1
SMALL
NO_CHARGES


@<TRIPOS>ATOM
      1 ****        -6.3708  -1.8539  -0.1623 C.3            1 S1                 0.0000
      2 ****        -5.0725  -1.1365  -0.0170 C.2            1 S1                 0.0000
      3 ****        -3.7715  -1.5540  -0.0372 C.2            1 S1                 0.0000
      4 ****        -3.0460  -0.3498   0.1644 C.2            1 S1                 0.0000
      5 ****        -1.6289  -0.3551   0.2128 N.am           1 S1                 0.0000
      6 ****        -0.8107   0.6899   0.4224 C.2            1 S1                 0.0000
      7 ****        -1.1761   1.8531   0.5942 O.2            1 S1                 0.0000
      8 ****         0.4738   0.3036   0.4175 N.am           1 S1                 0.0000
      9 ****         1.6390   1.1666   0.6239 C.3            1 S1                 0.0000
     10 ****         2.5360   0.5745   1.7297 C.3            1 S1                 0.0000
     11 ****         3.2399  -0.7169   1.2781 C.3            1 S1                 0.0000
     12 ****         4.0349  -0.4930  -0.0169 C.3            1 S1                 0.0000
     13 ****         3.1421   0.0766  -1.1312 C.3            1 S1                 0.0000
     14 ****         2.4392   1.3764  -0.6872 C.3            1 S1                 0.0000
     15 ****         1.5912   1.9773  -1.8212 C.3            1 S1                 0.0000
     16 ****        -3.8324   0.7075   0.2939 N.2            1 S1                 0.0000
     17 ****        -5.1354   0.2088   0.1778 O.3            1 S1                 0.0000
     18 ****        -6.2166  -2.9316  -0.2191 H              1 S1                 0.0000
     19 ****        -6.8872  -1.5377  -1.0688 H              1 S1                 0.0000
     20 ****        -7.0225  -1.6510   0.6876 H              1 S1                 0.0000
     21 ****        -3.4019  -2.5596  -0.1723 H              1 S1                 0.0000
     22 ****        -1.1903  -1.2544   0.0826 H              1 S1                 0.0000
     23 ****         0.6677  -0.6748   0.2630 H              1 S1                 0.0000
     24 ****         1.3041   2.1449   0.9730 H              1 S1                 0.0000
     25 ****         3.2908   1.3106   2.0093 H              1 S1                 0.0000
     26 ****         1.9504   0.3859   2.6303 H              1 S1                 0.0000
     27 ****         3.9061  -1.0701   2.0655 H              1 S1                 0.0000
     28 ****         2.5033  -1.5061   1.1236 H              1 S1                 0.0000
     29 ****         4.8603   0.1934   0.1762 H              1 S1                 0.0000
     30 ****         4.4841  -1.4313  -0.3435 H              1 S1                 0.0000
     31 ****         3.7478   0.2661  -2.0180 H              1 S1                 0.0000
     32 ****         2.4007  -0.6686  -1.4220 H              1 S1                 0.0000
     33 ****         3.2219   2.1042  -0.4671 H              1 S1                 0.0000
     34 ****         0.8141   1.2890  -2.1542 H              1 S1                 0.0000
     35 ****         2.2100   2.2162  -2.6864 H              1 S1                 0.0000
     36 ****         1.1052   2.8988  -1.5000 H              1 S1                 0.0000
     37 ****        -2.1505   2.0778   0.5838 LP             1 S1                 0.0000
     38 ****        -0.4985   2.5731   0.7441 LP             1 S1                 0.0000
     39 ****        -3.5555   1.6569   0.4424 LP             1 S1                 0.0000
     40 ****        -5.6461   0.4040   1.0151 LP             1 S1                 0.0000
     41 ****        -5.5927   0.6403  -0.5999 LP             1 S1                 0.0000
@<TRIPOS>BOND
    1    1    2 1     
    2    1   18 1     
    3    1   19 1     
    4    1   20 1     
    5    2   17 1     
    6    2    3 2     
    7    3    4 1     
    8    3   21 1     
    9    4    5 1     
   10    4   16 2     
   11    5    6 am    
   12    5   22 1     
   13    6    7 2     
   14    6    8 am    
   15    8    9 1     
   16    8   23 1     
   17    9   14 1     
   18    9   10 1     
   19    9   24 1     
   20   10   11 1     
   21   10   25 1     
   22   10   26 1     
   23   11   12 1     
   24   11   27 1     
   25   11   28 1     
   26   12   13 1     
   27   12   29 1     
   28   12   30 1     
   29   13   14 1     
   30   13   31 1     
   31   13   32 1     
   32   14   15 1     
   33   14   33 1     
   34   15   34 1     
   35   15   35 1     
   36   15   36 1     
   37   16   17 1     
   38    7   37 1     
   39    7   38 1     
   40   16   39 1     
   41   17   40 1     
   42   17   41 1     
@<TRIPOS>SUBSTRUCTURE
      1 S1             1
@<TRIPOS>SET
LONE_PAIRS      STATIC     ATOMS    <user>   **** ""
5 37 38 39 40 41
DONOR_HYDROGENS      STATIC     ATOMS    <user>   **** ""
2 22 23
ATOM$BLUE        STATIC     ATOMS    COLORGROUP SYSTEM
5 37 38 39 40 41
ATOM$RED        STATIC     ATOMS    COLORGROUP SYSTEM
2 22 23
