#       Name:                AV-unprocessed.smi:1213
#       Creating user name   scv26
#       Creation time:       Fri Mar 27 04:13:41 2020


#       File generated by GOLD software.
#

@<TRIPOS>MOLECULE
AV-unprocessed.smi:1213
    42    43     1
SMALL
NO_CHARGES


@<TRIPOS>ATOM
      1 ****        -5.6438   2.4947  -0.8071 N.am           1 S1                 0.0000
      2 ****        -4.4047   2.1552  -1.1686 C.2            1 S1                 0.0000
      3 ****        -3.6123   2.9699  -1.6383 O.2            1 S1                 0.0000
      4 ****        -4.0106   0.6854  -0.9912 C.3            1 S1                 0.0000
      5 ****        -2.5398   0.4834  -0.9358 N.4            1 S1                 1.0000
      6 ****        -2.1380  -0.8870  -1.3433 C.3            1 S1                 0.0000
      7 ****        -0.6073  -1.0155  -1.4212 C.3            1 S1                 0.0000
      8 ****         0.0527  -0.6344  -0.0861 C.3            1 S1                 0.0000
      9 ****         1.5058  -0.6828  -0.2193 N.am           1 S1                 0.0000
     10 ****         2.3682  -0.8333   0.7968 C.2            1 S1                 0.0000
     11 ****         2.0173  -0.9449   1.9718 O.2            1 S1                 0.0000
     12 ****         3.6398  -0.8425   0.3598 N.am           1 S1                 0.0000
     13 ****         4.8288  -0.9815   1.1230 C.2            1 S1                 0.0000
     14 ****         4.8589  -1.1378   2.4517 N.2            1 S1                 0.0000
     15 ****         6.1643  -1.2508   2.9368 C.2            1 S1                 0.0000
     16 ****         7.1225  -1.1764   1.9567 C.2            1 S1                 0.0000
     17 ****         6.4195  -0.9626   0.3757 S.3            1 S1                 0.0000
     18 ****        -0.4139   0.7709   0.3368 C.3            1 S1                 0.0000
     19 ****        -1.9482   0.8576   0.3766 C.3            1 S1                 0.0000
     20 ****        -5.9495   3.4523  -0.9079 H              1 S1                 0.0000
     21 ****        -6.2748   1.7987  -0.4365 H              1 S1                 0.0000
     22 ****        -4.4806   0.2656  -0.1001 H              1 S1                 0.0000
     23 ****        -4.4233   0.1478  -1.8460 H              1 S1                 0.0000
     24 ****        -2.5431  -1.6123  -0.6357 H              1 S1                 0.0000
     25 ****        -2.5652  -1.1220  -2.3189 H              1 S1                 0.0000
     26 ****        -0.3372  -2.0365  -1.6944 H              1 S1                 0.0000
     27 ****        -0.2316  -0.3724  -2.2188 H              1 S1                 0.0000
     28 ****        -0.2608  -1.3577   0.6694 H              1 S1                 0.0000
     29 ****         1.8819  -0.5993  -1.1526 H              1 S1                 0.0000
     30 ****         3.7748  -0.7394  -0.6349 H              1 S1                 0.0000
     31 ****         6.3205  -1.3818   3.9973 H              1 S1                 0.0000
     32 ****         8.1950  -1.2347   2.0686 H              1 S1                 0.0000
     33 ****        -0.0092   1.0248   1.3173 H              1 S1                 0.0000
     34 ****        -0.0271   1.5170  -0.3592 H              1 S1                 0.0000
     35 ****        -2.2405   1.8727   0.6465 H              1 S1                 0.0000
     36 ****        -2.3394   0.2003   1.1550 H              1 S1                 0.0000
     37 ****        -2.1476   1.1102  -1.6245 H              1 S1                 0.0000
     38 ****        -3.8888   3.9231  -1.7605 LP             1 S1                 0.0000
     39 ****        -2.6915   2.6792  -1.8981 LP             1 S1                 0.0000
     40 ****         1.0456  -0.9256   2.2075 LP             1 S1                 0.0000
     41 ****         2.7039  -1.0549   2.6904 LP             1 S1                 0.0000
     42 ****         4.0432  -1.1700   3.0293 LP             1 S1                 0.0000
@<TRIPOS>BOND
    1    1    2 am    
    2    1   20 1     
    3    1   21 1     
    4    2    3 2     
    5    2    4 1     
    6    4    5 1     
    7    4   22 1     
    8    4   23 1     
    9    5   19 1     
   10    5    6 1     
   11    5   37 1     
   12    6    7 1     
   13    6   24 1     
   14    6   25 1     
   15    7    8 1     
   16    7   26 1     
   17    7   27 1     
   18    8    9 1     
   19    8   18 1     
   20    8   28 1     
   21    9   10 am    
   22    9   29 1     
   23   10   11 2     
   24   10   12 am    
   25   12   13 1     
   26   12   30 1     
   27   13   17 1     
   28   13   14 2     
   29   14   15 1     
   30   15   16 2     
   31   15   31 1     
   32   16   17 1     
   33   16   32 1     
   34   18   19 1     
   35   18   33 1     
   36   18   34 1     
   37   19   35 1     
   38   19   36 1     
   39    3   38 1     
   40    3   39 1     
   41   11   40 1     
   42   11   41 1     
   43   14   42 1     
@<TRIPOS>SUBSTRUCTURE
      1 S1             1
@<TRIPOS>SET
LONE_PAIRS      STATIC     ATOMS    <user>   **** ""
5 38 39 40 41 42
DONOR_HYDROGENS      STATIC     ATOMS    <user>   **** ""
5 20 21 37 29 30
ATOM$BLUE        STATIC     ATOMS    COLORGROUP SYSTEM
5 38 39 40 41 42
ATOM$RED        STATIC     ATOMS    COLORGROUP SYSTEM
5 20 21 37 29 30
