AV-unprocessed.smi:2558|AV-procd|sdf|10032|dock7
  -GOLD-   2272014 73D 1   1.00000     0.00000
 Structure written by MMmdl.
 43 44  0  0  0  0  0  0  0  0  1 V2000
  151.8964  139.2449  157.3422 C   0  0  0  0  0  0  0  0  0  0  0  0
  152.0663  138.6402  155.6123 S   0  0  0  0  0  0  0  0  0  0  0  0
  151.9542  139.7943  154.7062 O   0  0  0  0  0  0  0  0  0  0  0  0
  153.2606  137.7843  155.5366 O   0  0  0  0  0  0  0  0  0  0  0  0
  150.6489  137.6241  155.4287 N   0  0  0  0  0  0  0  0  0  0  0  0
  150.7105  136.2127  155.3058 C   0  0  0  0  0  0  0  0  0  0  0  0
  151.5908  135.5625  155.8742 O   0  0  0  0  0  0  0  0  0  0  0  0
  149.6841  135.6544  154.6296 N   0  0  0  0  0  0  0  0  0  0  0  0
  149.4458  134.3473  154.4079 C   0  0  0  0  0  0  0  0  0  0  0  0
  150.1366  133.4187  154.8309 O   0  0  0  0  0  0  0  0  0  0  0  0
  148.3300  134.1989  153.6717 N   0  0  0  0  0  0  0  0  0  0  0  0
  147.7095  133.0024  153.2200 C   0  0  0  0  0  0  0  0  0  0  0  0
  146.7040  133.1162  152.2378 C   0  0  0  0  0  0  0  0  0  0  0  0
  146.0770  131.9511  151.7576 C   0  0  0  0  0  0  0  0  0  0  0  0
  146.4882  130.7081  152.2756 C   0  0  0  0  0  0  0  0  0  0  0  0
  147.4589  130.5785  153.2040 N   0  0  0  0  0  0  0  0  0  0  0  0
  148.0558  131.7005  153.6612 C   0  0  0  0  0  0  0  0  0  0  0  0
  149.3511  138.3353  155.2500 C   0  0  0  0  0  0  0  0  0  0  0  0
  149.3453  139.2485  154.0053 C   0  0  0  0  0  0  0  0  0  0  0  0
  147.9595  139.8830  153.8019 C   0  0  0  0  0  0  0  0  0  0  0  0
  147.4927  140.6284  155.0642 C   0  0  0  0  0  0  0  0  0  0  0  0
  147.4901  139.7054  156.2952 C   0  0  0  0  0  0  0  0  0  0  0  0
  148.8736  139.0748  156.5220 C   0  0  0  0  0  0  0  0  0  0  0  0
  152.7380  139.8941  157.5828 H   0  0  0  0  0  0  0  0  0  0  0  0
  151.8893  138.3963  158.0261 H   0  0  0  0  0  0  0  0  0  0  0  0
  150.9670  139.8034  157.4487 H   0  0  0  0  0  0  0  0  0  0  0  0
  149.0202  136.2993  154.2277 H   0  0  0  0  0  0  0  0  0  0  0  0
  147.8330  135.0489  153.4493 H   0  0  0  0  0  0  0  0  0  0  0  0
  146.4116  134.0843  151.8577 H   0  0  0  0  0  0  0  0  0  0  0  0
  145.2996  132.0088  151.0102 H   0  0  0  0  0  0  0  0  0  0  0  0
  146.0288  129.7935  151.9311 H   0  0  0  0  0  0  0  0  0  0  0  0
  148.8386  131.5272  154.3822 H   0  0  0  0  0  0  0  0  0  0  0  0
  148.5869  137.5803  155.0674 H   0  0  0  0  0  0  0  0  0  0  0  0
  150.0838  140.0437  154.1000 H   0  0  0  0  0  0  0  0  0  0  0  0
  149.6202  138.6745  153.1199 H   0  0  0  0  0  0  0  0  0  0  0  0
  147.9863  140.5681  152.9542 H   0  0  0  0  0  0  0  0  0  0  0  0
  147.2362  139.1071  153.5481 H   0  0  0  0  0  0  0  0  0  0  0  0
  148.1487  141.4803  155.2481 H   0  0  0  0  0  0  0  0  0  0  0  0
  146.4941  141.0364  154.9053 H   0  0  0  0  0  0  0  0  0  0  0  0
  147.1887  140.2663  157.1802 H   0  0  0  0  0  0  0  0  0  0  0  0
  146.7461  138.9191  156.1603 H   0  0  0  0  0  0  0  0  0  0  0  0
  148.8299  138.3832  157.3641 H   0  0  0  0  0  0  0  0  0  0  0  0
  149.5691  139.8649  156.8041 H   0  0  0  0  0  0  0  0  0  0  0  0
  1  2  1  0  0  0  0
  1 24  1  0  0  0  0
  1 25  1  0  0  0  0
  1 26  1  0  0  0  0
  2  3  2  0  0  0  0
  2  4  2  0  0  0  0
  2  5  1  0  0  0  0
  5  6  1  0  0  0  0
  5 18  1  0  0  0  0
  6  7  2  0  0  0  0
  6  8  1  0  0  0  0
  8  9  1  0  0  0  0
  8 27  1  0  0  0  0
  9 10  2  0  0  0  0
  9 11  1  0  0  0  0
 11 12  1  0  0  0  0
 11 28  1  0  0  0  0
 12 17  1  0  0  0  0
 12 13  2  0  0  0  0
 13 14  1  0  0  0  0
 13 29  1  0  0  0  0
 14 15  2  0  0  0  0
 14 30  1  0  0  0  0
 15 16  1  0  0  0  0
 15 31  1  0  0  0  0
 16 17  2  0  0  0  0
 17 32  1  0  0  0  0
 18 23  1  0  0  0  0
 18 19  1  0  0  0  0
 18 33  1  0  0  0  0
 19 20  1  0  0  0  0
 19 34  1  0  0  0  0
 19 35  1  0  0  0  0
 20 21  1  0  0  0  0
 20 36  1  0  0  0  0
 20 37  1  0  0  0  0
 21 22  1  0  0  0  0
 21 38  1  0  0  0  0
 21 39  1  0  0  0  0
 22 23  1  0  0  0  0
 22 40  1  0  0  0  0
 22 41  1  0  0  0  0
 23 42  1  0  0  0  0
 23 43  1  0  0  0  0
M  END
> <s_m_source_file>
AV-unprocessed.smi

> <i_m_source_file_index>
2558

> <i_lp_mmshare_version>
43012

> <i_f3d_flags>
0

> <s_epik_input>
W0NIMl0xW0NIMl1bQ0gyXVtDSDJdW0NIMl1bQ0hdMU4oUyg9TykoPU8pW0NIM10pQyg9TylbTkhdQyg9TylbTkhdYzJbY0hdW2NIXVtjSF1uW2NIXTI=

> <s_epik_cmdline>
J2VwaWtfcHl0aG9uJywgJy1waCcsICc3LjAnLCAnLXRuJywgJzgnLCAnLW1hJywgJzIwMCcsICctbWV0YWxfYmluZGluZycsICctaW1hZScsICc8aW5maWxlLm1hZT4nLCAnLW9tYWUnLCAnPG91dGZpbGUubWFlPic=

> <r_epik_Ionization_Penalty>
0.00647128

> <r_epik_Ionization_Penalty_Charging>
0

> <r_epik_Ionization_Penalty_Neutral>
0.00647128

> <r_epik_State_Penalty>
0.00476147

> <r_epik_Charging_Adjusted_Penalty>
0.00476147

> <i_epik_Tot_Q>
0

> <i_epik_Tot_abs_Q>
0

> <r_epik_Metal_State_Penalty>
0.0176635

> <b_epik_Metal_Only>
0

> <s_lp_Force_Field>
OPLS_2005

> <r_lp_Energy>
21.3267

> <b_lp_Chiralities_Consistent>
1

> <s_lp_Variant>
AV-unprocessed.smi:2558-1

> <Gold.Version>
5.8.1

> <Gold.Id.Protein>
6NUR|6NUR_protein|mol2

> <Gold.PLP.Fitness>
35.9471

> <Gold.PLP.PLP>
-30.4573

> <Gold.PLP.part.hbond>
-5.0000

> <Gold.PLP.part.metal>
0.0000

> <Gold.PLP.part.buried>
-1.1574

> <Gold.PLP.part.nonpolar>
-23.2718

> <Gold.PLP.part.repulsive>
0.3248

> <Gold.PLP.ligand.clash>
0.0000

> <Gold.PLP.ligand.torsion>
1.4248

> <Gold.PLP.Chemscore.Hbond>
2.0622

> <Gold.PLP.Chemscore.CHOScore>
0.0000

> <Gold.PLP.Chemscore.Metal>
0.0000

> <Gold.Chemscore.Hbonds>
donor molecule, donor type, donor heavy atom, donor atom, acceptor molecule, acceptor atom, score
      L1  H     8    27       P1  7948  0.05
      L1  H    11    28       P1  7948  0.08
      P1  H  7989  7998       L1     3  0.91
      P1  H 10752 10763       L1     7  1.00

> <Gold.PLP.Chemscore.Internal.Correction>
2.1529

> <Gold.Rescore>
     Score         DG    S(hbond)    S(metal)    S(lipo)     H(rot)  DE(clash)    DE(int)     intcor
     10.03     -15.69       1.88        0.00      55.60       1.00       0.18       5.49       ----

> <Gold.Chemscore.Fitness>
10.0289

> <Gold.Chemscore.DG>
-15.6934

> <Gold.Chemscore.ZeroCoef>
-5.4800

> <Gold.Chemscore.Hbond>
1.8768

> <Gold.Chemscore.Metal>
0.0000

> <Gold.Chemscore.Lipo>
55.5960

> <Gold.Chemscore.Internal_Hbond>
0.0000

> <Gold.Chemscore.DEClash>
0.1754

> <Gold.Chemscore.DEInternal>
5.4890

> <Gold.Chemscore.Rot>
1.0000

> <Gold.Chemscore.Internal.Correction>
   9.000000E+99

> <Gold.Chemscore.Hbonds>
donor molecule, donor type, donor heavy atom, donor atom, acceptor molecule, acceptor atom, score
      L1  H     8    27       P1  7948  0.05
      L1  H    11    28       P1  7948  0.08
      P1  H  7989  7998       L1     3  0.89
      P1  H 10752 10763       L1     7  0.65

> <Gold.Chemscore.Hbond.Weighted>
-6.2686

> <Gold.Chemscore.Metal.Weighted>
-0.0000

> <Gold.Chemscore.Lipo.Weighted>
-6.5047

> <Gold.Chemscore.Internal_Hbond.Weighted>
0.0000

> <Gold.Chemscore.DEClash.Weighted>
0.1754

> <Gold.Chemscore.DEInternal.Weighted>
5.4890

> <Gold.Chemscore.Rot.Weighted>
2.5600

> <Gold.Chemscore.Internal.Correction.Weighted>
   9.000000E+99

> <Gold.Protein.RotatedTorsions>
[ 6907 6896 6895 6894 ] final  -47.87 input  -60.11 | X-H torsion
[ 7974 7965 7964 7962 ] final -124.27 input  175.53 | X-H torsion
[ 8008 7997 7996 7995 ] final  -51.19 input   59.86 | X-H torsion
[ 10167 10162 10161 10158 ] final -116.56 input  -65.29 | X-H torsion
[ 10718 10713 10712 10709 ] final  129.80 input   66.30 | X-H torsion
[ 10763 10752 10751 10750 ] final   73.29 input  -60.55 | X-H torsion
[ 11005 11000 10999 10996 ] final  -83.23 input  -57.11 | X-H torsion

> <Gold.Protein.ActiveResidues>
 VAL166  LYS551  ARG553  GLY616  TRP617  ASP618  TYR619  PRO620  LYS621  CYS622 
 ASP623  PHE694  ASN695  SER759  ASP760  ASP761  ALA762  ILE779  LEU786  VAL792 
 PHE793  MET794  SER795  GLU796  ALA797  LYS798  CYS799  TRP800  GLU811  SER814 

> <Gold.Protein.RotatedAtoms>
  150.8963  134.8371  159.7328 H   0  0  0  0  0  0  0  0  0  0  0  0  # atno 6907 bound_to 6896
  152.4867  134.4571  159.9603 H   0  0  0  0  0  0  0  0  0  0  0  0  # atno 6908 bound_to 6896
  151.4628  133.3549  159.2847 H   0  0  0  0  0  0  0  0  0  0  0  0  # atno 6909 bound_to 6896
  145.0099  140.7896  143.4445 H   0  0  0  0  0  0  0  0  0  0  0  0  # atno 7974 bound_to 7965
  154.4077  140.1254  156.4788 H   0  0  0  0  0  0  0  0  0  0  0  0  # atno 8008 bound_to 7997
  155.7106  140.3494  155.4952 H   0  0  0  0  0  0  0  0  0  0  0  0  # atno 8009 bound_to 7997
  155.9304  140.1068  157.1127 H   0  0  0  0  0  0  0  0  0  0  0  0  # atno 8010 bound_to 7997
  140.0778  143.4816  152.1943 H   0  0  0  0  0  0  0  0  0  0  0  0  # atno 10167 bound_to 10162
  157.5121  131.1097  150.9278 H   0  0  0  0  0  0  0  0  0  0  0  0  # atno 10718 bound_to 10713
  153.0512  135.5068  154.7872 H   0  0  0  0  0  0  0  0  0  0  0  0  # atno 10763 bound_to 10752
  154.6732  135.2956  154.9716 H   0  0  0  0  0  0  0  0  0  0  0  0  # atno 10764 bound_to 10752
  154.0527  135.6702  153.4855 H   0  0  0  0  0  0  0  0  0  0  0  0  # atno 10765 bound_to 10752
  141.1659  133.7284  156.8690 H   0  0  0  0  0  0  0  0  0  0  0  0  # atno 11005 bound_to 11000
  145.2038  139.2239  143.5179 LP  0  0  0  0  0  0  0  0  0  0  0  0  # atno 17320 bound_to 7965
  146.3468  140.1861  142.8589 LP  0  0  0  0  0  0  0  0  0  0  0  0  # atno 17321 bound_to 7965
  139.5797  144.7505  151.3671 LP  0  0  0  0  0  0  0  0  0  0  0  0  # atno 17342 bound_to 10162
  140.7093  143.7432  150.7538 LP  0  0  0  0  0  0  0  0  0  0  0  0  # atno 17343 bound_to 10162
  156.9915  130.5565  149.5304 LP  0  0  0  0  0  0  0  0  0  0  0  0  # atno 17370 bound_to 10713
  156.0296  130.5388  150.8498 LP  0  0  0  0  0  0  0  0  0  0  0  0  # atno 17371 bound_to 10713
  140.1795  134.9043  157.2931 LP  0  0  0  0  0  0  0  0  0  0  0  0  # atno 17394 bound_to 11000
  140.2411  134.3794  155.7480 LP  0  0  0  0  0  0  0  0  0  0  0  0  # atno 17395 bound_to 11000

$$$$
