#       Name:                AV-unprocessed.smi:1395
#       Creating user name   scv26
#       Creation time:       Fri Mar 27 05:29:35 2020


#       File generated by GOLD software.
#

@<TRIPOS>MOLECULE
AV-unprocessed.smi:1395
    48    49     1
SMALL
NO_CHARGES


@<TRIPOS>ATOM
      1 ****        -5.0118  -0.5015  -0.7527 C.3            1 S1                 0.0000
      2 ****        -4.8522   1.0066  -0.6474 C.ar           1 S1                 0.0000
      3 ****        -6.0034   1.8222  -0.6166 C.ar           1 S1                 0.0000
      4 ****        -5.8543   3.2161  -0.5170 C.ar           1 S1                 0.0000
      5 ****        -4.5515   3.7389  -0.4519 C.ar           1 S1                 0.0000
      6 ****        -3.4459   2.9671  -0.4811 N.ar           1 S1                 0.0000
      7 ****        -3.5724   1.6197  -0.5775 C.ar           1 S1                 0.0000
      8 ****        -2.4502   0.7442  -0.6077 N.am           1 S1                 0.0000
      9 ****        -1.1432   1.0592  -0.5759 C.2            1 S1                 0.0000
     10 ****        -0.6838   2.2014  -0.5460 O.2            1 S1                 0.0000
     11 ****        -0.3783  -0.0426  -0.5794 N.am           1 S1                 0.0000
     12 ****         1.0809  -0.0509  -0.5324 C.3            1 S1                 0.0000
     13 ****         1.6121  -1.3956  -1.0551 C.3            1 S1                 0.0000
     14 ****         3.1427  -1.4781  -0.9301 C.3            1 S1                 0.0000
     15 ****         3.5763  -1.2550   0.4719 N.4            1 S1                 1.0000
     16 ****         5.0317  -1.4842   0.6610 C.3            1 S1                 0.0000
     17 ****         5.3450  -1.8375   2.1196 C.2            1 S1                 0.0000
     18 ****         4.7199  -2.9625   2.5224 N.pl3          1 S1                -1.0000
     19 ****         6.0949  -1.1155   2.7723 O.2            1 S1                 0.0000
     20 ****         3.1145   0.0621   0.9851 C.3            1 S1                 0.0000
     21 ****         1.5841   0.1788   0.9050 C.3            1 S1                 0.0000
     22 ****        -6.0622  -0.7858  -0.8240 H              1 S1                 0.0000
     23 ****        -4.5908  -0.9909   0.1263 H              1 S1                 0.0000
     24 ****        -4.5018  -0.8801  -1.6391 H              1 S1                 0.0000
     25 ****        -6.9911   1.3880  -0.6674 H              1 S1                 0.0000
     26 ****        -6.7156   3.8671  -0.4908 H              1 S1                 0.0000
     27 ****        -4.3914   4.8040  -0.3745 H              1 S1                 0.0000
     28 ****        -2.6725  -0.2393  -0.6463 H              1 S1                 0.0000
     29 ****        -0.8382  -0.9410  -0.6070 H              1 S1                 0.0000
     30 ****         1.4632   0.7433  -1.1769 H              1 S1                 0.0000
     31 ****         1.1612  -2.2163  -0.4947 H              1 S1                 0.0000
     32 ****         1.3200  -1.5356  -2.0966 H              1 S1                 0.0000
     33 ****         3.4756  -2.4607  -1.2663 H              1 S1                 0.0000
     34 ****         3.6167  -0.7409  -1.5802 H              1 S1                 0.0000
     35 ****         5.3698  -2.3143   0.0384 H              1 S1                 0.0000
     36 ****         5.5989  -0.6068   0.3455 H              1 S1                 0.0000
     37 ****         4.8648  -3.2877   3.4860 H              1 S1                 0.0000
     38 ****         3.4261   0.1948   2.0215 H              1 S1                 0.0000
     39 ****         3.5831   0.8626   0.4106 H              1 S1                 0.0000
     40 ****         1.2759   1.1621   1.2623 H              1 S1                 0.0000
     41 ****         1.1307  -0.5503   1.5785 H              1 S1                 0.0000
     42 ****         3.1226  -1.9653   1.0300 H              1 S1                 0.0000
     43 ****        -2.5388   3.3852  -0.4321 LP             1 S1                 0.0000
     44 ****        -1.3006   2.9885  -0.5441 LP             1 S1                 0.0000
     45 ****         0.3060   2.3418  -0.5237 LP             1 S1                 0.0000
     46 ****         4.1277  -3.4696   1.8961 LP             1 S1                 0.0000
     47 ****         6.4973  -0.3024   2.3517 LP             1 S1                 0.0000
     48 ****         6.3028  -1.3410   3.7241 LP             1 S1                 0.0000
@<TRIPOS>BOND
    1    1    2 1     
    2    1   22 1     
    3    1   23 1     
    4    1   24 1     
    5    2    7 ar    
    6    2    3 ar    
    7    3    4 ar    
    8    3   25 1     
    9    4    5 ar    
   10    4   26 1     
   11    5    6 ar    
   12    5   27 1     
   13    6    7 ar    
   14    7    8 1     
   15    8    9 am    
   16    8   28 1     
   17    9   10 2     
   18    9   11 am    
   19   11   12 1     
   20   11   29 1     
   21   12   21 1     
   22   12   13 1     
   23   12   30 1     
   24   13   14 1     
   25   13   31 1     
   26   13   32 1     
   27   14   15 1     
   28   14   33 1     
   29   14   34 1     
   30   15   16 1     
   31   15   20 1     
   32   15   42 1     
   33   16   17 1     
   34   16   35 1     
   35   16   36 1     
   36   17   18 1     
   37   17   19 2     
   38   18   37 1     
   39   20   21 1     
   40   20   38 1     
   41   20   39 1     
   42   21   40 1     
   43   21   41 1     
   44    6   43 1     
   45   10   44 1     
   46   10   45 1     
   47   18   46 1     
   48   19   47 1     
   49   19   48 1     
@<TRIPOS>SUBSTRUCTURE
      1 S1             1
@<TRIPOS>SET
LONE_PAIRS      STATIC     ATOMS    <user>   **** ""
6 43 44 45 46 47 48
DONOR_HYDROGENS      STATIC     ATOMS    <user>   **** ""
4 28 29 42 37
ATOM$BLUE        STATIC     ATOMS    COLORGROUP SYSTEM
6 43 44 45 46 47 48
ATOM$RED        STATIC     ATOMS    COLORGROUP SYSTEM
4 28 29 42 37
