AV-unprocessed.smi:2245|AV-procd|sdf|9076|dock7
  -GOLD-   2272012283D 1   1.00000     0.00000
 Structure written by MMmdl.
 44 45  0  0  0  0  0  0  0  0  1 V2000
  151.9254  145.8793  160.2635 C   0  0  0  0  0  0  0  0  0  0  0  0
  151.9861  144.5247  159.5889 C   0  0  0  0  0  0  0  0  0  0  0  0
  152.8764  143.5312  160.0391 C   0  0  0  0  0  0  0  0  0  0  0  0
  152.8864  142.2934  159.3668 C   0  0  0  0  0  0  0  0  0  0  0  0
  153.8244  141.1840  159.7936 C   0  0  0  0  0  0  0  0  0  0  0  0
  152.0857  142.0199  158.3147 N   0  0  0  0  0  0  0  0  0  0  0  0
  151.2242  142.9693  157.8727 C   0  0  0  0  0  0  0  0  0  0  0  0
  150.3524  142.7878  156.7669 N   0  0  0  0  0  0  0  0  0  0  0  0
  150.2079  141.6975  155.9936 C   0  0  0  0  0  0  0  0  0  0  0  0
  150.7591  140.6120  156.1796 O   0  0  0  0  0  0  0  0  0  0  0  0
  149.3738  141.9365  154.9728 N   0  0  0  0  0  0  0  0  0  0  0  0
  149.0456  140.9774  153.9255 C   0  0  0  0  0  0  0  0  0  0  0  0
  147.8663  140.0893  154.3531 C   0  0  2  0  0  0  0  0  0  0  0  0
  148.2558  138.8416  155.1491 C   0  0  0  0  0  0  0  0  0  0  0  0
  147.4008  137.7157  154.5571 C   0  0  0  0  0  0  0  0  0  0  0  0
  146.3659  138.4023  153.7915 N   0  0  0  0  0  0  0  0  0  0  0  0
  145.7278  137.5613  152.7810 C   0  0  0  0  0  0  0  0  0  0  0  0
  144.5713  136.7129  153.3444 C   0  0  0  0  0  0  0  0  0  0  0  0
  144.0755  135.9628  152.3611 F   0  0  0  0  0  0  0  0  0  0  0  0
  144.9883  135.9022  154.3164 F   0  0  0  0  0  0  0  0  0  0  0  0
  143.5992  137.4982  153.8099 F   0  0  0  0  0  0  0  0  0  0  0  0
  147.0681  139.5215  153.1816 C   0  0  0  0  0  0  0  0  0  0  0  0
  151.1494  144.2370  158.4920 C   0  0  0  0  0  0  0  0  0  0  0  0
  152.6691  145.9614  161.0567 H   0  0  0  0  0  0  0  0  0  0  0  0
  150.9397  146.0391  160.7009 H   0  0  0  0  0  0  0  0  0  0  0  0
  152.1126  146.6713  159.5381 H   0  0  0  0  0  0  0  0  0  0  0  0
  153.5356  143.7130  160.8753 H   0  0  0  0  0  0  0  0  0  0  0  0
  154.2369  141.3767  160.7842 H   0  0  0  0  0  0  0  0  0  0  0  0
  154.6517  141.0991  159.0886 H   0  0  0  0  0  0  0  0  0  0  0  0
  153.3000  140.2283  159.8252 H   0  0  0  0  0  0  0  0  0  0  0  0
  149.8071  143.5966  156.5084 H   0  0  0  0  0  0  0  0  0  0  0  0
  148.9585  142.8534  154.8977 H   0  0  0  0  0  0  0  0  0  0  0  0
  148.7853  141.5044  153.0058 H   0  0  0  0  0  0  0  0  0  0  0  0
  149.9253  140.3704  153.7074 H   0  0  0  0  0  0  0  0  0  0  0  0
  147.1823  140.6841  154.9617 H   0  0  0  0  0  0  0  0  0  0  0  0
  149.3149  138.6005  155.0493 H   0  0  0  0  0  0  0  0  0  0  0  0
  148.0480  138.9834  156.2101 H   0  0  0  0  0  0  0  0  0  0  0  0
  148.0113  137.1007  153.8937 H   0  0  0  0  0  0  0  0  0  0  0  0
  146.9785  137.0722  155.3290 H   0  0  0  0  0  0  0  0  0  0  0  0
  145.3215  138.2183  152.0106 H   0  0  0  0  0  0  0  0  0  0  0  0
  146.4664  136.9262  152.2903 H   0  0  0  0  0  0  0  0  0  0  0  0
  146.3796  140.2503  152.7523 H   0  0  0  0  0  0  0  0  0  0  0  0
  147.7357  139.1675  152.3936 H   0  0  0  0  0  0  0  0  0  0  0  0
  150.4600  144.9857  158.1287 H   0  0  0  0  0  0  0  0  0  0  0  0
  1  2  1  0  0  0  0
  1 24  1  0  0  0  0
  1 25  1  0  0  0  0
  1 26  1  0  0  0  0
  2 23  1  0  0  0  0
  2  3  2  0  0  0  0
  3  4  1  0  0  0  0
  3 27  1  0  0  0  0
  4  5  1  0  0  0  0
  4  6  2  0  0  0  0
  5 28  1  0  0  0  0
  5 29  1  0  0  0  0
  5 30  1  0  0  0  0
  6  7  1  0  0  0  0
  7  8  1  0  0  0  0
  7 23  2  0  0  0  0
  8  9  1  0  0  0  0
  8 31  1  0  0  0  0
  9 10  2  0  0  0  0
  9 11  1  0  0  0  0
 11 12  1  0  0  0  0
 11 32  1  0  0  0  0
 12 13  1  0  0  0  0
 12 33  1  0  0  0  0
 12 34  1  0  0  0  0
 13 22  1  0  0  0  0
 13 14  1  0  0  0  0
 13 35  1  0  0  0  0
 14 15  1  0  0  0  0
 14 36  1  0  0  0  0
 14 37  1  0  0  0  0
 15 16  1  0  0  0  0
 15 38  1  0  0  0  0
 15 39  1  0  0  0  0
 16 17  1  0  0  0  0
 16 22  1  0  0  0  0
 17 18  1  0  0  0  0
 17 40  1  0  0  0  0
 17 41  1  0  0  0  0
 18 19  1  0  0  0  0
 18 20  1  0  0  0  0
 18 21  1  0  0  0  0
 22 42  1  0  0  0  0
 22 43  1  0  0  0  0
 23 44  1  0  0  0  0
M  END
> <s_m_source_file>
AV-unprocessed.smi

> <i_m_source_file_index>
2245

> <i_lp_mmshare_version>
43012

> <i_f3d_flags>
0

> <s_epik_input>
W0NIM11jMVtjSF1jKFtDSDNdKW5jKFtjSF0xKVtOSF1DKD1PKVtOSF1bQ0gyXVtDQEBIXTJbQ0gyXVtDSDJdTihbQ0gyXTIpW0NIMl1DKEYpKEYpRg==

> <s_epik_cmdline>
J2VwaWtfcHl0aG9uJywgJy1waCcsICc3LjAnLCAnLXRuJywgJzgnLCAnLW1hJywgJzIwMCcsICctbWV0YWxfYmluZGluZycsICctaW1hZScsICc8aW5maWxlLm1hZT4nLCAnLW9tYWUnLCAnPG91dGZpbGUubWFlPic=

> <r_epik_Ionization_Penalty>
0.252219

> <r_epik_Ionization_Penalty_Charging>
0

> <r_epik_Ionization_Penalty_Neutral>
0.252219

> <r_epik_State_Penalty>
0.24335

> <r_epik_Charging_Adjusted_Penalty>
0.24335

> <i_epik_Tot_Q>
0

> <i_epik_Tot_abs_Q>
0

> <r_epik_Metal_State_Penalty>
0.243337

> <b_epik_Metal_Only>
0

> <s_lp_Force_Field>
OPLS_2005

> <r_lp_Energy>
29.2312

> <b_lp_Chiralities_Consistent>
1

> <s_lp_Variant>
AV-unprocessed.smi:2245-1

> <Gold.Version>
5.8.1

> <Gold.Id.Protein>
6NUR|6NUR_protein|mol2

> <Gold.PLP.Fitness>
46.0904

> <Gold.PLP.PLP>
-41.3529

> <Gold.PLP.part.hbond>
-2.0000

> <Gold.PLP.part.metal>
0.0000

> <Gold.PLP.part.buried>
-3.2547

> <Gold.PLP.part.nonpolar>
-36.6913

> <Gold.PLP.part.repulsive>
0.4519

> <Gold.PLP.ligand.clash>
0.0000

> <Gold.PLP.ligand.torsion>
0.7363

> <Gold.PLP.Chemscore.Hbond>
1.9440

> <Gold.PLP.Chemscore.CHOScore>
0.0000

> <Gold.PLP.Chemscore.Metal>
0.0000

> <Gold.Chemscore.Hbonds>
donor molecule, donor type, donor heavy atom, donor atom, acceptor molecule, acceptor atom, score
      L1  H     8    31       P1  8028  1.00
      L1  H    11    32       P1  8028  0.94

> <Gold.PLP.Chemscore.Internal.Correction>
0.3782

> <Gold.Rescore>
     Score         DG    S(hbond)    S(metal)    S(lipo)     H(rot)  DE(clash)    DE(int)     intcor
     17.48     -19.98       1.91        0.00     104.19       1.58       0.49       2.01       ----

> <Gold.Chemscore.Fitness>
17.4786

> <Gold.Chemscore.DG>
-19.9848

> <Gold.Chemscore.ZeroCoef>
-5.4800

> <Gold.Chemscore.Hbond>
1.9059

> <Gold.Chemscore.Metal>
0.0000

> <Gold.Chemscore.Lipo>
104.1935

> <Gold.Chemscore.Internal_Hbond>
0.0000

> <Gold.Chemscore.DEClash>
0.4924

> <Gold.Chemscore.DEInternal>
2.0139

> <Gold.Chemscore.Rot>
1.5826

> <Gold.Chemscore.Internal.Correction>
   9.000000E+99

> <Gold.Chemscore.Hbonds>
donor molecule, donor type, donor heavy atom, donor atom, acceptor molecule, acceptor atom, score
      L1  H     8    31       P1  8028  1.00
      L1  H    11    32       P1  8028  0.87

> <Gold.Chemscore.Hbond.Weighted>
-6.3656

> <Gold.Chemscore.Metal.Weighted>
-0.0000

> <Gold.Chemscore.Lipo.Weighted>
-12.1906

> <Gold.Chemscore.Internal_Hbond.Weighted>
0.0000

> <Gold.Chemscore.DEClash.Weighted>
0.4924

> <Gold.Chemscore.DEInternal.Weighted>
2.0139

> <Gold.Chemscore.Rot.Weighted>
4.0515

> <Gold.Chemscore.Internal.Correction.Weighted>
   9.000000E+99

> <Gold.Protein.RotatedTorsions>
[ 6907 6896 6895 6894 ] final  124.23 input  -60.11 | X-H torsion
[ 7974 7965 7964 7962 ] final  -56.32 input  175.53 | X-H torsion
[ 8008 7997 7996 7995 ] final  -38.86 input   59.86 | X-H torsion
[ 10167 10162 10161 10158 ] final   89.13 input  -65.29 | X-H torsion
[ 10718 10713 10712 10709 ] final   -8.44 input   66.30 | X-H torsion
[ 10763 10752 10751 10750 ] final   47.38 input  -60.55 | X-H torsion
[ 11005 11000 10999 10996 ] final  -40.87 input  -57.11 | X-H torsion

> <Gold.Protein.ActiveResidues>
 VAL166  LYS551  ARG553  GLY616  TRP617  ASP618  TYR619  PRO620  LYS621  CYS622 
 ASP623  PHE694  ASN695  SER759  ASP760  ASP761  ALA762  ILE779  LEU786  VAL792 
 PHE793  MET794  SER795  GLU796  ALA797  LYS798  CYS799  TRP800  GLU811  SER814 

> <Gold.Protein.RotatedAtoms>
  152.4096  133.6942  159.6385 H   0  0  0  0  0  0  0  0  0  0  0  0  # atno 6907 bound_to 6896
  150.7977  133.8648  159.3251 H   0  0  0  0  0  0  0  0  0  0  0  0  # atno 6908 bound_to 6896
  151.6394  135.1016  160.0189 H   0  0  0  0  0  0  0  0  0  0  0  0  # atno 6909 bound_to 6896
  145.8641  140.8264  142.9922 H   0  0  0  0  0  0  0  0  0  0  0  0  # atno 7974 bound_to 7965
  154.4031  140.1567  156.2768 H   0  0  0  0  0  0  0  0  0  0  0  0  # atno 8008 bound_to 7997
  155.8905  140.3439  155.5930 H   0  0  0  0  0  0  0  0  0  0  0  0  # atno 8009 bound_to 7997
  155.7564  140.0812  157.2167 H   0  0  0  0  0  0  0  0  0  0  0  0  # atno 8010 bound_to 7997
  139.8604  144.6547  150.9065 H   0  0  0  0  0  0  0  0  0  0  0  0  # atno 10167 bound_to 10162
  156.7025  130.5097  149.5913 H   0  0  0  0  0  0  0  0  0  0  0  0  # atno 10718 bound_to 10713
  152.9800  135.5978  154.3754 H   0  0  0  0  0  0  0  0  0  0  0  0  # atno 10763 bound_to 10752
  154.3423  135.2767  155.2418 H   0  0  0  0  0  0  0  0  0  0  0  0  # atno 10764 bound_to 10752
  154.4494  135.5993  153.6236 H   0  0  0  0  0  0  0  0  0  0  0  0  # atno 10765 bound_to 10752
  141.0206  133.6865  156.2381 H   0  0  0  0  0  0  0  0  0  0  0  0  # atno 11005 bound_to 11000
  144.6726  140.1139  143.7454 LP  0  0  0  0  0  0  0  0  0  0  0  0  # atno 17320 bound_to 7965
  145.9214  139.2548  143.1379 LP  0  0  0  0  0  0  0  0  0  0  0  0  # atno 17321 bound_to 7965
  140.7776  143.3749  151.1581 LP  0  0  0  0  0  0  0  0  0  0  0  0  # atno 17342 bound_to 10162
  139.7379  143.8969  152.3041 LP  0  0  0  0  0  0  0  0  0  0  0  0  # atno 17343 bound_to 10162
  156.1718  130.6442  151.0847 LP  0  0  0  0  0  0  0  0  0  0  0  0  # atno 17370 bound_to 10713
  157.6967  131.0791  150.6946 LP  0  0  0  0  0  0  0  0  0  0  0  0  # atno 17371 bound_to 10713
  140.6580  134.4998  157.5581 LP  0  0  0  0  0  0  0  0  0  0  0  0  # atno 17394 bound_to 11000
  139.9143  134.8278  156.1418 LP  0  0  0  0  0  0  0  0  0  0  0  0  # atno 17395 bound_to 11000

$$$$
