AV-unprocessed.smi:2329|AV-procd|sdf|9305|dock4
  -GOLD-   2272012523D 1   1.00000     0.00000
 Structure written by MMmdl.
 45 48  0  0  0  0  0  0  0  0  1 V2000
  144.4461  136.7207  162.6038 C   0  0  0  0  0  0  0  0  0  0  0  0
  145.7264  136.2133  161.9748 C   0  0  0  0  0  0  0  0  0  0  0  0
  146.3485  135.0388  162.4419 C   0  0  0  0  0  0  0  0  0  0  0  0
  147.5343  134.6213  161.8117 C   0  0  0  0  0  0  0  0  0  0  0  0
  148.0457  135.3897  160.7484 C   0  0  0  0  0  0  0  0  0  0  0  0
  147.3604  136.5567  160.3424 C   0  0  0  0  0  0  0  0  0  0  0  0
  147.9592  137.2593  159.2650 N   0  0  0  0  0  0  0  0  0  0  0  0
  149.2653  137.3566  158.9488 C   0  0  0  0  0  0  0  0  0  0  0  0
  150.1814  136.8247  159.5734 O   0  0  0  0  0  0  0  0  0  0  0  0
  149.5064  138.0918  157.8489 N   0  0  0  0  0  0  0  0  0  0  0  0
  150.8060  138.3889  157.2434 C   0  0  1  0  0  0  0  0  0  0  0  0
  150.6818  138.7137  155.7459 C   0  0  2  0  0  0  0  0  0  0  0  0
  151.2944  137.7923  154.7270 C   0  0  0  0  0  0  0  0  0  0  0  0
  152.6514  138.4449  154.4499 C   0  0  0  0  0  0  0  0  0  0  0  0
  152.9060  139.2463  155.6013 O   0  0  0  0  0  0  0  0  0  0  0  0
  151.6710  139.8426  155.9907 C   0  0  2  0  0  0  0  0  0  0  0  0
  151.3334  139.8232  157.4967 C   0  0  0  0  0  0  0  0  0  0  0  0
  150.3661  140.9139  157.9627 C   0  0  0  0  0  0  0  0  0  0  0  0
  151.2294  142.1139  158.3487 C   0  0  0  0  0  0  0  0  0  0  0  0
  152.5610  141.5168  158.8127 C   0  0  0  0  0  0  0  0  0  0  0  0
  152.4957  140.0236  158.4692 C   0  0  0  0  0  0  0  0  0  0  0  0
  146.2167  136.9509  160.9554 N   0  0  0  0  0  0  0  0  0  0  0  0
  144.1696  136.1250  163.4742 H   0  0  0  0  0  0  0  0  0  0  0  0
  143.6274  136.6747  161.8851 H   0  0  0  0  0  0  0  0  0  0  0  0
  144.5648  137.7562  162.9244 H   0  0  0  0  0  0  0  0  0  0  0  0
  145.9309  134.4711  163.2604 H   0  0  0  0  0  0  0  0  0  0  0  0
  148.0439  133.7267  162.1381 H   0  0  0  0  0  0  0  0  0  0  0  0
  148.9562  135.0835  160.2540 H   0  0  0  0  0  0  0  0  0  0  0  0
  147.3180  137.7392  158.6508 H   0  0  0  0  0  0  0  0  0  0  0  0
  148.6997  138.4600  157.3658 H   0  0  0  0  0  0  0  0  0  0  0  0
  151.5705  137.6302  157.4264 H   0  0  0  0  0  0  0  0  0  0  0  0
  149.6960  139.0990  155.4786 H   0  0  0  0  0  0  0  0  0  0  0  0
  151.4217  136.7893  155.1360 H   0  0  0  0  0  0  0  0  0  0  0  0
  150.6949  137.7106  153.8201 H   0  0  0  0  0  0  0  0  0  0  0  0
  153.4444  137.7153  154.2843 H   0  0  0  0  0  0  0  0  0  0  0  0
  152.5933  139.0925  153.5737 H   0  0  0  0  0  0  0  0  0  0  0  0
  151.4398  140.7639  155.4537 H   0  0  0  0  0  0  0  0  0  0  0  0
  149.6304  141.1777  157.2023 H   0  0  0  0  0  0  0  0  0  0  0  0
  149.8112  140.5858  158.8423 H   0  0  0  0  0  0  0  0  0  0  0  0
  151.3964  142.7427  157.4733 H   0  0  0  0  0  0  0  0  0  0  0  0
  150.7581  142.7313  159.1138 H   0  0  0  0  0  0  0  0  0  0  0  0
  153.3921  141.9999  158.2975 H   0  0  0  0  0  0  0  0  0  0  0  0
  152.7114  141.6598  159.8834 H   0  0  0  0  0  0  0  0  0  0  0  0
  152.3210  139.4550  159.3826 H   0  0  0  0  0  0  0  0  0  0  0  0
  153.4458  139.6720  158.0665 H   0  0  0  0  0  0  0  0  0  0  0  0
  1  2  1  0  0  0  0
  1 23  1  0  0  0  0
  1 24  1  0  0  0  0
  1 25  1  0  0  0  0
  2 22  1  0  0  0  0
  2  3  2  0  0  0  0
  3  4  1  0  0  0  0
  3 26  1  0  0  0  0
  4  5  2  0  0  0  0
  4 27  1  0  0  0  0
  5  6  1  0  0  0  0
  5 28  1  0  0  0  0
  6  7  1  0  0  0  0
  6 22  2  0  0  0  0
  7  8  1  0  0  0  0
  7 29  1  0  0  0  0
  8  9  2  0  0  0  0
  8 10  1  0  0  0  0
 10 11  1  0  0  0  0
 10 30  1  0  0  0  0
 11 17  1  0  0  0  0
 11 12  1  0  0  0  0
 11 31  1  0  0  0  0
 12 16  1  0  0  0  0
 12 13  1  0  0  0  0
 12 32  1  0  0  0  0
 13 14  1  0  0  0  0
 13 33  1  0  0  0  0
 13 34  1  0  0  0  0
 14 15  1  0  0  0  0
 14 35  1  0  0  0  0
 14 36  1  0  0  0  0
 15 16  1  0  0  0  0
 16 17  1  0  0  0  0
 16 37  1  0  0  0  0
 17 21  1  0  0  0  0
 17 18  1  0  0  0  0
 18 19  1  0  0  0  0
 18 38  1  0  0  0  0
 18 39  1  0  0  0  0
 19 20  1  0  0  0  0
 19 40  1  0  0  0  0
 19 41  1  0  0  0  0
 20 21  1  0  0  0  0
 20 42  1  0  0  0  0
 20 43  1  0  0  0  0
 21 44  1  0  0  0  0
 21 45  1  0  0  0  0
M  END
> <s_m_source_file>
AV-unprocessed.smi

> <i_m_source_file_index>
2329

> <i_lp_mmshare_version>
43012

> <i_f3d_flags>
0

> <s_epik_input>
W0NIM11jMVtjSF1bY0hdW2NIXWMobjEpW05IXUMoPU8pW05IXVtDQEBIXTJbQ0BASF0oW0NIMl1bQ0gyXU8zKVtDQEhdM0MyNFtDSDJdW0NIMl1bQ0gyXVtDSDJdNA==

> <s_epik_cmdline>
J2VwaWtfcHl0aG9uJywgJy1waCcsICc3LjAnLCAnLXRuJywgJzgnLCAnLW1hJywgJzIwMCcsICctbWV0YWxfYmluZGluZycsICctaW1hZScsICc8aW5maWxlLm1hZT4nLCAnLW9tYWUnLCAnPG91dGZpbGUubWFlPic=

> <r_lp_tautomer_probability>
1

> <r_epik_Ionization_Penalty>
8.97002e-05

> <r_epik_Ionization_Penalty_Charging>
0

> <r_epik_Ionization_Penalty_Neutral>
8.97002e-05

> <r_epik_State_Penalty>
-0

> <r_epik_Charging_Adjusted_Penalty>
0

> <i_epik_Tot_Q>
0

> <i_epik_Tot_abs_Q>
0

> <r_epik_Metal_State_Penalty>
-0

> <b_epik_Metal_Only>
0

> <s_lp_Force_Field>
OPLS_2005

> <r_lp_Energy>
64.4638

> <b_lp_Chiralities_Consistent>
1

> <s_lp_Variant>
AV-unprocessed.smi:2329-4

> <Gold.Version>
5.8.1

> <Gold.Id.Protein>
6NUR|6NUR_protein|mol2

> <Gold.PLP.Fitness>
42.8042

> <Gold.PLP.PLP>
-37.2784

> <Gold.PLP.part.hbond>
-2.1733

> <Gold.PLP.part.metal>
0.0000

> <Gold.PLP.part.buried>
-7.5897

> <Gold.PLP.part.nonpolar>
-28.5675

> <Gold.PLP.part.repulsive>
0.2524

> <Gold.PLP.ligand.clash>
0.0000

> <Gold.PLP.ligand.torsion>
0.4743

> <Gold.PLP.Chemscore.Hbond>
2.0969

> <Gold.PLP.Chemscore.CHOScore>
0.0000

> <Gold.PLP.Chemscore.Metal>
0.0000

> <Gold.Chemscore.Hbonds>
donor molecule, donor type, donor heavy atom, donor atom, acceptor molecule, acceptor atom, score
      P1  H  6896  6909       L1     9  1.00
      P1  H  6934  6947       L1    22  0.09
      P1  H  7997  8008       L1    15  1.00

> <Gold.PLP.Chemscore.Internal.Correction>
0.1838

> <Gold.Rescore>
     Score         DG    S(hbond)    S(metal)    S(lipo)     H(rot)  DE(clash)    DE(int)     intcor
     19.27     -21.15       1.97        0.00      99.53       1.00       0.06       1.81       ----

> <Gold.Chemscore.Fitness>
19.2748

> <Gold.Chemscore.DG>
-21.1450

> <Gold.Chemscore.ZeroCoef>
-5.4800

> <Gold.Chemscore.Hbond>
1.9701

> <Gold.Chemscore.Metal>
0.0000

> <Gold.Chemscore.Lipo>
99.5302

> <Gold.Chemscore.Internal_Hbond>
0.0000

> <Gold.Chemscore.DEClash>
0.0638

> <Gold.Chemscore.DEInternal>
1.8064

> <Gold.Chemscore.Rot>
1.0000

> <Gold.Chemscore.Internal.Correction>
   9.000000E+99

> <Gold.Chemscore.Hbonds>
donor molecule, donor type, donor heavy atom, donor atom, acceptor molecule, acceptor atom, score
      P1  H  6896  6909       L1     9  0.97
      P1  H  7997  8008       L1    15  0.93

> <Gold.Chemscore.Hbond.Weighted>
-6.5800

> <Gold.Chemscore.Metal.Weighted>
-0.0000

> <Gold.Chemscore.Lipo.Weighted>
-11.6450

> <Gold.Chemscore.Internal_Hbond.Weighted>
0.0000

> <Gold.Chemscore.DEClash.Weighted>
0.0638

> <Gold.Chemscore.DEInternal.Weighted>
1.8064

> <Gold.Chemscore.Rot.Weighted>
2.5600

> <Gold.Chemscore.Internal.Correction.Weighted>
   9.000000E+99

> <Gold.Protein.RotatedTorsions>
[ 6907 6896 6895 6894 ] final   86.44 input  -60.11 | X-H torsion
[ 7974 7965 7964 7962 ] final   93.25 input  175.53 | X-H torsion
[ 8008 7997 7996 7995 ] final  -25.24 input   59.86 | X-H torsion
[ 10167 10162 10161 10158 ] final  -74.35 input  -65.29 | X-H torsion
[ 10718 10713 10712 10709 ] final  114.75 input   66.30 | X-H torsion
[ 10763 10752 10751 10750 ] final   33.75 input  -60.55 | X-H torsion
[ 11005 11000 10999 10996 ] final   42.65 input  -57.11 | X-H torsion

> <Gold.Protein.ActiveResidues>
 VAL166  LYS551  ARG553  GLY616  TRP617  ASP618  TYR619  PRO620  LYS621  CYS622 
 ASP623  PHE694  ASN695  SER759  ASP760  ASP761  ALA762  ILE779  LEU786  VAL792 
 PHE793  MET794  SER795  GLU796  ALA797  LYS798  CYS799  TRP800  GLU811  SER814 

> <Gold.Protein.RotatedAtoms>
  152.5394  134.2430  159.8869 H   0  0  0  0  0  0  0  0  0  0  0  0  # atno 6907 bound_to 6896
  151.2397  133.4399  159.2614 H   0  0  0  0  0  0  0  0  0  0  0  0  # atno 6908 bound_to 6896
  151.0638  134.9768  159.8330 H   0  0  0  0  0  0  0  0  0  0  0  0  # atno 6909 bound_to 6896
  145.4815  139.2278  143.2880 H   0  0  0  0  0  0  0  0  0  0  0  0  # atno 7974 bound_to 7965
  154.4486  140.1932  156.0588 H   0  0  0  0  0  0  0  0  0  0  0  0  # atno 8008 bound_to 7997
  156.0598  140.3298  155.7421 H   0  0  0  0  0  0  0  0  0  0  0  0  # atno 8009 bound_to 7997
  155.5428  140.0588  157.2857 H   0  0  0  0  0  0  0  0  0  0  0  0  # atno 8010 bound_to 7997
  140.5034  143.2357  151.7714 H   0  0  0  0  0  0  0  0  0  0  0  0  # atno 10167 bound_to 10162
  157.6263  131.1003  150.7231 H   0  0  0  0  0  0  0  0  0  0  0  0  # atno 10718 bound_to 10713
  153.0197  135.6379  154.1560 H   0  0  0  0  0  0  0  0  0  0  0  0  # atno 10763 bound_to 10752
  154.1296  135.2841  155.3190 H   0  0  0  0  0  0  0  0  0  0  0  0  # atno 10764 bound_to 10752
  154.6204  135.5526  153.7631 H   0  0  0  0  0  0  0  0  0  0  0  0  # atno 10765 bound_to 10752
  140.1719  134.4211  155.8252 H   0  0  0  0  0  0  0  0  0  0  0  0  # atno 11005 bound_to 11000
  146.2338  140.5602  142.8964 LP  0  0  0  0  0  0  0  0  0  0  0  0  # atno 17320 bound_to 7965
  144.7886  140.5987  143.6557 LP  0  0  0  0  0  0  0  0  0  0  0  0  # atno 17321 bound_to 7965
  139.4877  144.4490  151.9676 LP  0  0  0  0  0  0  0  0  0  0  0  0  # atno 17342 bound_to 10162
  140.3580  144.3008  150.5938 LP  0  0  0  0  0  0  0  0  0  0  0  0  # atno 17343 bound_to 10162
  156.7578  130.4789  149.5443 LP  0  0  0  0  0  0  0  0  0  0  0  0  # atno 17370 bound_to 10713
  156.1437  130.6262  151.0502 LP  0  0  0  0  0  0  0  0  0  0  0  0  # atno 17371 bound_to 10713
  141.2218  133.6960  156.7779 LP  0  0  0  0  0  0  0  0  0  0  0  0  # atno 17394 bound_to 11000
  140.2367  134.8645  157.3532 LP  0  0  0  0  0  0  0  0  0  0  0  0  # atno 17395 bound_to 11000

$$$$
