AV-unprocessed.smi:1795|AV-procd|sdf|7240|dock9
  -GOLD-   22720 8493D 1   1.00000     0.00000
 Structure written by MMmdl.
 47 48  0  0  0  0  0  0  0  0  1 V2000
  144.7084  145.3014  153.3910 C   0  0  0  0  0  0  0  0  0  0  0  0
  144.6988  144.0271  154.2421 C   0  0  1  0  0  0  0  0  0  0  0  0
  145.9430  143.1545  153.9904 C   0  0  0  0  0  0  0  0  0  0  0  0
  146.0002  141.9691  154.8535 N   0  0  0  0  0  0  0  0  0  0  0  0
  147.2220  141.1613  154.6282 C   0  0  1  0  0  0  0  0  0  0  0  0
  147.0524  140.1166  153.4962 C   0  0  0  0  0  0  0  0  0  0  0  0
  148.4857  142.0184  154.3256 C   0  0  0  0  0  0  0  0  0  0  0  0
  149.6880  141.5306  154.9959 N   0  0  0  0  0  0  0  0  0  0  0  0
  149.8210  141.3822  156.3227 C   0  0  0  0  0  0  0  0  0  0  0  0
  148.9174  141.6325  157.1217 O   0  0  0  0  0  0  0  0  0  0  0  0
  151.1771  140.8513  156.8094 C   0  0  0  0  0  0  0  0  0  0  0  0
  151.7694  141.6665  157.8833 N   0  0  0  0  0  0  0  0  0  0  0  0
  151.2742  142.9762  158.0429 C   0  0  0  0  0  0  0  0  0  0  0  0
  151.7458  143.8030  158.9895 C   0  0  0  0  0  0  0  0  0  0  0  0
  152.7905  143.3185  159.8604 C   0  0  0  0  0  0  0  0  0  0  0  0
  153.2745  142.0690  159.7136 C   0  0  0  0  0  0  0  0  0  0  0  0
  152.7638  141.1628  158.6782 C   0  0  0  0  0  0  0  0  0  0  0  0
  153.2025  140.0212  158.5346 O   0  0  0  0  0  0  0  0  0  0  0  0
  145.8778  142.4202  156.2444 C   0  0  0  0  0  0  0  0  0  0  0  0
  144.6299  143.2895  156.4892 C   0  0  1  0  0  0  0  0  0  0  0  0
  144.5613  143.8121  157.9280 C   0  0  0  0  0  0  0  0  0  0  0  0
  144.6626  144.4074  155.6115 O   0  0  0  0  0  0  0  0  0  0  0  0
  144.7214  145.0630  152.3272 H   0  0  0  0  0  0  0  0  0  0  0  0
  145.5847  145.9132  153.6078 H   0  0  0  0  0  0  0  0  0  0  0  0
  143.8229  145.9069  153.5854 H   0  0  0  0  0  0  0  0  0  0  0  0
  143.7982  143.4566  154.0083 H   0  0  0  0  0  0  0  0  0  0  0  0
  145.9131  142.8661  152.9422 H   0  0  0  0  0  0  0  0  0  0  0  0
  146.8439  143.7544  154.1297 H   0  0  0  0  0  0  0  0  0  0  0  0
  147.4225  140.6045  155.5449 H   0  0  0  0  0  0  0  0  0  0  0  0
  147.9725  139.5697  153.2940 H   0  0  0  0  0  0  0  0  0  0  0  0
  146.7429  140.5914  152.5646 H   0  0  0  0  0  0  0  0  0  0  0  0
  146.3175  139.3530  153.7471 H   0  0  0  0  0  0  0  0  0  0  0  0
  148.6753  142.0328  153.2517 H   0  0  0  0  0  0  0  0  0  0  0  0
  148.3650  143.0575  154.6272 H   0  0  0  0  0  0  0  0  0  0  0  0
  150.4756  141.2965  154.4088 H   0  0  0  0  0  0  0  0  0  0  0  0
  151.0373  139.8219  157.1421 H   0  0  0  0  0  0  0  0  0  0  0  0
  151.8671  140.7871  155.9657 H   0  0  0  0  0  0  0  0  0  0  0  0
  150.4995  143.2642  157.3473 H   0  0  0  0  0  0  0  0  0  0  0  0
  151.3573  144.8054  159.0941 H   0  0  0  0  0  0  0  0  0  0  0  0
  153.1866  143.9614  160.6324 H   0  0  0  0  0  0  0  0  0  0  0  0
  154.0570  141.7245  160.3735 H   0  0  0  0  0  0  0  0  0  0  0  0
  145.8082  141.5667  156.9167 H   0  0  0  0  0  0  0  0  0  0  0  0
  146.7716  142.9772  156.5306 H   0  0  0  0  0  0  0  0  0  0  0  0
  143.7308  142.7043  156.2869 H   0  0  0  0  0  0  0  0  0  0  0  0
  144.5222  142.9901  158.6428 H   0  0  0  0  0  0  0  0  0  0  0  0
  143.6718  144.4245  158.0773 H   0  0  0  0  0  0  0  0  0  0  0  0
  145.4314  144.4241  158.1677 H   0  0  0  0  0  0  0  0  0  0  0  0
  1  2  1  0  0  0  0
  1 23  1  0  0  0  0
  1 24  1  0  0  0  0
  1 25  1  0  0  0  0
  2 22  1  0  0  0  0
  2  3  1  0  0  0  0
  2 26  1  0  0  0  0
  3  4  1  0  0  0  0
  3 27  1  0  0  0  0
  3 28  1  0  0  0  0
  4  5  1  0  0  0  0
  4 19  1  0  0  0  0
  5  6  1  0  0  0  0
  5  7  1  0  0  0  0
  5 29  1  0  0  0  0
  6 30  1  0  0  0  0
  6 31  1  0  0  0  0
  6 32  1  0  0  0  0
  7  8  1  0  0  0  0
  7 33  1  0  0  0  0
  7 34  1  0  0  0  0
  8  9  1  0  0  0  0
  8 35  1  0  0  0  0
  9 10  2  0  0  0  0
  9 11  1  0  0  0  0
 11 12  1  0  0  0  0
 11 36  1  0  0  0  0
 11 37  1  0  0  0  0
 12 17  1  0  0  0  0
 12 13  1  0  0  0  0
 13 14  2  0  0  0  0
 13 38  1  0  0  0  0
 14 15  1  0  0  0  0
 14 39  1  0  0  0  0
 15 16  2  0  0  0  0
 15 40  1  0  0  0  0
 16 17  1  0  0  0  0
 16 41  1  0  0  0  0
 17 18  2  0  0  0  0
 19 20  1  0  0  0  0
 19 42  1  0  0  0  0
 19 43  1  0  0  0  0
 20 21  1  0  0  0  0
 20 22  1  0  0  0  0
 20 44  1  0  0  0  0
 21 45  1  0  0  0  0
 21 46  1  0  0  0  0
 21 47  1  0  0  0  0
M  END
> <s_m_source_file>
AV-unprocessed.smi

> <i_m_source_file_index>
1795

> <i_lp_mmshare_version>
43012

> <i_f3d_flags>
0

> <s_epik_input>
W0NIM11bQ0BASF0xW0NIMl1OKFtDSDJdW0NASF0oTzEpW0NIM10pW0NASF0oW0NIM10pW0NIMl1bTkhdQyg9TylbQ0gyXW4yW2NIXVtjSF1bY0hdW2NIXWMyPU8=

> <s_epik_cmdline>
J2VwaWtfcHl0aG9uJywgJy1waCcsICc3LjAnLCAnLXRuJywgJzgnLCAnLW1hJywgJzIwMCcsICctbWV0YWxfYmluZGluZycsICctaW1hZScsICc8aW5maWxlLm1hZT4nLCAnLW9tYWUnLCAnPG91dGZpbGUubWFlPic=

> <r_lp_tautomer_probability>
1

> <r_epik_Ionization_Penalty>
0.237383

> <r_epik_Ionization_Penalty_Charging>
3.58805e-07

> <r_epik_Ionization_Penalty_Neutral>
0.237382

> <r_epik_State_Penalty>
0.228245

> <r_epik_Charging_Adjusted_Penalty>
0.228245

> <i_epik_Tot_Q>
0

> <i_epik_Tot_abs_Q>
0

> <r_epik_Metal_State_Penalty>
0.228221

> <b_epik_Metal_Only>
0

> <s_lp_Force_Field>
OPLS_2005

> <r_lp_Energy>
36.5227

> <b_lp_Chiralities_Consistent>
1

> <s_lp_Variant>
AV-unprocessed.smi:1795-4

> <Gold.Version>
5.8.1

> <Gold.Id.Protein>
6NUR|6NUR_protein|mol2

> <Gold.PLP.Fitness>
43.0784

> <Gold.PLP.PLP>
-40.9388

> <Gold.PLP.part.hbond>
-1.0000

> <Gold.PLP.part.metal>
0.0000

> <Gold.PLP.part.buried>
-1.4297

> <Gold.PLP.part.nonpolar>
-37.1679

> <Gold.PLP.part.repulsive>
0.6307

> <Gold.PLP.ligand.clash>
0.0000

> <Gold.PLP.ligand.torsion>
1.4646

> <Gold.PLP.Chemscore.Hbond>
0.8746

> <Gold.PLP.Chemscore.CHOScore>
0.7964

> <Gold.PLP.Chemscore.Metal>
0.0000

> <Gold.Chemscore.Hbonds>
donor molecule, donor type, donor heavy atom, donor atom, acceptor molecule, acceptor atom, score
      P1  H  7997  8009       L1    18  0.96
      L1  C    13    38       P1  8028  0.48

> <Gold.PLP.Chemscore.Internal.Correction>
0.0557

> <Gold.Rescore>
     Score         DG    S(hbond)    S(metal)    S(lipo)     H(rot)  DE(clash)    DE(int)     intcor
     11.52     -15.40       0.85        0.00     100.37       1.83       0.43       3.44       ----

> <Gold.Chemscore.Fitness>
11.5221

> <Gold.Chemscore.DG>
-15.3987

> <Gold.Chemscore.ZeroCoef>
-5.4800

> <Gold.Chemscore.Hbond>
0.8527

> <Gold.Chemscore.Metal>
0.0000

> <Gold.Chemscore.Lipo>
100.3674

> <Gold.Chemscore.Internal_Hbond>
0.0000

> <Gold.Chemscore.DEClash>
0.4332

> <Gold.Chemscore.DEInternal>
3.4434

> <Gold.Chemscore.Rot>
1.8251

> <Gold.Chemscore.Internal.Correction>
   9.000000E+99

> <Gold.Chemscore.Hbonds>
donor molecule, donor type, donor heavy atom, donor atom, acceptor molecule, acceptor atom, score
      P1  H  7997  8009       L1    18  0.61

> <Gold.Chemscore.Hbond.Weighted>
-2.8481

> <Gold.Chemscore.Metal.Weighted>
-0.0000

> <Gold.Chemscore.Lipo.Weighted>
-11.7430

> <Gold.Chemscore.Internal_Hbond.Weighted>
0.0000

> <Gold.Chemscore.DEClash.Weighted>
0.4332

> <Gold.Chemscore.DEInternal.Weighted>
3.4434

> <Gold.Chemscore.Rot.Weighted>
4.6724

> <Gold.Chemscore.Internal.Correction.Weighted>
   9.000000E+99

> <Gold.Protein.RotatedTorsions>
[ 6907 6896 6895 6894 ] final -122.79 input  -60.11 | X-H torsion
[ 7974 7965 7964 7962 ] final -129.61 input  175.53 | X-H torsion
[ 8008 7997 7996 7995 ] final  145.73 input   59.86 | X-H torsion
[ 10167 10162 10161 10158 ] final   22.35 input  -65.29 | X-H torsion
[ 10718 10713 10712 10709 ] final  -58.45 input   66.30 | X-H torsion
[ 10763 10752 10751 10750 ] final   26.03 input  -60.55 | X-H torsion
[ 11005 11000 10999 10996 ] final   34.65 input  -57.11 | X-H torsion

> <Gold.Protein.ActiveResidues>
 VAL166  LYS551  ARG553  GLY616  TRP617  ASP618  TYR619  PRO620  LYS621  CYS622 
 ASP623  PHE694  ASN695  SER759  ASP760  ASP761  ALA762  ILE779  LEU786  VAL792 
 PHE793  MET794  SER795  GLU796  ALA797  LYS798  CYS799  TRP800  GLU811  SER814 

> <Gold.Protein.RotatedAtoms>
  150.8609  133.7645  159.2992 H   0  0  0  0  0  0  0  0  0  0  0  0  # atno 6907 bound_to 6896
  151.5287  135.1066  159.9907 H   0  0  0  0  0  0  0  0  0  0  0  0  # atno 6908 bound_to 6896
  152.4625  133.7809  159.6906 H   0  0  0  0  0  0  0  0  0  0  0  0  # atno 6909 bound_to 6896
  144.9555  140.7391  143.4761 H   0  0  0  0  0  0  0  0  0  0  0  0  # atno 7974 bound_to 7965
  156.2875  140.2201  156.5263 H   0  0  0  0  0  0  0  0  0  0  0  0  # atno 8008 bound_to 7997
  154.7486  140.0482  157.0896 H   0  0  0  0  0  0  0  0  0  0  0  0  # atno 8009 bound_to 7997
  155.0138  140.3116  155.4822 H   0  0  0  0  0  0  0  0  0  0  0  0  # atno 8010 bound_to 7997
  140.5355  143.9768  150.6489 H   0  0  0  0  0  0  0  0  0  0  0  0  # atno 10167 bound_to 10162
  156.1135  130.4173  150.0578 H   0  0  0  0  0  0  0  0  0  0  0  0  # atno 10718 bound_to 10713
  153.0650  135.6569  154.0374 H   0  0  0  0  0  0  0  0  0  0  0  0  # atno 10763 bound_to 10752
  154.0033  135.2935  155.3402 H   0  0  0  0  0  0  0  0  0  0  0  0  # atno 10764 bound_to 10752
  154.7005  135.5246  153.8588 H   0  0  0  0  0  0  0  0  0  0  0  0  # atno 10765 bound_to 10752
  140.2507  134.3306  155.7891 H   0  0  0  0  0  0  0  0  0  0  0  0  # atno 11005 bound_to 11000
  145.2779  139.1929  143.4807 LP  0  0  0  0  0  0  0  0  0  0  0  0  # atno 17320 bound_to 7965
  146.3336  140.2736  142.8607 LP  0  0  0  0  0  0  0  0  0  0  0  0  # atno 17321 bound_to 7965
  140.3154  143.3171  152.0837 LP  0  0  0  0  0  0  0  0  0  0  0  0  # atno 17342 bound_to 10162
  139.4969  144.6609  151.6467 LP  0  0  0  0  0  0  0  0  0  0  0  0  # atno 17343 bound_to 10162
  156.8536  130.9467  151.3623 LP  0  0  0  0  0  0  0  0  0  0  0  0  # atno 17370 bound_to 10713
  157.6317  130.8734  149.9285 LP  0  0  0  0  0  0  0  0  0  0  0  0  # atno 17371 bound_to 10713
  141.2201  133.7352  156.9032 LP  0  0  0  0  0  0  0  0  0  0  0  0  # atno 17394 bound_to 11000
  140.1561  134.9197  157.2655 LP  0  0  0  0  0  0  0  0  0  0  0  0  # atno 17395 bound_to 11000

$$$$
