AV-unprocessed.smi:2134|AV-procd|sdf|8697|dock6
  -GOLD-   2272011453D 1   1.00000     0.00000
 Structure written by MMmdl.
 35 36  0  0  0  0  0  0  0  0  3 V2000
  153.9027  136.8008  164.1123 C   0  0  0  0  0  0  0  0  0  0  0  0
  154.2899  136.4614  162.7435 N   0  0  0  0  0  0  0  0  0  0  0  0
  154.0347  137.4667  161.8345 N   0  0  0  0  0  0  0  0  0  0  0  0
  154.5148  137.4543  160.6298 C   0  0  0  0  0  0  0  0  0  0  0  0
  154.2261  138.5952  159.7112 C   0  0  0  0  0  0  0  0  0  0  0  0
  154.8069  138.5561  158.6200 O   0  0  0  0  0  0  0  0  0  0  0  0
  153.3758  139.5757  160.1384 N   0  5  0  0  0  0  0  0  0  0  0  0
  152.7902  140.6169  159.2938 C   0  0  0  0  0  0  0  0  0  0  0  0
  153.3197  142.0008  159.7295 C   0  0  0  0  0  0  0  0  0  0  0  0
  152.3723  143.1585  159.4300 C   0  0  0  0  0  0  0  0  0  0  0  0
  152.1106  144.1519  160.4016 C   0  0  0  0  0  0  0  0  0  0  0  0
  151.2226  145.2043  160.0961 C   0  0  0  0  0  0  0  0  0  0  0  0
  150.6156  145.2432  158.8242 C   0  0  0  0  0  0  0  0  0  0  0  0
  150.8924  144.2815  157.9170 N   0  3  0  0  0  0  0  0  0  0  0  0
  151.7391  143.2602  158.1694 C   0  0  0  0  0  0  0  0  0  0  0  0
  155.4005  136.3106  160.1714 C   0  0  0  0  0  0  0  0  0  0  0  0
  155.1069  135.0072  160.9392 C   0  0  0  0  0  0  0  0  0  0  0  0
  154.8293  135.2573  162.4241 C   0  0  0  0  0  0  0  0  0  0  0  0
  155.0785  134.3728  163.2432 O   0  0  0  0  0  0  0  0  0  0  0  0
  154.0489  135.9896  164.8266 H   0  0  0  0  0  0  0  0  0  0  0  0
  152.8481  137.0769  164.1468 H   0  0  0  0  0  0  0  0  0  0  0  0
  154.4838  137.6547  164.4624 H   0  0  0  0  0  0  0  0  0  0  0  0
  153.0238  140.4706  158.2382 H   0  0  0  0  0  0  0  0  0  0  0  0
  151.7022  140.6186  159.3629 H   0  0  0  0  0  0  0  0  0  0  0  0
  153.5190  141.9858  160.8014 H   0  0  0  0  0  0  0  0  0  0  0  0
  154.2807  142.1974  159.2519 H   0  0  0  0  0  0  0  0  0  0  0  0
  152.5792  144.1031  161.3738 H   0  0  0  0  0  0  0  0  0  0  0  0
  151.0070  145.9672  160.8294 H   0  0  0  0  0  0  0  0  0  0  0  0
  149.9212  146.0077  158.5081 H   0  0  0  0  0  0  0  0  0  0  0  0
  151.8714  142.5465  157.3690 H   0  0  0  0  0  0  0  0  0  0  0  0
  155.2608  136.1165  159.1075 H   0  0  0  0  0  0  0  0  0  0  0  0
  156.4464  136.5920  160.2994 H   0  0  0  0  0  0  0  0  0  0  0  0
  154.2244  134.5244  160.5180 H   0  0  0  0  0  0  0  0  0  0  0  0
  155.9337  134.3056  160.8244 H   0  0  0  0  0  0  0  0  0  0  0  0
  150.4403  144.3248  157.0036 H   0  0  0  0  0  0  0  0  0  0  0  0
  1  2  1  0  0  0  0
  1 20  1  0  0  0  0
  1 21  1  0  0  0  0
  1 22  1  0  0  0  0
  2 18  1  0  0  0  0
  2  3  1  0  0  0  0
  3  4  2  0  0  0  0
  4  5  1  0  0  0  0
  4 16  1  0  0  0  0
  5  6  2  0  0  0  0
  5  7  1  0  0  0  0
  7  8  1  0  0  0  0
  8  9  1  0  0  0  0
  8 23  1  0  0  0  0
  8 24  1  0  0  0  0
  9 10  1  0  0  0  0
  9 25  1  0  0  0  0
  9 26  1  0  0  0  0
 10 15  1  0  0  0  0
 10 11  2  0  0  0  0
 11 12  1  0  0  0  0
 11 27  1  0  0  0  0
 12 13  2  0  0  0  0
 12 28  1  0  0  0  0
 13 14  1  0  0  0  0
 13 29  1  0  0  0  0
 14 15  2  0  0  0  0
 14 35  1  0  0  0  0
 15 30  1  0  0  0  0
 16 17  1  0  0  0  0
 16 31  1  0  0  0  0
 16 32  1  0  0  0  0
 17 18  1  0  0  0  0
 17 33  1  0  0  0  0
 17 34  1  0  0  0  0
 18 19  2  0  0  0  0
M  CHG  1   7  -1
M  CHG  1  14   1
M  END
> <s_m_source_file>
AV-unprocessed.smi

> <i_m_source_file_index>
2134

> <i_lp_mmshare_version>
43012

> <i_f3d_flags>
0

> <s_epik_input>
Tz1DMVtDSDJdW0NIMl1DKD1OTjFbQ0gzXSlDKD1PKVtOSF1bQ0gyXVtDSDJdYzJbY0hdW2NIXVtjSF1uW2NIXTI=

> <s_epik_cmdline>
J2VwaWtfcHl0aG9uJywgJy1waCcsICc3LjAnLCAnLXRuJywgJzgnLCAnLW1hJywgJzIwMCcsICctbWV0YWxfYmluZGluZycsICctaW1hZScsICc8aW5maWxlLm1hZT4nLCAnLW9tYWUnLCAnPG91dGZpbGUubWFlPic=

> <r_epik_Ionization_Penalty>
7.05425

> <r_epik_Ionization_Penalty_Charging>
7.05425

> <r_epik_Ionization_Penalty_Neutral>
3.33049e-09

> <r_epik_State_Penalty>
7.67337

> <r_epik_Charging_Adjusted_Penalty>
14.7276

> <i_epik_Tot_Q>
0

> <i_epik_Tot_abs_Q>
2

> <r_epik_Metal_State_Penalty>
3.75463

> <b_epik_Metal_Only>
1

> <s_epik_Chemistry_Notes>
This compound has an imine and may undergo hydrolysis.

> <s_lp_Force_Field>
OPLS_2005

> <r_lp_Energy>
23.3893

> <b_lp_Chiralities_Consistent>
1

> <s_lp_Variant>
AV-unprocessed.smi:2134-4

> <Gold.Version>
5.8.1

> <Gold.Id.Protein>
6NUR|6NUR_protein|mol2

> <Gold.PLP.Fitness>
46.8656

> <Gold.PLP.PLP>
-38.6132

> <Gold.PLP.part.hbond>
-2.0000

> <Gold.PLP.part.metal>
0.0000

> <Gold.PLP.part.buried>
-5.1761

> <Gold.PLP.part.nonpolar>
-31.7287

> <Gold.PLP.part.repulsive>
0.0670

> <Gold.PLP.ligand.clash>
0.0000

> <Gold.PLP.ligand.torsion>
0.3913

> <Gold.PLP.Chemscore.Hbond>
3.0000

> <Gold.PLP.Chemscore.CHOScore>
0.0000

> <Gold.PLP.Chemscore.Metal>
0.0000

> <Gold.Chemscore.Hbonds>
donor molecule, donor type, donor heavy atom, donor atom, acceptor molecule, acceptor atom, score
      L1  H    14    35       P1  8028  1.82
      P1  H  7997  8010       L1     6  1.00

> <Gold.PLP.Chemscore.Internal.Correction>
0.0350

> <Gold.Rescore>
     Score         DG    S(hbond)    S(metal)    S(lipo)     H(rot)  DE(clash)    DE(int)     intcor
     18.91     -19.30       1.89        0.00      96.66       1.49       0.00       0.38       ----

> <Gold.Chemscore.Fitness>
18.9127

> <Gold.Chemscore.DG>
-19.2967

> <Gold.Chemscore.ZeroCoef>
-5.4800

> <Gold.Chemscore.Hbond>
1.8892

> <Gold.Chemscore.Metal>
0.0000

> <Gold.Chemscore.Lipo>
96.6619

> <Gold.Chemscore.Internal_Hbond>
0.0000

> <Gold.Chemscore.DEClash>
0.0000

> <Gold.Chemscore.DEInternal>
0.3841

> <Gold.Chemscore.Rot>
1.4854

> <Gold.Chemscore.Internal.Correction>
   9.000000E+99

> <Gold.Chemscore.Hbonds>
donor molecule, donor type, donor heavy atom, donor atom, acceptor molecule, acceptor atom, score
      L1  H    14    35       P1  8028  0.79
      P1  H  7997  8010       L1     6  0.98

> <Gold.Chemscore.Hbond.Weighted>
-6.3099

> <Gold.Chemscore.Metal.Weighted>
-0.0000

> <Gold.Chemscore.Lipo.Weighted>
-11.3094

> <Gold.Chemscore.Internal_Hbond.Weighted>
0.0000

> <Gold.Chemscore.DEClash.Weighted>
0.0000

> <Gold.Chemscore.DEInternal.Weighted>
0.3841

> <Gold.Chemscore.Rot.Weighted>
3.8026

> <Gold.Chemscore.Internal.Correction.Weighted>
   9.000000E+99

> <Gold.Protein.RotatedTorsions>
[ 6907 6896 6895 6894 ] final   -8.06 input  -60.11 | X-H torsion
[ 7974 7965 7964 7962 ] final  -48.98 input  175.53 | X-H torsion
[ 8008 7997 7996 7995 ] final    3.81 input   59.86 | X-H torsion
[ 10167 10162 10161 10158 ] final  157.03 input  -65.29 | X-H torsion
[ 10718 10713 10712 10709 ] final  -13.89 input   66.30 | X-H torsion
[ 10763 10752 10751 10750 ] final -158.00 input  -60.55 | X-H torsion
[ 11005 11000 10999 10996 ] final -124.24 input  -57.11 | X-H torsion

> <Gold.Protein.ActiveResidues>
 VAL166  LYS551  ARG553  GLY616  TRP617  ASP618  TYR619  PRO620  LYS621  CYS622 
 ASP623  PHE694  ASN695  SER759  ASP760  ASP761  ALA762  ILE779  LEU786  VAL792 
 PHE793  MET794  SER795  GLU796  ALA797  LYS798  CYS799  TRP800  GLU811  SER814 

> <Gold.Protein.RotatedAtoms>
  151.4396  135.1019  159.9666 H   0  0  0  0  0  0  0  0  0  0  0  0  # atno 6907 bound_to 6896
  152.4927  133.8541  159.7227 H   0  0  0  0  0  0  0  0  0  0  0  0  # atno 6908 bound_to 6896
  150.9097  133.6954  159.2885 H   0  0  0  0  0  0  0  0  0  0  0  0  # atno 6909 bound_to 6896
  145.9454  140.7623  142.9531 H   0  0  0  0  0  0  0  0  0  0  0  0  # atno 7974 bound_to 7965
  154.7082  140.2687  155.6655 H   0  0  0  0  0  0  0  0  0  0  0  0  # atno 8008 bound_to 7997
  156.2787  140.2758  156.1639 H   0  0  0  0  0  0  0  0  0  0  0  0  # atno 8009 bound_to 7997
  155.0671  140.0372  157.2586 H   0  0  0  0  0  0  0  0  0  0  0  0  # atno 8010 bound_to 7997
  139.4822  144.4954  151.8247 H   0  0  0  0  0  0  0  0  0  0  0  0  # atno 10167 bound_to 10162
  156.6238  130.4883  149.6154 H   0  0  0  0  0  0  0  0  0  0  0  0  # atno 10718 bound_to 10713
  154.7591  135.3113  154.8412 H   0  0  0  0  0  0  0  0  0  0  0  0  # atno 10763 bound_to 10752
  153.9178  135.6799  153.4753 H   0  0  0  0  0  0  0  0  0  0  0  0  # atno 10764 bound_to 10752
  153.1191  135.4831  154.9096 H   0  0  0  0  0  0  0  0  0  0  0  0  # atno 10765 bound_to 10752
  140.9856  134.0611  157.3714 H   0  0  0  0  0  0  0  0  0  0  0  0  # atno 11005 bound_to 11000
  144.6786  140.2348  143.7351 LP  0  0  0  0  0  0  0  0  0  0  0  0  # atno 17320 bound_to 7965
  145.8244  139.2058  143.1919 LP  0  0  0  0  0  0  0  0  0  0  0  0  # atno 17321 bound_to 7965
  140.4442  144.1944  150.5893 LP  0  0  0  0  0  0  0  0  0  0  0  0  # atno 17342 bound_to 10162
  140.4651  143.2434  151.9166 LP  0  0  0  0  0  0  0  0  0  0  0  0  # atno 17343 bound_to 10162
  156.2290  130.6783  151.1444 LP  0  0  0  0  0  0  0  0  0  0  0  0  # atno 17370 bound_to 10713
  157.7220  131.0675  150.6096 LP  0  0  0  0  0  0  0  0  0  0  0  0  # atno 17371 bound_to 10713
  139.8969  135.0148  156.7075 LP  0  0  0  0  0  0  0  0  0  0  0  0  # atno 17394 bound_to 11000
  140.7119  133.9216  155.8090 LP  0  0  0  0  0  0  0  0  0  0  0  0  # atno 17395 bound_to 11000

$$$$
