#       Name:                AV-unprocessed.smi:2226
#       Creating user name   scv26
#       Creation time:       Fri Mar 27 12:21:31 2020


#       File generated by GOLD software.
#

@<TRIPOS>MOLECULE
AV-unprocessed.smi:2226
    45    47     1
SMALL
NO_CHARGES


@<TRIPOS>ATOM
      1 ****        -3.5132  -2.8238   0.0007 C.3            1 S1                 0.0000
      2 ****        -2.2944  -1.9800   0.0005 N.4            1 S1                 1.0000
      3 ****        -2.1099  -1.1500   1.2159 C.3            1 S1                 0.0000
      4 ****        -3.1551  -0.0073   1.2813 C.3            1 S1                 0.0000
      5 ****        -3.2371   0.8437  -0.0005 C.3            1 S1                 0.0000
      6 ****        -3.1547  -0.0079  -1.2819 C.3            1 S1                 0.0000
      7 ****        -2.1098  -1.1510  -1.2156 C.3            1 S1                 0.0000
      8 ****        -0.6357  -0.6879  -1.2863 C.3            1 S1                 0.0000
      9 ****        -0.1187   0.0013  -0.0002 C.3            1 S1                 0.0000
     10 ****         1.3443  -0.0092  -0.0003 N.am           1 S1                 0.0000
     11 ****         2.1382   1.0735   0.0002 C.2            1 S1                 0.0000
     12 ****         1.7196   2.2314   0.0006 O.2            1 S1                 0.0000
     13 ****         3.4368   0.7350  -0.0000 N.am           1 S1                 0.0000
     14 ****         4.5235   1.6397   0.0001 C.2            1 S1                 0.0000
     15 ****         5.8028   1.2685   0.0001 N.pl3          1 S1                 1.0000
     16 ****         6.5880   2.3948   0.0002 C.2            1 S1                 0.0000
     17 ****         5.7167   3.4576   0.0002 C.2            1 S1                 0.0000
     18 ****         4.4147   2.9988   0.0002 O.3            1 S1                 0.0000
     19 ****        -0.6358  -0.6867   1.2862 C.3            1 S1                 0.0000
     20 ****        -4.4278  -2.2315   0.0001 H              1 S1                 0.0000
     21 ****        -3.5291  -3.4673   0.8807 H              1 S1                 0.0000
     22 ****        -3.5287  -3.4684  -0.8786 H              1 S1                 0.0000
     23 ****        -2.2744  -1.7897   2.0844 H              1 S1                 0.0000
     24 ****        -4.1376  -0.4408   1.4693 H              1 S1                 0.0000
     25 ****        -2.9557   0.6364   2.1387 H              1 S1                 0.0000
     26 ****        -4.1698   1.4086  -0.0008 H              1 S1                 0.0000
     27 ****        -2.4623   1.6055  -0.0006 H              1 S1                 0.0000
     28 ****        -4.1373  -0.4416  -1.4699 H              1 S1                 0.0000
     29 ****        -2.9551   0.6351  -2.1395 H              1 S1                 0.0000
     30 ****        -2.2744  -1.7912  -2.0836 H              1 S1                 0.0000
     31 ****        -0.0253  -1.5723  -1.4778 H              1 S1                 0.0000
     32 ****        -0.4855  -0.0345  -2.1466 H              1 S1                 0.0000
     33 ****        -0.4631   1.0317  -0.0009 H              1 S1                 0.0000
     34 ****         1.7858  -0.9174  -0.0006 H              1 S1                 0.0000
     35 ****         6.1769   0.3277  -0.0000 H              1 S1                 0.0000
     36 ****         7.6667   2.3296   0.0002 H              1 S1                 0.0000
     37 ****         5.8475   4.5301   0.0003 H              1 S1                 0.0000
     38 ****        -0.4859  -0.0323   2.1460 H              1 S1                 0.0000
     39 ****        -0.0254  -1.5707   1.4788 H              1 S1                 0.0000
     40 ****        -1.5296  -2.6396   0.0007 H              1 S1                 0.0000
     41 ****         3.6679  -0.2475  -0.0003 H              1 S1                 0.0000
     42 ****         0.7352   2.4072   0.0005 LP             1 S1                 0.0000
     43 ****         2.3641   2.9960   0.0009 LP             1 S1                 0.0000
     44 ****         3.9306   3.3132   0.8167 LP             1 S1                 0.0000
     45 ****         3.9305   3.3133  -0.8163 LP             1 S1                 0.0000
@<TRIPOS>BOND
    1    1    2 1     
    2    1   20 1     
    3    1   21 1     
    4    1   22 1     
    5    2    7 1     
    6    2    3 1     
    7    2   40 1     
    8    3   19 1     
    9    3    4 1     
   10    3   23 1     
   11    4    5 1     
   12    4   24 1     
   13    4   25 1     
   14    5    6 1     
   15    5   26 1     
   16    5   27 1     
   17    6    7 1     
   18    6   28 1     
   19    6   29 1     
   20    7    8 1     
   21    7   30 1     
   22    8    9 1     
   23    8   31 1     
   24    8   32 1     
   25    9   10 1     
   26    9   19 1     
   27    9   33 1     
   28   10   34 1     
   29   10   11 am    
   30   11   13 am    
   31   11   12 2     
   32   13   14 1     
   33   13   41 1     
   34   14   18 1     
   35   14   15 2     
   36   15   35 1     
   37   15   16 1     
   38   16   36 1     
   39   16   17 2     
   40   17   37 1     
   41   17   18 1     
   42   19   38 1     
   43   19   39 1     
   44   12   42 1     
   45   12   43 1     
   46   18   44 1     
   47   18   45 1     
@<TRIPOS>SUBSTRUCTURE
      1 S1             1
@<TRIPOS>SET
LONE_PAIRS      STATIC     ATOMS    <user>   **** ""
4 42 43 44 45
DONOR_HYDROGENS      STATIC     ATOMS    <user>   **** ""
4 40 34 41 35
ATOM$BLUE        STATIC     ATOMS    COLORGROUP SYSTEM
4 42 43 44 45
ATOM$RED        STATIC     ATOMS    COLORGROUP SYSTEM
4 40 34 41 35
