AV-unprocessed.smi:1146|AV-procd|sdf|4886|dock2
  -GOLD-   22720 3463D 1   1.00000     0.00000
 Structure written by MMmdl.
 46 47  0  0  0  0  0  0  0  0  1 V2000
  152.0876  144.1706  159.8077 C   0  0  0  0  0  0  0  0  0  0  0  0
  152.3022  143.7138  158.3593 C   0  0  0  0  0  0  0  0  0  0  0  0
  152.1417  142.2676  158.2301 N   0  0  0  0  0  0  0  0  0  0  0  0
  151.3915  141.6200  157.3083 C   0  0  0  0  0  0  0  0  0  0  0  0
  150.7170  142.1498  156.4256 O   0  0  0  0  0  0  0  0  0  0  0  0
  151.5100  140.2888  157.5270 N   0  0  0  0  0  0  0  0  0  0  0  0
  150.8547  139.2228  156.7641 C   0  0  0  0  0  0  0  0  0  0  0  0
  151.3305  139.1123  155.2912 C   0  0  0  0  0  0  0  0  0  0  0  0
  152.8491  138.9057  155.1296 C   0  0  0  0  0  0  0  0  0  0  0  0
  150.5624  137.9865  154.5780 C   0  0  0  0  0  0  0  0  0  0  0  0
  150.9671  140.3010  154.6170 O   0  0  0  0  0  0  0  0  0  0  0  0
  152.3512  140.0800  158.6319 C   0  0  0  0  0  0  0  0  0  0  0  0
  152.7870  138.8967  159.2542 C   0  0  0  0  0  0  0  0  0  0  0  0
  153.6514  139.0407  160.3652 C   0  0  0  0  0  0  0  0  0  0  0  0
  154.2455  137.5879  161.2206 S   0  0  0  0  0  0  0  0  0  0  0  0
  153.4653  136.4138  160.7985 O   0  0  0  0  0  0  0  0  0  0  0  0
  155.7126  137.5849  161.1105 O   0  0  0  0  0  0  0  0  0  0  0  0
  153.8336  137.9348  162.8676 N   0  0  0  0  0  0  0  0  0  0  0  0
  154.7064  138.8423  163.6194 C   0  0  0  0  0  0  0  0  0  0  0  0
  153.2720  136.8426  163.6682 C   0  0  0  0  0  0  0  0  0  0  0  0
  154.0498  140.3204  160.8314 C   0  0  0  0  0  0  0  0  0  0  0  0
  153.5964  141.4922  160.1825 C   0  0  0  0  0  0  0  0  0  0  0  0
  152.7454  141.3263  159.0753 C   0  0  0  0  0  0  0  0  0  0  0  0
  152.2051  145.2509  159.8944 H   0  0  0  0  0  0  0  0  0  0  0  0
  152.8074  143.7028  160.4801 H   0  0  0  0  0  0  0  0  0  0  0  0
  151.0864  143.9167  160.1574 H   0  0  0  0  0  0  0  0  0  0  0  0
  151.5961  144.2240  157.7025 H   0  0  0  0  0  0  0  0  0  0  0  0
  153.2953  144.0064  158.0178 H   0  0  0  0  0  0  0  0  0  0  0  0
  151.0469  138.2796  157.2751 H   0  0  0  0  0  0  0  0  0  0  0  0
  149.7715  139.3498  156.8082 H   0  0  0  0  0  0  0  0  0  0  0  0
  153.1794  138.0024  155.6429 H   0  0  0  0  0  0  0  0  0  0  0  0
  153.4217  139.7435  155.5284 H   0  0  0  0  0  0  0  0  0  0  0  0
  153.1230  138.8030  154.0790 H   0  0  0  0  0  0  0  0  0  0  0  0
  150.7805  137.0162  155.0256 H   0  0  0  0  0  0  0  0  0  0  0  0
  150.8296  137.9271  153.5221 H   0  0  0  0  0  0  0  0  0  0  0  0
  149.4838  138.1400  154.6357 H   0  0  0  0  0  0  0  0  0  0  0  0
  150.0744  140.5153  154.8421 H   0  0  0  0  0  0  0  0  0  0  0  0
  152.4800  137.9246  158.8989 H   0  0  0  0  0  0  0  0  0  0  0  0
  154.2549  139.1087  164.5755 H   0  0  0  0  0  0  0  0  0  0  0  0
  154.8733  139.7631  163.0607 H   0  0  0  0  0  0  0  0  0  0  0  0
  155.6703  138.3680  163.8070 H   0  0  0  0  0  0  0  0  0  0  0  0
  152.8025  137.2304  164.5728 H   0  0  0  0  0  0  0  0  0  0  0  0
  154.0569  136.1411  163.9525 H   0  0  0  0  0  0  0  0  0  0  0  0
  152.5153  136.3031  163.0983 H   0  0  0  0  0  0  0  0  0  0  0  0
  154.7047  140.4016  161.6865 H   0  0  0  0  0  0  0  0  0  0  0  0
  153.8937  142.4713  160.5276 H   0  0  0  0  0  0  0  0  0  0  0  0
  1  2  1  0  0  0  0
  1 24  1  0  0  0  0
  1 25  1  0  0  0  0
  1 26  1  0  0  0  0
  2  3  1  0  0  0  0
  2 27  1  0  0  0  0
  2 28  1  0  0  0  0
  3 23  1  0  0  0  0
  3  4  1  0  0  0  0
  4  5  2  0  0  0  0
  4  6  1  0  0  0  0
  6  7  1  0  0  0  0
  6 12  1  0  0  0  0
  7  8  1  0  0  0  0
  7 29  1  0  0  0  0
  7 30  1  0  0  0  0
  8  9  1  0  0  0  0
  8 10  1  0  0  0  0
  8 11  1  0  0  0  0
  9 31  1  0  0  0  0
  9 32  1  0  0  0  0
  9 33  1  0  0  0  0
 10 34  1  0  0  0  0
 10 35  1  0  0  0  0
 10 36  1  0  0  0  0
 11 37  1  0  0  0  0
 12 23  2  0  0  0  0
 12 13  1  0  0  0  0
 13 14  2  0  0  0  0
 13 38  1  0  0  0  0
 14 15  1  0  0  0  0
 14 21  1  0  0  0  0
 15 16  2  0  0  0  0
 15 17  2  0  0  0  0
 15 18  1  0  0  0  0
 18 19  1  0  0  0  0
 18 20  1  0  0  0  0
 19 39  1  0  0  0  0
 19 40  1  0  0  0  0
 19 41  1  0  0  0  0
 20 42  1  0  0  0  0
 20 43  1  0  0  0  0
 20 44  1  0  0  0  0
 21 22  2  0  0  0  0
 21 45  1  0  0  0  0
 22 23  1  0  0  0  0
 22 46  1  0  0  0  0
M  END
> <s_m_source_file>
AV-unprocessed.smi

> <i_m_source_file_index>
1146

> <i_lp_mmshare_version>
43012

> <i_f3d_flags>
0

> <s_epik_input>
W0NIM11DKFtDSDNdKShbT0hdKVtDSDJdbjFjKD1PKW4oW0NIMl1bQ0gzXSljKGMxMilbY0hdW2NIXWMoW2NIXTIpUyg9TykoPU8pTihbQ0gzXSlbQ0gzXQ==

> <s_epik_cmdline>
J2VwaWtfcHl0aG9uJywgJy1waCcsICc3LjAnLCAnLXRuJywgJzgnLCAnLW1hJywgJzIwMCcsICctbWV0YWxfYmluZGluZycsICctaW1hZScsICc8aW5maWxlLm1hZT4nLCAnLW9tYWUnLCAnPG91dGZpbGUubWFlPic=

> <r_lp_tautomer_probability>
1

> <r_epik_Ionization_Penalty>
3.29736e-08

> <r_epik_Ionization_Penalty_Charging>
1.95861e-09

> <r_epik_Ionization_Penalty_Neutral>
3.1015e-08

> <r_epik_State_Penalty>
-0

> <r_epik_Charging_Adjusted_Penalty>
1.95861e-09

> <i_epik_Tot_Q>
0

> <i_epik_Tot_abs_Q>
0

> <r_epik_Metal_State_Penalty>
-0

> <b_epik_Metal_Only>
0

> <s_lp_Force_Field>
OPLS_2005

> <r_lp_Energy>
36.7985

> <b_lp_Chiralities_Consistent>
1

> <s_lp_Variant>
AV-unprocessed.smi:1146-1

> <Gold.Version>
5.8.1

> <Gold.Id.Protein>
6NUR|6NUR_protein|mol2

> <Gold.PLP.Fitness>
49.5494

> <Gold.PLP.PLP>
-44.7770

> <Gold.PLP.part.hbond>
-1.9432

> <Gold.PLP.part.metal>
0.0000

> <Gold.PLP.part.buried>
-6.5787

> <Gold.PLP.part.nonpolar>
-37.4719

> <Gold.PLP.part.repulsive>
0.1226

> <Gold.PLP.ligand.clash>
0.0000

> <Gold.PLP.ligand.torsion>
1.9830

> <Gold.PLP.Chemscore.Hbond>
1.9750

> <Gold.PLP.Chemscore.CHOScore>
0.0000

> <Gold.PLP.Chemscore.Metal>
0.0000

> <Gold.Chemscore.Hbonds>
donor molecule, donor type, donor heavy atom, donor atom, acceptor molecule, acceptor atom, score
      P1  H  6896  6907       L1    16  0.89
      P1  H  7989  7998       L1    11  0.73

> <Gold.PLP.Chemscore.Internal.Correction>
2.8134

> <Gold.Rescore>
     Score         DG    S(hbond)    S(metal)    S(lipo)     H(rot)  DE(clash)    DE(int)     intcor
     17.21     -19.45       1.98        0.00     107.38       2.04       0.03       2.22       ----

> <Gold.Chemscore.Fitness>
17.2051

> <Gold.Chemscore.DG>
-19.4545

> <Gold.Chemscore.ZeroCoef>
-5.4800

> <Gold.Chemscore.Hbond>
1.9848

> <Gold.Chemscore.Metal>
0.0000

> <Gold.Chemscore.Lipo>
107.3790

> <Gold.Chemscore.Internal_Hbond>
0.0000

> <Gold.Chemscore.DEClash>
0.0270

> <Gold.Chemscore.DEInternal>
2.2224

> <Gold.Chemscore.Rot>
2.0383

> <Gold.Chemscore.Internal.Correction>
   9.000000E+99

> <Gold.Chemscore.Hbonds>
donor molecule, donor type, donor heavy atom, donor atom, acceptor molecule, acceptor atom, score
      P1  H  6896  6907       L1    16  0.85
      P1  H  7989  7998       L1    11  0.72

> <Gold.Chemscore.Hbond.Weighted>
-6.6293

> <Gold.Chemscore.Metal.Weighted>
-0.0000

> <Gold.Chemscore.Lipo.Weighted>
-12.5633

> <Gold.Chemscore.Internal_Hbond.Weighted>
0.0000

> <Gold.Chemscore.DEClash.Weighted>
0.0270

> <Gold.Chemscore.DEInternal.Weighted>
2.2224

> <Gold.Chemscore.Rot.Weighted>
5.2181

> <Gold.Chemscore.Internal.Correction.Weighted>
   9.000000E+99

> <Gold.Protein.RotatedTorsions>
[ 6907 6896 6895 6894 ] final   45.19 input  -60.11 | X-H torsion
[ 7974 7965 7964 7962 ] final -147.28 input  175.53 | X-H torsion
[ 8008 7997 7996 7995 ] final   21.74 input   59.86 | X-H torsion
[ 10167 10162 10161 10158 ] final   93.01 input  -65.29 | X-H torsion
[ 10718 10713 10712 10709 ] final -177.31 input   66.30 | X-H torsion
[ 10763 10752 10751 10750 ] final   37.75 input  -60.55 | X-H torsion
[ 11005 11000 10999 10996 ] final  136.43 input  -57.11 | X-H torsion

> <Gold.Protein.ActiveResidues>
 VAL166  LYS551  ARG553  GLY616  TRP617  ASP618  TYR619  PRO620  LYS621  CYS622 
 ASP623  PHE694  ASN695  SER759  ASP760  ASP761  ALA762  ILE779  LEU786  VAL792 
 PHE793  MET794  SER795  GLU796  ALA797  LYS798  CYS799  TRP800  GLU811  SER814 

> <Gold.Protein.RotatedAtoms>
  152.2416  134.8223  160.0459 H   0  0  0  0  0  0  0  0  0  0  0  0  # atno 6907 bound_to 6896
  151.8935  133.3516  159.3814 H   0  0  0  0  0  0  0  0  0  0  0  0  # atno 6908 bound_to 6896
  150.7055  134.4825  159.5521 H   0  0  0  0  0  0  0  0  0  0  0  0  # atno 6909 bound_to 6896
  144.8103  140.5347  143.5647 H   0  0  0  0  0  0  0  0  0  0  0  0  # atno 7974 bound_to 7965
  154.9552  140.3071  155.5056 H   0  0  0  0  0  0  0  0  0  0  0  0  # atno 8008 bound_to 7997
  156.2983  140.2311  156.4571 H   0  0  0  0  0  0  0  0  0  0  0  0  # atno 8009 bound_to 7997
  154.8017  140.0433  157.1266 H   0  0  0  0  0  0  0  0  0  0  0  0  # atno 8010 bound_to 7997
  139.8221  144.6726  150.9506 H   0  0  0  0  0  0  0  0  0  0  0  0  # atno 10167 bound_to 10162
  156.8276  130.9642  151.3108 H   0  0  0  0  0  0  0  0  0  0  0  0  # atno 10718 bound_to 10713
  153.0026  135.6269  154.2195 H   0  0  0  0  0  0  0  0  0  0  0  0  # atno 10763 bound_to 10752
  154.1938  135.2807  155.3015 H   0  0  0  0  0  0  0  0  0  0  0  0  # atno 10764 bound_to 10752
  154.5738  135.5668  153.7179 H   0  0  0  0  0  0  0  0  0  0  0  0  # atno 10765 bound_to 10752
  140.0046  134.9464  157.0146 H   0  0  0  0  0  0  0  0  0  0  0  0  # atno 11005 bound_to 11000
  145.5339  139.1475  143.3484 LP  0  0  0  0  0  0  0  0  0  0  0  0  # atno 17320 bound_to 7965
  146.2401  140.5479  142.8938 LP  0  0  0  0  0  0  0  0  0  0  0  0  # atno 17321 bound_to 7965
  140.7812  143.4081  151.1037 LP  0  0  0  0  0  0  0  0  0  0  0  0  # atno 17342 bound_to 10162
  139.7741  143.8451  152.3126 LP  0  0  0  0  0  0  0  0  0  0  0  0  # atno 17343 bound_to 10162
  157.6424  130.8816  149.9473 LP  0  0  0  0  0  0  0  0  0  0  0  0  # atno 17370 bound_to 10713
  156.0952  130.3660  150.0319 LP  0  0  0  0  0  0  0  0  0  0  0  0  # atno 17371 bound_to 10713
  140.4665  134.1430  155.7197 LP  0  0  0  0  0  0  0  0  0  0  0  0  # atno 17394 bound_to 11000
  141.1667  133.8689  157.1693 LP  0  0  0  0  0  0  0  0  0  0  0  0  # atno 17395 bound_to 11000

$$$$
