AV-unprocessed.smi:2079|AV-procd|sdf|8480|dock10
  -GOLD-   2272011183D 1   1.00000     0.00000
 Structure written by MMmdl.
 41 42  0  0  0  0  0  0  0  0  3 V2000
  151.7725  141.8829  158.1589 C   0  0  0  0  0  0  0  0  0  0  0  0
  151.6129  141.1764  156.8561 C   0  0  0  0  0  0  0  0  0  0  0  0
  150.5347  140.9587  156.0462 C   0  0  0  0  0  0  0  0  0  0  0  0
  151.0857  140.2208  154.9634 C   0  0  0  0  0  0  0  0  0  0  0  0
  150.4077  139.7544  153.9033 N   0  5  0  0  0  0  0  0  0  0  0  0
  149.0645  139.8973  153.8376 C   0  0  0  0  0  0  0  0  0  0  0  0
  148.4000  140.8179  154.3187 O   0  0  0  0  0  0  0  0  0  0  0  0
  148.4504  138.9078  153.1762 N   0  0  0  0  0  0  0  0  0  0  0  0
  147.0126  138.8024  152.9726 C   0  0  0  0  0  0  0  0  0  0  0  0
  146.4611  137.5679  153.7043 C   0  0  0  0  0  0  0  0  0  0  0  0
  146.6474  136.2981  152.9512 N   0  3  1  0  0  0  0  0  0  0  0  0
  147.0073  135.1702  153.8531 C   0  0  0  0  0  0  0  0  0  0  0  0
  147.4038  133.9161  153.0585 C   0  0  0  0  0  0  0  0  0  0  0  0
  146.2895  133.5030  152.0918 C   0  0  0  0  0  0  0  0  0  0  0  0
  145.9280  134.6843  151.1819 C   0  0  0  0  0  0  0  0  0  0  0  0
  145.5575  135.9501  151.9845 C   0  0  1  0  0  0  0  0  0  0  0  0
  144.1630  135.8391  152.6371 C   0  0  0  0  0  0  0  0  0  0  0  0
  152.3806  139.9966  155.1108 N   0  0  0  0  0  0  0  0  0  0  0  0
  152.7281  140.6126  156.3190 O   0  0  0  0  0  0  0  0  0  0  0  0
  151.1214  141.4458  158.9158 H   0  0  0  0  0  0  0  0  0  0  0  0
  151.5148  142.9372  158.0592 H   0  0  0  0  0  0  0  0  0  0  0  0
  152.7996  141.8186  158.5192 H   0  0  0  0  0  0  0  0  0  0  0  0
  149.5150  141.2775  156.2014 H   0  0  0  0  0  0  0  0  0  0  0  0
  149.0293  138.1745  152.7936 H   0  0  0  0  0  0  0  0  0  0  0  0
  146.5469  139.7145  153.3466 H   0  0  0  0  0  0  0  0  0  0  0  0
  146.8032  138.7386  151.9039 H   0  0  0  0  0  0  0  0  0  0  0  0
  146.9855  137.4793  154.6572 H   0  0  0  0  0  0  0  0  0  0  0  0
  145.4089  137.7078  153.9544 H   0  0  0  0  0  0  0  0  0  0  0  0
  147.8457  135.4625  154.4866 H   0  0  0  0  0  0  0  0  0  0  0  0
  146.1764  134.9480  154.5233 H   0  0  0  0  0  0  0  0  0  0  0  0
  148.3204  134.1112  152.4999 H   0  0  0  0  0  0  0  0  0  0  0  0
  147.6269  133.0962  153.7420 H   0  0  0  0  0  0  0  0  0  0  0  0
  146.6102  132.6511  151.4915 H   0  0  0  0  0  0  0  0  0  0  0  0
  145.4126  133.1755  152.6515 H   0  0  0  0  0  0  0  0  0  0  0  0
  146.7795  134.9071  150.5376 H   0  0  0  0  0  0  0  0  0  0  0  0
  145.1116  134.4055  150.5146 H   0  0  0  0  0  0  0  0  0  0  0  0
  145.4992  136.7510  151.2485 H   0  0  0  0  0  0  0  0  0  0  0  0
  143.4133  135.5618  151.8958 H   0  0  0  0  0  0  0  0  0  0  0  0
  143.8407  136.7878  153.0659 H   0  0  0  0  0  0  0  0  0  0  0  0
  144.1321  135.0881  153.4254 H   0  0  0  0  0  0  0  0  0  0  0  0
  147.4672  136.4499  152.3809 H   0  0  0  0  0  0  0  0  0  0  0  0
  1  2  1  0  0  0  0
  1 20  1  0  0  0  0
  1 21  1  0  0  0  0
  1 22  1  0  0  0  0
  2 19  1  0  0  0  0
  2  3  2  0  0  0  0
  3  4  1  0  0  0  0
  3 23  1  0  0  0  0
  4  5  1  0  0  0  0
  4 18  2  0  0  0  0
  5  6  1  0  0  0  0
  6  7  2  0  0  0  0
  6  8  1  0  0  0  0
  8  9  1  0  0  0  0
  8 24  1  0  0  0  0
  9 10  1  0  0  0  0
  9 25  1  0  0  0  0
  9 26  1  0  0  0  0
 10 11  1  0  0  0  0
 10 27  1  0  0  0  0
 10 28  1  0  0  0  0
 11 16  1  0  0  0  0
 11 12  1  0  0  0  0
 11 41  1  0  0  0  0
 12 13  1  0  0  0  0
 12 29  1  0  0  0  0
 12 30  1  0  0  0  0
 13 14  1  0  0  0  0
 13 31  1  0  0  0  0
 13 32  1  0  0  0  0
 14 15  1  0  0  0  0
 14 33  1  0  0  0  0
 14 34  1  0  0  0  0
 15 16  1  0  0  0  0
 15 35  1  0  0  0  0
 15 36  1  0  0  0  0
 16 17  1  0  0  0  0
 16 37  1  0  0  0  0
 17 38  1  0  0  0  0
 17 39  1  0  0  0  0
 17 40  1  0  0  0  0
 18 19  1  0  0  0  0
M  CHG  1   5  -1
M  CHG  1  11   1
M  END
> <s_m_source_file>
AV-unprocessed.smi

> <i_m_source_file_index>
2079

> <i_lp_mmshare_version>
43012

> <i_f3d_flags>
0

> <s_epik_input>
W0NIM11jMVtjSF1jKG5vMSlbTkhdQyg9TylbTkhdW0NIMl1bQ0gyXU4yW0NIMl1bQ0gyXVtDSDJdW0NIMl1bQ0BIXTJbQ0gzXQ==

> <s_epik_cmdline>
J2VwaWtfcHl0aG9uJywgJy1waCcsICc3LjAnLCAnLXRuJywgJzgnLCAnLW1hJywgJzIwMCcsICctbWV0YWxfYmluZGluZycsICctaW1hZScsICc8aW5maWxlLm1hZT4nLCAnLW9tYWUnLCAnPG91dGZpbGUubWFlPic=

> <r_epik_Ionization_Penalty>
6.22371

> <r_epik_Ionization_Penalty_Charging>
6.22362

> <r_epik_Ionization_Penalty_Neutral>
9.40454e-05

> <r_epik_State_Penalty>
6.22363

> <r_epik_Charging_Adjusted_Penalty>
12.4472

> <i_epik_Tot_Q>
0

> <i_epik_Tot_abs_Q>
2

> <r_epik_Metal_State_Penalty>
2.16675

> <b_epik_Metal_Only>
1

> <s_lp_Force_Field>
OPLS_2005

> <r_lp_Energy>
9.70106

> <b_lp_Chiralities_Consistent>
1

> <s_lp_Variant>
AV-unprocessed.smi:2079-6

> <Gold.Version>
5.8.1

> <Gold.Id.Protein>
6NUR|6NUR_protein|mol2

> <Gold.PLP.Fitness>
40.9062

> <Gold.PLP.PLP>
-30.3742

> <Gold.PLP.part.hbond>
-5.0000

> <Gold.PLP.part.metal>
0.0000

> <Gold.PLP.part.buried>
-0.9830

> <Gold.PLP.part.nonpolar>
-23.8869

> <Gold.PLP.part.repulsive>
0.4572

> <Gold.PLP.ligand.clash>
0.0076

> <Gold.PLP.ligand.torsion>
0.7635

> <Gold.PLP.Chemscore.Hbond>
4.0000

> <Gold.PLP.Chemscore.CHOScore>
0.0000

> <Gold.PLP.Chemscore.Metal>
0.0000

> <Gold.Chemscore.Hbonds>
donor molecule, donor type, donor heavy atom, donor atom, acceptor molecule, acceptor atom, score
      L1  H     8    24       P1  7948  0.67
      L1  H    11    41       P1  7948  2.00
      P1  H  7997  8009       L1    19  0.67

> <Gold.PLP.Chemscore.Internal.Correction>
0.0667

> <Gold.Rescore>
     Score         DG    S(hbond)    S(metal)    S(lipo)     H(rot)  DE(clash)    DE(int)     intcor
     14.42     -17.78       2.85        0.00      57.66       1.54       1.12       2.25       ----

> <Gold.Chemscore.Fitness>
14.4186

> <Gold.Chemscore.DG>
-17.7843

> <Gold.Chemscore.ZeroCoef>
-5.4800

> <Gold.Chemscore.Hbond>
2.8451

> <Gold.Chemscore.Metal>
0.0000

> <Gold.Chemscore.Lipo>
57.6606

> <Gold.Chemscore.Internal_Hbond>
0.0000

> <Gold.Chemscore.DEClash>
1.1186

> <Gold.Chemscore.DEInternal>
2.2471

> <Gold.Chemscore.Rot>
1.5409

> <Gold.Chemscore.Internal.Correction>
   9.000000E+99

> <Gold.Chemscore.Hbonds>
donor molecule, donor type, donor heavy atom, donor atom, acceptor molecule, acceptor atom, score
      L1  H     8    24       P1  7948  0.66
      L1  H    11    41       P1  7948  0.97
      P1  H  7997  8009       L1    19  0.34

> <Gold.Chemscore.Hbond.Weighted>
-9.5026

> <Gold.Chemscore.Metal.Weighted>
-0.0000

> <Gold.Chemscore.Lipo.Weighted>
-6.7463

> <Gold.Chemscore.Internal_Hbond.Weighted>
0.0000

> <Gold.Chemscore.DEClash.Weighted>
1.1186

> <Gold.Chemscore.DEInternal.Weighted>
2.2471

> <Gold.Chemscore.Rot.Weighted>
3.9446

> <Gold.Chemscore.Internal.Correction.Weighted>
   9.000000E+99

> <Gold.Protein.RotatedTorsions>
[ 6907 6896 6895 6894 ] final -140.85 input  -60.11 | X-H torsion
[ 7974 7965 7964 7962 ] final  154.07 input  175.53 | X-H torsion
[ 8008 7997 7996 7995 ] final -179.15 input   59.86 | X-H torsion
[ 10167 10162 10161 10158 ] final  -71.62 input  -65.29 | X-H torsion
[ 10718 10713 10712 10709 ] final  161.00 input   66.30 | X-H torsion
[ 10763 10752 10751 10750 ] final  144.92 input  -60.55 | X-H torsion
[ 11005 11000 10999 10996 ] final  113.55 input  -57.11 | X-H torsion

> <Gold.Protein.ActiveResidues>
 VAL166  LYS551  ARG553  GLY616  TRP617  ASP618  TYR619  PRO620  LYS621  CYS622 
 ASP623  PHE694  ASN695  SER759  ASP760  ASP761  ALA762  ILE779  LEU786  VAL792 
 PHE793  MET794  SER795  GLU796  ALA797  LYS798  CYS799  TRP800  GLU811  SER814 

> <Gold.Protein.RotatedAtoms>
  151.0661  133.5504  159.2630 H   0  0  0  0  0  0  0  0  0  0  0  0  # atno 6907 bound_to 6896
  151.2461  135.0605  159.9053 H   0  0  0  0  0  0  0  0  0  0  0  0  # atno 6908 bound_to 6896
  152.5405  134.0429  159.8129 H   0  0  0  0  0  0  0  0  0  0  0  0  # atno 6909 bound_to 6896
  144.8112  139.6885  143.6140 H   0  0  0  0  0  0  0  0  0  0  0  0  # atno 7974 bound_to 7965
  156.0271  140.1274  157.0297 H   0  0  0  0  0  0  0  0  0  0  0  0  # atno 8008 bound_to 7997
  154.4335  140.1057  156.6117 H   0  0  0  0  0  0  0  0  0  0  0  0  # atno 8009 bound_to 7997
  155.5860  140.3468  155.4555 H   0  0  0  0  0  0  0  0  0  0  0  0  # atno 8010 bound_to 7997
  140.5258  143.2326  151.7349 H   0  0  0  0  0  0  0  0  0  0  0  0  # atno 10167 bound_to 10162
  157.1426  131.0544  151.2319 H   0  0  0  0  0  0  0  0  0  0  0  0  # atno 10718 bound_to 10713
  153.9968  135.2927  155.3406 H   0  0  0  0  0  0  0  0  0  0  0  0  # atno 10763 bound_to 10752
  154.7182  135.5120  153.8774 H   0  0  0  0  0  0  0  0  0  0  0  0  # atno 10764 bound_to 10752
  153.0784  135.6671  154.0214 H   0  0  0  0  0  0  0  0  0  0  0  0  # atno 10765 bound_to 10752
  139.8956  134.9552  156.6756 H   0  0  0  0  0  0  0  0  0  0  0  0  # atno 11005 bound_to 11000
  146.2411  139.6003  142.9491 LP  0  0  0  0  0  0  0  0  0  0  0  0  # atno 17320 bound_to 7965
  145.5319  141.0426  143.2378 LP  0  0  0  0  0  0  0  0  0  0  0  0  # atno 17321 bound_to 7965
  139.4938  144.4187  152.0001 LP  0  0  0  0  0  0  0  0  0  0  0  0  # atno 17342 bound_to 10162
  140.3286  144.3343  150.5992 LP  0  0  0  0  0  0  0  0  0  0  0  0  # atno 17343 bound_to 10162
  157.4293  130.7481  149.6977 LP  0  0  0  0  0  0  0  0  0  0  0  0  # atno 17370 bound_to 10713
  155.9785  130.4050  150.3641 LP  0  0  0  0  0  0  0  0  0  0  0  0  # atno 17371 bound_to 10713
  140.7339  133.9035  155.8231 LP  0  0  0  0  0  0  0  0  0  0  0  0  # atno 17394 bound_to 11000
  141.0131  134.0993  157.4200 LP  0  0  0  0  0  0  0  0  0  0  0  0  # atno 17395 bound_to 11000

$$$$
