AV-unprocessed.smi:846|AV-procd|sdf|3936|dock9
  -GOLD-   22720 1403D 1   1.00000     0.00000
 Structure written by MMmdl.
 37 38  0  0  0  0  0  0  0  0  1 V2000
  146.2476  133.5195  150.7251 C   0  0  0  0  0  0  0  0  0  0  0  0
  146.5986  132.5939  151.8929 C   0  0  0  0  0  0  0  0  0  0  0  0
  147.6247  133.2131  152.6596 O   0  0  0  0  0  0  0  0  0  0  0  0
  148.4215  132.4277  153.4703 C   0  0  0  0  0  0  0  0  0  0  0  0
  148.2287  131.0852  153.4686 N   0  0  0  0  0  0  0  0  0  0  0  0
  149.0116  130.3259  154.2634 C   0  0  0  0  0  0  0  0  0  0  0  0
  150.0130  130.8591  155.0968 C   0  0  0  0  0  0  0  0  0  0  0  0
  150.2135  132.2521  155.0999 C   0  0  0  0  0  0  0  0  0  0  0  0
  149.4082  133.0585  154.2612 C   0  0  0  0  0  0  0  0  0  0  0  0
  149.5035  134.4730  154.1913 N   0  0  0  0  0  0  0  0  0  0  0  0
  150.3259  135.3023  154.8600 C   0  0  0  0  0  0  0  0  0  0  0  0
  151.0799  134.9613  155.7685 O   0  0  0  0  0  0  0  0  0  0  0  0
  150.2681  136.5794  154.4389 N   0  0  0  0  0  0  0  0  0  0  0  0
  151.0234  137.7287  154.9445 C   0  0  1  0  0  0  0  0  0  0  0  0
  150.4359  139.0533  154.4232 C   0  0  0  0  0  0  0  0  0  0  0  0
  151.0290  140.2118  155.2369 C   0  0  0  0  0  0  0  0  0  0  0  0
  151.4026  139.5337  156.8995 S   0  0  0  0  0  0  0  0  0  0  0  0
  152.8453  139.6655  157.1534 O   0  0  0  0  0  0  0  0  0  0  0  0
  150.4140  140.0255  157.8708 O   0  0  0  0  0  0  0  0  0  0  0  0
  151.0201  137.7936  156.4813 C   0  0  0  0  0  0  0  0  0  0  0  0
  145.4622  133.0858  150.1059 H   0  0  0  0  0  0  0  0  0  0  0  0
  147.1164  133.6960  150.0901 H   0  0  0  0  0  0  0  0  0  0  0  0
  145.8953  134.4869  151.0844 H   0  0  0  0  0  0  0  0  0  0  0  0
  145.7134  132.4240  152.5078 H   0  0  0  0  0  0  0  0  0  0  0  0
  146.9364  131.6302  151.5090 H   0  0  0  0  0  0  0  0  0  0  0  0
  148.8306  129.2615  154.2385 H   0  0  0  0  0  0  0  0  0  0  0  0
  150.6104  130.2139  155.7240 H   0  0  0  0  0  0  0  0  0  0  0  0
  150.9643  132.6731  155.7504 H   0  0  0  0  0  0  0  0  0  0  0  0
  148.9764  134.8966  153.4416 H   0  0  0  0  0  0  0  0  0  0  0  0
  149.6288  136.7733  153.6815 H   0  0  0  0  0  0  0  0  0  0  0  0
  152.0564  137.6723  154.5964 H   0  0  0  0  0  0  0  0  0  0  0  0
  150.6136  139.1836  153.3553 H   0  0  0  0  0  0  0  0  0  0  0  0
  149.3542  139.0466  154.5662 H   0  0  0  0  0  0  0  0  0  0  0  0
  151.9653  140.5556  154.7967 H   0  0  0  0  0  0  0  0  0  0  0  0
  150.3512  141.0614  155.3202 H   0  0  0  0  0  0  0  0  0  0  0  0
  150.0327  137.5633  156.8829 H   0  0  0  0  0  0  0  0  0  0  0  0
  151.7493  137.1308  156.9475 H   0  0  0  0  0  0  0  0  0  0  0  0
  1  2  1  0  0  0  0
  1 21  1  0  0  0  0
  1 22  1  0  0  0  0
  1 23  1  0  0  0  0
  2  3  1  0  0  0  0
  2 24  1  0  0  0  0
  2 25  1  0  0  0  0
  3  4  1  0  0  0  0
  4  9  1  0  0  0  0
  4  5  2  0  0  0  0
  5  6  1  0  0  0  0
  6  7  2  0  0  0  0
  6 26  1  0  0  0  0
  7  8  1  0  0  0  0
  7 27  1  0  0  0  0
  8  9  2  0  0  0  0
  8 28  1  0  0  0  0
  9 10  1  0  0  0  0
 10 11  1  0  0  0  0
 10 29  1  0  0  0  0
 11 12  2  0  0  0  0
 11 13  1  0  0  0  0
 13 14  1  0  0  0  0
 13 30  1  0  0  0  0
 14 20  1  0  0  0  0
 14 15  1  0  0  0  0
 14 31  1  0  0  0  0
 15 16  1  0  0  0  0
 15 32  1  0  0  0  0
 15 33  1  0  0  0  0
 16 17  1  0  0  0  0
 16 34  1  0  0  0  0
 16 35  1  0  0  0  0
 17 18  2  0  0  0  0
 17 19  2  0  0  0  0
 17 20  1  0  0  0  0
 20 36  1  0  0  0  0
 20 37  1  0  0  0  0
M  END
> <s_m_source_file>
AV-unprocessed.smi

> <i_m_source_file_index>
846

> <i_lp_mmshare_version>
43012

> <i_f3d_flags>
0

> <s_epik_input>
W0NIM11bQ0gyXU9jMW5bY0hdW2NIXVtjSF1jMVtOSF1DKD1PKVtOSF1bQ0BASF0oW0NIMl0yKVtDSDJdW0NIMl1TMig9Tyk9Tw==

> <s_epik_cmdline>
J2VwaWtfcHl0aG9uJywgJy1waCcsICc3LjAnLCAnLXRuJywgJzgnLCAnLW1hJywgJzIwMCcsICctbWV0YWxfYmluZGluZycsICctaW1hZScsICc8aW5maWxlLm1hZT4nLCAnLW9tYWUnLCAnPG91dGZpbGUubWFlPic=

> <r_lp_tautomer_probability>
1

> <r_epik_Ionization_Penalty>
9.45557e-05

> <r_epik_Ionization_Penalty_Charging>
0

> <r_epik_Ionization_Penalty_Neutral>
9.45557e-05

> <r_epik_State_Penalty>
-0

> <r_epik_Charging_Adjusted_Penalty>
0

> <i_epik_Tot_Q>
0

> <i_epik_Tot_abs_Q>
0

> <r_epik_Metal_State_Penalty>
-0

> <b_epik_Metal_Only>
0

> <s_lp_Force_Field>
OPLS_2005

> <r_lp_Energy>
17.3952

> <b_lp_Chiralities_Consistent>
1

> <s_lp_Variant>
AV-unprocessed.smi:846-2

> <Gold.Version>
5.8.1

> <Gold.Id.Protein>
6NUR|6NUR_protein|mol2

> <Gold.PLP.Fitness>
43.3191

> <Gold.PLP.PLP>
-33.0323

> <Gold.PLP.part.hbond>
-4.7329

> <Gold.PLP.part.metal>
0.0000

> <Gold.PLP.part.buried>
-2.5262

> <Gold.PLP.part.nonpolar>
-26.0936

> <Gold.PLP.part.repulsive>
0.4807

> <Gold.PLP.ligand.clash>
0.0000

> <Gold.PLP.ligand.torsion>
0.2686

> <Gold.PLP.Chemscore.Hbond>
3.6074

> <Gold.PLP.Chemscore.CHOScore>
0.0000

> <Gold.PLP.Chemscore.Metal>
0.0000

> <Gold.Chemscore.Hbonds>
donor molecule, donor type, donor heavy atom, donor atom, acceptor molecule, acceptor atom, score
      L1  H    10    29       P1  7948  0.93
      L1  H    13    30       P1  7948  0.91
      P1  H  7997  8009       L1    18  1.00
      P1  H 10752 10764       L1    12  0.54

> <Gold.PLP.Chemscore.Internal.Correction>
0.0020

> <Gold.Rescore>
     Score         DG    S(hbond)    S(metal)    S(lipo)     H(rot)  DE(clash)    DE(int)     intcor
     13.69     -16.31       2.23        0.00      61.70       1.50       0.16       2.46       ----

> <Gold.Chemscore.Fitness>
13.6937

> <Gold.Chemscore.DG>
-16.3127

> <Gold.Chemscore.ZeroCoef>
-5.4800

> <Gold.Chemscore.Hbond>
2.2342

> <Gold.Chemscore.Metal>
0.0000

> <Gold.Chemscore.Lipo>
61.7019

> <Gold.Chemscore.Internal_Hbond>
0.0000

> <Gold.Chemscore.DEClash>
0.1560

> <Gold.Chemscore.DEInternal>
2.4630

> <Gold.Chemscore.Rot>
1.5033

> <Gold.Chemscore.Internal.Correction>
   9.000000E+99

> <Gold.Chemscore.Hbonds>
donor molecule, donor type, donor heavy atom, donor atom, acceptor molecule, acceptor atom, score
      L1  H    10    29       P1  7948  0.22
      L1  H    13    30       P1  7948  0.61
      P1  H  7997  8009       L1    18  0.99
      P1  H 10752 10764       L1    12  0.14

> <Gold.Chemscore.Hbond.Weighted>
-7.4621

> <Gold.Chemscore.Metal.Weighted>
-0.0000

> <Gold.Chemscore.Lipo.Weighted>
-7.2191

> <Gold.Chemscore.Internal_Hbond.Weighted>
0.0000

> <Gold.Chemscore.DEClash.Weighted>
0.1560

> <Gold.Chemscore.DEInternal.Weighted>
2.4630

> <Gold.Chemscore.Rot.Weighted>
3.8484

> <Gold.Chemscore.Internal.Correction.Weighted>
   9.000000E+99

> <Gold.Protein.RotatedTorsions>
[ 6907 6896 6895 6894 ] final  161.09 input  -60.11 | X-H torsion
[ 7974 7965 7964 7962 ] final -177.38 input  175.53 | X-H torsion
[ 8008 7997 7996 7995 ] final -169.89 input   59.86 | X-H torsion
[ 10167 10162 10161 10158 ] final   19.86 input  -65.29 | X-H torsion
[ 10718 10713 10712 10709 ] final  -89.58 input   66.30 | X-H torsion
[ 10763 10752 10751 10750 ] final  -42.57 input  -60.55 | X-H torsion
[ 11005 11000 10999 10996 ] final  -42.68 input  -57.11 | X-H torsion

> <Gold.Protein.ActiveResidues>
 VAL166  LYS551  ARG553  GLY616  TRP617  ASP618  TYR619  PRO620  LYS621  CYS622 
 ASP623  PHE694  ASN695  SER759  ASP760  ASP761  ALA762  ILE779  LEU786  VAL792 
 PHE793  MET794  SER795  GLU796  ALA797  LYS798  CYS799  TRP800  GLU811  SER814 

> <Gold.Protein.RotatedAtoms>
  151.9608  133.3694  159.4034 H   0  0  0  0  0  0  0  0  0  0  0  0  # atno 6907 bound_to 6896
  150.6964  134.4243  159.5228 H   0  0  0  0  0  0  0  0  0  0  0  0  # atno 6908 bound_to 6896
  152.1931  134.8654  160.0566 H   0  0  0  0  0  0  0  0  0  0  0  0  # atno 6909 bound_to 6896
  144.7127  140.1028  143.6415 H   0  0  0  0  0  0  0  0  0  0  0  0  # atno 7974 bound_to 7965
  155.9110  140.1057  157.1279 H   0  0  0  0  0  0  0  0  0  0  0  0  # atno 8008 bound_to 7997
  154.4039  140.1274  156.4622 H   0  0  0  0  0  0  0  0  0  0  0  0  # atno 8009 bound_to 7997
  155.7310  140.3468  155.5062 H   0  0  0  0  0  0  0  0  0  0  0  0  # atno 8010 bound_to 7997
  140.5547  143.9445  150.6601 H   0  0  0  0  0  0  0  0  0  0  0  0  # atno 10167 bound_to 10162
  155.9985  130.4877  150.5192 H   0  0  0  0  0  0  0  0  0  0  0  0  # atno 10718 bound_to 10713
  153.9813  135.6716  153.4750 H   0  0  0  0  0  0  0  0  0  0  0  0  # atno 10763 bound_to 10752
  153.0747  135.4955  154.8376 H   0  0  0  0  0  0  0  0  0  0  0  0  # atno 10764 bound_to 10752
  154.7163  135.3107  154.9080 H   0  0  0  0  0  0  0  0  0  0  0  0  # atno 10765 bound_to 10752
  141.0332  133.6811  156.2628 H   0  0  0  0  0  0  0  0  0  0  0  0  # atno 11005 bound_to 11000
  145.9523  139.2742  143.1205 LP  0  0  0  0  0  0  0  0  0  0  0  0  # atno 17320 bound_to 7965
  145.9310  140.9048  143.0356 LP  0  0  0  0  0  0  0  0  0  0  0  0  # atno 17321 bound_to 7965
  140.2880  143.3343  152.1089 LP  0  0  0  0  0  0  0  0  0  0  0  0  # atno 17342 bound_to 10162
  139.5043  144.6772  151.6099 LP  0  0  0  0  0  0  0  0  0  0  0  0  # atno 17343 bound_to 10162
  157.3156  131.0672  151.1969 LP  0  0  0  0  0  0  0  0  0  0  0  0  # atno 17370 bound_to 10713
  157.2901  130.6792  149.6109 LP  0  0  0  0  0  0  0  0  0  0  0  0  # atno 17371 bound_to 10713
  140.6369  134.5206  157.5565 LP  0  0  0  0  0  0  0  0  0  0  0  0  # atno 17394 bound_to 11000
  139.9222  134.8126  156.1176 LP  0  0  0  0  0  0  0  0  0  0  0  0  # atno 17395 bound_to 11000

$$$$
