#       Name:                AV-unprocessed.smi:1288
#       Creating user name   scv26
#       Creation time:       Fri Mar 27 04:53:22 2020


#       File generated by GOLD software.
#

@<TRIPOS>MOLECULE
AV-unprocessed.smi:1288
    47    49     1
SMALL
NO_CHARGES


@<TRIPOS>ATOM
      1 ****        -2.2715   1.4117   2.8087 C.3            1 S1                 0.0000
      2 ****        -2.7839   1.7191   1.4418 C.2            1 S1                 0.0000
      3 ****        -4.0927   1.8575   1.0884 N.pl3          1 S1                 1.0000
      4 ****        -4.1860   2.1423  -0.2745 C.ar           1 S1                 0.0000
      5 ****        -5.2960   2.3635  -1.0841 C.ar           1 S1                 0.0000
      6 ****        -5.0433   2.6272  -2.4461 C.ar           1 S1                 0.0000
      7 ****        -3.7289   2.6625  -2.9553 C.ar           1 S1                 0.0000
      8 ****        -2.6116   2.4373  -2.1245 C.ar           1 S1                 0.0000
      9 ****        -2.8692   2.1793  -0.7781 C.ar           1 S1                 0.0000
     10 ****        -2.0377   1.9142   0.3174 N.pl3          1 S1                 0.0000
     11 ****        -0.5770   1.8799   0.1375 C.3            1 S1                 0.0000
     12 ****        -0.0339   0.4549  -0.0901 C.3            1 S1                 0.0000
     13 ****        -0.5923  -0.0748  -1.2760 O.3            1 S1                 0.0000
     14 ****         1.4963   0.4403  -0.2274 C.3            1 S1                 0.0000
     15 ****         1.9691  -0.8686   0.0447 O.3            1 S1                 0.0000
     16 ****         3.3796  -0.9754  -0.0474 C.3            1 S1                 0.0000
     17 ****         3.8431  -2.3892   0.2437 C.ar           1 S1                 0.0000
     18 ****         4.2472  -2.7429   1.5484 C.ar           1 S1                 0.0000
     19 ****         4.6732  -4.0563   1.8269 C.ar           1 S1                 0.0000
     20 ****         4.6970  -5.0211   0.8017 C.ar           1 S1                 0.0000
     21 ****         4.2921  -4.6728  -0.5013 C.ar           1 S1                 0.0000
     22 ****         3.8639  -3.3602  -0.7813 C.ar           1 S1                 0.0000
     23 ****         3.4713  -3.0381  -2.0373 F              1 S1                 0.0000
     24 ****        -3.0979   1.2641   3.5044 H              1 S1                 0.0000
     25 ****        -1.6545   2.2336   3.1720 H              1 S1                 0.0000
     26 ****        -1.6684   0.5040   2.7899 H              1 S1                 0.0000
     27 ****        -6.3039   2.3349  -0.6967 H              1 S1                 0.0000
     28 ****        -5.8742   2.8042  -3.1138 H              1 S1                 0.0000
     29 ****        -3.5739   2.8647  -4.0051 H              1 S1                 0.0000
     30 ****        -1.6101   2.4595  -2.5276 H              1 S1                 0.0000
     31 ****        -0.2956   2.5472  -0.6773 H              1 S1                 0.0000
     32 ****        -0.1350   2.3048   1.0394 H              1 S1                 0.0000
     33 ****        -0.3297  -0.1749   0.7499 H              1 S1                 0.0000
     34 ****        -0.2534  -0.9489  -1.3991 H              1 S1                 0.0000
     35 ****         1.8081   0.7813  -1.2163 H              1 S1                 0.0000
     36 ****         1.9367   1.1212   0.5029 H              1 S1                 0.0000
     37 ****         3.7134  -0.6844  -1.0447 H              1 S1                 0.0000
     38 ****         3.8521  -0.2892   0.6572 H              1 S1                 0.0000
     39 ****         4.2301  -2.0082   2.3401 H              1 S1                 0.0000
     40 ****         4.9807  -4.3236   2.8272 H              1 S1                 0.0000
     41 ****         5.0241  -6.0281   1.0148 H              1 S1                 0.0000
     42 ****         4.3084  -5.4136  -1.2870 H              1 S1                 0.0000
     43 ****        -4.8652   1.7627   1.7350 H              1 S1                 0.0000
     44 ****        -0.3388   0.4989  -2.0548 LP             1 S1                 0.0000
     45 ****        -1.5886  -0.1066  -1.1958 LP             1 S1                 0.0000
     46 ****         1.5576  -1.4997  -0.6129 LP             1 S1                 0.0000
     47 ****         1.6895  -1.1229   0.9705 LP             1 S1                 0.0000
@<TRIPOS>BOND
    1    1    2 1     
    2    1   24 1     
    3    1   25 1     
    4    1   26 1     
    5    2   10 1     
    6    2    3 2     
    7    3    4 1     
    8    3   43 1     
    9    4    9 ar    
   10    4    5 ar    
   11    5    6 ar    
   12    5   27 1     
   13    6    7 ar    
   14    6   28 1     
   15    7    8 ar    
   16    7   29 1     
   17    8    9 ar    
   18    8   30 1     
   19    9   10 1     
   20   10   11 1     
   21   11   12 1     
   22   11   31 1     
   23   11   32 1     
   24   12   13 1     
   25   12   14 1     
   26   12   33 1     
   27   13   34 1     
   28   14   15 1     
   29   14   35 1     
   30   14   36 1     
   31   15   16 1     
   32   16   17 1     
   33   16   37 1     
   34   16   38 1     
   35   17   22 ar    
   36   17   18 ar    
   37   18   19 ar    
   38   18   39 1     
   39   19   20 ar    
   40   19   40 1     
   41   20   21 ar    
   42   20   41 1     
   43   21   22 ar    
   44   21   42 1     
   45   22   23 1     
   46   13   44 1     
   47   13   45 1     
   48   15   46 1     
   49   15   47 1     
@<TRIPOS>SUBSTRUCTURE
      1 S1             1
@<TRIPOS>SET
LONE_PAIRS      STATIC     ATOMS    <user>   **** ""
4 44 45 46 47
DONOR_HYDROGENS      STATIC     ATOMS    <user>   **** ""
2 43 34
ATOM$BLUE        STATIC     ATOMS    COLORGROUP SYSTEM
4 44 45 46 47
ATOM$RED        STATIC     ATOMS    COLORGROUP SYSTEM
2 43 34
