AV-unprocessed.smi:3250|AV-procd|sdf|12430|dock10
  -GOLD-   2272018323D 1   1.00000     0.00000
 Structure written by MMmdl.
 38 39  0  0  0  0  0  0  0  0  1 V2000
  153.9483  141.3226  161.2965 C   0  0  0  0  0  0  0  0  0  0  0  0
  152.9723  142.4462  161.6735 C   0  0  0  0  0  0  0  0  0  0  0  0
  152.7930  143.4756  160.6513 N   0  0  0  0  0  0  0  0  0  0  0  0
  151.7845  144.4652  161.0230 C   0  0  0  0  0  0  0  0  0  0  0  0
  151.5827  145.5184  159.9208 C   0  0  0  0  0  0  0  0  0  0  0  0
  151.2427  144.8700  158.7001 O   0  0  0  0  0  0  0  0  0  0  0  0
  152.2347  143.9414  158.2683 C   0  0  2  0  0  0  0  0  0  0  0  0
  151.7678  143.3105  156.9501 C   0  0  0  0  0  0  0  0  0  0  0  0
  150.5630  142.5153  157.1323 N   0  0  0  0  0  0  0  0  0  0  0  0
  150.0857  141.6103  156.2033 C   0  0  0  0  0  0  0  0  0  0  0  0
  148.8120  141.7758  155.8400 N   0  0  0  0  0  0  0  0  0  0  0  0
  148.3138  140.9042  154.9364 C   0  0  0  0  0  0  0  0  0  0  0  0
  149.0971  139.8647  154.3963 C   0  0  0  0  0  0  0  0  0  0  0  0
  150.4302  139.7834  154.8470 C   0  0  0  0  0  0  0  0  0  0  0  0
  151.2533  138.7916  154.3554 O   0  0  0  0  0  0  0  0  0  0  0  0
  152.5986  138.7465  154.8181 C   0  0  0  0  0  0  0  0  0  0  0  0
  150.9192  140.6642  155.7555 N   0  0  0  0  0  0  0  0  0  0  0  0
  152.4230  142.8809  159.3711 C   0  0  0  0  0  0  0  0  0  0  0  0
  153.9517  140.5466  162.0620 H   0  0  0  0  0  0  0  0  0  0  0  0
  154.9712  141.6858  161.2012 H   0  0  0  0  0  0  0  0  0  0  0  0
  153.6646  140.8552  160.3532 H   0  0  0  0  0  0  0  0  0  0  0  0
  152.0064  141.9832  161.8789 H   0  0  0  0  0  0  0  0  0  0  0  0
  153.2894  142.9050  162.6110 H   0  0  0  0  0  0  0  0  0  0  0  0
  150.8345  143.9682  161.2250 H   0  0  0  0  0  0  0  0  0  0  0  0
  152.0736  144.9742  161.9417 H   0  0  0  0  0  0  0  0  0  0  0  0
  150.7824  146.2060  160.1949 H   0  0  0  0  0  0  0  0  0  0  0  0
  152.4863  146.1148  159.7849 H   0  0  0  0  0  0  0  0  0  0  0  0
  153.1789  144.4651  158.1061 H   0  0  0  0  0  0  0  0  0  0  0  0
  151.5543  144.0958  156.2241 H   0  0  0  0  0  0  0  0  0  0  0  0
  152.5572  142.6874  156.5280 H   0  0  0  0  0  0  0  0  0  0  0  0
  150.0959  142.5522  158.0268 H   0  0  0  0  0  0  0  0  0  0  0  0
  147.2835  141.0366  154.6420 H   0  0  0  0  0  0  0  0  0  0  0  0
  148.6968  139.1684  153.6745 H   0  0  0  0  0  0  0  0  0  0  0  0
  153.1186  137.9186  154.3367 H   0  0  0  0  0  0  0  0  0  0  0  0
  152.6449  138.5849  155.8961 H   0  0  0  0  0  0  0  0  0  0  0  0
  153.1361  139.6632  154.5709 H   0  0  0  0  0  0  0  0  0  0  0  0
  153.1922  142.1731  159.0596 H   0  0  0  0  0  0  0  0  0  0  0  0
  151.5009  142.3081  159.4841 H   0  0  0  0  0  0  0  0  0  0  0  0
  1  2  1  0  0  0  0
  1 19  1  0  0  0  0
  1 20  1  0  0  0  0
  1 21  1  0  0  0  0
  2  3  1  0  0  0  0
  2 22  1  0  0  0  0
  2 23  1  0  0  0  0
  3 18  1  0  0  0  0
  3  4  1  0  0  0  0
  4  5  1  0  0  0  0
  4 24  1  0  0  0  0
  4 25  1  0  0  0  0
  5  6  1  0  0  0  0
  5 26  1  0  0  0  0
  5 27  1  0  0  0  0
  6  7  1  0  0  0  0
  7  8  1  0  0  0  0
  7 18  1  0  0  0  0
  7 28  1  0  0  0  0
  8  9  1  0  0  0  0
  8 29  1  0  0  0  0
  8 30  1  0  0  0  0
  9 10  1  0  0  0  0
  9 31  1  0  0  0  0
 10 17  1  0  0  0  0
 10 11  2  0  0  0  0
 11 12  1  0  0  0  0
 12 13  2  0  0  0  0
 12 32  1  0  0  0  0
 13 14  1  0  0  0  0
 13 33  1  0  0  0  0
 14 15  1  0  0  0  0
 14 17  2  0  0  0  0
 15 16  1  0  0  0  0
 16 34  1  0  0  0  0
 16 35  1  0  0  0  0
 16 36  1  0  0  0  0
 18 37  1  0  0  0  0
 18 38  1  0  0  0  0
M  END
> <s_m_source_file>
AV-unprocessed.smi

> <i_m_source_file_index>
3250

> <i_lp_mmshare_version>
43012

> <i_f3d_flags>
0

> <s_epik_input>
W0NIM11bQ0gyXU4xW0NIMl1bQ0gyXU9bQ0BIXShbQ0gyXTEpW0NIMl1bTkhdYzJuW2NIXVtjSF1jKG4yKU9bQ0gzXQ==

> <s_epik_cmdline>
J2VwaWtfcHl0aG9uJywgJy1waCcsICc3LjAnLCAnLXRuJywgJzgnLCAnLW1hJywgJzIwMCcsICctbWV0YWxfYmluZGluZycsICctaW1hZScsICc8aW5maWxlLm1hZT4nLCAnLW9tYWUnLCAnPG91dGZpbGUubWFlPic=

> <r_lp_tautomer_probability>
1

> <r_epik_Ionization_Penalty>
0.832605

> <r_epik_Ionization_Penalty_Charging>
0

> <r_epik_Ionization_Penalty_Neutral>
0.832605

> <r_epik_State_Penalty>
0.927194

> <r_epik_Charging_Adjusted_Penalty>
0.927194

> <i_epik_Tot_Q>
0

> <i_epik_Tot_abs_Q>
0

> <r_epik_Metal_State_Penalty>
0.908632

> <b_epik_Metal_Only>
0

> <s_lp_Force_Field>
OPLS_2005

> <r_lp_Energy>
15.3414

> <b_lp_Chiralities_Consistent>
1

> <s_lp_Variant>
AV-unprocessed.smi:3250-6

> <Gold.Version>
5.8.1

> <Gold.Id.Protein>
6NUR|6NUR_protein|mol2

> <Gold.PLP.Fitness>
38.7672

> <Gold.PLP.PLP>
-39.9502

> <Gold.PLP.part.hbond>
-0.9979

> <Gold.PLP.part.metal>
0.0000

> <Gold.PLP.part.buried>
-5.9630

> <Gold.PLP.part.nonpolar>
-34.3834

> <Gold.PLP.part.repulsive>
1.1527

> <Gold.PLP.ligand.clash>
0.0000

> <Gold.PLP.ligand.torsion>
0.5999

> <Gold.PLP.Chemscore.Hbond>
0.0000

> <Gold.PLP.Chemscore.CHOScore>
0.0000

> <Gold.PLP.Chemscore.Metal>
0.0000

> <Gold.PLP.Chemscore.Internal.Correction>
0.0167

> <Gold.Rescore>
     Score         DG    S(hbond)    S(metal)    S(lipo)     H(rot)  DE(clash)    DE(int)     intcor
     11.88     -13.03       0.00        0.00     100.99       1.67       0.56       0.59       ----

> <Gold.Chemscore.Fitness>
11.8832

> <Gold.Chemscore.DG>
-13.0316

> <Gold.Chemscore.ZeroCoef>
-5.4800

> <Gold.Chemscore.Hbond>
0.0000

> <Gold.Chemscore.Metal>
0.0000

> <Gold.Chemscore.Lipo>
100.9901

> <Gold.Chemscore.Internal_Hbond>
0.0000

> <Gold.Chemscore.DEClash>
0.5605

> <Gold.Chemscore.DEInternal>
0.5878

> <Gold.Chemscore.Rot>
1.6657

> <Gold.Chemscore.Internal.Correction>
   9.000000E+99

> <Gold.Chemscore.Hbond.Weighted>
-0.0000

> <Gold.Chemscore.Metal.Weighted>
-0.0000

> <Gold.Chemscore.Lipo.Weighted>
-11.8158

> <Gold.Chemscore.Internal_Hbond.Weighted>
0.0000

> <Gold.Chemscore.DEClash.Weighted>
0.5605

> <Gold.Chemscore.DEInternal.Weighted>
0.5878

> <Gold.Chemscore.Rot.Weighted>
4.2642

> <Gold.Chemscore.Internal.Correction.Weighted>
   9.000000E+99

> <Gold.Protein.RotatedTorsions>
[ 6907 6896 6895 6894 ] final   49.41 input  -60.11 | X-H torsion
[ 7974 7965 7964 7962 ] final   62.14 input  175.53 | X-H torsion
[ 8008 7997 7996 7995 ] final  -27.35 input   59.86 | X-H torsion
[ 10167 10162 10161 10158 ] final    0.80 input  -65.29 | X-H torsion
[ 10718 10713 10712 10709 ] final   96.94 input   66.30 | X-H torsion
[ 10763 10752 10751 10750 ] final -154.20 input  -60.55 | X-H torsion
[ 11005 11000 10999 10996 ] final  -69.50 input  -57.11 | X-H torsion

> <Gold.Protein.ActiveResidues>
 VAL166  LYS551  ARG553  GLY616  TRP617  ASP618  TYR619  PRO620  LYS621  CYS622 
 ASP623  PHE694  ASN695  SER759  ASP760  ASP761  ALA762  ILE779  LEU786  VAL792 
 PHE793  MET794  SER795  GLU796  ALA797  LYS798  CYS799  TRP800  GLU811  SER814 

> <Gold.Protein.RotatedAtoms>
  152.2905  134.7727  160.0378 H   0  0  0  0  0  0  0  0  0  0  0  0  # atno 6907 bound_to 6896
  151.8274  133.3398  159.3611 H   0  0  0  0  0  0  0  0  0  0  0  0  # atno 6908 bound_to 6896
  150.7228  134.5444  159.5807 H   0  0  0  0  0  0  0  0  0  0  0  0  # atno 6909 bound_to 6896
  145.8767  139.3415  143.0730 H   0  0  0  0  0  0  0  0  0  0  0  0  # atno 7974 bound_to 7965
  154.4381  140.1874  156.0919 H   0  0  0  0  0  0  0  0  0  0  0  0  # atno 8008 bound_to 7997
  156.0359  140.3325  155.7164 H   0  0  0  0  0  0  0  0  0  0  0  0  # atno 8009 bound_to 7997
  155.5771  140.0618  157.2783 H   0  0  0  0  0  0  0  0  0  0  0  0  # atno 8010 bound_to 7997
  140.6712  143.7043  150.7927 H   0  0  0  0  0  0  0  0  0  0  0  0  # atno 10167 bound_to 10162
  157.6920  131.0594  150.4568 H   0  0  0  0  0  0  0  0  0  0  0  0  # atno 10718 bound_to 10713
  154.7875  135.3195  154.7853 H   0  0  0  0  0  0  0  0  0  0  0  0  # atno 10763 bound_to 10752
  153.8550  135.6858  153.4793 H   0  0  0  0  0  0  0  0  0  0  0  0  # atno 10764 bound_to 10752
  153.1532  135.4691  154.9606 H   0  0  0  0  0  0  0  0  0  0  0  0  # atno 10765 bound_to 10752
  141.1555  133.6766  156.6609 H   0  0  0  0  0  0  0  0  0  0  0  0  # atno 11005 bound_to 11000
  145.9072  140.9204  143.0473 LP  0  0  0  0  0  0  0  0  0  0  0  0  # atno 17320 bound_to 7965
  144.6726  140.1111  143.7455 LP  0  0  0  0  0  0  0  0  0  0  0  0  # atno 17321 bound_to 7965
  140.0728  143.5044  152.2571 LP  0  0  0  0  0  0  0  0  0  0  0  0  # atno 17342 bound_to 10162
  139.5982  144.7574  151.3236 LP  0  0  0  0  0  0  0  0  0  0  0  0  # atno 17343 bound_to 10162
  156.4916  130.4096  149.6403 LP  0  0  0  0  0  0  0  0  0  0  0  0  # atno 17370 bound_to 10713
  156.3412  130.7383  151.2328 LP  0  0  0  0  0  0  0  0  0  0  0  0  # atno 17371 bound_to 10713
  140.3248  134.7977  157.4281 LP  0  0  0  0  0  0  0  0  0  0  0  0  # atno 17394 bound_to 11000
  140.1066  134.5401  155.8304 LP  0  0  0  0  0  0  0  0  0  0  0  0  # atno 17395 bound_to 11000

$$$$
