AV-unprocessed.smi:2772|AV-procd|sdf|10673|dock3
  -GOLD-   2272015123D 1   1.00000     0.00000
 Structure written by MMmdl.
 56 58  0  0  0  0  0  0  0  0  4 V2000
  139.3171  140.2133  153.6769 C   0  0  0  0  0  0  0  0  0  0  0  0
  140.0309  138.8839  153.5521 C   0  0  0  0  0  0  0  0  0  0  0  0
  139.4054  137.6587  153.8639 C   0  0  0  0  0  0  0  0  0  0  0  0
  140.1333  136.4593  153.7229 C   0  0  0  0  0  0  0  0  0  0  0  0
  141.4687  136.4987  153.2652 C   0  0  0  0  0  0  0  0  0  0  0  0
  142.1655  135.2647  153.1500 N   0  0  0  0  0  0  0  0  0  0  0  0
  143.2054  134.9626  152.3532 C   0  0  0  0  0  0  0  0  0  0  0  0
  143.7333  135.7332  151.5524 O   0  0  0  0  0  0  0  0  0  0  0  0
  143.5944  133.6914  152.5281 N   0  0  0  0  0  0  0  0  0  0  0  0
  144.6837  133.0260  151.8175 C   0  0  2  0  0  0  0  0  0  0  0  0
  145.0303  131.6978  152.5160 C   0  0  0  0  0  0  0  0  0  0  0  0
  146.2936  131.0596  151.9061 C   0  0  0  0  0  0  0  0  0  0  0  0
  147.4623  131.9851  151.9552 N   0  3  2  0  0  0  0  0  0  0  0  0
  148.0428  132.2176  153.3235 C   0  0  2  0  0  0  0  0  0  0  0  0
  149.0796  133.3700  153.3345 C   0  0  0  0  0  0  0  0  0  0  0  0
  149.7376  133.5601  154.7119 C   0  0  0  0  0  0  0  0  0  0  0  0
  150.3788  132.3088  155.1759 N   0  3  1  0  0  0  0  0  0  0  0  0
  151.1271  132.4915  156.4385 C   0  0  0  0  0  0  0  0  0  0  0  0
  149.4005  131.2001  155.2533 C   0  0  0  0  0  0  0  0  0  0  0  0
  148.7340  130.9507  153.8893 C   0  0  0  0  0  0  0  0  0  0  0  0
  147.1366  133.2171  151.1802 C   0  0  0  0  0  0  0  0  0  0  0  0
  145.9128  133.9519  151.7609 C   0  0  0  0  0  0  0  0  0  0  0  0
  142.0453  137.7617  152.9801 C   0  0  0  0  0  0  0  0  0  0  0  0
  141.3143  138.8879  153.1297 N   0  3  0  0  0  0  0  0  0  0  0  0
  138.2875  140.0769  154.0084 H   0  0  0  0  0  0  0  0  0  0  0  0
  139.2991  140.7274  152.7154 H   0  0  0  0  0  0  0  0  0  0  0  0
  139.8260  140.8515  154.3998 H   0  0  0  0  0  0  0  0  0  0  0  0
  138.3814  137.6346  154.2076 H   0  0  0  0  0  0  0  0  0  0  0  0
  139.6631  135.5159  153.9606 H   0  0  0  0  0  0  0  0  0  0  0  0
  141.7965  134.5057  153.7041 H   0  0  0  0  0  0  0  0  0  0  0  0
  143.0944  133.1375  153.2082 H   0  0  0  0  0  0  0  0  0  0  0  0
  144.3902  132.7976  150.7911 H   0  0  0  0  0  0  0  0  0  0  0  0
  145.1736  131.8577  153.5852 H   0  0  0  0  0  0  0  0  0  0  0  0
  144.1918  131.0062  152.4248 H   0  0  0  0  0  0  0  0  0  0  0  0
  146.5078  130.0985  152.3682 H   0  0  0  0  0  0  0  0  0  0  0  0
  146.0962  130.8198  150.8602 H   0  0  0  0  0  0  0  0  0  0  0  0
  147.2369  132.4897  154.0053 H   0  0  0  0  0  0  0  0  0  0  0  0
  149.8503  133.1825  152.5854 H   0  0  0  0  0  0  0  0  0  0  0  0
  148.6133  134.3192  153.0752 H   0  0  0  0  0  0  0  0  0  0  0  0
  150.4857  134.3517  154.6506 H   0  0  0  0  0  0  0  0  0  0  0  0
  148.9941  133.8834  155.4423 H   0  0  0  0  0  0  0  0  0  0  0  0
  150.4594  132.7739  157.2537 H   0  0  0  0  0  0  0  0  0  0  0  0
  151.8825  133.2704  156.3291 H   0  0  0  0  0  0  0  0  0  0  0  0
  151.6398  131.5707  156.7191 H   0  0  0  0  0  0  0  0  0  0  0  0
  149.9056  130.2908  155.5821 H   0  0  0  0  0  0  0  0  0  0  0  0
  148.6437  131.4309  156.0047 H   0  0  0  0  0  0  0  0  0  0  0  0
  148.0176  130.1430  154.0320 H   0  0  0  0  0  0  0  0  0  0  0  0
  149.4798  130.5876  153.1807 H   0  0  0  0  0  0  0  0  0  0  0  0
  147.9892  133.8869  151.0908 H   0  0  0  0  0  0  0  0  0  0  0  0
  146.9152  132.9223  150.1531 H   0  0  0  0  0  0  0  0  0  0  0  0
  145.6863  134.8248  151.1472 H   0  0  0  0  0  0  0  0  0  0  0  0
  146.1458  134.3347  152.7550 H   0  0  0  0  0  0  0  0  0  0  0  0
  143.0601  137.9237  152.6505 H   0  0  0  0  0  0  0  0  0  0  0  0
  148.1942  131.5241  151.4331 H   0  0  0  0  0  0  0  0  0  0  0  0
  151.0604  132.0508  154.4762 H   0  0  0  0  0  0  0  0  0  0  0  0
  141.7540  139.7833  152.9155 H   0  0  0  0  0  0  0  0  0  0  0  0
  1  2  1  0  0  0  0
  1 25  1  0  0  0  0
  1 26  1  0  0  0  0
  1 27  1  0  0  0  0
  2 24  1  0  0  0  0
  2  3  2  0  0  0  0
  3  4  1  0  0  0  0
  3 28  1  0  0  0  0
  4  5  2  0  0  0  0
  4 29  1  0  0  0  0
  5  6  1  0  0  0  0
  5 23  1  0  0  0  0
  6  7  1  0  0  0  0
  6 30  1  0  0  0  0
  7  8  2  0  0  0  0
  7  9  1  0  0  0  0
  9 10  1  0  0  0  0
  9 31  1  0  0  0  0
 10 22  1  0  0  0  0
 10 11  1  0  0  0  0
 10 32  1  0  0  0  0
 11 12  1  0  0  0  0
 11 33  1  0  0  0  0
 11 34  1  0  0  0  0
 12 13  1  0  0  0  0
 12 35  1  0  0  0  0
 12 36  1  0  0  0  0
 13 14  1  0  0  0  0
 13 21  1  0  0  0  0
 13 54  1  0  0  0  0
 14 20  1  0  0  0  0
 14 15  1  0  0  0  0
 14 37  1  0  0  0  0
 15 16  1  0  0  0  0
 15 38  1  0  0  0  0
 15 39  1  0  0  0  0
 16 17  1  0  0  0  0
 16 40  1  0  0  0  0
 16 41  1  0  0  0  0
 17 18  1  0  0  0  0
 17 19  1  0  0  0  0
 17 55  1  0  0  0  0
 18 42  1  0  0  0  0
 18 43  1  0  0  0  0
 18 44  1  0  0  0  0
 19 20  1  0  0  0  0
 19 45  1  0  0  0  0
 19 46  1  0  0  0  0
 20 47  1  0  0  0  0
 20 48  1  0  0  0  0
 21 22  1  0  0  0  0
 21 49  1  0  0  0  0
 21 50  1  0  0  0  0
 22 51  1  0  0  0  0
 22 52  1  0  0  0  0
 23 24  2  0  0  0  0
 23 53  1  0  0  0  0
 24 56  1  0  0  0  0
M  CHG  1  13   1
M  CHG  1  17   1
M  CHG  1  24   1
M  END
> <s_m_source_file>
AV-unprocessed.smi

> <i_m_source_file_index>
2772

> <i_lp_mmshare_version>
43012

> <i_f3d_flags>
0

> <s_epik_input>
W0NIM11jMVtjSF1bY0hdYyhbY0hdbjEpW05IXUMoPU8pW05IXVtDSF0yW0NIMl1bQ0gyXU4oW0NIMl1bQ0gyXTIpW0NIXTNbQ0gyXVtDSDJdTihbQ0gzXSlbQ0gyXVtDSDJdMw==

> <s_epik_cmdline>
J2VwaWtfcHl0aG9uJywgJy1waCcsICc3LjAnLCAnLXRuJywgJzgnLCAnLW1hJywgJzIwMCcsICctbWV0YWxfYmluZGluZycsICctaW1hZScsICc8aW5maWxlLm1hZT4nLCAnLW9tYWUnLCAnPG91dGZpbGUubWFlPic=

> <r_epik_Ionization_Penalty>
2.34117

> <r_epik_Ionization_Penalty_Charging>
2.34115

> <r_epik_Ionization_Penalty_Neutral>
2.22786e-05

> <r_epik_State_Penalty>
2.43944

> <r_epik_Charging_Adjusted_Penalty>
4.78059

> <i_epik_Tot_Q>
3

> <i_epik_Tot_abs_Q>
3

> <r_epik_Metal_State_Penalty>
2.45906

> <b_epik_Metal_Only>
0

> <s_lp_Force_Field>
OPLS_2005

> <r_lp_Energy>
52.8488

> <b_lp_Chiralities_Consistent>
1

> <s_lp_Variant>
AV-unprocessed.smi:2772-10

> <Gold.Version>
5.8.1

> <Gold.Id.Protein>
6NUR|6NUR_protein|mol2

> <Gold.PLP.Fitness>
49.1657

> <Gold.PLP.PLP>
-39.9843

> <Gold.PLP.part.hbond>
-3.6687

> <Gold.PLP.part.metal>
0.0000

> <Gold.PLP.part.buried>
-4.5808

> <Gold.PLP.part.nonpolar>
-32.7680

> <Gold.PLP.part.repulsive>
0.2656

> <Gold.PLP.ligand.clash>
0.0000

> <Gold.PLP.ligand.torsion>
0.5051

> <Gold.PLP.Chemscore.Hbond>
3.3830

> <Gold.PLP.Chemscore.CHOScore>
0.0000

> <Gold.PLP.Chemscore.Metal>
0.0000

> <Gold.Chemscore.Hbonds>
donor molecule, donor type, donor heavy atom, donor atom, acceptor molecule, acceptor atom, score
      L1  H     9    31       P1 10957  0.76
      L1  H    13    54       P1 10747  1.00
      L1  H    24    56       P1 10175  1.54

> <Gold.PLP.Chemscore.Internal.Correction>
0.0425

> <Gold.Rescore>
     Score         DG    S(hbond)    S(metal)    S(lipo)     H(rot)  DE(clash)    DE(int)     intcor
     18.63     -21.47       2.45        0.00      93.44       1.22       0.11       2.72       ----

> <Gold.Chemscore.Fitness>
18.6341

> <Gold.Chemscore.DG>
-21.4671

> <Gold.Chemscore.ZeroCoef>
-5.4800

> <Gold.Chemscore.Hbond>
2.4500

> <Gold.Chemscore.Metal>
0.0000

> <Gold.Chemscore.Lipo>
93.4434

> <Gold.Chemscore.Internal_Hbond>
0.0000

> <Gold.Chemscore.DEClash>
0.1131

> <Gold.Chemscore.DEInternal>
2.7199

> <Gold.Chemscore.Rot>
1.2222

> <Gold.Chemscore.Internal.Correction>
   9.000000E+99

> <Gold.Chemscore.Hbonds>
donor molecule, donor type, donor heavy atom, donor atom, acceptor molecule, acceptor atom, score
      L1  H     9    31       P1 10957  0.63
      L1  H    13    54       P1 10747  0.94
      L1  H    24    56       P1 10175  0.22

> <Gold.Chemscore.Hbond.Weighted>
-8.1831

> <Gold.Chemscore.Metal.Weighted>
-0.0000

> <Gold.Chemscore.Lipo.Weighted>
-10.9329

> <Gold.Chemscore.Internal_Hbond.Weighted>
0.0000

> <Gold.Chemscore.DEClash.Weighted>
0.1131

> <Gold.Chemscore.DEInternal.Weighted>
2.7199

> <Gold.Chemscore.Rot.Weighted>
3.1289

> <Gold.Chemscore.Internal.Correction.Weighted>
   9.000000E+99

> <Gold.Protein.RotatedTorsions>
[ 6907 6896 6895 6894 ] final  -74.17 input  -60.11 | X-H torsion
[ 7974 7965 7964 7962 ] final   30.69 input  175.53 | X-H torsion
[ 8008 7997 7996 7995 ] final   18.80 input   59.86 | X-H torsion
[ 10167 10162 10161 10158 ] final  137.38 input  -65.29 | X-H torsion
[ 10718 10713 10712 10709 ] final  -30.09 input   66.30 | X-H torsion
[ 10763 10752 10751 10750 ] final  -83.68 input  -60.55 | X-H torsion
[ 11005 11000 10999 10996 ] final -119.42 input  -57.11 | X-H torsion

> <Gold.Protein.ActiveResidues>
 VAL166  LYS551  ARG553  GLY616  TRP617  ASP618  TYR619  PRO620  LYS621  CYS622 
 ASP623  PHE694  ASN695  SER759  ASP760  ASP761  ALA762  ILE779  LEU786  VAL792 
 PHE793  MET794  SER795  GLU796  ALA797  LYS798  CYS799  TRP800  GLU811  SER814 

> <Gold.Protein.RotatedAtoms>
  150.7103  134.4908  159.5514 H   0  0  0  0  0  0  0  0  0  0  0  0  # atno 6907 bound_to 6896
  152.2526  134.8114  160.0452 H   0  0  0  0  0  0  0  0  0  0  0  0  # atno 6908 bound_to 6896
  151.8856  133.3469  159.3818 H   0  0  0  0  0  0  0  0  0  0  0  0  # atno 6909 bound_to 6896
  146.1596  139.6755  142.9043 H   0  0  0  0  0  0  0  0  0  0  0  0  # atno 7974 bound_to 7965
  154.9113  140.3014  155.5265 H   0  0  0  0  0  0  0  0  0  0  0  0  # atno 8008 bound_to 7997
  156.3014  140.2388  156.4088 H   0  0  0  0  0  0  0  0  0  0  0  0  # atno 8009 bound_to 7997
  154.8422  140.0413  157.1538 H   0  0  0  0  0  0  0  0  0  0  0  0  # atno 8010 bound_to 7997
  139.5146  144.6413  151.5561 H   0  0  0  0  0  0  0  0  0  0  0  0  # atno 10167 bound_to 10162
  156.4042  130.4396  149.7300 H   0  0  0  0  0  0  0  0  0  0  0  0  # atno 10718 bound_to 10713
  154.5906  135.5547  153.7275 H   0  0  0  0  0  0  0  0  0  0  0  0  # atno 10763 bound_to 10752
  153.0115  135.6342  154.1854 H   0  0  0  0  0  0  0  0  0  0  0  0  # atno 10764 bound_to 10752
  154.1795  135.2888  155.3036 H   0  0  0  0  0  0  0  0  0  0  0  0  # atno 10765 bound_to 10752
  141.0216  134.0115  157.3274 H   0  0  0  0  0  0  0  0  0  0  0  0  # atno 11005 bound_to 11000
  145.4622  141.0433  143.2745 LP  0  0  0  0  0  0  0  0  0  0  0  0  # atno 17320 bound_to 7965
  144.8009  139.6143  143.7072 LP  0  0  0  0  0  0  0  0  0  0  0  0  # atno 17321 bound_to 7965
  140.6181  143.9311  150.6504 LP  0  0  0  0  0  0  0  0  0  0  0  0  # atno 17342 bound_to 10162
  140.2575  143.3548  152.1352 LP  0  0  0  0  0  0  0  0  0  0  0  0  # atno 17343 bound_to 10162
  156.4304  130.7812  151.2832 LP  0  0  0  0  0  0  0  0  0  0  0  0  # atno 17370 bound_to 10713
  157.7505  131.0156  150.3509 LP  0  0  0  0  0  0  0  0  0  0  0  0  # atno 17371 bound_to 10713
  139.9150  135.0195  156.7844 LP  0  0  0  0  0  0  0  0  0  0  0  0  # atno 17394 bound_to 11000
  140.6562  133.9686  155.7781 LP  0  0  0  0  0  0  0  0  0  0  0  0  # atno 17395 bound_to 11000

$$$$
