AV-unprocessed.smi:264|AV-procd|sdf|2012|dock3
  -GOLD-   2262021213D 1   1.00000     0.00000
 Structure written by MMmdl.
 52 56  0  0  0  0  0  0  0  0  1 V2000
  145.6616  142.5606  153.4840 C   0  0  0  0  0  0  0  0  0  0  0  0
  146.4232  141.7145  154.5171 C   0  0  1  0  0  0  0  0  0  0  0  0
  145.5223  141.1488  155.4690 O   0  0  0  0  0  0  0  0  0  0  0  0
  145.6765  139.7368  155.5119 C   0  0  0  0  0  0  0  0  0  0  0  0
  147.1065  139.4968  155.0466 C   0  0  0  0  0  0  0  0  0  0  0  0
  147.2819  140.5531  153.9650 C   0  0  1  0  0  0  0  0  0  0  0  0
  146.7346  140.0500  152.7558 O   0  0  0  0  0  0  0  0  0  0  0  0
  148.7539  140.9538  153.7069 C   0  0  0  0  0  0  0  0  0  0  0  0
  149.5856  140.8949  154.8993 N   0  0  0  0  0  0  0  0  0  0  0  0
  149.3797  141.5710  156.0807 C   0  0  0  0  0  0  0  0  0  0  0  0
  150.2754  141.3598  157.0059 N   0  0  0  0  0  0  0  0  0  0  0  0
  151.1587  140.4572  156.4251 C   0  0  0  0  0  0  0  0  0  0  0  0
  152.3500  139.8070  156.8565 C   0  0  0  0  0  0  0  0  0  0  0  0
  152.9282  139.9645  158.0657 N   0  0  0  0  0  0  0  0  0  0  0  0
  152.3821  141.0793  158.8232 C   0  0  0  0  0  0  0  0  0  0  0  0
  153.2550  141.3378  160.0597 C   0  0  0  0  0  0  0  0  0  0  0  0
  153.3805  140.1441  160.8331 O   0  0  0  0  0  0  0  0  0  0  0  0
  153.9258  139.0273  160.1216 C   0  0  2  0  0  0  0  0  0  0  0  0
  153.9168  137.8282  161.0655 C   0  0  0  0  0  0  0  0  0  0  0  0
  155.1958  137.0881  160.7054 C   0  0  0  0  0  0  0  0  0  0  0  0
  156.1096  138.1495  160.5032 O   0  0  0  0  0  0  0  0  0  0  0  0
  155.4320  139.1885  159.8064 C   0  0  0  0  0  0  0  0  0  0  0  0
  153.0670  138.7536  158.8642 C   0  0  0  0  0  0  0  0  0  0  0  0
  152.9768  138.9820  155.9827 N   0  0  0  0  0  0  0  0  0  0  0  0
  152.4656  138.7868  154.7635 C   0  0  0  0  0  0  0  0  0  0  0  0
  151.3636  139.3141  154.2259 N   0  0  0  0  0  0  0  0  0  0  0  0
  150.7383  140.1551  155.0989 C   0  0  0  0  0  0  0  0  0  0  0  0
  146.3425  142.9864  152.7466 H   0  0  0  0  0  0  0  0  0  0  0  0
  145.1419  143.3859  153.9710 H   0  0  0  0  0  0  0  0  0  0  0  0
  144.9125  141.9716  152.9539 H   0  0  0  0  0  0  0  0  0  0  0  0
  147.0665  142.3821  155.0918 H   0  0  0  0  0  0  0  0  0  0  0  0
  145.4863  139.3427  156.5102 H   0  0  0  0  0  0  0  0  0  0  0  0
  144.9654  139.2790  154.8228 H   0  0  0  0  0  0  0  0  0  0  0  0
  147.7865  139.6916  155.8768 H   0  0  0  0  0  0  0  0  0  0  0  0
  147.2820  138.4768  154.7017 H   0  0  0  0  0  0  0  0  0  0  0  0
  145.8333  140.3277  152.6976 H   0  0  0  0  0  0  0  0  0  0  0  0
  149.1936  140.3043  152.9488 H   0  0  0  0  0  0  0  0  0  0  0  0
  148.8063  141.9670  153.3066 H   0  0  0  0  0  0  0  0  0  0  0  0
  148.5426  142.2372  156.2319 H   0  0  0  0  0  0  0  0  0  0  0  0
  152.3404  141.9745  158.2011 H   0  0  0  0  0  0  0  0  0  0  0  0
  151.3602  140.8480  159.1272 H   0  0  0  0  0  0  0  0  0  0  0  0
  154.2355  141.7104  159.7630 H   0  0  0  0  0  0  0  0  0  0  0  0
  152.8032  142.1118  160.6801 H   0  0  0  0  0  0  0  0  0  0  0  0
  153.9845  138.1649  162.1012 H   0  0  0  0  0  0  0  0  0  0  0  0
  153.0253  137.2058  160.9794 H   0  0  0  0  0  0  0  0  0  0  0  0
  155.5300  136.4123  161.4929 H   0  0  0  0  0  0  0  0  0  0  0  0
  155.0766  136.5180  159.7827 H   0  0  0  0  0  0  0  0  0  0  0  0
  155.6277  139.0870  158.7381 H   0  0  0  0  0  0  0  0  0  0  0  0
  155.8360  140.1485  160.1260 H   0  0  0  0  0  0  0  0  0  0  0  0
  152.0793  138.4127  159.1742 H   0  0  0  0  0  0  0  0  0  0  0  0
  153.5064  137.9564  158.2627 H   0  0  0  0  0  0  0  0  0  0  0  0
  153.0201  138.1131  154.1267 H   0  0  0  0  0  0  0  0  0  0  0  0
  1  2  1  0  0  0  0
  1 28  1  0  0  0  0
  1 29  1  0  0  0  0
  1 30  1  0  0  0  0
  2  6  1  0  0  0  0
  2  3  1  0  0  0  0
  2 31  1  0  0  0  0
  3  4  1  0  0  0  0
  4  5  1  0  0  0  0
  4 32  1  0  0  0  0
  4 33  1  0  0  0  0
  5  6  1  0  0  0  0
  5 34  1  0  0  0  0
  5 35  1  0  0  0  0
  6  7  1  0  0  0  0
  6  8  1  0  0  0  0
  7 36  1  0  0  0  0
  8  9  1  0  0  0  0
  8 37  1  0  0  0  0
  8 38  1  0  0  0  0
  9 27  1  0  0  0  0
  9 10  1  0  0  0  0
 10 11  2  0  0  0  0
 10 39  1  0  0  0  0
 11 12  1  0  0  0  0
 12 27  2  0  0  0  0
 12 13  1  0  0  0  0
 13 14  1  0  0  0  0
 13 24  2  0  0  0  0
 14 23  1  0  0  0  0
 14 15  1  0  0  0  0
 15 16  1  0  0  0  0
 15 40  1  0  0  0  0
 15 41  1  0  0  0  0
 16 17  1  0  0  0  0
 16 42  1  0  0  0  0
 16 43  1  0  0  0  0
 17 18  1  0  0  0  0
 18 22  1  0  0  0  0
 18 19  1  0  0  0  0
 18 23  1  0  0  0  0
 19 20  1  0  0  0  0
 19 44  1  0  0  0  0
 19 45  1  0  0  0  0
 20 21  1  0  0  0  0
 20 46  1  0  0  0  0
 20 47  1  0  0  0  0
 21 22  1  0  0  0  0
 22 48  1  0  0  0  0
 22 49  1  0  0  0  0
 23 50  1  0  0  0  0
 23 51  1  0  0  0  0
 24 25  1  0  0  0  0
 25 26  2  0  0  0  0
 25 52  1  0  0  0  0
 26 27  1  0  0  0  0
M  END
> <s_m_source_file>
AV-unprocessed.smi

> <i_m_source_file_index>
264

> <i_lp_mmshare_version>
43012

> <i_f3d_flags>
0

> <s_epik_input>
W0NIMl0xW0NIMl1PW0NAQEhdKFtDSDNdKVtDQEBdMShbT0hdKVtDSDJdbihbY0hdbjIpYyhjMjMpbltjSF1uYzNOKFtDSDJdNClbQ0gyXVtDSDJdT1tDQF00NVtDSDJdW0NIMl1PW0NIMl01

> <s_epik_cmdline>
J2VwaWtfcHl0aG9uJywgJy1waCcsICc3LjAnLCAnLXRuJywgJzgnLCAnLW1hJywgJzIwMCcsICctbWV0YWxfYmluZGluZycsICctaW1hZScsICc8aW5maWxlLm1hZT4nLCAnLW9tYWUnLCAnPG91dGZpbGUubWFlPic=

> <r_lp_tautomer_probability>
1

> <r_epik_Ionization_Penalty>
0.00539389

> <r_epik_Ionization_Penalty_Charging>
0

> <r_epik_Ionization_Penalty_Neutral>
0.00539389

> <r_epik_State_Penalty>
0.00375441

> <r_epik_Charging_Adjusted_Penalty>
0.00375441

> <i_epik_Tot_Q>
0

> <i_epik_Tot_abs_Q>
0

> <r_epik_Metal_State_Penalty>
-0

> <b_epik_Metal_Only>
0

> <s_lp_Force_Field>
OPLS_2005

> <r_lp_Energy>
56.7772

> <b_lp_Chiralities_Consistent>
1

> <s_lp_Variant>
AV-unprocessed.smi:264-6

> <Gold.Version>
5.8.1

> <Gold.Id.Protein>
6NUR|6NUR_protein|mol2

> <Gold.PLP.Fitness>
45.3527

> <Gold.PLP.PLP>
-39.2992

> <Gold.PLP.part.hbond>
-3.7244

> <Gold.PLP.part.metal>
0.0000

> <Gold.PLP.part.buried>
-1.2561

> <Gold.PLP.part.nonpolar>
-34.3311

> <Gold.PLP.part.repulsive>
0.3081

> <Gold.PLP.ligand.clash>
0.0000

> <Gold.PLP.ligand.torsion>
0.5876

> <Gold.PLP.Chemscore.Hbond>
1.3546

> <Gold.PLP.Chemscore.CHOScore>
0.9990

> <Gold.PLP.Chemscore.Metal>
0.0000

> <Gold.Chemscore.Hbonds>
donor molecule, donor type, donor heavy atom, donor atom, acceptor molecule, acceptor atom, score
      L1  H     7    36       P1 10175  0.68
      P1  H  7997  8008       L1    24  0.14
      P1  H  7997  8010       L1    14  0.30
      L1  C    10    39       P1  8028  0.70

> <Gold.PLP.Chemscore.Internal.Correction>
0.1677

> <Gold.Rescore>
     Score         DG    S(hbond)    S(metal)    S(lipo)     H(rot)  DE(clash)    DE(int)     intcor
      9.43     -11.33       0.79        0.00      73.45       2.11       0.14       1.76       ----

> <Gold.Chemscore.Fitness>
9.4311

> <Gold.Chemscore.DG>
-11.3292

> <Gold.Chemscore.ZeroCoef>
-5.4800

> <Gold.Chemscore.Hbond>
0.7928

> <Gold.Chemscore.Metal>
0.0000

> <Gold.Chemscore.Lipo>
73.4472

> <Gold.Chemscore.Internal_Hbond>
0.0000

> <Gold.Chemscore.DEClash>
0.1410

> <Gold.Chemscore.DEInternal>
1.7571

> <Gold.Chemscore.Rot>
2.1063

> <Gold.Chemscore.Internal.Correction>
   9.000000E+99

> <Gold.Chemscore.Hbonds>
donor molecule, donor type, donor heavy atom, donor atom, acceptor molecule, acceptor atom, score
      L1  H     7    36       P1 10175  0.52
      P1  H  7997  8008       L1    24  0.01
      P1  H  7997  8010       L1    14  0.01

> <Gold.Chemscore.Hbond.Weighted>
-2.6480

> <Gold.Chemscore.Metal.Weighted>
-0.0000

> <Gold.Chemscore.Lipo.Weighted>
-8.5933

> <Gold.Chemscore.Internal_Hbond.Weighted>
0.0000

> <Gold.Chemscore.DEClash.Weighted>
0.1410

> <Gold.Chemscore.DEInternal.Weighted>
1.7571

> <Gold.Chemscore.Rot.Weighted>
5.3921

> <Gold.Chemscore.Internal.Correction.Weighted>
   9.000000E+99

> <Gold.Protein.RotatedTorsions>
[ 6907 6896 6895 6894 ] final  115.96 input  -60.11 | X-H torsion
[ 7974 7965 7964 7962 ] final   20.31 input  175.53 | X-H torsion
[ 8008 7997 7996 7995 ] final   11.21 input   59.86 | X-H torsion
[ 10167 10162 10161 10158 ] final   80.03 input  -65.29 | X-H torsion
[ 10718 10713 10712 10709 ] final   43.02 input   66.30 | X-H torsion
[ 10763 10752 10751 10750 ] final  178.61 input  -60.55 | X-H torsion
[ 11005 11000 10999 10996 ] final -150.43 input  -57.11 | X-H torsion

> <Gold.Protein.ActiveResidues>
 VAL166  LYS551  ARG553  GLY616  TRP617  ASP618  TYR619  PRO620  LYS621  CYS622 
 ASP623  PHE694  ASN695  SER759  ASP760  ASP761  ALA762  ILE779  LEU786  VAL792 
 PHE793  MET794  SER795  GLU796  ALA797  LYS798  CYS799  TRP800  GLU811  SER814 

> <Gold.Protein.RotatedAtoms>
  152.4708  133.8026  159.6960 H   0  0  0  0  0  0  0  0  0  0  0  0  # atno 6907 bound_to 6896
  150.8697  133.7514  159.2972 H   0  0  0  0  0  0  0  0  0  0  0  0  # atno 6908 bound_to 6896
  151.5053  135.1066  159.9891 H   0  0  0  0  0  0  0  0  0  0  0  0  # atno 6909 bound_to 6896
  146.2116  139.8188  142.8684 H   0  0  0  0  0  0  0  0  0  0  0  0  # atno 7974 bound_to 7965
  154.8039  140.2856  155.5901 H   0  0  0  0  0  0  0  0  0  0  0  0  # atno 8008 bound_to 7997
  156.2980  140.2581  156.2842 H   0  0  0  0  0  0  0  0  0  0  0  0  # atno 8009 bound_to 7997
  154.9526  140.0379  157.2141 H   0  0  0  0  0  0  0  0  0  0  0  0  # atno 8010 bound_to 7997
  139.9541  144.6006  150.8134 H   0  0  0  0  0  0  0  0  0  0  0  0  # atno 10167 bound_to 10162
  157.4113  130.7916  149.7433 H   0  0  0  0  0  0  0  0  0  0  0  0  # atno 10718 bound_to 10713
  154.5099  135.2788  155.1352 H   0  0  0  0  0  0  0  0  0  0  0  0  # atno 10763 bound_to 10752
  154.2951  135.6259  153.5405 H   0  0  0  0  0  0  0  0  0  0  0  0  # atno 10764 bound_to 10752
  152.9917  135.5683  154.5561 H   0  0  0  0  0  0  0  0  0  0  0  0  # atno 10765 bound_to 10752
  140.7402  134.3522  157.5149 H   0  0  0  0  0  0  0  0  0  0  0  0  # atno 11005 bound_to 11000
  145.3118  141.0222  143.3550 LP  0  0  0  0  0  0  0  0  0  0  0  0  # atno 17320 bound_to 7965
  144.8930  139.4749  143.6669 LP  0  0  0  0  0  0  0  0  0  0  0  0  # atno 17321 bound_to 7965
  140.7574  143.3085  151.2902 LP  0  0  0  0  0  0  0  0  0  0  0  0  # atno 17342 bound_to 10162
  139.6606  144.0197  152.2689 LP  0  0  0  0  0  0  0  0  0  0  0  0  # atno 17343 bound_to 10162
  155.9851  130.3985  150.3276 LP  0  0  0  0  0  0  0  0  0  0  0  0  # atno 17370 bound_to 10713
  157.1415  131.0297  151.2926 LP  0  0  0  0  0  0  0  0  0  0  0  0  # atno 17371 bound_to 10713
  139.8807  134.9076  156.2948 LP  0  0  0  0  0  0  0  0  0  0  0  0  # atno 17394 bound_to 11000
  140.9843  133.7248  156.0718 LP  0  0  0  0  0  0  0  0  0  0  0  0  # atno 17395 bound_to 11000

$$$$
