AV-unprocessed.smi:252|AV-procd|sdf|1936|dock2
  -GOLD-   2262021 53D 1   1.00000     0.00000
 Structure written by MMmdl.
 56 59  0  0  0  0  0  0  0  0  1 V2000
  152.5462  144.0499  159.2170 C   0  0  0  0  0  0  0  0  0  0  0  0
  151.5810  144.0972  158.0221 C   0  0  0  0  0  0  0  0  0  0  0  0
  151.3476  142.7298  157.3716 C   0  0  0  0  0  0  0  0  0  0  0  0
  151.9222  141.7243  157.7900 O   0  0  0  0  0  0  0  0  0  0  0  0
  150.4919  142.7108  156.3383 N   0  0  0  0  0  0  0  0  0  0  0  0
  150.1257  141.5269  155.5677 C   0  0  2  0  0  0  0  0  0  0  0  0
  148.8534  141.7905  154.7384 C   0  0  0  0  0  0  0  0  0  0  0  0
  148.4095  140.5104  154.0152 C   0  0  0  0  0  0  0  0  0  0  0  0
  148.2345  139.3496  155.0070 C   0  0  0  0  0  0  0  0  0  0  0  0
  149.4506  139.1549  155.7984 N   0  0  0  0  0  0  0  0  0  0  0  0
  149.5783  137.9894  156.4821 C   0  0  0  0  0  0  0  0  0  0  0  0
  150.5266  137.0862  156.1142 N   0  0  0  0  0  0  0  0  0  0  0  0
  150.6474  135.9286  156.7705 C   0  0  0  0  0  0  0  0  0  0  0  0
  149.9376  135.4790  157.8068 N   0  0  0  0  0  0  0  0  0  0  0  0
  148.9927  136.3848  158.1895 C   0  0  0  0  0  0  0  0  0  0  0  0
  148.7471  137.6514  157.5875 C   0  0  0  0  0  0  0  0  0  0  0  0
  147.7114  138.2972  158.2529 N   0  0  0  0  0  0  0  0  0  0  0  0
  147.3580  137.4563  159.1859 C   0  0  0  0  0  0  0  0  0  0  0  0
  148.0789  136.2843  159.2243 N   0  0  0  0  0  0  0  0  0  0  0  0
  147.8979  135.1787  160.1532 C   0  0  0  0  0  0  0  0  0  0  0  0
  147.1815  135.5833  161.4687 C   0  0  1  0  0  0  0  0  0  0  0  0
  147.8872  136.6740  162.0365 O   0  0  0  0  0  0  0  0  0  0  0  0
  145.7332  136.0216  161.2644 C   0  0  0  0  0  0  0  0  0  0  0  0
  145.0713  135.6486  162.5820 C   0  0  0  0  0  0  0  0  0  0  0  0
  145.6790  134.4060  162.8852 O   0  0  0  0  0  0  0  0  0  0  0  0
  147.0639  134.4785  162.5574 C   0  0  1  0  0  0  0  0  0  0  0  0
  147.5253  133.0658  162.1662 C   0  0  0  0  0  0  0  0  0  0  0  0
  149.9132  140.3384  156.5230 C   0  0  0  0  0  0  0  0  0  0  0  0
  152.7158  145.0509  159.6143 H   0  0  0  0  0  0  0  0  0  0  0  0
  153.5156  143.6405  158.9301 H   0  0  0  0  0  0  0  0  0  0  0  0
  152.1479  143.4384  160.0276 H   0  0  0  0  0  0  0  0  0  0  0  0
  150.6192  144.4999  158.3413 H   0  0  0  0  0  0  0  0  0  0  0  0
  151.9746  144.7831  157.2704 H   0  0  0  0  0  0  0  0  0  0  0  0
  150.0644  143.5831  156.0628 H   0  0  0  0  0  0  0  0  0  0  0  0
  150.9433  141.2715  154.8904 H   0  0  0  0  0  0  0  0  0  0  0  0
  148.0497  142.1364  155.3901 H   0  0  0  0  0  0  0  0  0  0  0  0
  149.0297  142.5840  154.0114 H   0  0  0  0  0  0  0  0  0  0  0  0
  147.4775  140.6866  153.4778 H   0  0  0  0  0  0  0  0  0  0  0  0
  149.1539  140.2393  153.2653 H   0  0  0  0  0  0  0  0  0  0  0  0
  147.3976  139.5553  155.6761 H   0  0  0  0  0  0  0  0  0  0  0  0
  147.9937  138.4384  154.4579 H   0  0  0  0  0  0  0  0  0  0  0  0
  151.4223  135.2669  156.4124 H   0  0  0  0  0  0  0  0  0  0  0  0
  146.5573  137.6717  159.8783 H   0  0  0  0  0  0  0  0  0  0  0  0
  147.3318  134.4054  159.6330 H   0  0  0  0  0  0  0  0  0  0  0  0
  148.8779  134.7516  160.3691 H   0  0  0  0  0  0  0  0  0  0  0  0
  147.8518  136.5973  162.9777 H   0  0  0  0  0  0  0  0  0  0  0  0
  145.6215  137.0767  161.0103 H   0  0  0  0  0  0  0  0  0  0  0  0
  145.2737  135.4378  160.4660 H   0  0  0  0  0  0  0  0  0  0  0  0
  145.3042  136.3757  163.3615 H   0  0  0  0  0  0  0  0  0  0  0  0
  143.9879  135.5590  162.5014 H   0  0  0  0  0  0  0  0  0  0  0  0
  147.6005  134.7763  163.4604 H   0  0  0  0  0  0  0  0  0  0  0  0
  148.5858  133.0485  161.9146 H   0  0  0  0  0  0  0  0  0  0  0  0
  146.9642  132.6820  161.3139 H   0  0  0  0  0  0  0  0  0  0  0  0
  147.3761  132.3708  162.9927 H   0  0  0  0  0  0  0  0  0  0  0  0
  150.8398  140.1383  157.0603 H   0  0  0  0  0  0  0  0  0  0  0  0
  149.1663  140.5931  157.2767 H   0  0  0  0  0  0  0  0  0  0  0  0
  1  2  1  0  0  0  0
  1 29  1  0  0  0  0
  1 30  1  0  0  0  0
  1 31  1  0  0  0  0
  2  3  1  0  0  0  0
  2 32  1  0  0  0  0
  2 33  1  0  0  0  0
  3  4  2  0  0  0  0
  3  5  1  0  0  0  0
  5  6  1  0  0  0  0
  5 34  1  0  0  0  0
  6 28  1  0  0  0  0
  6  7  1  0  0  0  0
  6 35  1  0  0  0  0
  7  8  1  0  0  0  0
  7 36  1  0  0  0  0
  7 37  1  0  0  0  0
  8  9  1  0  0  0  0
  8 38  1  0  0  0  0
  8 39  1  0  0  0  0
  9 10  1  0  0  0  0
  9 40  1  0  0  0  0
  9 41  1  0  0  0  0
 10 11  1  0  0  0  0
 10 28  1  0  0  0  0
 11 16  1  0  0  0  0
 11 12  2  0  0  0  0
 12 13  1  0  0  0  0
 13 14  2  0  0  0  0
 13 42  1  0  0  0  0
 14 15  1  0  0  0  0
 15 19  1  0  0  0  0
 15 16  2  0  0  0  0
 16 17  1  0  0  0  0
 17 18  2  0  0  0  0
 18 19  1  0  0  0  0
 18 43  1  0  0  0  0
 19 20  1  0  0  0  0
 20 21  1  0  0  0  0
 20 44  1  0  0  0  0
 20 45  1  0  0  0  0
 21 26  1  0  0  0  0
 21 22  1  0  0  0  0
 21 23  1  0  0  0  0
 22 46  1  0  0  0  0
 23 24  1  0  0  0  0
 23 47  1  0  0  0  0
 23 48  1  0  0  0  0
 24 25  1  0  0  0  0
 24 49  1  0  0  0  0
 24 50  1  0  0  0  0
 25 26  1  0  0  0  0
 26 27  1  0  0  0  0
 26 51  1  0  0  0  0
 27 52  1  0  0  0  0
 27 53  1  0  0  0  0
 27 54  1  0  0  0  0
 28 55  1  0  0  0  0
 28 56  1  0  0  0  0
M  END
> <s_m_source_file>
AV-unprocessed.smi

> <i_m_source_file_index>
252

> <i_lp_mmshare_version>
43012

> <i_f3d_flags>
0

> <s_epik_input>
W0NIM11bQ0gyXUMoPU8pW05IXVtDQEBIXTFbQ0gyXVtDSDJdW0NIMl1OKFtDSDJdMSljKG5bY0hdbjIpYyhjMjMpbltjSF1uM1tDSDJdW0NAQF00KFtPSF0pW0NIMl1bQ0gyXU9bQ0BIXTRbQ0gzXQ==

> <s_epik_cmdline>
J2VwaWtfcHl0aG9uJywgJy1waCcsICc3LjAnLCAnLXRuJywgJzgnLCAnLW1hJywgJzIwMCcsICctbWV0YWxfYmluZGluZycsICctaW1hZScsICc8aW5maWxlLm1hZT4nLCAnLW9tYWUnLCAnPG91dGZpbGUubWFlPic=

> <r_lp_tautomer_probability>
1

> <r_epik_Ionization_Penalty>
0.00182575

> <r_epik_Ionization_Penalty_Charging>
0

> <r_epik_Ionization_Penalty_Neutral>
0.00182575

> <r_epik_State_Penalty>
0.00104524

> <r_epik_Charging_Adjusted_Penalty>
0.00104524

> <i_epik_Tot_Q>
0

> <i_epik_Tot_abs_Q>
0

> <r_epik_Metal_State_Penalty>
-0

> <b_epik_Metal_Only>
0

> <s_lp_Force_Field>
OPLS_2005

> <r_lp_Energy>
34.3477

> <b_lp_Chiralities_Consistent>
1

> <s_lp_Variant>
AV-unprocessed.smi:252-1

> <Gold.Version>
5.8.1

> <Gold.Id.Protein>
6NUR|6NUR_protein|mol2

> <Gold.PLP.Fitness>
49.3018

> <Gold.PLP.PLP>
-41.7708

> <Gold.PLP.part.hbond>
-4.0909

> <Gold.PLP.part.metal>
0.0000

> <Gold.PLP.part.buried>
-3.9804

> <Gold.PLP.part.nonpolar>
-34.4337

> <Gold.PLP.part.repulsive>
0.1549

> <Gold.PLP.ligand.clash>
0.0007

> <Gold.PLP.ligand.torsion>
0.7482

> <Gold.PLP.Chemscore.Hbond>
2.8320

> <Gold.PLP.Chemscore.CHOScore>
0.0000

> <Gold.PLP.Chemscore.Metal>
0.0000

> <Gold.Chemscore.Hbonds>
donor molecule, donor type, donor heavy atom, donor atom, acceptor molecule, acceptor atom, score
      L1  H     5    34       P1  8028  1.00
      P1  H  6896  6909       L1    14  0.76
      P1  H  6931  6943       L1    22  0.90

> <Gold.PLP.Chemscore.Internal.Correction>
0.5321

> <Gold.Rescore>
     Score         DG    S(hbond)    S(metal)    S(lipo)     H(rot)  DE(clash)    DE(int)     intcor
     15.26     -19.40       2.74        0.00      99.90       2.70       0.57       3.56       ----

> <Gold.Chemscore.Fitness>
15.2631

> <Gold.Chemscore.DG>
-19.3960

> <Gold.Chemscore.ZeroCoef>
-5.4800

> <Gold.Chemscore.Hbond>
2.7396

> <Gold.Chemscore.Metal>
0.0000

> <Gold.Chemscore.Lipo>
99.8983

> <Gold.Chemscore.Internal_Hbond>
0.0000

> <Gold.Chemscore.DEClash>
0.5724

> <Gold.Chemscore.DEInternal>
3.5605

> <Gold.Chemscore.Rot>
2.7041

> <Gold.Chemscore.Internal.Correction>
   9.000000E+99

> <Gold.Chemscore.Hbonds>
donor molecule, donor type, donor heavy atom, donor atom, acceptor molecule, acceptor atom, score
      L1  H     5    34       P1  8028  1.00
      P1  H  6896  6909       L1    14  0.52
      P1  H  6931  6943       L1    22  0.18

> <Gold.Chemscore.Hbond.Weighted>
-9.1504

> <Gold.Chemscore.Metal.Weighted>
-0.0000

> <Gold.Chemscore.Lipo.Weighted>
-11.6881

> <Gold.Chemscore.Internal_Hbond.Weighted>
0.0000

> <Gold.Chemscore.DEClash.Weighted>
0.5724

> <Gold.Chemscore.DEInternal.Weighted>
3.5605

> <Gold.Chemscore.Rot.Weighted>
6.9225

> <Gold.Chemscore.Internal.Correction.Weighted>
   9.000000E+99

> <Gold.Protein.RotatedTorsions>
[ 6907 6896 6895 6894 ] final   44.74 input  -60.11 | X-H torsion
[ 7974 7965 7964 7962 ] final   61.21 input  175.53 | X-H torsion
[ 8008 7997 7996 7995 ] final -114.45 input   59.86 | X-H torsion
[ 10167 10162 10161 10158 ] final   87.17 input  -65.29 | X-H torsion
[ 10718 10713 10712 10709 ] final  169.99 input   66.30 | X-H torsion
[ 10763 10752 10751 10750 ] final  -91.74 input  -60.55 | X-H torsion
[ 11005 11000 10999 10996 ] final  -52.27 input  -57.11 | X-H torsion

> <Gold.Protein.ActiveResidues>
 VAL166  LYS551  ARG553  GLY616  TRP617  ASP618  TYR619  PRO620  LYS621  CYS622 
 ASP623  PHE694  ASN695  SER759  ASP760  ASP761  ALA762  ILE779  LEU786  VAL792 
 PHE793  MET794  SER795  GLU796  ALA797  LYS798  CYS799  TRP800  GLU811  SER814 

> <Gold.Protein.RotatedAtoms>
  152.2362  134.8274  160.0466 H   0  0  0  0  0  0  0  0  0  0  0  0  # atno 6907 bound_to 6896
  151.9005  133.3532  159.3837 H   0  0  0  0  0  0  0  0  0  0  0  0  # atno 6908 bound_to 6896
  150.7040  134.4759  159.5491 H   0  0  0  0  0  0  0  0  0  0  0  0  # atno 6909 bound_to 6896
  145.8873  139.3485  143.0670 H   0  0  0  0  0  0  0  0  0  0  0  0  # atno 7974 bound_to 7965
  155.0365  140.0392  157.2493 H   0  0  0  0  0  0  0  0  0  0  0  0  # atno 8008 bound_to 7997
  154.7252  140.2720  155.6481 H   0  0  0  0  0  0  0  0  0  0  0  0  # atno 8009 bound_to 7997
  156.2827  140.2695  156.1936 H   0  0  0  0  0  0  0  0  0  0  0  0  # atno 8010 bound_to 7997
  139.8800  144.6445  150.8853 H   0  0  0  0  0  0  0  0  0  0  0  0  # atno 10167 bound_to 10162
  157.0146  131.0214  151.2793 H   0  0  0  0  0  0  0  0  0  0  0  0  # atno 10718 bound_to 10713
  154.6791  135.5256  153.8239 H   0  0  0  0  0  0  0  0  0  0  0  0  # atno 10763 bound_to 10752
  153.0553  135.6548  154.0603 H   0  0  0  0  0  0  0  0  0  0  0  0  # atno 10764 bound_to 10752
  154.0493  135.2970  155.3323 H   0  0  0  0  0  0  0  0  0  0  0  0  # atno 10765 bound_to 10752
  141.0915  133.6632  156.4000 H   0  0  0  0  0  0  0  0  0  0  0  0  # atno 11005 bound_to 11000
  145.8951  140.9279  143.0532 LP  0  0  0  0  0  0  0  0  0  0  0  0  # atno 17320 bound_to 7965
  144.6729  140.0958  143.7463 LP  0  0  0  0  0  0  0  0  0  0  0  0  # atno 17321 bound_to 7965
  140.7746  143.3593  151.1859 LP  0  0  0  0  0  0  0  0  0  0  0  0  # atno 17342 bound_to 10162
  139.7204  143.9232  152.2983 LP  0  0  0  0  0  0  0  0  0  0  0  0  # atno 17343 bound_to 10162
  157.5295  130.8049  149.7900 LP  0  0  0  0  0  0  0  0  0  0  0  0  # atno 17370 bound_to 10713
  156.0124  130.3828  150.2222 LP  0  0  0  0  0  0  0  0  0  0  0  0  # atno 17371 bound_to 10713
  140.5240  134.6277  157.5327 LP  0  0  0  0  0  0  0  0  0  0  0  0  # atno 17394 bound_to 11000
  139.9743  134.7242  155.9981 LP  0  0  0  0  0  0  0  0  0  0  0  0  # atno 17395 bound_to 11000

$$$$
