AV-unprocessed.smi:1180|AV-procd|sdf|4962|dock10
  -GOLD-   22720 3553D 1   1.00000     0.00000
 Structure written by MMmdl.
 38 39  0  0  0  0  0  0  0  0  1 V2000
  151.1528  143.5057  157.4540 C   0  0  0  0  0  0  0  0  0  0  0  0
  151.0376  142.1739  156.7449 C   0  0  0  0  0  0  0  0  0  0  0  0
  150.0322  142.1349  155.7929 N   0  0  0  0  0  0  0  0  0  0  0  0
  149.8486  140.9558  155.0926 C   0  0  0  0  0  0  0  0  0  0  0  0
  148.7260  140.9971  154.0706 C   0  0  0  0  0  0  0  0  0  0  0  0
  150.6319  139.8718  155.3248 C   0  0  0  0  0  0  0  0  0  0  0  0
  150.4703  138.5534  154.5687 C   0  0  0  0  0  0  0  0  0  0  0  0
  150.2370  137.3051  155.4247 C   0  0  0  0  0  0  0  0  0  0  0  0
  150.4165  137.3338  156.6428 O   0  0  0  0  0  0  0  0  0  0  0  0
  149.8304  136.2095  154.7668 N   0  0  0  0  0  0  0  0  0  0  0  0
  149.5331  134.9216  155.3844 C   0  0  0  0  0  0  0  0  0  0  0  0
  149.5437  133.7701  154.3604 C   0  0  2  0  0  0  0  0  0  0  0  0
  148.2656  133.6610  153.5371 C   0  0  0  0  0  0  0  0  0  0  0  0
  148.0355  132.1530  153.3881 C   0  0  0  0  0  0  0  0  0  0  0  0
  149.1923  131.5352  153.9348 O   0  0  0  0  0  0  0  0  0  0  0  0
  149.6710  132.3752  154.9705 C   0  0  0  0  0  0  0  0  0  0  0  0
  151.6987  139.9776  156.3480 C   0  0  0  0  0  0  0  0  0  0  0  0
  152.4522  139.0358  156.5915 O   0  0  0  0  0  0  0  0  0  0  0  0
  151.8363  141.1930  157.0381 N   0  0  0  0  0  0  0  0  0  0  0  0
  149.4298  142.9185  155.5859 H   0  0  0  0  0  0  0  0  0  0  0  0
  151.8206  143.4332  158.3134 H   0  0  0  0  0  0  0  0  0  0  0  0
  150.1766  143.8374  157.8092 H   0  0  0  0  0  0  0  0  0  0  0  0
  151.5507  144.2607  156.7753 H   0  0  0  0  0  0  0  0  0  0  0  0
  147.9482  140.2785  154.3300 H   0  0  0  0  0  0  0  0  0  0  0  0
  149.1042  140.7533  153.0776 H   0  0  0  0  0  0  0  0  0  0  0  0
  148.2654  141.9846  154.0196 H   0  0  0  0  0  0  0  0  0  0  0  0
  151.3661  138.3801  153.9723 H   0  0  0  0  0  0  0  0  0  0  0  0
  149.6635  138.6354  153.8391 H   0  0  0  0  0  0  0  0  0  0  0  0
  149.7096  136.2742  153.7664 H   0  0  0  0  0  0  0  0  0  0  0  0
  150.2800  134.7410  156.1580 H   0  0  0  0  0  0  0  0  0  0  0  0
  148.5686  134.9669  155.8929 H   0  0  0  0  0  0  0  0  0  0  0  0
  150.3751  133.9084  153.6670 H   0  0  0  0  0  0  0  0  0  0  0  0
  147.4149  134.1205  154.0420 H   0  0  0  0  0  0  0  0  0  0  0  0
  148.3812  134.1517  152.5700 H   0  0  0  0  0  0  0  0  0  0  0  0
  147.1594  131.8421  153.9588 H   0  0  0  0  0  0  0  0  0  0  0  0
  147.8880  131.8529  152.3504 H   0  0  0  0  0  0  0  0  0  0  0  0
  150.6963  132.1273  155.2463 H   0  0  0  0  0  0  0  0  0  0  0  0
  149.0384  132.2671  155.8532 H   0  0  0  0  0  0  0  0  0  0  0  0
  1 21  1  0  0  0  0
  1 22  1  0  0  0  0
  1 23  1  0  0  0  0
  1  2  1  0  0  0  0
  2  3  1  0  0  0  0
  2 19  2  0  0  0  0
  3  4  1  0  0  0  0
  3 20  1  0  0  0  0
  4  6  2  0  0  0  0
  4  5  1  0  0  0  0
  5 24  1  0  0  0  0
  5 25  1  0  0  0  0
  5 26  1  0  0  0  0
  6 17  1  0  0  0  0
  6  7  1  0  0  0  0
  7  8  1  0  0  0  0
  7 27  1  0  0  0  0
  7 28  1  0  0  0  0
  8  9  2  0  0  0  0
  8 10  1  0  0  0  0
 10 11  1  0  0  0  0
 10 29  1  0  0  0  0
 11 12  1  0  0  0  0
 11 30  1  0  0  0  0
 11 31  1  0  0  0  0
 12 16  1  0  0  0  0
 12 13  1  0  0  0  0
 12 32  1  0  0  0  0
 13 14  1  0  0  0  0
 13 33  1  0  0  0  0
 13 34  1  0  0  0  0
 14 15  1  0  0  0  0
 14 35  1  0  0  0  0
 14 36  1  0  0  0  0
 15 16  1  0  0  0  0
 16 37  1  0  0  0  0
 16 38  1  0  0  0  0
 17 18  2  0  0  0  0
 17 19  1  0  0  0  0
M  END
> <s_m_source_file>
AV-unprocessed.smi

> <i_m_source_file_index>
1180

> <i_lp_mmshare_version>
43012

> <i_f3d_flags>
0

> <s_epik_input>
W0NIM11jMW5jKFtDSDNdKWMoYyg9TylbbkhdMSlbQ0gyXUMoPU8pW05IXVtDSDJdW0NAQEhdMltDSDJdW0NIMl1PW0NIMl0y

> <s_epik_cmdline>
J2VwaWtfcHl0aG9uJywgJy1waCcsICc3LjAnLCAnLXRuJywgJzgnLCAnLW1hJywgJzIwMCcsICctbWV0YWxfYmluZGluZycsICctaW1hZScsICc8aW5maWxlLm1hZT4nLCAnLW9tYWUnLCAnPG91dGZpbGUubWFlPic=

> <r_lp_tautomer_probability>
0.156392

> <r_epik_Ionization_Penalty>
0.014237

> <r_epik_Ionization_Penalty_Charging>
0.0141173

> <r_epik_Ionization_Penalty_Neutral>
0.000119724

> <r_epik_State_Penalty>
1.52876

> <r_epik_Charging_Adjusted_Penalty>
1.54288

> <i_epik_Tot_Q>
0

> <i_epik_Tot_abs_Q>
0

> <r_epik_Metal_State_Penalty>
1.70686

> <b_epik_Metal_Only>
0

> <s_lp_Force_Field>
OPLS_2005

> <r_lp_Energy>
24.076

> <b_lp_Chiralities_Consistent>
1

> <s_lp_Variant>
AV-unprocessed.smi:1180-3

> <Gold.Version>
5.8.1

> <Gold.Id.Protein>
6NUR|6NUR_protein|mol2

> <Gold.PLP.Fitness>
41.0495

> <Gold.PLP.PLP>
-32.9845

> <Gold.PLP.part.hbond>
-2.9842

> <Gold.PLP.part.metal>
0.0000

> <Gold.PLP.part.buried>
2.5496

> <Gold.PLP.part.nonpolar>
-30.5787

> <Gold.PLP.part.repulsive>
0.2823

> <Gold.PLP.ligand.clash>
0.0000

> <Gold.PLP.ligand.torsion>
0.4575

> <Gold.PLP.Chemscore.Hbond>
2.9913

> <Gold.PLP.Chemscore.CHOScore>
0.0000

> <Gold.PLP.Chemscore.Metal>
0.0000

> <Gold.Chemscore.Hbonds>
donor molecule, donor type, donor heavy atom, donor atom, acceptor molecule, acceptor atom, score
      L1  H     3    20       P1  8028  1.00
      L1  H    10    29       P1  7948  1.00
      P1  H  7997  8008       L1    18  0.51

> <Gold.PLP.Chemscore.Internal.Correction>
0.0062

> <Gold.Rescore>
     Score         DG    S(hbond)    S(metal)    S(lipo)     H(rot)  DE(clash)    DE(int)     intcor
     12.60     -17.27       2.60        0.00      66.04       1.81       2.04       2.64       ----

> <Gold.Chemscore.Fitness>
12.5996

> <Gold.Chemscore.DG>
-17.2747

> <Gold.Chemscore.ZeroCoef>
-5.4800

> <Gold.Chemscore.Hbond>
2.6025

> <Gold.Chemscore.Metal>
0.0000

> <Gold.Chemscore.Lipo>
66.0440

> <Gold.Chemscore.Internal_Hbond>
0.0000

> <Gold.Chemscore.DEClash>
2.0351

> <Gold.Chemscore.DEInternal>
2.6400

> <Gold.Chemscore.Rot>
1.8065

> <Gold.Chemscore.Internal.Correction>
   9.000000E+99

> <Gold.Chemscore.Hbonds>
donor molecule, donor type, donor heavy atom, donor atom, acceptor molecule, acceptor atom, score
      L1  H     3    20       P1  8028  0.98
      L1  H    10    29       P1  7948  0.37
      P1  H  7997  8008       L1    18  0.09

> <Gold.Chemscore.Hbond.Weighted>
-8.6922

> <Gold.Chemscore.Metal.Weighted>
-0.0000

> <Gold.Chemscore.Lipo.Weighted>
-7.7271

> <Gold.Chemscore.Internal_Hbond.Weighted>
0.0000

> <Gold.Chemscore.DEClash.Weighted>
2.0351

> <Gold.Chemscore.DEInternal.Weighted>
2.6400

> <Gold.Chemscore.Rot.Weighted>
4.6246

> <Gold.Chemscore.Internal.Correction.Weighted>
   9.000000E+99

> <Gold.Protein.RotatedTorsions>
[ 6907 6896 6895 6894 ] final  -35.42 input  -60.11 | X-H torsion
[ 7974 7965 7964 7962 ] final  131.66 input  175.53 | X-H torsion
[ 8008 7997 7996 7995 ] final  -42.13 input   59.86 | X-H torsion
[ 10167 10162 10161 10158 ] final -153.11 input  -65.29 | X-H torsion
[ 10718 10713 10712 10709 ] final   19.23 input   66.30 | X-H torsion
[ 10763 10752 10751 10750 ] final -102.54 input  -60.55 | X-H torsion
[ 11005 11000 10999 10996 ] final   13.56 input  -57.11 | X-H torsion

> <Gold.Protein.ActiveResidues>
 VAL166  LYS551  ARG553  GLY616  TRP617  ASP618  TYR619  PRO620  LYS621  CYS622 
 ASP623  PHE694  ASN695  SER759  ASP760  ASP761  ALA762  ILE779  LEU786  VAL792 
 PHE793  MET794  SER795  GLU796  ALA797  LYS798  CYS799  TRP800  GLU811  SER814 

> <Gold.Protein.RotatedAtoms>
  151.0400  134.9600  159.8156 H   0  0  0  0  0  0  0  0  0  0  0  0  # atno 6907 bound_to 6896
  152.5362  134.2670  159.8967 H   0  0  0  0  0  0  0  0  0  0  0  0  # atno 6908 bound_to 6896
  151.2682  133.4225  159.2653 H   0  0  0  0  0  0  0  0  0  0  0  0  # atno 6909 bound_to 6896
  145.0050  139.4275  143.5273 H   0  0  0  0  0  0  0  0  0  0  0  0  # atno 7974 bound_to 7965
  154.4000  140.1481  156.3304 H   0  0  0  0  0  0  0  0  0  0  0  0  # atno 8008 bound_to 7997
  155.8448  140.3460  155.5634 H   0  0  0  0  0  0  0  0  0  0  0  0  # atno 8009 bound_to 7997
  155.8048  140.0875  157.1928 H   0  0  0  0  0  0  0  0  0  0  0  0  # atno 8010 bound_to 7997
  139.7124  143.9087  152.2473 H   0  0  0  0  0  0  0  0  0  0  0  0  # atno 10167 bound_to 10162
  157.1076  130.6494  149.5888 H   0  0  0  0  0  0  0  0  0  0  0  0  # atno 10718 bound_to 10713
  154.7741  135.4857  153.9709 H   0  0  0  0  0  0  0  0  0  0  0  0  # atno 10763 bound_to 10752
  153.1406  135.6772  153.9041 H   0  0  0  0  0  0  0  0  0  0  0  0  # atno 10764 bound_to 10752
  153.8716  135.3143  155.3420 H   0  0  0  0  0  0  0  0  0  0  0  0  # atno 10765 bound_to 10752
  140.4794  134.0950  155.7748 H   0  0  0  0  0  0  0  0  0  0  0  0  # atno 11005 bound_to 11000
  146.3459  139.9461  142.8735 LP  0  0  0  0  0  0  0  0  0  0  0  0  # atno 17320 bound_to 7965
  145.2101  140.9892  143.4106 LP  0  0  0  0  0  0  0  0  0  0  0  0  # atno 17321 bound_to 7965
  139.8960  144.6939  150.8718 LP  0  0  0  0  0  0  0  0  0  0  0  0  # atno 17342 bound_to 10162
  140.7736  143.3550  151.1939 LP  0  0  0  0  0  0  0  0  0  0  0  0  # atno 17343 bound_to 10162
  155.9858  130.4890  150.7050 LP  0  0  0  0  0  0  0  0  0  0  0  0  # atno 17370 bound_to 10713
  157.4587  131.0881  151.0768 LP  0  0  0  0  0  0  0  0  0  0  0  0  # atno 17371 bound_to 10713
  141.1538  133.8919  157.2029 LP  0  0  0  0  0  0  0  0  0  0  0  0  # atno 17394 bound_to 11000
  139.9836  135.0090  156.9808 LP  0  0  0  0  0  0  0  0  0  0  0  0  # atno 17395 bound_to 11000

$$$$
