AV-unprocessed.smi:3054|AV-procd|sdf|11639|dock5
  -GOLD-   2272017 33D 1   1.00000     0.00000
 Structure written by MMmdl.
 40 41  0  0  0  0  0  0  0  0  2 V2000
  147.8400  141.9753  154.0463 C   0  0  0  0  0  0  0  0  0  0  0  0
  148.6180  140.7277  154.4932 C   0  0  0  0  0  0  0  0  0  0  0  0
  148.5414  139.5288  153.5087 C   0  0  2  0  0  0  0  0  0  0  0  0
  147.0822  139.0814  153.2378 C   0  0  0  0  0  0  0  0  0  0  0  0
  147.0155  137.7167  152.7246 N   0  0  0  0  0  0  0  0  0  0  0  0
  145.8964  136.9864  152.6278 C   0  0  0  0  0  0  0  0  0  0  0  0
  144.7870  137.3925  152.9731 O   0  0  0  0  0  0  0  0  0  0  0  0
  146.1492  135.7736  152.1100 N   0  0  0  0  0  0  0  0  0  0  0  0
  145.2166  134.7358  151.8615 C   0  0  0  0  0  0  0  0  0  0  0  0
  145.3675  133.3274  152.0262 C   0  0  0  0  0  0  0  0  0  0  0  0
  144.2607  132.6833  151.6838 N   0  0  0  0  0  0  0  0  0  0  0  0
  143.4087  133.6618  151.3038 N   0  0  0  0  0  0  0  0  0  0  0  0
  143.9496  134.9252  151.3961 C   0  0  0  0  0  0  0  0  0  0  0  0
  149.3924  138.3925  153.9714 N   0  3  0  0  0  0  0  0  0  0  0  0
  150.8342  138.6849  154.1257 C   0  0  0  0  0  0  0  0  0  0  0  0
  151.3668  137.5789  155.0289 C   0  0  0  0  0  0  0  0  0  0  0  0
  150.2221  137.3556  156.0103 C   0  0  0  0  0  0  0  0  0  0  0  0
  148.9558  137.7429  155.2339 C   0  0  0  0  0  0  0  0  0  0  0  0
  142.4724  133.4532  150.9874 H   0  0  0  0  0  0  0  0  0  0  0  0
  147.9104  142.7605  154.7994 H   0  0  0  0  0  0  0  0  0  0  0  0
  146.7824  141.7569  153.8983 H   0  0  0  0  0  0  0  0  0  0  0  0
  148.2343  142.3835  153.1157 H   0  0  0  0  0  0  0  0  0  0  0  0
  149.6599  141.0075  154.6517 H   0  0  0  0  0  0  0  0  0  0  0  0
  148.2640  140.4301  155.4799 H   0  0  0  0  0  0  0  0  0  0  0  0
  148.9555  139.8649  152.5564 H   0  0  0  0  0  0  0  0  0  0  0  0
  146.4930  139.0983  154.1547 H   0  0  0  0  0  0  0  0  0  0  0  0
  146.6031  139.7802  152.5500 H   0  0  0  0  0  0  0  0  0  0  0  0
  147.8825  137.2993  152.4191 H   0  0  0  0  0  0  0  0  0  0  0  0
  147.1081  135.5700  151.8693 H   0  0  0  0  0  0  0  0  0  0  0  0
  146.2160  132.7565  152.3724 H   0  0  0  0  0  0  0  0  0  0  0  0
  143.4017  135.8173  151.1307 H   0  0  0  0  0  0  0  0  0  0  0  0
  151.3520  138.7108  153.1663 H   0  0  0  0  0  0  0  0  0  0  0  0
  150.9651  139.6528  154.6132 H   0  0  0  0  0  0  0  0  0  0  0  0
  151.5380  136.6732  154.4456 H   0  0  0  0  0  0  0  0  0  0  0  0
  152.3026  137.8458  155.5211 H   0  0  0  0  0  0  0  0  0  0  0  0
  150.1890  136.3312  156.3829 H   0  0  0  0  0  0  0  0  0  0  0  0
  150.3418  138.0168  156.8697 H   0  0  0  0  0  0  0  0  0  0  0  0
  148.3461  138.4118  155.8430 H   0  0  0  0  0  0  0  0  0  0  0  0
  148.3519  136.8667  154.9959 H   0  0  0  0  0  0  0  0  0  0  0  0
  149.3366  137.6774  153.2600 H   0  0  0  0  0  0  0  0  0  0  0  0
  1  2  1  0  0  0  0
  1 20  1  0  0  0  0
  1 21  1  0  0  0  0
  1 22  1  0  0  0  0
  2  3  1  0  0  0  0
  2 23  1  0  0  0  0
  2 24  1  0  0  0  0
  3  4  1  0  0  0  0
  3 14  1  0  0  0  0
  3 25  1  0  0  0  0
  4  5  1  0  0  0  0
  4 26  1  0  0  0  0
  4 27  1  0  0  0  0
  5  6  1  0  0  0  0
  5 28  1  0  0  0  0
  6  7  2  0  0  0  0
  6  8  1  0  0  0  0
  8  9  1  0  0  0  0
  8 29  1  0  0  0  0
  9 13  2  0  0  0  0
  9 10  1  0  0  0  0
 10 11  2  0  0  0  0
 10 30  1  0  0  0  0
 11 12  1  0  0  0  0
 12 19  1  0  0  0  0
 12 13  1  0  0  0  0
 13 31  1  0  0  0  0
 14 18  1  0  0  0  0
 14 15  1  0  0  0  0
 14 40  1  0  0  0  0
 15 16  1  0  0  0  0
 15 32  1  0  0  0  0
 15 33  1  0  0  0  0
 16 17  1  0  0  0  0
 16 34  1  0  0  0  0
 16 35  1  0  0  0  0
 17 18  1  0  0  0  0
 17 36  1  0  0  0  0
 17 37  1  0  0  0  0
 18 38  1  0  0  0  0
 18 39  1  0  0  0  0
M  CHG  1  14   1
M  END
> <s_m_source_file>
AV-unprocessed.smi

> <i_m_source_file_index>
3054

> <i_lp_mmshare_version>
43012

> <i_f3d_flags>
0

> <s_epik_input>
W0NIMl0xW0NIMl1bQ0gyXVtDSDJdTjFbQ0BIXShbQ0gyXVtDSDNdKVtDSDJdW05IXUMoPU8pW05IXWMyW2NIXW5bbkhdW2NIXTI=

> <s_epik_cmdline>
J2VwaWtfcHl0aG9uJywgJy1waCcsICc3LjAnLCAnLXRuJywgJzgnLCAnLW1hJywgJzIwMCcsICctbWV0YWxfYmluZGluZycsICctaW1hZScsICc8aW5maWxlLm1hZT4nLCAnLW9tYWUnLCAnPG91dGZpbGUubWFlPic=

> <r_lp_tautomer_probability>
0.5

> <r_epik_Ionization_Penalty>
0.00108132

> <r_epik_Ionization_Penalty_Charging>
0.00104139

> <r_epik_Ionization_Penalty_Neutral>
3.99244e-05

> <r_epik_State_Penalty>
0.00068071

> <r_epik_Charging_Adjusted_Penalty>
0.0017221

> <i_epik_Tot_Q>
1

> <i_epik_Tot_abs_Q>
1

> <r_epik_Metal_State_Penalty>
-0

> <b_epik_Metal_Only>
0

> <s_lp_Force_Field>
OPLS_2005

> <r_lp_Energy>
36.476

> <b_lp_Chiralities_Consistent>
1

> <s_lp_Variant>
AV-unprocessed.smi:3054-1

> <Gold.Version>
5.8.1

> <Gold.Id.Protein>
6NUR|6NUR_protein|mol2

> <Gold.PLP.Fitness>
45.6277

> <Gold.PLP.PLP>
-29.0266

> <Gold.PLP.part.hbond>
-4.7072

> <Gold.PLP.part.metal>
0.0000

> <Gold.PLP.part.buried>
-1.8654

> <Gold.PLP.part.nonpolar>
-24.1308

> <Gold.PLP.part.repulsive>
0.9245

> <Gold.PLP.ligand.clash>
0.0000

> <Gold.PLP.ligand.torsion>
0.6256

> <Gold.PLP.Chemscore.Hbond>
4.9200

> <Gold.PLP.Chemscore.CHOScore>
1.0000

> <Gold.PLP.Chemscore.Metal>
0.0000

> <Gold.Chemscore.Hbonds>
donor molecule, donor type, donor heavy atom, donor atom, acceptor molecule, acceptor atom, score
      L1  H     5    28       P1  7948  1.00
      L1  H     8    29       P1  7948  0.94
      L1  H    12    19       P1 10186  0.30
      L1  H    14    40       P1  7948  2.00

> <Gold.PLP.Chemscore.Internal.Correction>
0.0924

> <Gold.Rescore>
     Score         DG    S(hbond)    S(metal)    S(lipo)     H(rot)  DE(clash)    DE(int)     intcor
     18.86     -20.84       3.89        0.00      59.89       1.81       0.06       1.91       ----

> <Gold.Chemscore.Fitness>
18.8619

> <Gold.Chemscore.DG>
-20.8371

> <Gold.Chemscore.ZeroCoef>
-5.4800

> <Gold.Chemscore.Hbond>
3.8868

> <Gold.Chemscore.Metal>
0.0000

> <Gold.Chemscore.Lipo>
59.8919

> <Gold.Chemscore.Internal_Hbond>
0.0000

> <Gold.Chemscore.DEClash>
0.0646

> <Gold.Chemscore.DEInternal>
1.9106

> <Gold.Chemscore.Rot>
1.8094

> <Gold.Chemscore.Internal.Correction>
   9.000000E+99

> <Gold.Chemscore.Hbonds>
donor molecule, donor type, donor heavy atom, donor atom, acceptor molecule, acceptor atom, score
      L1  H     5    28       P1  7948  0.98
      L1  H     8    29       P1  7948  0.90
      L1  H    12    19       P1 10186  0.25
      L1  H    14    40       P1  7948  0.91

> <Gold.Chemscore.Hbond.Weighted>
-12.9819

> <Gold.Chemscore.Metal.Weighted>
-0.0000

> <Gold.Chemscore.Lipo.Weighted>
-7.0074

> <Gold.Chemscore.Internal_Hbond.Weighted>
0.0000

> <Gold.Chemscore.DEClash.Weighted>
0.0646

> <Gold.Chemscore.DEInternal.Weighted>
1.9106

> <Gold.Chemscore.Rot.Weighted>
4.6322

> <Gold.Chemscore.Internal.Correction.Weighted>
   9.000000E+99

> <Gold.Protein.RotatedTorsions>
[ 6907 6896 6895 6894 ] final  -72.89 input  -60.11 | X-H torsion
[ 7974 7965 7964 7962 ] final -142.67 input  175.53 | X-H torsion
[ 8008 7997 7996 7995 ] final   93.06 input   59.86 | X-H torsion
[ 10167 10162 10161 10158 ] final  152.31 input  -65.29 | X-H torsion
[ 10718 10713 10712 10709 ] final -170.86 input   66.30 | X-H torsion
[ 10763 10752 10751 10750 ] final -114.64 input  -60.55 | X-H torsion
[ 11005 11000 10999 10996 ] final   61.60 input  -57.11 | X-H torsion

> <Gold.Protein.ActiveResidues>
 VAL166  LYS551  ARG553  GLY616  TRP617  ASP618  TYR619  PRO620  LYS621  CYS622 
 ASP623  PHE694  ASN695  SER759  ASP760  ASP761  ALA762  ILE779  LEU786  VAL792 
 PHE793  MET794  SER795  GLU796  ALA797  LYS798  CYS799  TRP800  GLU811  SER814 

> <Gold.Protein.RotatedAtoms>
  150.7152  134.5097  159.5600 H   0  0  0  0  0  0  0  0  0  0  0  0  # atno 6907 bound_to 6896
  152.2676  134.7964  160.0429 H   0  0  0  0  0  0  0  0  0  0  0  0  # atno 6908 bound_to 6896
  151.8656  133.3430  159.3755 H   0  0  0  0  0  0  0  0  0  0  0  0  # atno 6909 bound_to 6896
  144.8426  140.5930  143.5442 H   0  0  0  0  0  0  0  0  0  0  0  0  # atno 7974 bound_to 7965
  156.0425  140.3317  155.7260 H   0  0  0  0  0  0  0  0  0  0  0  0  # atno 8008 bound_to 7997
  155.5723  140.0629  157.2821 H   0  0  0  0  0  0  0  0  0  0  0  0  # atno 8009 bound_to 7997
  154.4399  140.1858  156.0880 H   0  0  0  0  0  0  0  0  0  0  0  0  # atno 8010 bound_to 7997
  139.4834  144.5368  151.7631 H   0  0  0  0  0  0  0  0  0  0  0  0  # atno 10167 bound_to 10162
  156.7324  130.9311  151.3105 H   0  0  0  0  0  0  0  0  0  0  0  0  # atno 10718 bound_to 10713
  154.8448  135.4410  154.1538 H   0  0  0  0  0  0  0  0  0  0  0  0  # atno 10763 bound_to 10752
  153.2692  135.6943  153.7504 H   0  0  0  0  0  0  0  0  0  0  0  0  # atno 10764 bound_to 10752
  153.6751  135.3412  155.3139 H   0  0  0  0  0  0  0  0  0  0  0  0  # atno 10765 bound_to 10752
  140.0150  134.6239  155.9724 H   0  0  0  0  0  0  0  0  0  0  0  0  # atno 11005 bound_to 11000
  145.4662  139.1508  143.3839 LP  0  0  0  0  0  0  0  0  0  0  0  0  # atno 17320 bound_to 7965
  146.2716  140.4794  142.8812 LP  0  0  0  0  0  0  0  0  0  0  0  0  # atno 17321 bound_to 7965
  140.4902  144.1321  150.5949 LP  0  0  0  0  0  0  0  0  0  0  0  0  # atno 17342 bound_to 10162
  140.4179  143.2625  151.9751 LP  0  0  0  0  0  0  0  0  0  0  0  0  # atno 17343 bound_to 10162
  157.6853  130.9179  150.0370 LP  0  0  0  0  0  0  0  0  0  0  0  0  # atno 17370 bound_to 10713
  156.1520  130.3642  149.9425 LP  0  0  0  0  0  0  0  0  0  0  0  0  # atno 17371 bound_to 10713
  141.1736  133.6539  156.4745 LP  0  0  0  0  0  0  0  0  0  0  0  0  # atno 17394 bound_to 11000
  140.4487  134.6948  157.5029 LP  0  0  0  0  0  0  0  0  0  0  0  0  # atno 17395 bound_to 11000

$$$$
