#       Name:                AV-unprocessed.smi:3190
#       Creating user name   scv26
#       Creation time:       Fri Mar 27 18:03:16 2020


#       File generated by GOLD software.
#

@<TRIPOS>MOLECULE
AV-unprocessed.smi:3190
    40    41     1
SMALL
NO_CHARGES


@<TRIPOS>ATOM
      1 ****        -2.2733   1.8037  -1.8051 O.2            1 S1                 0.0000
      2 ****        -1.6020   0.8479  -1.4167 C.2            1 S1                 0.0000
      3 ****        -0.0864   0.9994  -1.2880 C.3            1 S1                 0.0000
      4 ****         0.3516   0.3195  -0.1184 O.3            1 S1                 0.0000
      5 ****         1.7544   0.3680   0.1034 C.3            1 S1                 0.0000
      6 ****         2.1106  -0.8123   1.0241 C.3            1 S1                 0.0000
      7 ****         3.6023  -0.8070   1.3941 C.3            1 S1                 0.0000
      8 ****         4.0075   0.5266   2.0412 C.3            1 S1                 0.0000
      9 ****         3.6530   1.7146   1.1327 C.3            1 S1                 0.0000
     10 ****         2.1624   1.7061   0.7550 C.3            1 S1                 0.0000
     11 ****        -2.1022  -0.3620  -1.1033 N.am           1 S1                 0.0000
     12 ****        -3.4575  -0.7822  -1.1125 C.ar           1 S1                 0.0000
     13 ****        -3.6873  -2.1209  -0.7162 C.ar           1 S1                 0.0000
     14 ****        -4.9231  -2.6660  -0.6700 N.ar           1 S1                 0.0000
     15 ****        -5.9499  -1.8647  -1.0250 C.ar           1 S1                 0.0000
     16 ****        -5.7399  -0.5291  -1.4229 C.ar           1 S1                 0.0000
     17 ****        -4.5019   0.0096  -1.4669 N.ar           1 S1                 0.0000
     18 ****         0.3868   0.5765  -2.1753 H              1 S1                 0.0000
     19 ****         0.1696   2.0584  -1.2446 H              1 S1                 0.0000
     20 ****         2.2861   0.2384  -0.8412 H              1 S1                 0.0000
     21 ****         1.5109  -0.7624   1.9341 H              1 S1                 0.0000
     22 ****         1.8539  -1.7536   0.5369 H              1 S1                 0.0000
     23 ****         3.8195  -1.6316   2.0736 H              1 S1                 0.0000
     24 ****         4.2017  -0.9773   0.4987 H              1 S1                 0.0000
     25 ****         3.5000   0.6362   3.0006 H              1 S1                 0.0000
     26 ****         5.0768   0.5271   2.2546 H              1 S1                 0.0000
     27 ****         3.9043   2.6511   1.6317 H              1 S1                 0.0000
     28 ****         4.2590   1.6750   0.2267 H              1 S1                 0.0000
     29 ****         1.9587   2.5398   0.0835 H              1 S1                 0.0000
     30 ****         1.5607   1.8758   1.6488 H              1 S1                 0.0000
     31 ****        -1.4314  -1.0559  -0.8065 H              1 S1                 0.0000
     32 ****        -2.8688  -2.7657  -0.4303 H              1 S1                 0.0000
     33 ****        -6.9422  -2.2896  -0.9913 H              1 S1                 0.0000
     34 ****        -6.5651   0.1075  -1.7058 H              1 S1                 0.0000
     35 ****        -1.8264   2.6688  -2.0330 LP             1 S1                 0.0000
     36 ****        -3.2655   1.7151  -1.8928 LP             1 S1                 0.0000
     37 ****         0.0810  -0.6401  -0.1956 LP             1 S1                 0.0000
     38 ****        -0.1034   0.7317   0.6709 LP             1 S1                 0.0000
     39 ****        -5.0693  -3.6141  -0.3874 LP             1 S1                 0.0000
     40 ****        -4.3597   0.9579  -1.7504 LP             1 S1                 0.0000
@<TRIPOS>BOND
    1    1    2 2     
    2    2    3 1     
    3    2   11 am    
    4    3    4 1     
    5    3   18 1     
    6    3   19 1     
    7    4    5 1     
    8    5   10 1     
    9    5    6 1     
   10    5   20 1     
   11    6    7 1     
   12    6   21 1     
   13    6   22 1     
   14    7    8 1     
   15    7   23 1     
   16    7   24 1     
   17    8    9 1     
   18    8   25 1     
   19    8   26 1     
   20    9   10 1     
   21    9   27 1     
   22    9   28 1     
   23   10   29 1     
   24   10   30 1     
   25   11   12 1     
   26   11   31 1     
   27   12   17 ar    
   28   12   13 ar    
   29   13   14 ar    
   30   13   32 1     
   31   14   15 ar    
   32   15   16 ar    
   33   15   33 1     
   34   16   17 ar    
   35   16   34 1     
   36    1   35 1     
   37    1   36 1     
   38    4   37 1     
   39    4   38 1     
   40   14   39 1     
   41   17   40 1     
@<TRIPOS>SUBSTRUCTURE
      1 S1             1
@<TRIPOS>SET
LONE_PAIRS      STATIC     ATOMS    <user>   **** ""
6 35 36 37 38 39 40
DONOR_HYDROGENS      STATIC     ATOMS    <user>   **** ""
1 31
ATOM$BLUE        STATIC     ATOMS    COLORGROUP SYSTEM
6 35 36 37 38 39 40
ATOM$RED        STATIC     ATOMS    COLORGROUP SYSTEM
1 31
