AV-unprocessed.smi:2902|AV-procd|sdf|11152|dock1
  -GOLD-   2272016 33D 1   1.00000     0.00000
 Structure written by MMmdl.
 47 48  0  0  0  0  0  0  0  0  1 V2000
  152.8104  138.3723  158.5268 C   0  0  0  0  0  0  0  0  0  0  0  0
  152.2398  138.6239  157.1252 C   0  0  0  0  0  0  0  0  0  0  0  0
  151.4438  139.9392  157.0342 C   0  0  1  0  0  0  0  0  0  0  0  0
  152.3224  141.0073  157.3875 O   0  0  0  0  0  0  0  0  0  0  0  0
  151.7898  142.0159  158.2428 C   0  0  0  0  0  0  0  0  0  0  0  0
  151.0826  143.0876  157.4168 C   0  0  0  0  0  0  0  0  0  0  0  0
  151.0446  144.3160  158.3309 C   0  0  0  0  0  0  0  0  0  0  0  0
  152.2257  144.1618  159.3022 C   0  0  0  0  0  0  0  0  0  0  0  0
  152.8699  142.8063  158.9868 C   0  0  0  0  0  0  0  0  0  0  0  0
  150.8879  140.1633  155.6191 C   0  0  0  0  0  0  0  0  0  0  0  0
  151.6532  140.3725  154.6776 O   0  0  0  0  0  0  0  0  0  0  0  0
  149.5511  140.1326  155.4975 N   0  0  0  0  0  0  0  0  0  0  0  0
  148.7913  140.3607  154.2696 C   0  0  2  0  0  0  0  0  0  0  0  0
  147.9249  141.6192  154.4569 C   0  0  0  0  0  0  0  0  0  0  0  0
  147.9739  139.0945  153.9022 C   0  0  2  0  0  0  0  0  0  0  0  0
  147.0909  139.2914  152.6542 C   0  0  0  0  0  0  0  0  0  0  0  0
  147.1705  138.6212  155.0214 N   0  0  0  0  0  0  0  0  0  0  0  0
  145.8591  138.3878  155.1049 C   0  0  0  0  0  0  0  0  0  0  0  0
  145.4658  137.9507  156.2931 N   0  0  0  0  0  0  0  0  0  0  0  0
  146.6684  137.9379  156.9410 C   0  0  0  0  0  0  0  0  0  0  0  0
  147.7219  138.3306  156.2252 N   0  0  0  0  0  0  0  0  0  0  0  0
  153.3592  137.4311  158.5590 H   0  0  0  0  0  0  0  0  0  0  0  0
  152.0163  138.3200  159.2720 H   0  0  0  0  0  0  0  0  0  0  0  0
  153.4963  139.1664  158.8229 H   0  0  0  0  0  0  0  0  0  0  0  0
  153.0556  138.6291  156.4009 H   0  0  0  0  0  0  0  0  0  0  0  0
  151.5964  137.7847  156.8564 H   0  0  0  0  0  0  0  0  0  0  0  0
  150.6148  139.8851  157.7417 H   0  0  0  0  0  0  0  0  0  0  0  0
  151.0724  141.6064  158.9552 H   0  0  0  0  0  0  0  0  0  0  0  0
  151.6716  143.3160  156.5274 H   0  0  0  0  0  0  0  0  0  0  0  0
  150.0910  142.7767  157.0869 H   0  0  0  0  0  0  0  0  0  0  0  0
  151.0993  145.2433  157.7602 H   0  0  0  0  0  0  0  0  0  0  0  0
  150.1095  144.3321  158.8917 H   0  0  0  0  0  0  0  0  0  0  0  0
  152.9464  144.9732  159.1947 H   0  0  0  0  0  0  0  0  0  0  0  0
  151.8646  144.1810  160.3310 H   0  0  0  0  0  0  0  0  0  0  0  0
  153.2239  142.2960  159.8828 H   0  0  0  0  0  0  0  0  0  0  0  0
  153.7286  142.9578  158.3310 H   0  0  0  0  0  0  0  0  0  0  0  0
  149.0123  139.9559  156.3328 H   0  0  0  0  0  0  0  0  0  0  0  0
  149.4766  140.5657  153.4452 H   0  0  0  0  0  0  0  0  0  0  0  0
  147.4071  141.8941  153.5379 H   0  0  0  0  0  0  0  0  0  0  0  0
  148.5369  142.4739  154.7474 H   0  0  0  0  0  0  0  0  0  0  0  0
  147.1727  141.4704  155.2322 H   0  0  0  0  0  0  0  0  0  0  0  0
  148.6830  138.2972  153.6728 H   0  0  0  0  0  0  0  0  0  0  0  0
  147.6894  139.5037  151.7683 H   0  0  0  0  0  0  0  0  0  0  0  0
  146.3926  140.1183  152.7866 H   0  0  0  0  0  0  0  0  0  0  0  0
  146.5081  138.3947  152.4420 H   0  0  0  0  0  0  0  0  0  0  0  0
  145.1786  138.5375  154.2796 H   0  0  0  0  0  0  0  0  0  0  0  0
  146.7707  137.6295  157.9711 H   0  0  0  0  0  0  0  0  0  0  0  0
  1  2  1  0  0  0  0
  1 22  1  0  0  0  0
  1 23  1  0  0  0  0
  1 24  1  0  0  0  0
  2  3  1  0  0  0  0
  2 25  1  0  0  0  0
  2 26  1  0  0  0  0
  3  4  1  0  0  0  0
  3 10  1  0  0  0  0
  3 27  1  0  0  0  0
  4  5  1  0  0  0  0
  5  9  1  0  0  0  0
  5  6  1  0  0  0  0
  5 28  1  0  0  0  0
  6  7  1  0  0  0  0
  6 29  1  0  0  0  0
  6 30  1  0  0  0  0
  7  8  1  0  0  0  0
  7 31  1  0  0  0  0
  7 32  1  0  0  0  0
  8  9  1  0  0  0  0
  8 33  1  0  0  0  0
  8 34  1  0  0  0  0
  9 35  1  0  0  0  0
  9 36  1  0  0  0  0
 10 11  2  0  0  0  0
 10 12  1  0  0  0  0
 12 13  1  0  0  0  0
 12 37  1  0  0  0  0
 13 14  1  0  0  0  0
 13 15  1  0  0  0  0
 13 38  1  0  0  0  0
 14 39  1  0  0  0  0
 14 40  1  0  0  0  0
 14 41  1  0  0  0  0
 15 16  1  0  0  0  0
 15 17  1  0  0  0  0
 15 42  1  0  0  0  0
 16 43  1  0  0  0  0
 16 44  1  0  0  0  0
 16 45  1  0  0  0  0
 17 21  1  0  0  0  0
 17 18  1  0  0  0  0
 18 19  2  0  0  0  0
 18 46  1  0  0  0  0
 19 20  1  0  0  0  0
 20 21  2  0  0  0  0
 20 47  1  0  0  0  0
M  END
> <s_m_source_file>
AV-unprocessed.smi

> <i_m_source_file_index>
2902

> <i_lp_mmshare_version>
43012

> <i_f3d_flags>
0

> <s_epik_input>
W0NIMl0xW0NIMl1bQ0gyXVtDSDJdW0NIXTFPW0NAQEhdKFtDSDJdW0NIM10pQyg9TylbTkhdW0NASF0oW0NIM10pW0NASF0oW0NIM10pbjJbY0hdbltjSF1uMg==

> <s_epik_cmdline>
J2VwaWtfcHl0aG9uJywgJy1waCcsICc3LjAnLCAnLXRuJywgJzgnLCAnLW1hJywgJzIwMCcsICctbWV0YWxfYmluZGluZycsICctaW1hZScsICc8aW5maWxlLm1hZT4nLCAnLW9tYWUnLCAnPG91dGZpbGUubWFlPic=

> <r_lp_tautomer_probability>
1

> <r_epik_Ionization_Penalty>
6.95617e-05

> <r_epik_Ionization_Penalty_Charging>
0

> <r_epik_Ionization_Penalty_Neutral>
6.95617e-05

> <r_epik_State_Penalty>
-0

> <r_epik_Charging_Adjusted_Penalty>
0

> <i_epik_Tot_Q>
0

> <i_epik_Tot_abs_Q>
0

> <r_epik_Metal_State_Penalty>
-0

> <b_epik_Metal_Only>
0

> <s_lp_Force_Field>
OPLS_2005

> <r_lp_Energy>
28.6706

> <b_lp_Chiralities_Consistent>
1

> <s_lp_Variant>
AV-unprocessed.smi:2902-2

> <Gold.Version>
5.8.1

> <Gold.Id.Protein>
6NUR|6NUR_protein|mol2

> <Gold.PLP.Fitness>
38.6573

> <Gold.PLP.PLP>
-34.0995

> <Gold.PLP.part.hbond>
-1.0000

> <Gold.PLP.part.metal>
0.0000

> <Gold.PLP.part.buried>
-3.0246

> <Gold.PLP.part.nonpolar>
-30.5275

> <Gold.PLP.part.repulsive>
0.1282

> <Gold.PLP.ligand.clash>
0.0000

> <Gold.PLP.ligand.torsion>
1.0290

> <Gold.PLP.Chemscore.Hbond>
1.0000

> <Gold.PLP.Chemscore.CHOScore>
1.0000

> <Gold.PLP.Chemscore.Metal>
0.0000

> <Gold.Chemscore.Hbonds>
donor molecule, donor type, donor heavy atom, donor atom, acceptor molecule, acceptor atom, score
      P1  H  7989  7998       L1    11  0.34

> <Gold.PLP.Chemscore.Internal.Correction>
0.6158

> <Gold.Rescore>
     Score         DG    S(hbond)    S(metal)    S(lipo)     H(rot)  DE(clash)    DE(int)     intcor
     11.06     -13.49       1.00        0.00      98.94       2.69       0.08       2.35       ----

> <Gold.Chemscore.Fitness>
11.0585

> <Gold.Chemscore.DG>
-13.4942

> <Gold.Chemscore.ZeroCoef>
-5.4800

> <Gold.Chemscore.Hbond>
0.9981

> <Gold.Chemscore.Metal>
0.0000

> <Gold.Chemscore.Lipo>
98.9396

> <Gold.Chemscore.Internal_Hbond>
0.0000

> <Gold.Chemscore.DEClash>
0.0818

> <Gold.Chemscore.DEInternal>
2.3539

> <Gold.Chemscore.Rot>
2.6935

> <Gold.Chemscore.Internal.Correction>
   9.000000E+99

> <Gold.Chemscore.Hbonds>
donor molecule, donor type, donor heavy atom, donor atom, acceptor molecule, acceptor atom, score
      P1  H  7989  7998       L1    11  0.32

> <Gold.Chemscore.Hbond.Weighted>
-3.3337

> <Gold.Chemscore.Metal.Weighted>
-0.0000

> <Gold.Chemscore.Lipo.Weighted>
-11.5759

> <Gold.Chemscore.Internal_Hbond.Weighted>
0.0000

> <Gold.Chemscore.DEClash.Weighted>
0.0818

> <Gold.Chemscore.DEInternal.Weighted>
2.3539

> <Gold.Chemscore.Rot.Weighted>
6.8954

> <Gold.Chemscore.Internal.Correction.Weighted>
   9.000000E+99

> <Gold.Protein.RotatedTorsions>
[ 6907 6896 6895 6894 ] final -174.11 input  -60.11 | X-H torsion
[ 7974 7965 7964 7962 ] final  -14.89 input  175.53 | X-H torsion
[ 8008 7997 7996 7995 ] final   83.07 input   59.86 | X-H torsion
[ 10167 10162 10161 10158 ] final -151.10 input  -65.29 | X-H torsion
[ 10718 10713 10712 10709 ] final    0.32 input   66.30 | X-H torsion
[ 10763 10752 10751 10750 ] final  137.15 input  -60.55 | X-H torsion
[ 11005 11000 10999 10996 ] final   35.20 input  -57.11 | X-H torsion

> <Gold.Protein.ActiveResidues>
 VAL166  LYS551  ARG553  GLY616  TRP617  ASP618  TYR619  PRO620  LYS621  CYS622 
 ASP623  PHE694  ASN695  SER759  ASP760  ASP761  ALA762  ILE779  LEU786  VAL792 
 PHE793  MET794  SER795  GLU796  ALA797  LYS798  CYS799  TRP800  GLU811  SER814 

> <Gold.Protein.RotatedAtoms>
  151.5670  133.3395  159.2981 H   0  0  0  0  0  0  0  0  0  0  0  0  # atno 6907 bound_to 6896
  150.8389  134.7677  159.6927 H   0  0  0  0  0  0  0  0  0  0  0  0  # atno 6908 bound_to 6896
  152.4461  134.5499  159.9915 H   0  0  0  0  0  0  0  0  0  0  0  0  # atno 6909 bound_to 6896
  146.2055  140.3414  142.8408 H   0  0  0  0  0  0  0  0  0  0  0  0  # atno 7974 bound_to 7965
  155.9190  140.3422  155.6158 H   0  0  0  0  0  0  0  0  0  0  0  0  # atno 8008 bound_to 7997
  155.7296  140.0794  157.2313 H   0  0  0  0  0  0  0  0  0  0  0  0  # atno 8009 bound_to 7997
  154.4066  140.1590  156.2481 H   0  0  0  0  0  0  0  0  0  0  0  0  # atno 8010 bound_to 7997
  139.7297  143.8828  152.2530 H   0  0  0  0  0  0  0  0  0  0  0  0  # atno 10167 bound_to 10162
  156.8317  130.5490  149.5686 H   0  0  0  0  0  0  0  0  0  0  0  0  # atno 10718 bound_to 10713
  153.8682  135.3059  155.3441 H   0  0  0  0  0  0  0  0  0  0  0  0  # atno 10763 bound_to 10752
  154.7817  135.4831  153.9863 H   0  0  0  0  0  0  0  0  0  0  0  0  # atno 10764 bound_to 10752
  153.1421  135.6826  153.9106 H   0  0  0  0  0  0  0  0  0  0  0  0  # atno 10765 bound_to 10752
  140.2450  134.3369  155.7911 H   0  0  0  0  0  0  0  0  0  0  0  0  # atno 11005 bound_to 11000
  144.8783  140.7366  143.6003 LP  0  0  0  0  0  0  0  0  0  0  0  0  # atno 17320 bound_to 7965
  145.3334  139.1753  143.4525 LP  0  0  0  0  0  0  0  0  0  0  0  0  # atno 17321 bound_to 7965
  139.8748  144.7049  150.8946 LP  0  0  0  0  0  0  0  0  0  0  0  0  # atno 17342 bound_to 10162
  140.7769  143.3709  151.1651 LP  0  0  0  0  0  0  0  0  0  0  0  0  # atno 17343 bound_to 10162
  156.0931  130.5911  150.9766 LP  0  0  0  0  0  0  0  0  0  0  0  0  # atno 17370 bound_to 10713
  157.6403  131.0911  150.8264 LP  0  0  0  0  0  0  0  0  0  0  0  0  # atno 17371 bound_to 10713
  141.2207  133.7321  156.8947 LP  0  0  0  0  0  0  0  0  0  0  0  0  # atno 17394 bound_to 11000
  140.1614  134.9162  157.2720 LP  0  0  0  0  0  0  0  0  0  0  0  0  # atno 17395 bound_to 11000

$$$$
