AV-unprocessed.smi:1703|AV-procd|sdf|6864|dock8
  -GOLD-   22720 8 53D 1   1.00000     0.00000
 Structure written by MMmdl.
 49 51  0  0  0  0  0  0  0  0  2 V2000
  145.8564  143.3184  153.9498 C   0  0  0  0  0  0  0  0  0  0  0  0
  145.4783  142.1072  154.8207 C   0  0  1  0  0  0  0  0  0  0  0  0
  146.6972  141.3301  155.3560 C   0  0  0  0  0  0  0  0  0  0  0  0
  147.3734  142.0761  156.4431 N   0  3  2  0  0  0  0  0  0  0  0  0
  148.5937  141.3853  156.9312 C   0  0  0  0  0  0  0  0  0  0  0  0
  149.8731  141.8571  156.2056 C   0  0  2  0  0  0  0  0  0  0  0  0
  149.6142  141.9261  154.8180 O   0  0  0  0  0  0  0  0  0  0  0  0
  151.0839  140.9251  156.4125 C   0  0  0  0  0  0  0  0  0  0  0  0
  151.6798  141.0653  157.7348 N   0  0  0  0  0  0  0  0  0  0  0  0
  152.1652  140.0971  158.5543 C   0  0  0  0  0  0  0  0  0  0  0  0
  152.1563  138.6461  158.1807 C   0  0  0  0  0  0  0  0  0  0  0  0
  153.0024  138.3588  157.0883 O   0  0  0  0  0  0  0  0  0  0  0  0
  152.6492  140.5170  159.7234 N   0  0  0  0  0  0  0  0  0  0  0  0
  152.4751  141.8850  159.6525 C   0  0  0  0  0  0  0  0  0  0  0  0
  152.7917  142.9005  160.5827 C   0  0  0  0  0  0  0  0  0  0  0  0
  152.5185  144.2516  160.2847 C   0  0  0  0  0  0  0  0  0  0  0  0
  151.9253  144.6057  159.0558 C   0  0  0  0  0  0  0  0  0  0  0  0
  151.5998  143.6092  158.1159 C   0  0  0  0  0  0  0  0  0  0  0  0
  151.8742  142.2618  158.4182 C   0  0  0  0  0  0  0  0  0  0  0  0
  146.4052  142.4052  157.5169 C   0  0  0  0  0  0  0  0  0  0  0  0
  145.2239  143.2079  156.9435 C   0  0  2  0  0  0  0  0  0  0  0  0
  144.1581  143.4982  158.0060 C   0  0  0  0  0  0  0  0  0  0  0  0
  144.6083  142.4635  155.8953 O   0  0  0  0  0  0  0  0  0  0  0  0
  146.4106  143.0003  153.0663 H   0  0  0  0  0  0  0  0  0  0  0  0
  146.4823  144.0339  154.4822 H   0  0  0  0  0  0  0  0  0  0  0  0
  144.9648  143.8431  153.6066 H   0  0  0  0  0  0  0  0  0  0  0  0
  144.9083  141.4295  154.1843 H   0  0  0  0  0  0  0  0  0  0  0  0
  146.3750  140.3603  155.7391 H   0  0  0  0  0  0  0  0  0  0  0  0
  147.3960  141.1317  154.5424 H   0  0  0  0  0  0  0  0  0  0  0  0
  148.6710  141.5373  158.0086 H   0  0  0  0  0  0  0  0  0  0  0  0
  148.4913  140.3093  156.7828 H   0  0  0  0  0  0  0  0  0  0  0  0
  150.1494  142.8558  156.5410 H   0  0  0  0  0  0  0  0  0  0  0  0
  149.3409  142.8054  154.6039 H   0  0  0  0  0  0  0  0  0  0  0  0
  150.7966  139.8871  156.2472 H   0  0  0  0  0  0  0  0  0  0  0  0
  151.8547  141.1452  155.6727 H   0  0  0  0  0  0  0  0  0  0  0  0
  152.4798  138.0513  159.0357 H   0  0  0  0  0  0  0  0  0  0  0  0
  151.1393  138.3310  157.9480 H   0  0  0  0  0  0  0  0  0  0  0  0
  152.7089  137.5574  156.6822 H   0  0  0  0  0  0  0  0  0  0  0  0
  153.2475  142.6403  161.5265 H   0  0  0  0  0  0  0  0  0  0  0  0
  152.7671  145.0198  161.0022 H   0  0  0  0  0  0  0  0  0  0  0  0
  151.7216  145.6433  158.8349 H   0  0  0  0  0  0  0  0  0  0  0  0
  151.1475  143.8788  157.1731 H   0  0  0  0  0  0  0  0  0  0  0  0
  146.0474  141.4840  157.9799 H   0  0  0  0  0  0  0  0  0  0  0  0
  146.8867  142.9876  158.3014 H   0  0  0  0  0  0  0  0  0  0  0  0
  145.5823  144.1622  156.5567 H   0  0  0  0  0  0  0  0  0  0  0  0
  144.5723  144.0813  158.8290 H   0  0  0  0  0  0  0  0  0  0  0  0
  143.7514  142.5756  158.4213 H   0  0  0  0  0  0  0  0  0  0  0  0
  143.3296  144.0659  157.5815 H   0  0  0  0  0  0  0  0  0  0  0  0
  147.6823  142.9499  156.0407 H   0  0  0  0  0  0  0  0  0  0  0  0
  1  2  1  0  0  0  0
  1 24  1  0  0  0  0
  1 25  1  0  0  0  0
  1 26  1  0  0  0  0
  2 23  1  0  0  0  0
  2  3  1  0  0  0  0
  2 27  1  0  0  0  0
  3  4  1  0  0  0  0
  3 28  1  0  0  0  0
  3 29  1  0  0  0  0
  4  5  1  0  0  0  0
  4 20  1  0  0  0  0
  4 49  1  0  0  0  0
  5  6  1  0  0  0  0
  5 30  1  0  0  0  0
  5 31  1  0  0  0  0
  6  7  1  0  0  0  0
  6  8  1  0  0  0  0
  6 32  1  0  0  0  0
  7 33  1  0  0  0  0
  8  9  1  0  0  0  0
  8 34  1  0  0  0  0
  8 35  1  0  0  0  0
  9 19  1  0  0  0  0
  9 10  1  0  0  0  0
 10 11  1  0  0  0  0
 10 13  2  0  0  0  0
 11 12  1  0  0  0  0
 11 36  1  0  0  0  0
 11 37  1  0  0  0  0
 12 38  1  0  0  0  0
 13 14  1  0  0  0  0
 14 19  2  0  0  0  0
 14 15  1  0  0  0  0
 15 16  2  0  0  0  0
 15 39  1  0  0  0  0
 16 17  1  0  0  0  0
 16 40  1  0  0  0  0
 17 18  2  0  0  0  0
 17 41  1  0  0  0  0
 18 19  1  0  0  0  0
 18 42  1  0  0  0  0
 20 21  1  0  0  0  0
 20 43  1  0  0  0  0
 20 44  1  0  0  0  0
 21 22  1  0  0  0  0
 21 23  1  0  0  0  0
 21 45  1  0  0  0  0
 22 46  1  0  0  0  0
 22 47  1  0  0  0  0
 22 48  1  0  0  0  0
M  CHG  1   4   1
M  END
> <s_m_source_file>
AV-unprocessed.smi

> <i_m_source_file_index>
1703

> <i_lp_mmshare_version>
43012

> <i_f3d_flags>
0

> <s_epik_input>
W0NIM11bQ0BASF0xW0NIMl1OKFtDSDJdW0NASF0oTzEpW0NIM10pW0NIMl1bQ0BIXShbT0hdKVtDSDJdbihjKG4yKVtDSDJdW09IXSljKGMyMylbY0hdW2NIXVtjSF1bY0hdMw==

> <s_epik_cmdline>
J2VwaWtfcHl0aG9uJywgJy1waCcsICc3LjAnLCAnLXRuJywgJzgnLCAnLW1hJywgJzIwMCcsICctbWV0YWxfYmluZGluZycsICctaW1hZScsICc8aW5maWxlLm1hZT4nLCAnLW9tYWUnLCAnPG91dGZpbGUubWFlPic=

> <r_epik_Ionization_Penalty>
0.655661

> <r_epik_Ionization_Penalty_Charging>
0.608065

> <r_epik_Ionization_Penalty_Neutral>
0.0475963

> <r_epik_State_Penalty>
0.695267

> <r_epik_Charging_Adjusted_Penalty>
1.30333

> <i_epik_Tot_Q>
1

> <i_epik_Tot_abs_Q>
1

> <r_epik_Metal_State_Penalty>
0.653591

> <b_epik_Metal_Only>
0

> <s_lp_Force_Field>
OPLS_2005

> <r_lp_Energy>
25.3139

> <b_lp_Chiralities_Consistent>
1

> <s_lp_Variant>
AV-unprocessed.smi:1703-12

> <Gold.Version>
5.8.1

> <Gold.Id.Protein>
6NUR|6NUR_protein|mol2

> <Gold.PLP.Fitness>
51.4967

> <Gold.PLP.PLP>
-42.2811

> <Gold.PLP.part.hbond>
-4.9550

> <Gold.PLP.part.metal>
0.0000

> <Gold.PLP.part.buried>
-1.6909

> <Gold.PLP.part.nonpolar>
-34.9171

> <Gold.PLP.part.repulsive>
0.1226

> <Gold.PLP.ligand.clash>
0.0000

> <Gold.PLP.ligand.torsion>
1.0333

> <Gold.PLP.Chemscore.Hbond>
3.7210

> <Gold.PLP.Chemscore.CHOScore>
0.0000

> <Gold.PLP.Chemscore.Metal>
0.0000

> <Gold.Chemscore.Hbonds>
donor molecule, donor type, donor heavy atom, donor atom, acceptor molecule, acceptor atom, score
      L1  H     4    49       P1  8028  1.43
      L1  H     7    33       P1  8028  0.43
      P1  H  7997  8010       L1    12  0.46

> <Gold.PLP.Chemscore.Internal.Correction>
0.1194

> <Gold.Rescore>
     Score         DG    S(hbond)    S(metal)    S(lipo)     H(rot)  DE(clash)    DE(int)     intcor
     14.96     -17.34       2.15        0.00     104.69       2.96       1.24       1.13       ----

> <Gold.Chemscore.Fitness>
14.9615

> <Gold.Chemscore.DG>
-17.3369

> <Gold.Chemscore.ZeroCoef>
-5.4800

> <Gold.Chemscore.Hbond>
2.1523

> <Gold.Chemscore.Metal>
0.0000

> <Gold.Chemscore.Lipo>
104.6880

> <Gold.Chemscore.Internal_Hbond>
0.0000

> <Gold.Chemscore.DEClash>
1.2431

> <Gold.Chemscore.DEInternal>
1.1323

> <Gold.Chemscore.Rot>
2.9611

> <Gold.Chemscore.Internal.Correction>
   9.000000E+99

> <Gold.Chemscore.Hbonds>
donor molecule, donor type, donor heavy atom, donor atom, acceptor molecule, acceptor atom, score
      L1  H     4    49       P1  8028  0.18
      L1  H     7    33       P1  8028  0.43
      P1  H  7997  8010       L1    12  0.38

> <Gold.Chemscore.Hbond.Weighted>
-7.1887

> <Gold.Chemscore.Metal.Weighted>
-0.0000

> <Gold.Chemscore.Lipo.Weighted>
-12.2485

> <Gold.Chemscore.Internal_Hbond.Weighted>
0.0000

> <Gold.Chemscore.DEClash.Weighted>
1.2431

> <Gold.Chemscore.DEInternal.Weighted>
1.1323

> <Gold.Chemscore.Rot.Weighted>
7.5803

> <Gold.Chemscore.Internal.Correction.Weighted>
   9.000000E+99

> <Gold.Protein.RotatedTorsions>
[ 6907 6896 6895 6894 ] final  103.34 input  -60.11 | X-H torsion
[ 7974 7965 7964 7962 ] final  104.28 input  175.53 | X-H torsion
[ 8008 7997 7996 7995 ] final   64.42 input   59.86 | X-H torsion
[ 10167 10162 10161 10158 ] final  -27.68 input  -65.29 | X-H torsion
[ 10718 10713 10712 10709 ] final  -64.06 input   66.30 | X-H torsion
[ 10763 10752 10751 10750 ] final  -30.95 input  -60.55 | X-H torsion
[ 11005 11000 10999 10996 ] final   32.79 input  -57.11 | X-H torsion

> <Gold.Protein.ActiveResidues>
 VAL166  LYS551  ARG553  GLY616  TRP617  ASP618  TYR619  PRO620  LYS621  CYS622 
 ASP623  PHE694  ASN695  SER759  ASP760  ASP761  ALA762  ILE779  LEU786  VAL792 
 PHE793  MET794  SER795  GLU796  ALA797  LYS798  CYS799  TRP800  GLU811  SER814 

> <Gold.Protein.RotatedAtoms>
  152.5298  133.9840  159.7819 H   0  0  0  0  0  0  0  0  0  0  0  0  # atno 6907 bound_to 6896
  151.0088  133.5977  159.2692 H   0  0  0  0  0  0  0  0  0  0  0  0  # atno 6908 bound_to 6896
  151.3059  135.0788  159.9308 H   0  0  0  0  0  0  0  0  0  0  0  0  # atno 6909 bound_to 6896
  145.3348  139.2477  143.3641 H   0  0  0  0  0  0  0  0  0  0  0  0  # atno 7974 bound_to 7965
  155.6458  140.3497  155.4731 H   0  0  0  0  0  0  0  0  0  0  0  0  # atno 8008 bound_to 7997
  155.9888  140.1189  157.0681 H   0  0  0  0  0  0  0  0  0  0  0  0  # atno 8009 bound_to 7997
  154.4213  140.1123  156.5523 H   0  0  0  0  0  0  0  0  0  0  0  0  # atno 8010 bound_to 7997
  140.7275  143.4073  151.1163 H   0  0  0  0  0  0  0  0  0  0  0  0  # atno 10167 bound_to 10162
  156.0752  130.4228  150.1366 H   0  0  0  0  0  0  0  0  0  0  0  0  # atno 10718 bound_to 10713
  153.7893  135.6899  153.4874 H   0  0  0  0  0  0  0  0  0  0  0  0  # atno 10763 bound_to 10752
  153.1760  135.4524  154.9964 H   0  0  0  0  0  0  0  0  0  0  0  0  # atno 10764 bound_to 10752
  154.8051  135.3353  154.7390 H   0  0  0  0  0  0  0  0  0  0  0  0  # atno 10765 bound_to 10752
  140.2698  134.3095  155.7831 H   0  0  0  0  0  0  0  0  0  0  0  0  # atno 11005 bound_to 11000
  146.3031  140.3934  142.8697 LP  0  0  0  0  0  0  0  0  0  0  0  0  # atno 17320 bound_to 7965
  144.8836  140.7432  143.5971 LP  0  0  0  0  0  0  0  0  0  0  0  0  # atno 17321 bound_to 7965
  139.7702  143.8506  152.3119 LP  0  0  0  0  0  0  0  0  0  0  0  0  # atno 17342 bound_to 10162
  139.8422  144.7205  150.9317 LP  0  0  0  0  0  0  0  0  0  0  0  0  # atno 17343 bound_to 10162
  156.9409  130.9744  151.3516 LP  0  0  0  0  0  0  0  0  0  0  0  0  # atno 17370 bound_to 10713
  157.5844  130.8399  149.8568 LP  0  0  0  0  0  0  0  0  0  0  0  0  # atno 17371 bound_to 10713
  141.2179  133.7460  156.9317 LP  0  0  0  0  0  0  0  0  0  0  0  0  # atno 17394 bound_to 11000
  140.1384  134.9310  157.2433 LP  0  0  0  0  0  0  0  0  0  0  0  0  # atno 17395 bound_to 11000

$$$$
