AV-unprocessed.smi:30|AV-procd|sdf|193|dock5
  -GOLD-   2262015463D 1   1.00000     0.00000
 Structure written by MMmdl.
 54 57  0  0  0  0  0  0  0  0  1 V2000
  148.3170  137.5793  154.4630 O   0  0  0  0  0  0  0  0  0  0  0  0
  148.0524  136.9479  155.4871 C   0  0  0  0  0  0  0  0  0  0  0  0
  146.9055  135.9247  155.4983 C   0  0  0  0  0  0  0  0  0  0  0  0
  147.0320  134.8811  154.4568 N   0  0  0  0  0  0  0  0  0  0  0  0
  147.9080  133.7936  154.6947 C   0  0  0  0  0  0  0  0  0  0  0  0
  148.5292  133.6934  155.7539 O   0  0  0  0  0  0  0  0  0  0  0  0
  148.0292  132.8349  153.6037 C   0  0  0  0  0  0  0  0  0  0  0  0
  148.8760  131.7979  153.7202 F   0  0  0  0  0  0  0  0  0  0  0  0
  147.3175  132.9819  152.4675 C   0  0  0  0  0  0  0  0  0  0  0  0
  146.4214  134.0177  152.2673 N   0  0  0  0  0  0  0  0  0  0  0  0
  145.7130  134.2121  150.9420 C   0  0  2  0  0  0  0  0  0  0  0  0
  144.1777  134.2312  151.0445 C   0  0  0  0  0  0  0  0  0  0  0  0
  143.7993  132.8708  150.4923 C   0  0  0  0  0  0  0  0  0  0  0  0
  144.9129  132.6301  149.4808 C   0  0  0  0  0  0  0  0  0  0  0  0
  146.0758  133.1490  150.1126 O   0  0  0  0  0  0  0  0  0  0  0  0
  146.3094  135.0295  153.2484 C   0  0  0  0  0  0  0  0  0  0  0  0
  145.6001  136.0198  153.0570 O   0  0  0  0  0  0  0  0  0  0  0  0
  148.6887  137.1040  156.6623 N   0  0  0  0  0  0  0  0  0  0  0  0
  149.7969  137.9401  156.9658 C   0  0  0  0  0  0  0  0  0  0  0  0
  149.8303  138.5343  158.2428 C   0  0  0  0  0  0  0  0  0  0  0  0
  150.9097  139.3555  158.6198 C   0  0  0  0  0  0  0  0  0  0  0  0
  151.9823  139.5897  157.7366 C   0  0  0  0  0  0  0  0  0  0  0  0
  152.9993  140.4036  158.1880 O   0  0  0  0  0  0  0  0  0  0  0  0
  153.2184  140.4939  159.5894 C   0  0  0  0  0  0  0  0  0  0  0  0
  152.8396  141.8629  160.1180 C   0  0  0  0  0  0  0  0  0  0  0  0
  152.9733  142.1460  161.4934 C   0  0  0  0  0  0  0  0  0  0  0  0
  152.6179  143.4140  161.9933 C   0  0  0  0  0  0  0  0  0  0  0  0
  152.1262  144.4031  161.1195 C   0  0  0  0  0  0  0  0  0  0  0  0
  151.9898  144.1235  159.7459 C   0  0  0  0  0  0  0  0  0  0  0  0
  152.3445  142.8554  159.2456 C   0  0  0  0  0  0  0  0  0  0  0  0
  151.9564  138.9791  156.4580 C   0  0  0  0  0  0  0  0  0  0  0  0
  150.8767  138.1584  156.0783 C   0  0  0  0  0  0  0  0  0  0  0  0
  146.8508  135.4700  156.4890 H   0  0  0  0  0  0  0  0  0  0  0  0
  145.9628  136.4660  155.4057 H   0  0  0  0  0  0  0  0  0  0  0  0
  147.4763  132.2519  151.6903 H   0  0  0  0  0  0  0  0  0  0  0  0
  146.0744  135.1597  150.5398 H   0  0  0  0  0  0  0  0  0  0  0  0
  143.8106  134.4402  152.0492 H   0  0  0  0  0  0  0  0  0  0  0  0
  143.8043  135.0139  150.3829 H   0  0  0  0  0  0  0  0  0  0  0  0
  143.8338  132.1117  151.2738 H   0  0  0  0  0  0  0  0  0  0  0  0
  142.8059  132.8530  150.0440 H   0  0  0  0  0  0  0  0  0  0  0  0
  145.0312  131.5773  149.2245 H   0  0  0  0  0  0  0  0  0  0  0  0
  144.7245  133.1885  148.5624 H   0  0  0  0  0  0  0  0  0  0  0  0
  148.2986  136.6006  157.4458 H   0  0  0  0  0  0  0  0  0  0  0  0
  149.0227  138.3668  158.9406 H   0  0  0  0  0  0  0  0  0  0  0  0
  150.9158  139.8083  159.6005 H   0  0  0  0  0  0  0  0  0  0  0  0
  152.6368  139.7306  160.1094 H   0  0  0  0  0  0  0  0  0  0  0  0
  154.2717  140.3232  159.8171 H   0  0  0  0  0  0  0  0  0  0  0  0
  153.3496  141.3901  162.1673 H   0  0  0  0  0  0  0  0  0  0  0  0
  152.7224  143.6277  163.0468 H   0  0  0  0  0  0  0  0  0  0  0  0
  151.8537  145.3754  161.5029 H   0  0  0  0  0  0  0  0  0  0  0  0
  151.6132  144.8818  159.0755 H   0  0  0  0  0  0  0  0  0  0  0  0
  152.2361  142.6498  158.1906 H   0  0  0  0  0  0  0  0  0  0  0  0
  152.7578  139.1196  155.7490 H   0  0  0  0  0  0  0  0  0  0  0  0
  150.9071  137.6931  155.1051 H   0  0  0  0  0  0  0  0  0  0  0  0
  1  2  2  0  0  0  0
  2  3  1  0  0  0  0
  2 18  1  0  0  0  0
  3  4  1  0  0  0  0
  3 33  1  0  0  0  0
  3 34  1  0  0  0  0
  4 16  1  0  0  0  0
  4  5  1  0  0  0  0
  5  6  2  0  0  0  0
  5  7  1  0  0  0  0
  7  8  1  0  0  0  0
  7  9  2  0  0  0  0
  9 10  1  0  0  0  0
  9 35  1  0  0  0  0
 10 11  1  0  0  0  0
 10 16  1  0  0  0  0
 11 15  1  0  0  0  0
 11 12  1  0  0  0  0
 11 36  1  0  0  0  0
 12 13  1  0  0  0  0
 12 37  1  0  0  0  0
 12 38  1  0  0  0  0
 13 14  1  0  0  0  0
 13 39  1  0  0  0  0
 13 40  1  0  0  0  0
 14 15  1  0  0  0  0
 14 41  1  0  0  0  0
 14 42  1  0  0  0  0
 16 17  2  0  0  0  0
 18 19  1  0  0  0  0
 18 43  1  0  0  0  0
 19 32  1  0  0  0  0
 19 20  2  0  0  0  0
 20 21  1  0  0  0  0
 20 44  1  0  0  0  0
 21 22  2  0  0  0  0
 21 45  1  0  0  0  0
 22 23  1  0  0  0  0
 22 31  1  0  0  0  0
 23 24  1  0  0  0  0
 24 25  1  0  0  0  0
 24 46  1  0  0  0  0
 24 47  1  0  0  0  0
 25 30  1  0  0  0  0
 25 26  2  0  0  0  0
 26 27  1  0  0  0  0
 26 48  1  0  0  0  0
 27 28  2  0  0  0  0
 27 49  1  0  0  0  0
 28 29  1  0  0  0  0
 28 50  1  0  0  0  0
 29 30  2  0  0  0  0
 29 51  1  0  0  0  0
 30 52  1  0  0  0  0
 31 32  2  0  0  0  0
 31 53  1  0  0  0  0
 32 54  1  0  0  0  0
M  END
> <s_m_source_file>
AV-unprocessed.smi

> <i_m_source_file_index>
30

> <i_lp_mmshare_version>
43012

> <i_f3d_flags>
0

> <s_epik_input>
TzFbQ0gyXVtDSDJdW0NIMl1bQ0BIXTFuKGMyPU8pW2NIXWMoRiljKD1PKW4yW0NIMl1DKD1PKVtOSF1jM1tjSF1bY0hdYyhbY0hdW2NIXTMpT1tDSDJdYzRbY0hdW2NIXVtjSF1bY0hdW2NIXTQ=

> <s_epik_cmdline>
J2VwaWtfcHl0aG9uJywgJy1waCcsICc3LjAnLCAnLXRuJywgJzgnLCAnLW1hJywgJzIwMCcsICctbWV0YWxfYmluZGluZycsICctaW1hZScsICc8aW5maWxlLm1hZT4nLCAnLW9tYWUnLCAnPG91dGZpbGUubWFlPic=

> <r_lp_tautomer_probability>
1

> <r_epik_Ionization_Penalty>
1.04818e-05

> <r_epik_Ionization_Penalty_Charging>
3.88729e-08

> <r_epik_Ionization_Penalty_Neutral>
1.04429e-05

> <r_epik_State_Penalty>
-0

> <r_epik_Charging_Adjusted_Penalty>
3.88729e-08

> <i_epik_Tot_Q>
0

> <i_epik_Tot_abs_Q>
0

> <r_epik_Metal_State_Penalty>
-0

> <b_epik_Metal_Only>
0

> <s_epik_Chemistry_Notes>
This compound contains an acetal/aminal-like group ( X-CH(R)-Y where X, Y are N, S, or O) that may be acid/base labile, releasing an aldehyde.

> <s_lp_Force_Field>
OPLS_2005

> <r_lp_Energy>
43.3432

> <b_lp_Chiralities_Consistent>
1

> <s_lp_Variant>
AV-unprocessed.smi:30-1

> <Gold.Version>
5.8.1

> <Gold.Id.Protein>
6NUR|6NUR_protein|mol2

> <Gold.PLP.Fitness>
58.0687

> <Gold.PLP.PLP>
-54.6474

> <Gold.PLP.part.hbond>
-1.0000

> <Gold.PLP.part.metal>
0.0000

> <Gold.PLP.part.buried>
-7.6163

> <Gold.PLP.part.nonpolar>
-47.1294

> <Gold.PLP.part.repulsive>
0.8484

> <Gold.PLP.ligand.clash>
0.0000

> <Gold.PLP.ligand.torsion>
1.3512

> <Gold.PLP.Chemscore.Hbond>
0.9280

> <Gold.PLP.Chemscore.CHOScore>
1.0000

> <Gold.PLP.Chemscore.Metal>
0.0000

> <Gold.Chemscore.Hbonds>
donor molecule, donor type, donor heavy atom, donor atom, acceptor molecule, acceptor atom, score
      P1  H  7997  8009       L1    23  0.82
      L1  C     9    35       P1 10747  1.00

> <Gold.PLP.Chemscore.Internal.Correction>
0.3397

> <Gold.Rescore>
     Score         DG    S(hbond)    S(metal)    S(lipo)     H(rot)  DE(clash)    DE(int)     intcor
     16.81     -18.61       0.91        0.00     134.17       2.20       0.38       1.42       ----

> <Gold.Chemscore.Fitness>
16.8073

> <Gold.Chemscore.DG>
-18.6067

> <Gold.Chemscore.ZeroCoef>
-5.4800

> <Gold.Chemscore.Hbond>
0.9127

> <Gold.Chemscore.Metal>
0.0000

> <Gold.Chemscore.Lipo>
134.1701

> <Gold.Chemscore.Internal_Hbond>
0.0000

> <Gold.Chemscore.DEClash>
0.3804

> <Gold.Chemscore.DEInternal>
1.4190

> <Gold.Chemscore.Rot>
2.1952

> <Gold.Chemscore.Internal.Correction>
   9.000000E+99

> <Gold.Chemscore.Hbonds>
donor molecule, donor type, donor heavy atom, donor atom, acceptor molecule, acceptor atom, score
      P1  H  7997  8009       L1    23  0.49

> <Gold.Chemscore.Hbond.Weighted>
-3.0484

> <Gold.Chemscore.Metal.Weighted>
-0.0000

> <Gold.Chemscore.Lipo.Weighted>
-15.6979

> <Gold.Chemscore.Internal_Hbond.Weighted>
0.0000

> <Gold.Chemscore.DEClash.Weighted>
0.3804

> <Gold.Chemscore.DEInternal.Weighted>
1.4190

> <Gold.Chemscore.Rot.Weighted>
5.6196

> <Gold.Chemscore.Internal.Correction.Weighted>
   9.000000E+99

> <Gold.Protein.RotatedTorsions>
[ 6907 6896 6895 6894 ] final  -51.13 input  -60.11 | X-H torsion
[ 7974 7965 7964 7962 ] final -127.99 input  175.53 | X-H torsion
[ 8008 7997 7996 7995 ] final  149.93 input   59.86 | X-H torsion
[ 10167 10162 10161 10158 ] final  165.05 input  -65.29 | X-H torsion
[ 10718 10713 10712 10709 ] final -123.75 input   66.30 | X-H torsion
[ 10763 10752 10751 10750 ] final   66.87 input  -60.55 | X-H torsion
[ 11005 11000 10999 10996 ] final  -72.68 input  -57.11 | X-H torsion

> <Gold.Protein.ActiveResidues>
 VAL166  LYS551  ARG553  GLY616  TRP617  ASP618  TYR619  PRO620  LYS621  CYS622 
 ASP623  PHE694  ASN695  SER759  ASP760  ASP761  ALA762  ILE779  LEU786  VAL792 
 PHE793  MET794  SER795  GLU796  ALA797  LYS798  CYS799  TRP800  GLU811  SER814 

> <Gold.Protein.RotatedAtoms>
  150.8641  134.8000  159.7104 H   0  0  0  0  0  0  0  0  0  0  0  0  # atno 6907 bound_to 6896
  152.4668  134.5052  159.9747 H   0  0  0  0  0  0  0  0  0  0  0  0  # atno 6908 bound_to 6896
  151.5151  133.3439  159.2927 H   0  0  0  0  0  0  0  0  0  0  0  0  # atno 6909 bound_to 6896
  144.9715  140.7550  143.4668 H   0  0  0  0  0  0  0  0  0  0  0  0  # atno 7974 bound_to 7965
  156.2736  140.2088  156.5937 H   0  0  0  0  0  0  0  0  0  0  0  0  # atno 8008 bound_to 7997
  154.6962  140.0525  157.0436 H   0  0  0  0  0  0  0  0  0  0  0  0  # atno 8009 bound_to 7997
  155.0798  140.3185  155.4608 H   0  0  0  0  0  0  0  0  0  0  0  0  # atno 8010 bound_to 7997
  139.4899  144.4172  151.9230 H   0  0  0  0  0  0  0  0  0  0  0  0  # atno 10167 bound_to 10162
  156.1529  130.6547  150.9939 H   0  0  0  0  0  0  0  0  0  0  0  0  # atno 10718 bound_to 10713
  153.0160  135.5305  154.6891 H   0  0  0  0  0  0  0  0  0  0  0  0  # atno 10763 bound_to 10752
  154.6030  135.2870  155.0517 H   0  0  0  0  0  0  0  0  0  0  0  0  # atno 10764 bound_to 10752
  154.1566  135.6554  153.5028 H   0  0  0  0  0  0  0  0  0  0  0  0  # atno 10765 bound_to 10752
  141.1612  133.6854  156.7095 H   0  0  0  0  0  0  0  0  0  0  0  0  # atno 11005 bound_to 11000
  145.2552  139.2015  143.4921 LP  0  0  0  0  0  0  0  0  0  0  0  0  # atno 17320 bound_to 7965
  146.3383  140.2472  142.8597 LP  0  0  0  0  0  0  0  0  0  0  0  0  # atno 17321 bound_to 7965
  140.3615  144.2967  150.5933 LP  0  0  0  0  0  0  0  0  0  0  0  0  # atno 17342 bound_to 10162
  140.5399  143.2226  151.8102 LP  0  0  0  0  0  0  0  0  0  0  0  0  # atno 17343 bound_to 10162
  157.6671  131.0869  150.7702 LP  0  0  0  0  0  0  0  0  0  0  0  0  # atno 17370 bound_to 10713
  156.7769  130.4846  149.5408 LP  0  0  0  0  0  0  0  0  0  0  0  0  # atno 17371 bound_to 10713
  140.2898  134.8250  157.4006 LP  0  0  0  0  0  0  0  0  0  0  0  0  # atno 17394 bound_to 11000
  140.1357  134.5037  155.8070 LP  0  0  0  0  0  0  0  0  0  0  0  0  # atno 17395 bound_to 11000

$$$$
