#       Name:                AV-unprocessed.smi:290
#       Creating user name   scv26
#       Creation time:       Thu Mar 26 22:08:59 2020


#       File generated by GOLD software.
#

@<TRIPOS>MOLECULE
AV-unprocessed.smi:290
    69    72     1
SMALL
NO_CHARGES


@<TRIPOS>ATOM
      1 ****        -3.8478  -0.8587   2.2771 C.3            1 S1                 0.0000
      2 ****        -3.9401  -2.3283   2.7158 C.3            1 S1                 0.0000
      3 ****        -5.1779  -2.4367   3.4206 O.3            1 S1                 0.0000
      4 ****        -5.8174  -3.6591   3.0983 C.3            1 S1                 0.0000
      5 ****        -5.4484  -3.8595   1.6367 C.3            1 S1                 0.0000
      6 ****        -3.9946  -3.4055   1.5918 C.3            1 S1                 0.0000
      7 ****        -3.2068  -4.5084   2.0076 O.3            1 S1                 0.0000
      8 ****        -3.5546  -3.0100   0.1536 C.3            1 S1                 0.0000
      9 ****        -2.2051  -2.4683   0.0224 N.pl3          1 S1                 0.0000
     10 ****        -1.0120  -3.0758   0.3520 C.2            1 S1                 0.0000
     11 ****         0.0599  -2.3726   0.1090 N.2            1 S1                 0.0000
     12 ****        -0.4220  -1.1994  -0.4571 C.ar           1 S1                 0.0000
     13 ****         0.1906  -0.0152  -0.9598 C.ar           1 S1                 0.0000
     14 ****         1.5345   0.1894  -0.9356 N.3            1 S1                 0.0000
     15 ****         2.2221  -0.0964   0.3221 C.3            1 S1                 0.0000
     16 ****         3.3297   0.9530   0.4629 C.3            1 S1                 0.0000
     17 ****         3.5552   1.4084  -0.9827 C.3            1 S1                 0.0000
     18 ****         4.2477   2.7181  -1.1528 N.4            1 S1                 1.0000
     19 ****         5.7139   2.5972  -0.9728 C.3            1 S1                 0.0000
     20 ****         3.6691   3.8578  -0.3892 C.3            1 S1                 0.0000
     21 ****         3.8359   5.1901  -1.1374 C.3            1 S1                 0.0000
     22 ****         3.0307   5.1969  -2.2978 O.3            1 S1                 0.0000
     23 ****         2.1455   1.3479  -1.5874 C.3            1 S1                 0.0000
     24 ****         2.1564   1.2273  -3.1218 C.3            1 S1                 0.0000
     25 ****        -0.6301   0.9373  -1.4769 N.ar           1 S1                 0.0000
     26 ****        -1.9530   0.7534  -1.4984 C.ar           1 S1                 0.0000
     27 ****        -2.6561  -0.2910  -1.0590 N.ar           1 S1                 0.0000
     28 ****        -1.8422  -1.2542  -0.5392 C.ar           1 S1                 0.0000
     29 ****         4.1518   0.6411  -1.4811 H              1 S1                 0.0000
     30 ****         1.5781   2.2340  -1.3061 H              1 S1                 0.0000
     31 ****        -2.8623  -0.6178   1.8841 H              1 S1                 0.0000
     32 ****        -4.0130  -0.1949   3.1259 H              1 S1                 0.0000
     33 ****        -4.5942  -0.6161   1.5205 H              1 S1                 0.0000
     34 ****        -3.1259  -2.5360   3.4126 H              1 S1                 0.0000
     35 ****        -5.4139  -4.4595   3.7203 H              1 S1                 0.0000
     36 ****        -6.8941  -3.6048   3.2600 H              1 S1                 0.0000
     37 ****        -5.6023  -4.8833   1.2926 H              1 S1                 0.0000
     38 ****        -6.0684  -3.2058   1.0213 H              1 S1                 0.0000
     39 ****        -3.3482  -5.2224   1.4048 H              1 S1                 0.0000
     40 ****        -3.6264  -3.8761  -0.5056 H              1 S1                 0.0000
     41 ****        -4.2557  -2.2788  -0.2497 H              1 S1                 0.0000
     42 ****        -0.9481  -4.0647   0.7798 H              1 S1                 0.0000
     43 ****         1.5493  -0.0719   1.1810 H              1 S1                 0.0000
     44 ****         2.6528  -1.0964   0.2614 H              1 S1                 0.0000
     45 ****         2.9642   1.7659   1.0902 H              1 S1                 0.0000
     46 ****         4.2300   0.5511   0.9283 H              1 S1                 0.0000
     47 ****         5.9607   2.3227   0.0536 H              1 S1                 0.0000
     48 ****         6.2206   3.5336  -1.2039 H              1 S1                 0.0000
     49 ****         6.1247   1.8359  -1.6367 H              1 S1                 0.0000
     50 ****         2.6085   3.7122  -0.1895 H              1 S1                 0.0000
     51 ****         4.1475   3.9167   0.5896 H              1 S1                 0.0000
     52 ****         3.5235   6.0179  -0.5001 H              1 S1                 0.0000
     53 ****         4.8741   5.3756  -1.4114 H              1 S1                 0.0000
     54 ****         2.1218   5.1757  -2.0377 H              1 S1                 0.0000
     55 ****         2.6527   2.0855  -3.5756 H              1 S1                 0.0000
     56 ****         1.1476   1.1831  -3.5315 H              1 S1                 0.0000
     57 ****         2.6832   0.3291  -3.4454 H              1 S1                 0.0000
     58 ****        -2.5312   1.5593  -1.9260 H              1 S1                 0.0000
     59 ****         4.1121   2.9536  -2.1262 H              1 S1                 0.0000
     60 ****        -5.7725  -1.6748   3.1636 LP             1 S1                 0.0000
     61 ****        -5.0020  -2.4051   4.4045 LP             1 S1                 0.0000
     62 ****        -3.4763  -4.7869   2.9294 LP             1 S1                 0.0000
     63 ****        -2.2403  -4.2521   2.0060 LP             1 S1                 0.0000
     64 ****         1.0114  -2.6216   0.2892 LP             1 S1                 0.0000
     65 ****         1.7002  -0.5470  -1.5916 LP             1 S1                 0.0000
     66 ****         3.2393   4.3941  -2.8565 LP             1 S1                 0.0000
     67 ****         3.2098   6.0266  -2.8265 LP             1 S1                 0.0000
     68 ****        -0.2405   1.7819  -1.8440 LP             1 S1                 0.0000
     69 ****        -3.6528  -0.3593  -1.1048 LP             1 S1                 0.0000
@<TRIPOS>BOND
    1    1    2 1     
    2    1   31 1     
    3    1   32 1     
    4    1   33 1     
    5    2    6 1     
    6    2    3 1     
    7    2   34 1     
    8    3    4 1     
    9    4    5 1     
   10    4   35 1     
   11    4   36 1     
   12    5    6 1     
   13    5   37 1     
   14    5   38 1     
   15    6    7 1     
   16    6    8 1     
   17    7   39 1     
   18    8    9 1     
   19    8   40 1     
   20    8   41 1     
   21    9   28 1     
   22    9   10 1     
   23   10   11 2     
   24   10   42 1     
   25   11   12 1     
   26   12   28 ar    
   27   12   13 ar    
   28   13   14 1     
   29   13   25 ar    
   30   14   23 1     
   31   14   15 1     
   32   15   16 1     
   33   15   43 1     
   34   15   44 1     
   35   16   17 1     
   36   16   45 1     
   37   16   46 1     
   38   17   29 1     
   39   17   18 1     
   40   17   23 1     
   41   18   19 1     
   42   18   20 1     
   43   18   59 1     
   44   19   47 1     
   45   19   48 1     
   46   19   49 1     
   47   20   21 1     
   48   20   50 1     
   49   20   51 1     
   50   21   22 1     
   51   21   52 1     
   52   21   53 1     
   53   22   54 1     
   54   23   30 1     
   55   23   24 1     
   56   24   55 1     
   57   24   56 1     
   58   24   57 1     
   59   25   26 ar    
   60   26   27 ar    
   61   26   58 1     
   62   27   28 ar    
   63    3   60 1     
   64    3   61 1     
   65    7   62 1     
   66    7   63 1     
   67   11   64 1     
   68   14   65 1     
   69   22   66 1     
   70   22   67 1     
   71   25   68 1     
   72   27   69 1     
@<TRIPOS>SUBSTRUCTURE
      1 S1             1
@<TRIPOS>SET
LONE_PAIRS      STATIC     ATOMS    <user>   **** ""
10 60 61 62 63 64 65 66 67 68 69
DONOR_HYDROGENS      STATIC     ATOMS    <user>   **** ""
3 39 59 54
ATOM$BLUE        STATIC     ATOMS    COLORGROUP SYSTEM
10 60 61 62 63 64 65 66 67 68 69
ATOM$RED        STATIC     ATOMS    COLORGROUP SYSTEM
3 39 59 54
