AV-unprocessed.smi:1311|AV-procd|sdf|5447|dock6
  -GOLD-   22720 5 13D 1   1.00000     0.00000
 Structure written by MMmdl.
 46 47  0  0  0  0  0  0  0  0  2 V2000
  145.7687  142.9092  153.8257 C   0  0  0  0  0  0  0  0  0  0  0  0
  146.7669  141.7641  154.0598 C   0  0  0  0  0  0  0  0  0  0  0  0
  147.7888  142.0084  155.2061 C   0  0  1  0  0  0  0  0  0  0  0  0
  147.2075  141.4872  156.5534 C   0  0  0  0  0  0  0  0  0  0  0  0
  146.1430  142.3138  157.1122 N   0  0  0  0  0  0  0  0  0  0  0  0
  145.8553  142.4218  158.4198 C   0  0  0  0  0  0  0  0  0  0  0  0
  146.4757  141.8204  159.2955 O   0  0  0  0  0  0  0  0  0  0  0  0
  144.6709  143.3148  158.8015 C   0  0  0  0  0  0  0  0  0  0  0  0
  144.3513  143.1935  160.2713 C   0  0  0  0  0  0  0  0  0  0  0  0
  143.2128  142.5861  160.8762 C   0  0  0  0  0  0  0  0  0  0  0  0
  142.0425  141.9162  160.2154 C   0  0  0  0  0  0  0  0  0  0  0  0
  143.2589  142.6577  162.1958 N   0  0  0  0  0  0  0  0  0  0  0  0
  144.4482  143.3253  162.5032 O   0  0  0  0  0  0  0  0  0  0  0  0
  145.0786  143.6357  161.3424 C   0  0  0  0  0  0  0  0  0  0  0  0
  146.3812  144.3531  161.4586 C   0  0  0  0  0  0  0  0  0  0  0  0
  149.1189  141.3784  154.9111 N   0  3  0  0  0  0  0  0  0  0  0  0
  150.1653  141.5182  155.9491 C   0  0  0  0  0  0  0  0  0  0  0  0
  151.2112  140.4653  155.6058 C   0  0  0  0  0  0  0  0  0  0  0  0
  150.3692  139.2941  155.1180 C   0  0  0  0  0  0  0  0  0  0  0  0
  149.0934  139.9349  154.5551 C   0  0  0  0  0  0  0  0  0  0  0  0
  145.2090  142.7443  152.9048 H   0  0  0  0  0  0  0  0  0  0  0  0
  146.2808  143.8674  153.7314 H   0  0  0  0  0  0  0  0  0  0  0  0
  145.0365  142.9919  154.6281 H   0  0  0  0  0  0  0  0  0  0  0  0
  146.2217  140.8356  154.2349 H   0  0  0  0  0  0  0  0  0  0  0  0
  147.2859  141.6369  153.1108 H   0  0  0  0  0  0  0  0  0  0  0  0
  147.9404  143.0870  155.2712 H   0  0  0  0  0  0  0  0  0  0  0  0
  146.8058  140.4800  156.4511 H   0  0  0  0  0  0  0  0  0  0  0  0
  148.0040  141.4138  157.2948 H   0  0  0  0  0  0  0  0  0  0  0  0
  145.5912  142.8544  156.4617 H   0  0  0  0  0  0  0  0  0  0  0  0
  144.9165  144.3420  158.5305 H   0  0  0  0  0  0  0  0  0  0  0  0
  143.8084  143.0419  158.1920 H   0  0  0  0  0  0  0  0  0  0  0  0
  142.2866  141.5992  159.2015 H   0  0  0  0  0  0  0  0  0  0  0  0
  141.1893  142.5922  160.1556 H   0  0  0  0  0  0  0  0  0  0  0  0
  141.7281  141.0302  160.7679 H   0  0  0  0  0  0  0  0  0  0  0  0
  146.4682  145.1270  160.6958 H   0  0  0  0  0  0  0  0  0  0  0  0
  147.2137  143.6607  161.3349 H   0  0  0  0  0  0  0  0  0  0  0  0
  146.4803  144.8309  162.4335 H   0  0  0  0  0  0  0  0  0  0  0  0
  150.5961  142.5199  155.9676 H   0  0  0  0  0  0  0  0  0  0  0  0
  149.7413  141.3036  156.9318 H   0  0  0  0  0  0  0  0  0  0  0  0
  151.8499  140.8259  154.7982 H   0  0  0  0  0  0  0  0  0  0  0  0
  151.8491  140.2076  156.4519 H   0  0  0  0  0  0  0  0  0  0  0  0
  150.8939  138.6867  154.3797 H   0  0  0  0  0  0  0  0  0  0  0  0
  150.1155  138.6467  155.9585 H   0  0  0  0  0  0  0  0  0  0  0  0
  148.2232  139.4331  154.9801 H   0  0  0  0  0  0  0  0  0  0  0  0
  149.0483  139.8269  153.4711 H   0  0  0  0  0  0  0  0  0  0  0  0
  149.4898  141.8576  154.1030 H   0  0  0  0  0  0  0  0  0  0  0  0
  1  2  1  0  0  0  0
  1 21  1  0  0  0  0
  1 22  1  0  0  0  0
  1 23  1  0  0  0  0
  2  3  1  0  0  0  0
  2 24  1  0  0  0  0
  2 25  1  0  0  0  0
  3  4  1  0  0  0  0
  3 16  1  0  0  0  0
  3 26  1  0  0  0  0
  4  5  1  0  0  0  0
  4 27  1  0  0  0  0
  4 28  1  0  0  0  0
  5  6  1  0  0  0  0
  5 29  1  0  0  0  0
  6  7  2  0  0  0  0
  6  8  1  0  0  0  0
  8  9  1  0  0  0  0
  8 30  1  0  0  0  0
  8 31  1  0  0  0  0
  9 14  2  0  0  0  0
  9 10  1  0  0  0  0
 10 11  1  0  0  0  0
 10 12  2  0  0  0  0
 11 32  1  0  0  0  0
 11 33  1  0  0  0  0
 11 34  1  0  0  0  0
 12 13  1  0  0  0  0
 13 14  1  0  0  0  0
 14 15  1  0  0  0  0
 15 35  1  0  0  0  0
 15 36  1  0  0  0  0
 15 37  1  0  0  0  0
 16 20  1  0  0  0  0
 16 17  1  0  0  0  0
 16 46  1  0  0  0  0
 17 18  1  0  0  0  0
 17 38  1  0  0  0  0
 17 39  1  0  0  0  0
 18 19  1  0  0  0  0
 18 40  1  0  0  0  0
 18 41  1  0  0  0  0
 19 20  1  0  0  0  0
 19 42  1  0  0  0  0
 19 43  1  0  0  0  0
 20 44  1  0  0  0  0
 20 45  1  0  0  0  0
M  CHG  1  16   1
M  END
> <s_m_source_file>
AV-unprocessed.smi

> <i_m_source_file_index>
1311

> <i_lp_mmshare_version>
43012

> <i_f3d_flags>
0

> <s_epik_input>
W0NIMl0xW0NIMl1bQ0gyXVtDSDJdTjFbQ0BIXShbQ0gyXVtDSDNdKVtDSDJdW05IXUMoPU8pW0NIMl1jMmMoW0NIM10pbm9jMltDSDNd

> <s_epik_cmdline>
J2VwaWtfcHl0aG9uJywgJy1waCcsICc3LjAnLCAnLXRuJywgJzgnLCAnLW1hJywgJzIwMCcsICctbWV0YWxfYmluZGluZycsICctaW1hZScsICc8aW5maWxlLm1hZT4nLCAnLW9tYWUnLCAnPG91dGZpbGUubWFlPic=

> <r_epik_Ionization_Penalty>
0.00366311

> <r_epik_Ionization_Penalty_Charging>
0.00366302

> <r_epik_Ionization_Penalty_Neutral>
9.25085e-08

> <r_epik_State_Penalty>
0.00260703

> <r_epik_Charging_Adjusted_Penalty>
0.00627005

> <i_epik_Tot_Q>
1

> <i_epik_Tot_abs_Q>
1

> <r_epik_Metal_State_Penalty>
-0

> <b_epik_Metal_Only>
0

> <s_lp_Force_Field>
OPLS_2005

> <r_lp_Energy>
34.8572

> <b_lp_Chiralities_Consistent>
1

> <s_lp_Variant>
AV-unprocessed.smi:1311-2

> <Gold.Version>
5.8.1

> <Gold.Id.Protein>
6NUR|6NUR_protein|mol2

> <Gold.PLP.Fitness>
34.8694

> <Gold.PLP.PLP>
-33.9225

> <Gold.PLP.part.hbond>
-3.2909

> <Gold.PLP.part.metal>
0.0000

> <Gold.PLP.part.buried>
-4.2292

> <Gold.PLP.part.nonpolar>
-26.9144

> <Gold.PLP.part.repulsive>
0.2655

> <Gold.PLP.ligand.clash>
0.0000

> <Gold.PLP.ligand.torsion>
0.8909

> <Gold.PLP.Chemscore.Hbond>
0.8640

> <Gold.PLP.Chemscore.CHOScore>
0.0000

> <Gold.PLP.Chemscore.Metal>
0.0000

> <Gold.Chemscore.Hbonds>
donor molecule, donor type, donor heavy atom, donor atom, acceptor molecule, acceptor atom, score
      P1  H  6934  6946       L1     7  0.90

> <Gold.PLP.Chemscore.Internal.Correction>
0.1368

> <Gold.Rescore>
     Score         DG    S(hbond)    S(metal)    S(lipo)     H(rot)  DE(clash)    DE(int)     intcor
     11.05     -11.81       0.92        0.00      67.21       1.80       0.00       0.76       ----

> <Gold.Chemscore.Fitness>
11.0463

> <Gold.Chemscore.DG>
-11.8148

> <Gold.Chemscore.ZeroCoef>
-5.4800

> <Gold.Chemscore.Hbond>
0.9221

> <Gold.Chemscore.Metal>
0.0000

> <Gold.Chemscore.Lipo>
67.2148

> <Gold.Chemscore.Internal_Hbond>
0.0000

> <Gold.Chemscore.DEClash>
0.0048

> <Gold.Chemscore.DEInternal>
0.7638

> <Gold.Chemscore.Rot>
1.8004

> <Gold.Chemscore.Internal.Correction>
   9.000000E+99

> <Gold.Chemscore.Hbonds>
donor molecule, donor type, donor heavy atom, donor atom, acceptor molecule, acceptor atom, score
      P1  H  6934  6946       L1     7  0.88

> <Gold.Chemscore.Hbond.Weighted>
-3.0797

> <Gold.Chemscore.Metal.Weighted>
-0.0000

> <Gold.Chemscore.Lipo.Weighted>
-7.8641

> <Gold.Chemscore.Internal_Hbond.Weighted>
0.0000

> <Gold.Chemscore.DEClash.Weighted>
0.0048

> <Gold.Chemscore.DEInternal.Weighted>
0.7638

> <Gold.Chemscore.Rot.Weighted>
4.6090

> <Gold.Chemscore.Internal.Correction.Weighted>
   9.000000E+99

> <Gold.Protein.RotatedTorsions>
[ 6907 6896 6895 6894 ] final  -54.74 input  -60.11 | X-H torsion
[ 7974 7965 7964 7962 ] final -117.61 input  175.53 | X-H torsion
[ 8008 7997 7996 7995 ] final -125.47 input   59.86 | X-H torsion
[ 10167 10162 10161 10158 ] final  -90.16 input  -65.29 | X-H torsion
[ 10718 10713 10712 10709 ] final -131.15 input   66.30 | X-H torsion
[ 10763 10752 10751 10750 ] final  125.32 input  -60.55 | X-H torsion
[ 11005 11000 10999 10996 ] final  -84.94 input  -57.11 | X-H torsion

> <Gold.Protein.ActiveResidues>
 VAL166  LYS551  ARG553  GLY616  TRP617  ASP618  TYR619  PRO620  LYS621  CYS622 
 ASP623  PHE694  ASN695  SER759  ASP760  ASP761  ALA762  ILE779  LEU786  VAL792 
 PHE793  MET794  SER795  GLU796  ALA797  LYS798  CYS799  TRP800  GLU811  SER814 

> <Gold.Protein.RotatedAtoms>
  150.8312  134.7565  159.6854 H   0  0  0  0  0  0  0  0  0  0  0  0  # atno 6907 bound_to 6896
  152.4416  134.5576  159.9895 H   0  0  0  0  0  0  0  0  0  0  0  0  # atno 6908 bound_to 6896
  151.5737  133.3349  159.3030 H   0  0  0  0  0  0  0  0  0  0  0  0  # atno 6909 bound_to 6896
  145.0832  140.8440  143.4026 H   0  0  0  0  0  0  0  0  0  0  0  0  # atno 7974 bound_to 7965
  155.2138  140.0419  157.2937 H   0  0  0  0  0  0  0  0  0  0  0  0  # atno 8008 bound_to 7997
  154.5994  140.2448  155.7783 H   0  0  0  0  0  0  0  0  0  0  0  0  # atno 8009 bound_to 7997
  156.2311  140.2938  156.0201 H   0  0  0  0  0  0  0  0  0  0  0  0  # atno 8010 bound_to 7997
  140.3577  143.2858  151.9652 H   0  0  0  0  0  0  0  0  0  0  0  0  # atno 10167 bound_to 10162
  156.2215  130.6981  151.0761 H   0  0  0  0  0  0  0  0  0  0  0  0  # atno 10718 bound_to 10713
  153.6754  135.3323  155.3164 H   0  0  0  0  0  0  0  0  0  0  0  0  # atno 10763 bound_to 10752
  154.8480  135.4396  154.1662 H   0  0  0  0  0  0  0  0  0  0  0  0  # atno 10764 bound_to 10752
  153.2664  135.6996  153.7602 H   0  0  0  0  0  0  0  0  0  0  0  0  # atno 10765 bound_to 10752
  141.1646  133.7373  156.8942 H   0  0  0  0  0  0  0  0  0  0  0  0  # atno 11005 bound_to 11000
  145.1153  139.2729  143.5616 LP  0  0  0  0  0  0  0  0  0  0  0  0  # atno 17320 bound_to 7965
  146.3531  140.0761  142.8620 LP  0  0  0  0  0  0  0  0  0  0  0  0  # atno 17321 bound_to 7965
  139.4818  144.6020  151.7588 LP  0  0  0  0  0  0  0  0  0  0  0  0  # atno 17342 bound_to 10162
  140.5158  144.0956  150.6008 LP  0  0  0  0  0  0  0  0  0  0  0  0  # atno 17343 bound_to 10162
  157.7090  131.0743  150.6569 LP  0  0  0  0  0  0  0  0  0  0  0  0  # atno 17370 bound_to 10713
  156.6632  130.4518  149.5681 LP  0  0  0  0  0  0  0  0  0  0  0  0  # atno 17371 bound_to 10713
  140.1627  134.9154  157.2735 LP  0  0  0  0  0  0  0  0  0  0  0  0  # atno 17394 bound_to 11000
  140.2592  134.3591  155.7413 LP  0  0  0  0  0  0  0  0  0  0  0  0  # atno 17395 bound_to 11000

$$$$
