#       Name:                AV-unprocessed.smi:2660
#       Creating user name   scv26
#       Creation time:       Fri Mar 27 14:33:14 2020


#       File generated by GOLD software.
#

@<TRIPOS>MOLECULE
AV-unprocessed.smi:2660
    42    43     1
SMALL
NO_CHARGES


@<TRIPOS>ATOM
      1 ****        -4.9538  -1.2787  -0.3826 N.am           1 S1                 0.0000
      2 ****        -3.6226  -1.4058  -0.4499 C.2            1 S1                 0.0000
      3 ****        -3.1415  -2.5331  -0.5645 O.2            1 S1                 0.0000
      4 ****        -2.8841  -0.1241  -0.3757 C.2            1 S1                 0.0000
      5 ****        -3.5007   1.0642  -0.1859 C.2            1 S1                 0.0000
      6 ****        -2.7413   2.2820  -0.1207 C.2            1 S1                 0.0000
      7 ****        -1.4001   2.2514  -0.2306 C.2            1 S1                 0.0000
      8 ****        -0.5806   3.5471  -0.1764 C.3            1 S1                 0.0000
      9 ****        -1.3583   4.6010   0.0764 F              1 S1                 0.0000
     10 ****         0.3345   3.5100   0.7901 F              1 S1                 0.0000
     11 ****         0.0176   3.7823  -1.3448 F              1 S1                 0.0000
     12 ****        -0.7288   1.0007  -0.4060 N.am           1 S1                 0.0000
     13 ****         0.7524   0.9470  -0.4911 C.3            1 S1                 0.0000
     14 ****         1.4108   0.3825   0.7991 C.3            1 S1                 0.0000
     15 ****         2.1440   1.4079   1.4375 O.3            1 S1                 0.0000
     16 ****         2.3037  -0.8146   0.5037 C.ar           1 S1                 0.0000
     17 ****         1.9184  -2.1048   0.9275 C.ar           1 S1                 0.0000
     18 ****         2.7367  -3.2170   0.6511 C.ar           1 S1                 0.0000
     19 ****         3.9450  -3.0462  -0.0512 C.ar           1 S1                 0.0000
     20 ****         4.3347  -1.7621  -0.4773 C.ar           1 S1                 0.0000
     21 ****         3.5169  -0.6492  -0.2006 C.ar           1 S1                 0.0000
     22 ****        -1.4062  -0.1939  -0.5111 C.2            1 S1                 0.0000
     23 ****        -0.7846  -1.2433  -0.7020 O.2            1 S1                 0.0000
     24 ****        -5.5363  -2.1021  -0.4280 H              1 S1                 0.0000
     25 ****        -5.3710  -0.3643  -0.2894 H              1 S1                 0.0000
     26 ****        -4.5721   1.1452  -0.0777 H              1 S1                 0.0000
     27 ****        -3.2693   3.2149   0.0087 H              1 S1                 0.0000
     28 ****         1.0186   0.3200  -1.3447 H              1 S1                 0.0000
     29 ****         1.2185   1.8869  -0.7705 H              1 S1                 0.0000
     30 ****         0.6435   0.0713   1.5095 H              1 S1                 0.0000
     31 ****         2.4778   1.0712   2.2551 H              1 S1                 0.0000
     32 ****         0.9906  -2.2479   1.4619 H              1 S1                 0.0000
     33 ****         2.4358  -4.2018   0.9767 H              1 S1                 0.0000
     34 ****         4.5715  -3.8999  -0.2639 H              1 S1                 0.0000
     35 ****         5.2605  -1.6305  -1.0178 H              1 S1                 0.0000
     36 ****         3.8214   0.3323  -0.5335 H              1 S1                 0.0000
     37 ****        -3.7424  -3.3313  -0.6056 LP             1 S1                 0.0000
     38 ****        -2.1498  -2.6505  -0.6166 LP             1 S1                 0.0000
     39 ****         1.5471   2.1908   1.6131 LP             1 S1                 0.0000
     40 ****         2.9044   1.6929   0.8539 LP             1 S1                 0.0000
     41 ****        -1.2776  -2.1104  -0.7738 LP             1 S1                 0.0000
     42 ****         0.2118  -1.2262  -0.7849 LP             1 S1                 0.0000
@<TRIPOS>BOND
    1    1    2 am    
    2    1   24 1     
    3    1   25 1     
    4    2    3 2     
    5    2    4 1     
    6    4   22 1     
    7    4    5 2     
    8    5    6 1     
    9    5   26 1     
   10    6    7 2     
   11    6   27 1     
   12    7    8 1     
   13    7   12 1     
   14    8    9 1     
   15    8   10 1     
   16    8   11 1     
   17   12   13 1     
   18   12   22 am    
   19   13   14 1     
   20   13   28 1     
   21   13   29 1     
   22   14   15 1     
   23   14   16 1     
   24   14   30 1     
   25   15   31 1     
   26   16   21 ar    
   27   16   17 ar    
   28   17   18 ar    
   29   17   32 1     
   30   18   19 ar    
   31   18   33 1     
   32   19   20 ar    
   33   19   34 1     
   34   20   21 ar    
   35   20   35 1     
   36   21   36 1     
   37   22   23 2     
   38    3   37 1     
   39    3   38 1     
   40   15   39 1     
   41   15   40 1     
   42   23   41 1     
   43   23   42 1     
@<TRIPOS>SUBSTRUCTURE
      1 S1             1
@<TRIPOS>SET
LONE_PAIRS      STATIC     ATOMS    <user>   **** ""
6 37 38 39 40 41 42
DONOR_HYDROGENS      STATIC     ATOMS    <user>   **** ""
3 24 25 31
ATOM$BLUE        STATIC     ATOMS    COLORGROUP SYSTEM
6 37 38 39 40 41 42
ATOM$RED        STATIC     ATOMS    COLORGROUP SYSTEM
3 24 25 31
