AV-unprocessed.smi:1602|AV-procd|sdf|6440|dock4
  -GOLD-   22720 7 83D 1   1.00000     0.00000
 Structure written by MMmdl.
 36 37  0  0  0  0  0  0  0  0  1 V2000
  148.7551  140.8359  156.6326 C   0  0  0  0  0  0  0  0  0  0  0  0
  150.1018  141.4826  156.9803 C   0  0  1  0  0  0  0  0  0  0  0  0
  150.0299  142.3165  158.2743 C   0  0  0  0  0  0  0  0  0  0  0  0
  151.2040  143.1484  158.4674 N   0  0  0  0  0  0  0  0  0  0  0  0
  151.7071  144.1279  157.6370 C   0  0  0  0  0  0  0  0  0  0  0  0
  152.8174  144.6425  158.2429 C   0  0  0  0  0  0  0  0  0  0  0  0
  152.9147  143.9022  159.4544 C   0  0  0  0  0  0  0  0  0  0  0  0
  151.9495  143.0062  159.5844 N   0  0  0  0  0  0  0  0  0  0  0  0
  151.1166  140.4339  157.1092 N   0  0  0  0  0  0  0  0  0  0  0  0
  151.5377  139.4788  155.7368 S   0  0  0  0  0  0  0  0  0  0  0  0
  150.8053  139.9907  154.5685 O   0  0  0  0  0  0  0  0  0  0  0  0
  153.0014  139.3380  155.7072 O   0  0  0  0  0  0  0  0  0  0  0  0
  150.8391  137.9695  156.2155 N   0  0  0  0  0  0  0  0  0  0  0  0
  151.7162  136.7847  156.2219 C   0  0  0  0  0  0  0  0  0  0  0  0
  150.9041  135.4966  156.4318 C   0  0  0  0  0  0  0  0  0  0  0  0
  150.1150  135.6029  157.6065 O   0  0  0  0  0  0  0  0  0  0  0  0
  149.1707  136.6572  157.5022 C   0  0  0  0  0  0  0  0  0  0  0  0
  149.8952  138.0038  157.3442 C   0  0  0  0  0  0  0  0  0  0  0  0
  147.9820  141.5921  156.4945 H   0  0  0  0  0  0  0  0  0  0  0  0
  148.4230  140.1599  157.4213 H   0  0  0  0  0  0  0  0  0  0  0  0
  148.8230  140.2623  155.7075 H   0  0  0  0  0  0  0  0  0  0  0  0
  150.3790  142.1377  156.1526 H   0  0  0  0  0  0  0  0  0  0  0  0
  149.1541  142.9667  158.2535 H   0  0  0  0  0  0  0  0  0  0  0  0
  149.9135  141.6676  159.1436 H   0  0  0  0  0  0  0  0  0  0  0  0
  151.2355  144.3779  156.6982 H   0  0  0  0  0  0  0  0  0  0  0  0
  153.4608  145.4292  157.8780 H   0  0  0  0  0  0  0  0  0  0  0  0
  153.6532  143.9884  160.2376 H   0  0  0  0  0  0  0  0  0  0  0  0
  151.9235  140.7053  157.6700 H   0  0  0  0  0  0  0  0  0  0  0  0
  152.2703  136.7214  155.2858 H   0  0  0  0  0  0  0  0  0  0  0  0
  152.4511  136.8956  157.0201 H   0  0  0  0  0  0  0  0  0  0  0  0
  150.2681  135.2943  155.5684 H   0  0  0  0  0  0  0  0  0  0  0  0
  151.5766  134.6446  156.5349 H   0  0  0  0  0  0  0  0  0  0  0  0
  148.4991  136.4777  156.6611 H   0  0  0  0  0  0  0  0  0  0  0  0
  148.5541  136.6687  158.4011 H   0  0  0  0  0  0  0  0  0  0  0  0
  150.4446  138.2445  158.2552 H   0  0  0  0  0  0  0  0  0  0  0  0
  149.1651  138.7985  157.1908 H   0  0  0  0  0  0  0  0  0  0  0  0
  1  2  1  0  0  0  0
  1 19  1  0  0  0  0
  1 20  1  0  0  0  0
  1 21  1  0  0  0  0
  2  3  1  0  0  0  0
  2  9  1  0  0  0  0
  2 22  1  0  0  0  0
  3  4  1  0  0  0  0
  3 23  1  0  0  0  0
  3 24  1  0  0  0  0
  4  8  1  0  0  0  0
  4  5  1  0  0  0  0
  5  6  2  0  0  0  0
  5 25  1  0  0  0  0
  6  7  1  0  0  0  0
  6 26  1  0  0  0  0
  7  8  2  0  0  0  0
  7 27  1  0  0  0  0
  9 10  1  0  0  0  0
  9 28  1  0  0  0  0
 10 11  2  0  0  0  0
 10 12  2  0  0  0  0
 10 13  1  0  0  0  0
 13 18  1  0  0  0  0
 13 14  1  0  0  0  0
 14 15  1  0  0  0  0
 14 29  1  0  0  0  0
 14 30  1  0  0  0  0
 15 16  1  0  0  0  0
 15 31  1  0  0  0  0
 15 32  1  0  0  0  0
 16 17  1  0  0  0  0
 17 18  1  0  0  0  0
 17 33  1  0  0  0  0
 17 34  1  0  0  0  0
 18 35  1  0  0  0  0
 18 36  1  0  0  0  0
M  END
> <s_m_source_file>
AV-unprocessed.smi

> <i_m_source_file_index>
1602

> <i_lp_mmshare_version>
43012

> <i_f3d_flags>
0

> <s_epik_input>
bjFbY0hdW2NIXVtjSF1uMVtDSDJdW0NAQEhdKFtDSDNdKVtOSF1TKD1PKSg9TylOMltDSDJdW0NIMl1PW0NIMl1bQ0gyXTI=

> <s_epik_cmdline>
J2VwaWtfcHl0aG9uJywgJy1waCcsICc3LjAnLCAnLXRuJywgJzgnLCAnLW1hJywgJzIwMCcsICctbWV0YWxfYmluZGluZycsICctaW1hZScsICc8aW5maWxlLm1hZT4nLCAnLW9tYWUnLCAnPG91dGZpbGUubWFlPic=

> <r_lp_tautomer_probability>
1

> <r_epik_Ionization_Penalty>
0.114248

> <r_epik_Ionization_Penalty_Charging>
0

> <r_epik_Ionization_Penalty_Neutral>
0.114248

> <r_epik_State_Penalty>
0.103909

> <r_epik_Charging_Adjusted_Penalty>
0.103909

> <i_epik_Tot_Q>
0

> <i_epik_Tot_abs_Q>
0

> <r_epik_Metal_State_Penalty>
0.436178

> <b_epik_Metal_Only>
0

> <s_lp_Force_Field>
OPLS_2005

> <r_lp_Energy>
8.02202

> <b_lp_Chiralities_Consistent>
1

> <s_lp_Variant>
AV-unprocessed.smi:1602-2

> <Gold.Version>
5.8.1

> <Gold.Id.Protein>
6NUR|6NUR_protein|mol2

> <Gold.PLP.Fitness>
39.8515

> <Gold.PLP.PLP>
-29.7723

> <Gold.PLP.part.hbond>
-3.0000

> <Gold.PLP.part.metal>
0.0000

> <Gold.PLP.part.buried>
-6.1742

> <Gold.PLP.part.nonpolar>
-21.8638

> <Gold.PLP.part.repulsive>
0.0723

> <Gold.PLP.ligand.clash>
0.7294

> <Gold.PLP.ligand.torsion>
0.5928

> <Gold.PLP.Chemscore.Hbond>
2.7520

> <Gold.PLP.Chemscore.CHOScore>
1.0000

> <Gold.PLP.Chemscore.Metal>
0.0000

> <Gold.Chemscore.Hbonds>
donor molecule, donor type, donor heavy atom, donor atom, acceptor molecule, acceptor atom, score
      P1  H  6896  6909       L1    16  0.31
      P1  H  7989  7998       L1    11  1.00
      P1  H  7997  8008       L1    12  1.00
      L1  C     5    25       P1  8028  0.93

> <Gold.PLP.Chemscore.Internal.Correction>
0.7382

> <Gold.Rescore>
     Score         DG    S(hbond)    S(metal)    S(lipo)     H(rot)  DE(clash)    DE(int)     intcor
     16.88     -17.52       2.81        0.00      65.82       1.97       0.00       0.64       ----

> <Gold.Chemscore.Fitness>
16.8830

> <Gold.Chemscore.DG>
-17.5192

> <Gold.Chemscore.ZeroCoef>
-5.4800

> <Gold.Chemscore.Hbond>
2.8052

> <Gold.Chemscore.Metal>
0.0000

> <Gold.Chemscore.Lipo>
65.8226

> <Gold.Chemscore.Internal_Hbond>
0.0000

> <Gold.Chemscore.DEClash>
0.0009

> <Gold.Chemscore.DEInternal>
0.6353

> <Gold.Chemscore.Rot>
1.9654

> <Gold.Chemscore.Internal.Correction>
   9.000000E+99

> <Gold.Chemscore.Hbonds>
donor molecule, donor type, donor heavy atom, donor atom, acceptor molecule, acceptor atom, score
      P1  H  6896  6909       L1    16  0.29
      P1  H  7989  7998       L1    11  0.95
      P1  H  7997  8008       L1    12  1.00

> <Gold.Chemscore.Hbond.Weighted>
-9.3694

> <Gold.Chemscore.Metal.Weighted>
-0.0000

> <Gold.Chemscore.Lipo.Weighted>
-7.7012

> <Gold.Chemscore.Internal_Hbond.Weighted>
0.0000

> <Gold.Chemscore.DEClash.Weighted>
0.0009

> <Gold.Chemscore.DEInternal.Weighted>
0.6353

> <Gold.Chemscore.Rot.Weighted>
5.0315

> <Gold.Chemscore.Internal.Correction.Weighted>
   9.000000E+99

> <Gold.Protein.RotatedTorsions>
[ 6907 6896 6895 6894 ] final   38.23 input  -60.11 | X-H torsion
[ 7974 7965 7964 7962 ] final  -13.03 input  175.53 | X-H torsion
[ 8008 7997 7996 7995 ] final  -37.22 input   59.86 | X-H torsion
[ 10167 10162 10161 10158 ] final -140.79 input  -65.29 | X-H torsion
[ 10718 10713 10712 10709 ] final   70.30 input   66.30 | X-H torsion
[ 10763 10752 10751 10750 ] final  -91.75 input  -60.55 | X-H torsion
[ 11005 11000 10999 10996 ] final  -81.18 input  -57.11 | X-H torsion

> <Gold.Protein.ActiveResidues>
 VAL166  LYS551  ARG553  GLY616  TRP617  ASP618  TYR619  PRO620  LYS621  CYS622 
 ASP623  PHE694  ASN695  SER759  ASP760  ASP761  ALA762  ILE779  LEU786  VAL792 
 PHE793  MET794  SER795  GLU796  ALA797  LYS798  CYS799  TRP800  GLU811  SER814 

> <Gold.Protein.RotatedAtoms>
  152.1536  134.8968  160.0546 H   0  0  0  0  0  0  0  0  0  0  0  0  # atno 6907 bound_to 6896
  151.9991  133.3814  159.4182 H   0  0  0  0  0  0  0  0  0  0  0  0  # atno 6908 bound_to 6896
  150.6878  134.3776  159.5063 H   0  0  0  0  0  0  0  0  0  0  0  0  # atno 6909 bound_to 6896
  146.2130  140.3143  142.8385 H   0  0  0  0  0  0  0  0  0  0  0  0  # atno 7974 bound_to 7965
  154.4057  140.1610  156.2502 H   0  0  0  0  0  0  0  0  0  0  0  0  # atno 8008 bound_to 7997
  155.9126  140.3426  155.6087 H   0  0  0  0  0  0  0  0  0  0  0  0  # atno 8009 bound_to 7997
  155.7318  140.0781  157.2276 H   0  0  0  0  0  0  0  0  0  0  0  0  # atno 8010 bound_to 7997
  139.8247  143.7527  152.2666 H   0  0  0  0  0  0  0  0  0  0  0  0  # atno 10167 bound_to 10162
  157.6393  130.9470  150.0632 H   0  0  0  0  0  0  0  0  0  0  0  0  # atno 10718 bound_to 10713
  154.6792  135.5256  153.8240 H   0  0  0  0  0  0  0  0  0  0  0  0  # atno 10763 bound_to 10752
  153.0553  135.6548  154.0602 H   0  0  0  0  0  0  0  0  0  0  0  0  # atno 10764 bound_to 10752
  154.0492  135.2971  155.3323 H   0  0  0  0  0  0  0  0  0  0  0  0  # atno 10765 bound_to 10752
  141.1667  133.7184  156.8384 H   0  0  0  0  0  0  0  0  0  0  0  0  # atno 11005 bound_to 11000
  144.8965  140.7590  143.5893 LP  0  0  0  0  0  0  0  0  0  0  0  0  # atno 17320 bound_to 7965
  145.3068  139.1832  143.4660 LP  0  0  0  0  0  0  0  0  0  0  0  0  # atno 17321 bound_to 7965
  139.7716  144.7475  151.0217 LP  0  0  0  0  0  0  0  0  0  0  0  0  # atno 17342 bound_to 10162
  140.7811  143.4639  151.0239 LP  0  0  0  0  0  0  0  0  0  0  0  0  # atno 17343 bound_to 10162
  156.1658  130.3645  149.9234 LP  0  0  0  0  0  0  0  0  0  0  0  0  # atno 17370 bound_to 10713
  156.7221  130.9011  151.3619 LP  0  0  0  0  0  0  0  0  0  0  0  0  # atno 17371 bound_to 10713
  140.2001  134.8903  157.3159 LP  0  0  0  0  0  0  0  0  0  0  0  0  # atno 17394 bound_to 11000
  140.2197  134.4039  155.7572 LP  0  0  0  0  0  0  0  0  0  0  0  0  # atno 17395 bound_to 11000

$$$$
