AV-unprocessed.smi:215|AV-procd|sdf|1654|dock1
  -GOLD-   2262020 43D 1   1.00000     0.00000
 Structure written by MMmdl.
 59 62  0  0  0  0  0  0  0  0  2 V2000
  153.0854  137.7467  159.7504 C   0  0  0  0  0  0  0  0  0  0  0  0
  152.3906  138.5293  158.6177 C   0  0  2  0  0  0  0  0  0  0  0  0
  152.7788  140.0150  158.4908 C   0  0  2  0  0  0  0  0  0  0  0  0
  153.1446  140.6898  159.7772 N   0  3  1  0  0  0  0  0  0  0  0  0
  154.5553  140.4229  160.1526 C   0  0  0  0  0  0  0  0  0  0  0  0
  152.7812  142.1332  159.8728 C   0  0  0  0  0  0  0  0  0  0  0  0
  153.1269  142.7585  161.2363 C   0  0  0  0  0  0  0  0  0  0  0  0
  152.0029  142.7289  162.0901 O   0  0  0  0  0  0  0  0  0  0  0  0
  151.5766  140.6329  157.7595 C   0  0  0  0  0  0  0  0  0  0  0  0
  150.3849  139.7237  158.0875 C   0  0  0  0  0  0  0  0  0  0  0  0
  150.9299  138.5047  158.6752 N   0  0  0  0  0  0  0  0  0  0  0  0
  150.2231  137.3635  158.4639 C   0  0  0  0  0  0  0  0  0  0  0  0
  149.5039  136.8125  159.4773 N   0  0  0  0  0  0  0  0  0  0  0  0
  148.8123  135.6862  159.2833 C   0  0  0  0  0  0  0  0  0  0  0  0
  148.6984  134.9593  158.1711 N   0  0  0  0  0  0  0  0  0  0  0  0
  149.4114  135.5083  157.1465 C   0  0  0  0  0  0  0  0  0  0  0  0
  150.2005  136.6921  157.2080 C   0  0  0  0  0  0  0  0  0  0  0  0
  150.7867  136.9319  155.9706 N   0  0  0  0  0  0  0  0  0  0  0  0
  150.3749  135.9430  155.2245 C   0  0  0  0  0  0  0  0  0  0  0  0
  149.5199  135.0585  155.8424 N   0  0  0  0  0  0  0  0  0  0  0  0
  148.9435  133.8758  155.2730 C   0  0  0  0  0  0  0  0  0  0  0  0
  148.9585  133.6290  153.7624 C   0  0  0  0  0  0  0  0  0  0  0  0
  147.6028  132.8968  153.8748 C   0  0  0  0  0  0  0  0  0  0  0  0
  146.5948  133.2108  152.7569 C   0  0  0  0  0  0  0  0  0  0  0  0
  146.7535  132.3324  151.6614 O   0  0  0  0  0  0  0  0  0  0  0  0
  147.6945  131.3686  154.0603 C   0  0  0  0  0  0  0  0  0  0  0  0
  148.2778  130.7448  152.9340 O   0  0  0  0  0  0  0  0  0  0  0  0
  147.4254  133.7083  155.1778 C   0  0  0  0  0  0  0  0  0  0  0  0
  152.6744  138.0590  157.6748 H   0  0  0  0  0  0  0  0  0  0  0  0
  153.6576  140.0619  157.8456 H   0  0  0  0  0  0  0  0  0  0  0  0
  154.1678  137.8655  159.6971 H   0  0  0  0  0  0  0  0  0  0  0  0
  152.8768  136.6793  159.6896 H   0  0  0  0  0  0  0  0  0  0  0  0
  152.7592  138.0810  160.7342 H   0  0  0  0  0  0  0  0  0  0  0  0
  155.2448  140.9227  159.4718 H   0  0  0  0  0  0  0  0  0  0  0  0
  154.7706  139.3542  160.1280 H   0  0  0  0  0  0  0  0  0  0  0  0
  154.7741  140.7585  161.1649 H   0  0  0  0  0  0  0  0  0  0  0  0
  153.2786  142.6900  159.0780 H   0  0  0  0  0  0  0  0  0  0  0  0
  151.7122  142.2672  159.7174 H   0  0  0  0  0  0  0  0  0  0  0  0
  153.9716  142.2681  161.7181 H   0  0  0  0  0  0  0  0  0  0  0  0
  153.4154  143.8005  161.0946 H   0  0  0  0  0  0  0  0  0  0  0  0
  151.4809  143.5008  161.9292 H   0  0  0  0  0  0  0  0  0  0  0  0
  151.3932  141.6789  158.0054 H   0  0  0  0  0  0  0  0  0  0  0  0
  151.7596  140.5895  156.6853 H   0  0  0  0  0  0  0  0  0  0  0  0
  149.7327  140.2054  158.8163 H   0  0  0  0  0  0  0  0  0  0  0  0
  149.7924  139.5174  157.1948 H   0  0  0  0  0  0  0  0  0  0  0  0
  148.2710  135.3156  160.1414 H   0  0  0  0  0  0  0  0  0  0  0  0
  150.6794  135.8381  154.1931 H   0  0  0  0  0  0  0  0  0  0  0  0
  149.3911  133.0358  155.8065 H   0  0  0  0  0  0  0  0  0  0  0  0
  148.8923  134.5539  153.1859 H   0  0  0  0  0  0  0  0  0  0  0  0
  149.7862  133.0106  153.4138 H   0  0  0  0  0  0  0  0  0  0  0  0
  145.5663  133.1517  153.1138 H   0  0  0  0  0  0  0  0  0  0  0  0
  146.7309  134.2276  152.3881 H   0  0  0  0  0  0  0  0  0  0  0  0
  147.6636  132.0834  151.6064 H   0  0  0  0  0  0  0  0  0  0  0  0
  148.2753  131.1077  154.9452 H   0  0  0  0  0  0  0  0  0  0  0  0
  146.7078  130.9293  154.2082 H   0  0  0  0  0  0  0  0  0  0  0  0
  147.9608  131.1758  152.1550 H   0  0  0  0  0  0  0  0  0  0  0  0
  146.9817  133.1600  156.0092 H   0  0  0  0  0  0  0  0  0  0  0  0
  146.9122  134.6593  155.0230 H   0  0  0  0  0  0  0  0  0  0  0  0
  152.5860  140.2261  160.4800 H   0  0  0  0  0  0  0  0  0  0  0  0
  1  2  1  0  0  0  0
  1 31  1  0  0  0  0
  1 32  1  0  0  0  0
  1 33  1  0  0  0  0
  2 29  1  0  0  0  0
  2 11  1  0  0  0  0
  2  3  1  0  0  0  0
  3 30  1  0  0  0  0
  3  4  1  0  0  0  0
  3  9  1  0  0  0  0
  4  5  1  0  0  0  0
  4  6  1  0  0  0  0
  4 59  1  0  0  0  0
  5 34  1  0  0  0  0
  5 35  1  0  0  0  0
  5 36  1  0  0  0  0
  6  7  1  0  0  0  0
  6 37  1  0  0  0  0
  6 38  1  0  0  0  0
  7  8  1  0  0  0  0
  7 39  1  0  0  0  0
  7 40  1  0  0  0  0
  8 41  1  0  0  0  0
  9 10  1  0  0  0  0
  9 42  1  0  0  0  0
  9 43  1  0  0  0  0
 10 11  1  0  0  0  0
 10 44  1  0  0  0  0
 10 45  1  0  0  0  0
 11 12  1  0  0  0  0
 12 17  1  0  0  0  0
 12 13  2  0  0  0  0
 13 14  1  0  0  0  0
 14 15  2  0  0  0  0
 14 46  1  0  0  0  0
 15 16  1  0  0  0  0
 16 20  1  0  0  0  0
 16 17  2  0  0  0  0
 17 18  1  0  0  0  0
 18 19  2  0  0  0  0
 19 20  1  0  0  0  0
 19 47  1  0  0  0  0
 20 21  1  0  0  0  0
 21 28  1  0  0  0  0
 21 22  1  0  0  0  0
 21 48  1  0  0  0  0
 22 23  1  0  0  0  0
 22 49  1  0  0  0  0
 22 50  1  0  0  0  0
 23 24  1  0  0  0  0
 23 26  1  0  0  0  0
 23 28  1  0  0  0  0
 24 25  1  0  0  0  0
 24 51  1  0  0  0  0
 24 52  1  0  0  0  0
 25 53  1  0  0  0  0
 26 27  1  0  0  0  0
 26 54  1  0  0  0  0
 26 55  1  0  0  0  0
 27 56  1  0  0  0  0
 28 57  1  0  0  0  0
 28 58  1  0  0  0  0
M  CHG  1   4   1
M  END
> <s_m_source_file>
AV-unprocessed.smi

> <i_m_source_file_index>
215

> <i_lp_mmshare_version>
43012

> <i_f3d_flags>
0

> <s_epik_input>
W09IXVtDSDJdW0NIMl1OKFtDSDNdKVtDQEBIXShbQ0BIXTFbQ0gzXSlbQ0gyXVtDSDJdTjFjKG5bY0hdbjIpYyhjMjMpbltjSF1uM1tDSF0oW0NIMl00KVtDSDJdQzQoW0NIMl1bT0hdKVtDSDJdW09IXQ==

> <s_epik_cmdline>
J2VwaWtfcHl0aG9uJywgJy1waCcsICc3LjAnLCAnLXRuJywgJzgnLCAnLW1hJywgJzIwMCcsICctbWV0YWxfYmluZGluZycsICctaW1hZScsICc8aW5maWxlLm1hZT4nLCAnLW9tYWUnLCAnPG91dGZpbGUubWFlPic=

> <r_lp_tautomer_probability>
1

> <r_epik_Ionization_Penalty>
0.0036237

> <r_epik_Ionization_Penalty_Charging>
0.0032725

> <r_epik_Ionization_Penalty_Neutral>
0.000351196

> <r_epik_State_Penalty>
-0

> <r_epik_Charging_Adjusted_Penalty>
0.0032725

> <i_epik_Tot_Q>
1

> <i_epik_Tot_abs_Q>
1

> <r_epik_Metal_State_Penalty>
-0

> <b_epik_Metal_Only>
0

> <s_lp_Force_Field>
OPLS_2005

> <r_lp_Energy>
70.2974

> <b_lp_Chiralities_Consistent>
1

> <s_lp_Variant>
AV-unprocessed.smi:215-5

> <Gold.Version>
5.8.1

> <Gold.Id.Protein>
6NUR|6NUR_protein|mol2

> <Gold.PLP.Fitness>
46.8188

> <Gold.PLP.PLP>
-41.6204

> <Gold.PLP.part.hbond>
-3.5358

> <Gold.PLP.part.metal>
0.0000

> <Gold.PLP.part.buried>
-6.1776

> <Gold.PLP.part.nonpolar>
-30.9278

> <Gold.PLP.part.repulsive>
0.1516

> <Gold.PLP.ligand.clash>
0.0000

> <Gold.PLP.ligand.torsion>
1.6226

> <Gold.PLP.Chemscore.Hbond>
1.9040

> <Gold.PLP.Chemscore.CHOScore>
0.4299

> <Gold.PLP.Chemscore.Metal>
0.0000

> <Gold.Chemscore.Hbonds>
donor molecule, donor type, donor heavy atom, donor atom, acceptor molecule, acceptor atom, score
      L1  H    25    53       P1 10747  0.37
      L1  H    27    56       P1 10747  0.26
      P1  H  6933  6945       L1     8  0.09
      L1  C    19    47       P1  7948  0.04
      L1  C    19    47       P1  7949  0.29

> <Gold.PLP.Chemscore.Internal.Correction>
1.4420

> <Gold.Rescore>
     Score         DG    S(hbond)    S(metal)    S(lipo)     H(rot)  DE(clash)    DE(int)     intcor
      7.13     -10.17       2.21        0.00      82.24       4.81       0.04       3.00       ----

> <Gold.Chemscore.Fitness>
7.1288

> <Gold.Chemscore.DG>
-10.1720

> <Gold.Chemscore.ZeroCoef>
-5.4800

> <Gold.Chemscore.Hbond>
2.2103

> <Gold.Chemscore.Metal>
0.0000

> <Gold.Chemscore.Lipo>
82.2439

> <Gold.Chemscore.Internal_Hbond>
0.0000

> <Gold.Chemscore.DEClash>
0.0392

> <Gold.Chemscore.DEInternal>
3.0041

> <Gold.Chemscore.Rot>
4.8098

> <Gold.Chemscore.Internal.Correction>
   9.000000E+99

> <Gold.Chemscore.Hbonds>
donor molecule, donor type, donor heavy atom, donor atom, acceptor molecule, acceptor atom, score
      L1  H    25    53       P1 10747  0.39
      L1  H    27    56       P1 10747  0.26

> <Gold.Chemscore.Hbond.Weighted>
-7.3825

> <Gold.Chemscore.Metal.Weighted>
-0.0000

> <Gold.Chemscore.Lipo.Weighted>
-9.6225

> <Gold.Chemscore.Internal_Hbond.Weighted>
0.0000

> <Gold.Chemscore.DEClash.Weighted>
0.0392

> <Gold.Chemscore.DEInternal.Weighted>
3.0041

> <Gold.Chemscore.Rot.Weighted>
12.3130

> <Gold.Chemscore.Internal.Correction.Weighted>
   9.000000E+99

> <Gold.Protein.RotatedTorsions>
[ 6907 6896 6895 6894 ] final -114.34 input  -60.11 | X-H torsion
[ 7974 7965 7964 7962 ] final  111.10 input  175.53 | X-H torsion
[ 8008 7997 7996 7995 ] final  108.03 input   59.86 | X-H torsion
[ 10167 10162 10161 10158 ] final  163.12 input  -65.29 | X-H torsion
[ 10718 10713 10712 10709 ] final  -55.37 input   66.30 | X-H torsion
[ 10763 10752 10751 10750 ] final  -16.18 input  -60.55 | X-H torsion
[ 11005 11000 10999 10996 ] final  179.63 input  -57.11 | X-H torsion

> <Gold.Protein.ActiveResidues>
 VAL166  LYS551  ARG553  GLY616  TRP617  ASP618  TYR619  PRO620  LYS621  CYS622 
 ASP623  PHE694  ASN695  SER759  ASP760  ASP761  ALA762  ILE779  LEU786  VAL792 
 PHE793  MET794  SER795  GLU796  ALA797  LYS798  CYS799  TRP800  GLU811  SER814 

> <Gold.Protein.RotatedAtoms>
  150.7895  133.8816  159.3287 H   0  0  0  0  0  0  0  0  0  0  0  0  # atno 6907 bound_to 6896
  151.6657  135.0981  160.0198 H   0  0  0  0  0  0  0  0  0  0  0  0  # atno 6908 bound_to 6896
  152.3966  133.6716  159.6316 H   0  0  0  0  0  0  0  0  0  0  0  0  # atno 6909 bound_to 6896
  145.2465  139.2757  143.4090 H   0  0  0  0  0  0  0  0  0  0  0  0  # atno 7974 bound_to 7965
  156.1871  140.3084  155.9259 H   0  0  0  0  0  0  0  0  0  0  0  0  # atno 8008 bound_to 7997
  155.3257  140.0458  157.3058 H   0  0  0  0  0  0  0  0  0  0  0  0  # atno 8009 bound_to 7997
  154.5408  140.2261  155.8654 H   0  0  0  0  0  0  0  0  0  0  0  0  # atno 8010 bound_to 7997
  139.4869  144.4369  151.9000 H   0  0  0  0  0  0  0  0  0  0  0  0  # atno 10167 bound_to 10162
  156.1374  130.4156  150.0162 H   0  0  0  0  0  0  0  0  0  0  0  0  # atno 10718 bound_to 10713
  153.5546  135.7011  153.5575 H   0  0  0  0  0  0  0  0  0  0  0  0  # atno 10763 bound_to 10752
  153.3484  135.4002  155.1627 H   0  0  0  0  0  0  0  0  0  0  0  0  # atno 10764 bound_to 10752
  154.8656  135.3759  154.5059 H   0  0  0  0  0  0  0  0  0  0  0  0  # atno 10765 bound_to 10752
  140.4083  134.6715  157.4600 H   0  0  0  0  0  0  0  0  0  0  0  0  # atno 11005 bound_to 11000
  146.3314  140.2844  142.8612 LP  0  0  0  0  0  0  0  0  0  0  0  0  # atno 17320 bound_to 7965
  144.9541  140.8209  143.5554 LP  0  0  0  0  0  0  0  0  0  0  0  0  # atno 17321 bound_to 7965
  140.3819  144.2725  150.5908 LP  0  0  0  0  0  0  0  0  0  0  0  0  # atno 17342 bound_to 10162
  140.5225  143.2262  151.8366 LP  0  0  0  0  0  0  0  0  0  0  0  0  # atno 17343 bound_to 10162
  156.8057  130.9306  151.3645 LP  0  0  0  0  0  0  0  0  0  0  0  0  # atno 17370 bound_to 10713
  157.6545  130.8912  149.9700 LP  0  0  0  0  0  0  0  0  0  0  0  0  # atno 17371 bound_to 10713
  140.0286  134.6440  155.9138 LP  0  0  0  0  0  0  0  0  0  0  0  0  # atno 17394 bound_to 11000
  141.1831  133.6550  156.5102 LP  0  0  0  0  0  0  0  0  0  0  0  0  # atno 17395 bound_to 11000

$$$$
