AV-unprocessed.smi:1183|AV-procd|sdf|4968|dock10
  -GOLD-   22720 3563D 1   1.00000     0.00000
 Structure written by MMmdl.
 42 43  0  0  0  0  0  0  0  0  1 V2000
  151.9669  145.3149  160.6008 C   0  0  0  0  0  0  0  0  0  0  0  0
  151.9471  143.7982  160.3964 C   0  0  0  0  0  0  0  0  0  0  0  0
  151.6211  143.0902  161.3493 O   0  0  0  0  0  0  0  0  0  0  0  0
  152.2922  143.2877  159.1899 N   0  0  0  0  0  0  0  0  0  0  0  0
  152.2625  141.8655  158.8289 C   0  0  0  0  0  0  0  0  0  0  0  0
  151.0911  141.6251  157.8607 C   0  0  0  0  0  0  0  0  0  0  0  0
  151.1908  142.5391  156.6170 C   0  0  0  0  0  0  0  0  0  0  0  0
  149.9723  142.4525  155.8181 N   0  0  0  0  0  0  0  0  0  0  0  0
  149.5690  141.3737  155.1299 C   0  0  0  0  0  0  0  0  0  0  0  0
  150.2070  140.3201  155.0951 O   0  0  0  0  0  0  0  0  0  0  0  0
  148.2428  141.5285  154.3748 C   0  0  0  0  0  0  0  0  0  0  0  0
  147.2111  142.1887  155.1625 N   0  0  0  0  0  0  0  0  0  0  0  0
  147.1368  141.9425  156.4888 N   0  0  0  0  0  0  0  0  0  0  0  0
  146.1180  142.6717  156.9130 C   0  0  0  0  0  0  0  0  0  0  0  0
  145.7413  142.6387  158.3648 C   0  0  0  0  0  0  0  0  0  0  0  0
  145.5106  143.4129  155.8610 C   0  0  0  0  0  0  0  0  0  0  0  0
  146.2346  143.0789  154.7515 C   0  0  0  0  0  0  0  0  0  0  0  0
  146.0866  143.5235  153.3336 C   0  0  0  0  0  0  0  0  0  0  0  0
  151.4435  144.0100  157.0142 C   0  0  0  0  0  0  0  0  0  0  0  0
  152.5957  144.1308  158.0282 C   0  0  0  0  0  0  0  0  0  0  0  0
  152.9586  145.7205  160.3982 H   0  0  0  0  0  0  0  0  0  0  0  0
  151.7093  145.5668  161.6302 H   0  0  0  0  0  0  0  0  0  0  0  0
  151.2432  145.8028  159.9475 H   0  0  0  0  0  0  0  0  0  0  0  0
  153.2035  141.5988  158.3456 H   0  0  0  0  0  0  0  0  0  0  0  0
  152.1795  141.1989  159.6859 H   0  0  0  0  0  0  0  0  0  0  0  0
  151.0718  140.5776  157.5581 H   0  0  0  0  0  0  0  0  0  0  0  0
  150.1518  141.8125  158.3836 H   0  0  0  0  0  0  0  0  0  0  0  0
  152.0393  142.2099  156.0138 H   0  0  0  0  0  0  0  0  0  0  0  0
  149.3887  143.2761  155.7904 H   0  0  0  0  0  0  0  0  0  0  0  0
  148.4128  142.0980  153.4596 H   0  0  0  0  0  0  0  0  0  0  0  0
  147.8795  140.5459  154.0726 H   0  0  0  0  0  0  0  0  0  0  0  0
  144.8849  143.2831  158.5641 H   0  0  0  0  0  0  0  0  0  0  0  0
  146.5655  142.9790  158.9923 H   0  0  0  0  0  0  0  0  0  0  0  0
  145.4763  141.6288  158.6788 H   0  0  0  0  0  0  0  0  0  0  0  0
  144.6685  144.0867  155.9128 H   0  0  0  0  0  0  0  0  0  0  0  0
  145.2402  144.2017  153.2247 H   0  0  0  0  0  0  0  0  0  0  0  0
  145.9197  142.6715  152.6742 H   0  0  0  0  0  0  0  0  0  0  0  0
  146.9810  144.0462  152.9943 H   0  0  0  0  0  0  0  0  0  0  0  0
  151.6647  144.6041  156.1268 H   0  0  0  0  0  0  0  0  0  0  0  0
  150.5396  144.4354  157.4534 H   0  0  0  0  0  0  0  0  0  0  0  0
  152.7486  145.1777  158.2940 H   0  0  0  0  0  0  0  0  0  0  0  0
  153.5316  143.8007  157.5749 H   0  0  0  0  0  0  0  0  0  0  0  0
  1  2  1  0  0  0  0
  1 21  1  0  0  0  0
  1 22  1  0  0  0  0
  1 23  1  0  0  0  0
  2  3  2  0  0  0  0
  2  4  1  0  0  0  0
  4 20  1  0  0  0  0
  4  5  1  0  0  0  0
  5  6  1  0  0  0  0
  5 24  1  0  0  0  0
  5 25  1  0  0  0  0
  6  7  1  0  0  0  0
  6 26  1  0  0  0  0
  6 27  1  0  0  0  0
  7  8  1  0  0  0  0
  7 19  1  0  0  0  0
  7 28  1  0  0  0  0
  8  9  1  0  0  0  0
  8 29  1  0  0  0  0
  9 10  2  0  0  0  0
  9 11  1  0  0  0  0
 11 12  1  0  0  0  0
 11 30  1  0  0  0  0
 11 31  1  0  0  0  0
 12 17  1  0  0  0  0
 12 13  1  0  0  0  0
 13 14  2  0  0  0  0
 14 15  1  0  0  0  0
 14 16  1  0  0  0  0
 15 32  1  0  0  0  0
 15 33  1  0  0  0  0
 15 34  1  0  0  0  0
 16 17  2  0  0  0  0
 16 35  1  0  0  0  0
 17 18  1  0  0  0  0
 18 36  1  0  0  0  0
 18 37  1  0  0  0  0
 18 38  1  0  0  0  0
 19 20  1  0  0  0  0
 19 39  1  0  0  0  0
 19 40  1  0  0  0  0
 20 41  1  0  0  0  0
 20 42  1  0  0  0  0
M  END
> <s_m_source_file>
AV-unprocessed.smi

> <i_m_source_file_index>
1183

> <i_lp_mmshare_version>
43012

> <i_f3d_flags>
0

> <s_epik_input>
W0NIM11DKD1PKU4xW0NIMl1bQ0gyXVtDSF0oW0NIMl1bQ0gyXTEpW05IXUMoPU8pW0NIMl1uMm5jKFtDSDNdKVtjSF1jMltDSDNd

> <s_epik_cmdline>
J2VwaWtfcHl0aG9uJywgJy1waCcsICc3LjAnLCAnLXRuJywgJzgnLCAnLW1hJywgJzIwMCcsICctbWV0YWxfYmluZGluZycsICctaW1hZScsICc8aW5maWxlLm1hZT4nLCAnLW9tYWUnLCAnPG91dGZpbGUubWFlPic=

> <r_lp_tautomer_probability>
1

> <r_epik_Ionization_Penalty>
0.000413777

> <r_epik_Ionization_Penalty_Charging>
0

> <r_epik_Ionization_Penalty_Neutral>
0.000413777

> <r_epik_State_Penalty>
-0

> <r_epik_Charging_Adjusted_Penalty>
0

> <i_epik_Tot_Q>
0

> <i_epik_Tot_abs_Q>
0

> <r_epik_Metal_State_Penalty>
-0

> <b_epik_Metal_Only>
0

> <s_lp_Force_Field>
OPLS_2005

> <r_lp_Energy>
21.0351

> <b_lp_Chiralities_Consistent>
1

> <s_lp_Variant>
AV-unprocessed.smi:1183-1

> <Gold.Version>
5.8.1

> <Gold.Id.Protein>
6NUR|6NUR_protein|mol2

> <Gold.PLP.Fitness>
49.3735

> <Gold.PLP.PLP>
-43.0879

> <Gold.PLP.part.hbond>
-2.9683

> <Gold.PLP.part.metal>
0.0000

> <Gold.PLP.part.buried>
-3.6399

> <Gold.PLP.part.nonpolar>
-37.9335

> <Gold.PLP.part.repulsive>
0.4372

> <Gold.PLP.ligand.clash>
0.0000

> <Gold.PLP.ligand.torsion>
0.6357

> <Gold.PLP.Chemscore.Hbond>
2.5127

> <Gold.PLP.Chemscore.CHOScore>
0.0000

> <Gold.PLP.Chemscore.Metal>
0.0000

> <Gold.Chemscore.Hbonds>
donor molecule, donor type, donor heavy atom, donor atom, acceptor molecule, acceptor atom, score
      L1  H     8    29       P1  8028  1.00
      P1  H  6933  6945       L1     3  0.23
      P1  H  7989  7998       L1    10  0.50

> <Gold.PLP.Chemscore.Internal.Correction>
0.0188

> <Gold.Rescore>
     Score         DG    S(hbond)    S(metal)    S(lipo)     H(rot)  DE(clash)    DE(int)     intcor
     17.27     -19.00       2.10        0.00      86.37       1.41       1.31       0.42       ----

> <Gold.Chemscore.Fitness>
17.2749

> <Gold.Chemscore.DG>
-19.0012

> <Gold.Chemscore.ZeroCoef>
-5.4800

> <Gold.Chemscore.Hbond>
2.1007

> <Gold.Chemscore.Metal>
0.0000

> <Gold.Chemscore.Lipo>
86.3693

> <Gold.Chemscore.Internal_Hbond>
0.0000

> <Gold.Chemscore.DEClash>
1.3078

> <Gold.Chemscore.DEInternal>
0.4185

> <Gold.Chemscore.Rot>
1.4064

> <Gold.Chemscore.Internal.Correction>
   9.000000E+99

> <Gold.Chemscore.Hbonds>
donor molecule, donor type, donor heavy atom, donor atom, acceptor molecule, acceptor atom, score
      L1  H     8    29       P1  8028  0.93
      P1  H  6933  6945       L1     3  0.23
      P1  H  7989  7998       L1    10  0.10

> <Gold.Chemscore.Hbond.Weighted>
-7.0163

> <Gold.Chemscore.Metal.Weighted>
-0.0000

> <Gold.Chemscore.Lipo.Weighted>
-10.1052

> <Gold.Chemscore.Internal_Hbond.Weighted>
0.0000

> <Gold.Chemscore.DEClash.Weighted>
1.3078

> <Gold.Chemscore.DEInternal.Weighted>
0.4185

> <Gold.Chemscore.Rot.Weighted>
3.6003

> <Gold.Chemscore.Internal.Correction.Weighted>
   9.000000E+99

> <Gold.Protein.RotatedTorsions>
[ 6907 6896 6895 6894 ] final   23.72 input  -60.11 | X-H torsion
[ 7974 7965 7964 7962 ] final   87.89 input  175.53 | X-H torsion
[ 8008 7997 7996 7995 ] final  137.05 input   59.86 | X-H torsion
[ 10167 10162 10161 10158 ] final  176.30 input  -65.29 | X-H torsion
[ 10718 10713 10712 10709 ] final  116.50 input   66.30 | X-H torsion
[ 10763 10752 10751 10750 ] final   32.70 input  -60.55 | X-H torsion
[ 11005 11000 10999 10996 ] final   53.45 input  -57.11 | X-H torsion

> <Gold.Protein.ActiveResidues>
 VAL166  LYS551  ARG553  GLY616  TRP617  ASP618  TYR619  PRO620  LYS621  CYS622 
 ASP623  PHE694  ASN695  SER759  ASP760  ASP761  ALA762  ILE779  LEU786  VAL792 
 PHE793  MET794  SER795  GLU796  ALA797  LYS798  CYS799  TRP800  GLU811  SER814 

> <Gold.Protein.RotatedAtoms>
  151.9466  135.0188  160.0539 H   0  0  0  0  0  0  0  0  0  0  0  0  # atno 6907 bound_to 6896
  152.1989  133.4822  159.5056 H   0  0  0  0  0  0  0  0  0  0  0  0  # atno 6908 bound_to 6896
  150.6950  134.1533  159.4191 H   0  0  0  0  0  0  0  0  0  0  0  0  # atno 6909 bound_to 6896
  145.5529  139.2297  143.2502 H   0  0  0  0  0  0  0  0  0  0  0  0  # atno 7974 bound_to 7965
  156.3003  140.2429  156.3846 H   0  0  0  0  0  0  0  0  0  0  0  0  # atno 8008 bound_to 7997
  154.8670  140.0417  157.1720 H   0  0  0  0  0  0  0  0  0  0  0  0  # atno 8009 bound_to 7997
  154.8836  140.2953  155.5415 H   0  0  0  0  0  0  0  0  0  0  0  0  # atno 8010 bound_to 7997
  139.5209  144.2932  152.0445 H   0  0  0  0  0  0  0  0  0  0  0  0  # atno 10167 bound_to 10162
  157.6156  131.1026  150.7482 H   0  0  0  0  0  0  0  0  0  0  0  0  # atno 10718 bound_to 10713
  153.0249  135.6406  154.1396 H   0  0  0  0  0  0  0  0  0  0  0  0  # atno 10763 bound_to 10752
  154.1126  135.2852  155.3228 H   0  0  0  0  0  0  0  0  0  0  0  0  # atno 10764 bound_to 10752
  154.6320  135.5489  153.7754 H   0  0  0  0  0  0  0  0  0  0  0  0  # atno 10765 bound_to 10752
  140.0766  134.5396  155.8990 H   0  0  0  0  0  0  0  0  0  0  0  0  # atno 11005 bound_to 11000
  146.1904  140.6352  142.9148 LP  0  0  0  0  0  0  0  0  0  0  0  0  # atno 17320 bound_to 7965
  144.7520  140.5215  143.6795 LP  0  0  0  0  0  0  0  0  0  0  0  0  # atno 17321 bound_to 7965
  140.2382  144.4297  150.6271 LP  0  0  0  0  0  0  0  0  0  0  0  0  # atno 17342 bound_to 10162
  140.6309  143.2187  151.6498 LP  0  0  0  0  0  0  0  0  0  0  0  0  # atno 17343 bound_to 10162
  156.7850  130.4871  149.5394 LP  0  0  0  0  0  0  0  0  0  0  0  0  # atno 17370 bound_to 10713
  156.1277  130.6155  151.0288 LP  0  0  0  0  0  0  0  0  0  0  0  0  # atno 17371 bound_to 10713
  141.2032  133.6630  156.6047 LP  0  0  0  0  0  0  0  0  0  0  0  0  # atno 17394 bound_to 11000
  140.3549  134.7737  157.4493 LP  0  0  0  0  0  0  0  0  0  0  0  0  # atno 17395 bound_to 11000

$$$$
