AV-unprocessed.smi:1684|AV-procd|sdf|6755|dock2
  -GOLD-   22720 7513D 1   1.00000     0.00000
 Structure written by MMmdl.
 43 44  0  0  0  0  0  0  0  0  2 V2000
  147.8797  133.0829  152.5637 C   0  0  0  0  0  0  0  0  0  0  0  0
  146.4971  133.0810  151.9319 C   0  0  0  0  0  0  0  0  0  0  0  0
  145.9072  131.8522  151.5662 C   0  0  0  0  0  0  0  0  0  0  0  0
  144.6284  131.8520  150.9836 C   0  0  0  0  0  0  0  0  0  0  0  0
  143.9892  133.0885  150.7903 C   0  0  0  0  0  0  0  0  0  0  0  0
  144.5451  134.2673  151.1373 N   0  0  0  0  0  0  0  0  0  0  0  0
  145.7806  134.2852  151.6979 C   0  0  0  0  0  0  0  0  0  0  0  0
  146.4269  135.4911  152.0922 N   0  0  0  0  0  0  0  0  0  0  0  0
  145.9184  136.5191  152.7936 C   0  0  0  0  0  0  0  0  0  0  0  0
  144.7512  136.6147  153.1735 O   0  0  0  0  0  0  0  0  0  0  0  0
  146.8553  137.4449  153.0498 N   0  0  0  0  0  0  0  0  0  0  0  0
  146.6511  138.6950  153.7841 C   0  0  2  0  0  0  0  0  0  0  0  0
  146.9840  139.8754  152.8615 C   0  0  0  0  0  0  0  0  0  0  0  0
  147.4992  138.7386  155.0770 C   0  0  0  0  0  0  0  0  0  0  0  0
  148.8846  139.2215  154.8484 N   0  3  0  0  0  0  0  0  0  0  0  0
  149.3647  140.1463  155.9010 C   0  0  0  0  0  0  0  0  0  0  0  0
  150.7653  140.6730  155.5432 C   0  0  0  0  0  0  0  0  0  0  0  0
  151.6578  139.5799  155.3628 O   0  0  0  0  0  0  0  0  0  0  0  0
  151.2462  138.7230  154.3040 C   0  0  0  0  0  0  0  0  0  0  0  0
  149.8657  138.1311  154.6312 C   0  0  0  0  0  0  0  0  0  0  0  0
  148.2625  132.0690  152.6851 H   0  0  0  0  0  0  0  0  0  0  0  0
  147.8497  133.5492  153.5490 H   0  0  0  0  0  0  0  0  0  0  0  0
  148.5832  133.6344  151.9394 H   0  0  0  0  0  0  0  0  0  0  0  0
  146.4256  130.9187  151.7293 H   0  0  0  0  0  0  0  0  0  0  0  0
  144.1501  130.9285  150.6927 H   0  0  0  0  0  0  0  0  0  0  0  0
  143.0057  133.1334  150.3468 H   0  0  0  0  0  0  0  0  0  0  0  0
  147.3971  135.5664  151.8246 H   0  0  0  0  0  0  0  0  0  0  0  0
  147.7866  137.2804  152.6956 H   0  0  0  0  0  0  0  0  0  0  0  0
  145.5953  138.7865  154.0427 H   0  0  0  0  0  0  0  0  0  0  0  0
  146.7984  140.8271  153.3604 H   0  0  0  0  0  0  0  0  0  0  0  0
  146.3721  139.8545  151.9589 H   0  0  0  0  0  0  0  0  0  0  0  0
  148.0305  139.8597  152.5547 H   0  0  0  0  0  0  0  0  0  0  0  0
  147.0018  139.4034  155.7850 H   0  0  0  0  0  0  0  0  0  0  0  0
  147.5286  137.7577  155.5540 H   0  0  0  0  0  0  0  0  0  0  0  0
  148.6748  140.9848  156.0028 H   0  0  0  0  0  0  0  0  0  0  0  0
  149.3893  139.6292  156.8616 H   0  0  0  0  0  0  0  0  0  0  0  0
  150.7319  141.2826  154.6387 H   0  0  0  0  0  0  0  0  0  0  0  0
  151.1436  141.3099  156.3428 H   0  0  0  0  0  0  0  0  0  0  0  0
  151.2209  139.2728  153.3614 H   0  0  0  0  0  0  0  0  0  0  0  0
  151.9801  137.9253  154.1887 H   0  0  0  0  0  0  0  0  0  0  0  0
  149.9282  137.5073  155.5242 H   0  0  0  0  0  0  0  0  0  0  0  0
  149.5450  137.4860  153.8137 H   0  0  0  0  0  0  0  0  0  0  0  0
  148.8569  139.7606  153.9942 H   0  0  0  0  0  0  0  0  0  0  0  0
  1  2  1  0  0  0  0
  1 21  1  0  0  0  0
  1 22  1  0  0  0  0
  1 23  1  0  0  0  0
  2  7  1  0  0  0  0
  2  3  2  0  0  0  0
  3  4  1  0  0  0  0
  3 24  1  0  0  0  0
  4  5  2  0  0  0  0
  4 25  1  0  0  0  0
  5  6  1  0  0  0  0
  5 26  1  0  0  0  0
  6  7  2  0  0  0  0
  7  8  1  0  0  0  0
  8  9  1  0  0  0  0
  8 27  1  0  0  0  0
  9 10  2  0  0  0  0
  9 11  1  0  0  0  0
 11 12  1  0  0  0  0
 11 28  1  0  0  0  0
 12 13  1  0  0  0  0
 12 14  1  0  0  0  0
 12 29  1  0  0  0  0
 13 30  1  0  0  0  0
 13 31  1  0  0  0  0
 13 32  1  0  0  0  0
 14 15  1  0  0  0  0
 14 33  1  0  0  0  0
 14 34  1  0  0  0  0
 15 20  1  0  0  0  0
 15 16  1  0  0  0  0
 15 43  1  0  0  0  0
 16 17  1  0  0  0  0
 16 35  1  0  0  0  0
 16 36  1  0  0  0  0
 17 18  1  0  0  0  0
 17 37  1  0  0  0  0
 17 38  1  0  0  0  0
 18 19  1  0  0  0  0
 19 20  1  0  0  0  0
 19 39  1  0  0  0  0
 19 40  1  0  0  0  0
 20 41  1  0  0  0  0
 20 42  1  0  0  0  0
M  CHG  1  15   1
M  END
> <s_m_source_file>
AV-unprocessed.smi

> <i_m_source_file_index>
1684

> <i_lp_mmshare_version>
43012

> <i_f3d_flags>
0

> <s_epik_input>
W0NIM11jMVtjSF1bY0hdW2NIXW5jMVtOSF1DKD1PKVtOSF1bQ0BIXShbQ0gzXSlbQ0gyXU4yW0NIMl1bQ0gyXU9bQ0gyXVtDSDJdMg==

> <s_epik_cmdline>
J2VwaWtfcHl0aG9uJywgJy1waCcsICc3LjAnLCAnLXRuJywgJzgnLCAnLW1hJywgJzIwMCcsICctbWV0YWxfYmluZGluZycsICctaW1hZScsICc8aW5maWxlLm1hZT4nLCAnLW9tYWUnLCAnPG91dGZpbGUubWFlPic=

> <r_epik_Ionization_Penalty>
0.602571

> <r_epik_Ionization_Penalty_Charging>
0.602531

> <r_epik_Ionization_Penalty_Neutral>
4.09763e-05

> <r_epik_State_Penalty>
0.617039

> <r_epik_Charging_Adjusted_Penalty>
1.21957

> <i_epik_Tot_Q>
1

> <i_epik_Tot_abs_Q>
1

> <r_epik_Metal_State_Penalty>
0.617043

> <b_epik_Metal_Only>
0

> <s_lp_Force_Field>
OPLS_2005

> <r_lp_Energy>
24.8117

> <b_lp_Chiralities_Consistent>
1

> <s_lp_Variant>
AV-unprocessed.smi:1684-3

> <Gold.Version>
5.8.1

> <Gold.Id.Protein>
6NUR|6NUR_protein|mol2

> <Gold.PLP.Fitness>
37.4736

> <Gold.PLP.PLP>
-30.7752

> <Gold.PLP.part.hbond>
-2.0922

> <Gold.PLP.part.metal>
0.0000

> <Gold.PLP.part.buried>
-4.7490

> <Gold.PLP.part.nonpolar>
-24.5104

> <Gold.PLP.part.repulsive>
0.3922

> <Gold.PLP.ligand.clash>
0.0000

> <Gold.PLP.ligand.torsion>
1.1894

> <Gold.PLP.Chemscore.Hbond>
2.0000

> <Gold.PLP.Chemscore.CHOScore>
1.0000

> <Gold.PLP.Chemscore.Metal>
0.0000

> <Gold.Chemscore.Hbonds>
donor molecule, donor type, donor heavy atom, donor atom, acceptor molecule, acceptor atom, score
      L1  H     8    27       P1  7948  1.00
      L1  H    11    28       P1  7948  1.00
      L1  C     5    26       P1 10186  1.00

> <Gold.PLP.Chemscore.Internal.Correction>
0.0772

> <Gold.Rescore>
     Score         DG    S(hbond)    S(metal)    S(lipo)     H(rot)  DE(clash)    DE(int)     intcor
     16.05     -17.10       1.95        0.00      76.58       1.51       0.02       1.03       ----

> <Gold.Chemscore.Fitness>
16.0527

> <Gold.Chemscore.DG>
-17.0992

> <Gold.Chemscore.ZeroCoef>
-5.4800

> <Gold.Chemscore.Hbond>
1.9507

> <Gold.Chemscore.Metal>
0.0000

> <Gold.Chemscore.Lipo>
76.5771

> <Gold.Chemscore.Internal_Hbond>
0.0000

> <Gold.Chemscore.DEClash>
0.0174

> <Gold.Chemscore.DEInternal>
1.0290

> <Gold.Chemscore.Rot>
1.5061

> <Gold.Chemscore.Internal.Correction>
   9.000000E+99

> <Gold.Chemscore.Hbonds>
donor molecule, donor type, donor heavy atom, donor atom, acceptor molecule, acceptor atom, score
      L1  H     8    27       P1  7948  0.98
      L1  H    11    28       P1  7948  0.94

> <Gold.Chemscore.Hbond.Weighted>
-6.5154

> <Gold.Chemscore.Metal.Weighted>
-0.0000

> <Gold.Chemscore.Lipo.Weighted>
-8.9595

> <Gold.Chemscore.Internal_Hbond.Weighted>
0.0000

> <Gold.Chemscore.DEClash.Weighted>
0.0174

> <Gold.Chemscore.DEInternal.Weighted>
1.0290

> <Gold.Chemscore.Rot.Weighted>
3.8557

> <Gold.Chemscore.Internal.Correction.Weighted>
   9.000000E+99

> <Gold.Protein.RotatedTorsions>
[ 6907 6896 6895 6894 ] final  -11.10 input  -60.11 | X-H torsion
[ 7974 7965 7964 7962 ] final -121.99 input  175.53 | X-H torsion
[ 8008 7997 7996 7995 ] final  151.51 input   59.86 | X-H torsion
[ 10167 10162 10161 10158 ] final -175.93 input  -65.29 | X-H torsion
[ 10718 10713 10712 10709 ] final   10.74 input   66.30 | X-H torsion
[ 10763 10752 10751 10750 ] final  109.92 input  -60.55 | X-H torsion
[ 11005 11000 10999 10996 ] final   36.42 input  -57.11 | X-H torsion

> <Gold.Protein.ActiveResidues>
 VAL166  LYS551  ARG553  GLY616  TRP617  ASP618  TYR619  PRO620  LYS621  CYS622 
 ASP623  PHE694  ASN695  SER759  ASP760  ASP761  ALA762  ILE779  LEU786  VAL792 
 PHE793  MET794  SER795  GLU796  ALA797  LYS798  CYS799  TRP800  GLU811  SER814 

> <Gold.Protein.RotatedAtoms>
  151.3915  135.0956  159.9527 H   0  0  0  0  0  0  0  0  0  0  0  0  # atno 6907 bound_to 6896
  152.5078  133.8975  159.7435 H   0  0  0  0  0  0  0  0  0  0  0  0  # atno 6908 bound_to 6896
  150.9430  133.6579  159.2815 H   0  0  0  0  0  0  0  0  0  0  0  0  # atno 6909 bound_to 6896
  145.0343  140.8093  143.4305 H   0  0  0  0  0  0  0  0  0  0  0  0  # atno 7974 bound_to 7965
  156.2670  140.2046  156.6187 H   0  0  0  0  0  0  0  0  0  0  0  0  # atno 8008 bound_to 7997
  154.6774  140.0543  157.0254 H   0  0  0  0  0  0  0  0  0  0  0  0  # atno 8009 bound_to 7997
  155.1050  140.3210  155.4540 H   0  0  0  0  0  0  0  0  0  0  0  0  # atno 8010 bound_to 7997
  139.5555  144.1999  152.1152 H   0  0  0  0  0  0  0  0  0  0  0  0  # atno 10167 bound_to 10162
  156.9854  130.6021  149.5680 H   0  0  0  0  0  0  0  0  0  0  0  0  # atno 10718 bound_to 10713
  153.4416  135.3765  155.2231 H   0  0  0  0  0  0  0  0  0  0  0  0  # atno 10763 bound_to 10752
  154.8754  135.3864  154.4146 H   0  0  0  0  0  0  0  0  0  0  0  0  # atno 10764 bound_to 10752
  153.4693  135.7087  153.6067 H   0  0  0  0  0  0  0  0  0  0  0  0  # atno 10765 bound_to 10752
  140.2327  134.3508  155.7957 H   0  0  0  0  0  0  0  0  0  0  0  0  # atno 11005 bound_to 11000
  145.1730  139.2393  143.5332 LP  0  0  0  0  0  0  0  0  0  0  0  0  # atno 17320 bound_to 7965
  146.3502  140.1486  142.8593 LP  0  0  0  0  0  0  0  0  0  0  0  0  # atno 17321 bound_to 7965
  140.1503  144.5121  150.6691 LP  0  0  0  0  0  0  0  0  0  0  0  0  # atno 17342 bound_to 10162
  140.6827  143.2334  151.5341 LP  0  0  0  0  0  0  0  0  0  0  0  0  # atno 17343 bound_to 10162
  156.0228  130.5322  150.8323 LP  0  0  0  0  0  0  0  0  0  0  0  0  # atno 17370 bound_to 10713
  157.5497  131.0943  150.9713 LP  0  0  0  0  0  0  0  0  0  0  0  0  # atno 17371 bound_to 10713
  141.2216  133.7254  156.8758 LP  0  0  0  0  0  0  0  0  0  0  0  0  # atno 17394 bound_to 11000
  140.1734  134.9084  157.2861 LP  0  0  0  0  0  0  0  0  0  0  0  0  # atno 17395 bound_to 11000

$$$$
