AV-unprocessed.smi:818|AV-procd|sdf|3832|dock6
  -GOLD-   22720 1273D 1   1.00000     0.00000
 Structure written by MMmdl.
 44 45  0  0  0  0  0  0  0  0  1 V2000
  143.6232  132.6565  148.1118 C   0  0  0  0  0  0  0  0  0  0  0  0
  143.8095  132.1684  149.5530 C   0  0  0  0  0  0  0  0  0  0  0  0
  144.2030  133.2480  150.4368 N   0  0  0  0  0  0  0  0  0  0  0  0
  145.2965  134.0842  150.3281 C   0  0  0  0  0  0  0  0  0  0  0  0
  145.2186  134.9336  151.3954 C   0  0  0  0  0  0  0  0  0  0  0  0
  146.0837  135.9939  151.7661 N   0  0  0  0  0  0  0  0  0  0  0  0
  145.7441  137.1607  152.3378 C   0  0  0  0  0  0  0  0  0  0  0  0
  144.5960  137.5026  152.6229 O   0  0  0  0  0  0  0  0  0  0  0  0
  146.8235  137.9228  152.5685 N   0  0  0  0  0  0  0  0  0  0  0  0
  146.8050  139.2372  153.2090 C   0  0  2  0  0  0  0  0  0  0  0  0
  147.0927  140.2969  152.1327 C   0  0  0  0  0  0  0  0  0  0  0  0
  147.9031  139.3312  154.2804 C   0  0  0  0  0  0  0  0  0  0  0  0
  147.8935  140.2413  155.1110 O   0  0  0  0  0  0  0  0  0  0  0  0
  148.8392  138.3708  154.2537 N   0  0  0  0  0  0  0  0  0  0  0  0
  149.9698  138.2776  155.1726 C   0  0  0  0  0  0  0  0  0  0  0  0
  150.7042  139.6280  155.3126 C   0  0  0  0  0  0  0  0  0  0  0  0
  152.1895  139.3270  155.1051 C   0  0  0  0  0  0  0  0  0  0  0  0
  152.2033  138.1154  154.1789 C   0  0  0  0  0  0  0  0  0  0  0  0
  151.0139  137.2761  154.6463 C   0  0  0  0  0  0  0  0  0  0  0  0
  144.0521  134.5540  152.1085 C   0  0  0  0  0  0  0  0  0  0  0  0
  143.4430  133.5342  151.5229 N   0  0  0  0  0  0  0  0  0  0  0  0
  143.3303  131.8340  147.4593 H   0  0  0  0  0  0  0  0  0  0  0  0
  144.5470  133.0815  147.7180 H   0  0  0  0  0  0  0  0  0  0  0  0
  142.8487  133.4219  148.0505 H   0  0  0  0  0  0  0  0  0  0  0  0
  142.8857  131.7246  149.9271 H   0  0  0  0  0  0  0  0  0  0  0  0
  144.5732  131.3907  149.5916 H   0  0  0  0  0  0  0  0  0  0  0  0
  146.0063  133.9978  149.5188 H   0  0  0  0  0  0  0  0  0  0  0  0
  147.0655  135.8434  151.5862 H   0  0  0  0  0  0  0  0  0  0  0  0
  147.7280  137.5585  152.3079 H   0  0  0  0  0  0  0  0  0  0  0  0
  145.8246  139.4222  153.6528 H   0  0  0  0  0  0  0  0  0  0  0  0
  147.0880  141.3025  152.5555 H   0  0  0  0  0  0  0  0  0  0  0  0
  146.3339  140.2721  151.3499 H   0  0  0  0  0  0  0  0  0  0  0  0
  148.0620  140.1408  151.6564 H   0  0  0  0  0  0  0  0  0  0  0  0
  148.7708  137.6608  153.5392 H   0  0  0  0  0  0  0  0  0  0  0  0
  149.6161  137.9362  156.1474 H   0  0  0  0  0  0  0  0  0  0  0  0
  150.3741  140.3280  154.5430 H   0  0  0  0  0  0  0  0  0  0  0  0
  150.5152  140.1005  156.2772 H   0  0  0  0  0  0  0  0  0  0  0  0
  152.7365  140.1763  154.6946 H   0  0  0  0  0  0  0  0  0  0  0  0
  152.6486  139.0639  156.0590 H   0  0  0  0  0  0  0  0  0  0  0  0
  152.0449  138.4380  153.1489 H   0  0  0  0  0  0  0  0  0  0  0  0
  153.1452  137.5672  154.2169 H   0  0  0  0  0  0  0  0  0  0  0  0
  151.3332  136.6294  155.4647 H   0  0  0  0  0  0  0  0  0  0  0  0
  150.6340  136.6265  153.8563 H   0  0  0  0  0  0  0  0  0  0  0  0
  143.6347  134.9756  153.0111 H   0  0  0  0  0  0  0  0  0  0  0  0
  1  2  1  0  0  0  0
  1 22  1  0  0  0  0
  1 23  1  0  0  0  0
  1 24  1  0  0  0  0
  2  3  1  0  0  0  0
  2 25  1  0  0  0  0
  2 26  1  0  0  0  0
  3 21  1  0  0  0  0
  3  4  1  0  0  0  0
  4  5  2  0  0  0  0
  4 27  1  0  0  0  0
  5  6  1  0  0  0  0
  5 20  1  0  0  0  0
  6  7  1  0  0  0  0
  6 28  1  0  0  0  0
  7  8  2  0  0  0  0
  7  9  1  0  0  0  0
  9 10  1  0  0  0  0
  9 29  1  0  0  0  0
 10 11  1  0  0  0  0
 10 12  1  0  0  0  0
 10 30  1  0  0  0  0
 11 31  1  0  0  0  0
 11 32  1  0  0  0  0
 11 33  1  0  0  0  0
 12 13  2  0  0  0  0
 12 14  1  0  0  0  0
 14 15  1  0  0  0  0
 14 34  1  0  0  0  0
 15 19  1  0  0  0  0
 15 16  1  0  0  0  0
 15 35  1  0  0  0  0
 16 17  1  0  0  0  0
 16 36  1  0  0  0  0
 16 37  1  0  0  0  0
 17 18  1  0  0  0  0
 17 38  1  0  0  0  0
 17 39  1  0  0  0  0
 18 19  1  0  0  0  0
 18 40  1  0  0  0  0
 18 41  1  0  0  0  0
 19 42  1  0  0  0  0
 19 43  1  0  0  0  0
 20 21  2  0  0  0  0
 20 44  1  0  0  0  0
M  END
> <s_m_source_file>
AV-unprocessed.smi

> <i_m_source_file_index>
818

> <i_lp_mmshare_version>
43012

> <i_f3d_flags>
0

> <s_epik_input>
W0NIM11bQ0gyXW4xW2NIXWMoW2NIXW4xKVtOSF1DKD1PKVtOSF1bQ0BIXShbQ0gzXSlDKD1PKVtOSF1bQ0hdMltDSDJdW0NIMl1bQ0gyXVtDSDJdMg==

> <s_epik_cmdline>
J2VwaWtfcHl0aG9uJywgJy1waCcsICc3LjAnLCAnLXRuJywgJzgnLCAnLW1hJywgJzIwMCcsICctbWV0YWxfYmluZGluZycsICctaW1hZScsICc8aW5maWxlLm1hZT4nLCAnLW9tYWUnLCAnPG91dGZpbGUubWFlPic=

> <r_lp_tautomer_probability>
1

> <r_epik_Ionization_Penalty>
0.00015627

> <r_epik_Ionization_Penalty_Charging>
0

> <r_epik_Ionization_Penalty_Neutral>
0.00015627

> <r_epik_State_Penalty>
-0

> <r_epik_Charging_Adjusted_Penalty>
0

> <i_epik_Tot_Q>
0

> <i_epik_Tot_abs_Q>
0

> <r_epik_Metal_State_Penalty>
-0

> <b_epik_Metal_Only>
0

> <s_lp_Force_Field>
OPLS_2005

> <r_lp_Energy>
21.5062

> <b_lp_Chiralities_Consistent>
1

> <s_lp_Variant>
AV-unprocessed.smi:818-1

> <Gold.Version>
5.8.1

> <Gold.Id.Protein>
6NUR|6NUR_protein|mol2

> <Gold.PLP.Fitness>
44.8285

> <Gold.PLP.PLP>
-35.6894

> <Gold.PLP.part.hbond>
-2.5566

> <Gold.PLP.part.metal>
0.0000

> <Gold.PLP.part.buried>
0.5160

> <Gold.PLP.part.nonpolar>
-34.5498

> <Gold.PLP.part.repulsive>
0.8479

> <Gold.PLP.ligand.clash>
0.0000

> <Gold.PLP.ligand.torsion>
0.9194

> <Gold.PLP.Chemscore.Hbond>
2.6663

> <Gold.PLP.Chemscore.CHOScore>
0.9842

> <Gold.PLP.Chemscore.Metal>
0.0000

> <Gold.Chemscore.Hbonds>
donor molecule, donor type, donor heavy atom, donor atom, acceptor molecule, acceptor atom, score
      L1  H     6    28       P1  7948  1.00
      L1  H     9    29       P1  7948  1.00
      L1  H    14    34       P1  7948  0.59
      L1  C     4    27       P1  7921  0.91

> <Gold.PLP.Chemscore.Internal.Correction>
0.0264

> <Gold.Rescore>
     Score         DG    S(hbond)    S(metal)    S(lipo)     H(rot)  DE(clash)    DE(int)     intcor
     16.51     -21.23       2.69        0.00      94.59       1.68       1.60       3.12       ----

> <Gold.Chemscore.Fitness>
16.5123

> <Gold.Chemscore.DG>
-21.2296

> <Gold.Chemscore.ZeroCoef>
-5.4800

> <Gold.Chemscore.Hbond>
2.6919

> <Gold.Chemscore.Metal>
0.0000

> <Gold.Chemscore.Lipo>
94.5881

> <Gold.Chemscore.Internal_Hbond>
0.0000

> <Gold.Chemscore.DEClash>
1.6008

> <Gold.Chemscore.DEInternal>
3.1166

> <Gold.Chemscore.Rot>
1.6828

> <Gold.Chemscore.Internal.Correction>
   9.000000E+99

> <Gold.Chemscore.Hbonds>
donor molecule, donor type, donor heavy atom, donor atom, acceptor molecule, acceptor atom, score
      L1  H     6    28       P1  7948  0.97
      L1  H     9    29       P1  7948  0.99
      L1  H    14    34       P1  7948  0.58

> <Gold.Chemscore.Hbond.Weighted>
-8.9909

> <Gold.Chemscore.Metal.Weighted>
-0.0000

> <Gold.Chemscore.Lipo.Weighted>
-11.0668

> <Gold.Chemscore.Internal_Hbond.Weighted>
0.0000

> <Gold.Chemscore.DEClash.Weighted>
1.6008

> <Gold.Chemscore.DEInternal.Weighted>
3.1166

> <Gold.Chemscore.Rot.Weighted>
4.3081

> <Gold.Chemscore.Internal.Correction.Weighted>
   9.000000E+99

> <Gold.Protein.RotatedTorsions>
[ 6907 6896 6895 6894 ] final  162.53 input  -60.11 | X-H torsion
[ 7974 7965 7964 7962 ] final   97.51 input  175.53 | X-H torsion
[ 8008 7997 7996 7995 ] final  -93.96 input   59.86 | X-H torsion
[ 10167 10162 10161 10158 ] final  -80.11 input  -65.29 | X-H torsion
[ 10718 10713 10712 10709 ] final   90.35 input   66.30 | X-H torsion
[ 10763 10752 10751 10750 ] final  -42.28 input  -60.55 | X-H torsion
[ 11005 11000 10999 10996 ] final   64.12 input  -57.11 | X-H torsion

> <Gold.Protein.ActiveResidues>
 VAL166  LYS551  ARG553  GLY616  TRP617  ASP618  TYR619  PRO620  LYS621  CYS622 
 ASP623  PHE694  ASN695  SER759  ASP760  ASP761  ALA762  ILE779  LEU786  VAL792 
 PHE793  MET794  SER795  GLU796  ALA797  LYS798  CYS799  TRP800  GLU811  SER814 

> <Gold.Protein.RotatedAtoms>
  151.9391  133.3632  159.3958 H   0  0  0  0  0  0  0  0  0  0  0  0  # atno 6907 bound_to 6896
  150.7002  134.4458  159.5322 H   0  0  0  0  0  0  0  0  0  0  0  0  # atno 6908 bound_to 6896
  152.2112  134.8500  160.0548 H   0  0  0  0  0  0  0  0  0  0  0  0  # atno 6909 bound_to 6896
  145.4245  139.2317  143.3178 H   0  0  0  0  0  0  0  0  0  0  0  0  # atno 7974 bound_to 7965
  154.7423  140.0494  157.0822 H   0  0  0  0  0  0  0  0  0  0  0  0  # atno 8008 bound_to 7997
  155.0162  140.3142  155.4791 H   0  0  0  0  0  0  0  0  0  0  0  0  # atno 8009 bound_to 7997
  156.2867  140.2175  156.5278 H   0  0  0  0  0  0  0  0  0  0  0  0  # atno 8010 bound_to 7997
  140.4532  143.2476  151.8458 H   0  0  0  0  0  0  0  0  0  0  0  0  # atno 10167 bound_to 10162
  157.6958  131.0367  150.3564 H   0  0  0  0  0  0  0  0  0  0  0  0  # atno 10718 bound_to 10713
  153.9765  135.6722  153.4748 H   0  0  0  0  0  0  0  0  0  0  0  0  # atno 10763 bound_to 10752
  153.0768  135.4944  154.8418 H   0  0  0  0  0  0  0  0  0  0  0  0  # atno 10764 bound_to 10752
  154.7189  135.3113  154.9040 H   0  0  0  0  0  0  0  0  0  0  0  0  # atno 10765 bound_to 10752
  139.9979  134.6488  155.9979 H   0  0  0  0  0  0  0  0  0  0  0  0  # atno 11005 bound_to 11000
  146.2639  140.4974  142.8842 LP  0  0  0  0  0  0  0  0  0  0  0  0  # atno 17320 bound_to 7965
  144.8223  140.6571  143.6345 LP  0  0  0  0  0  0  0  0  0  0  0  0  # atno 17321 bound_to 7965
  139.4798  144.5095  151.8952 LP  0  0  0  0  0  0  0  0  0  0  0  0  # atno 17342 bound_to 10162
  140.4182  144.2279  150.5887 LP  0  0  0  0  0  0  0  0  0  0  0  0  # atno 17343 bound_to 10162
  156.4005  130.3915  149.6963 LP  0  0  0  0  0  0  0  0  0  0  0  0  # atno 17370 bound_to 10713
  156.4281  130.7802  151.2821 LP  0  0  0  0  0  0  0  0  0  0  0  0  # atno 17371 bound_to 10713
  141.1619  133.6538  156.4348 LP  0  0  0  0  0  0  0  0  0  0  0  0  # atno 17394 bound_to 11000
  140.4783  134.6689  157.5160 LP  0  0  0  0  0  0  0  0  0  0  0  0  # atno 17395 bound_to 11000

$$$$
