AV-unprocessed.smi:454|AV-procd|sdf|2613|dock10
  -GOLD-   2262023 13D 1   1.00000     0.00000
 Structure written by MMmdl.
 44 45  0  0  0  0  0  0  0  0  2 V2000
  151.2786  145.1759  160.0985 C   0  0  0  0  0  0  0  0  0  0  0  0
  152.0671  144.0375  159.8017 O   0  0  0  0  0  0  0  0  0  0  0  0
  152.2524  143.8478  158.4085 C   0  0  0  0  0  0  0  0  0  0  0  0
  150.9148  143.4871  157.7438 C   0  0  0  0  0  0  0  0  0  0  0  0
  150.3852  142.2108  158.2114 N   0  0  0  0  0  0  0  0  0  0  0  0
  150.8809  140.9979  157.7112 C   0  0  0  0  0  0  0  0  0  0  0  0
  151.6909  141.0269  156.5547 C   0  0  0  0  0  0  0  0  0  0  0  0
  152.2101  139.8164  156.0552 C   0  0  0  0  0  0  0  0  0  0  0  0
  151.8926  138.6251  156.7347 C   0  0  0  0  0  0  0  0  0  0  0  0
  152.5581  137.0574  156.1993 S   0  0  0  0  0  0  0  0  0  0  0  0
  153.9580  137.2827  155.8080 O   0  0  0  0  0  0  0  0  0  0  0  0
  152.2232  136.0191  157.1861 O   0  0  0  0  0  0  0  0  0  0  0  0
  151.6454  136.7436  154.7548 N   0  0  0  0  0  0  0  0  0  0  0  0
  150.8132  135.5291  154.7077 C   0  0  0  0  0  0  0  0  0  0  0  0
  149.4328  135.8071  155.3277 C   0  0  0  0  0  0  0  0  0  0  0  0
  148.7625  136.9223  154.6173 N   0  3  0  0  0  0  0  0  0  0  0  0
  147.3833  137.1547  155.0964 C   0  0  0  0  0  0  0  0  0  0  0  0
  149.5952  138.1480  154.6635 C   0  0  0  0  0  0  0  0  0  0  0  0
  150.9973  137.8832  154.0788 C   0  0  0  0  0  0  0  0  0  0  0  0
  151.0661  138.6860  157.8728 C   0  0  0  0  0  0  0  0  0  0  0  0
  150.5673  139.8450  158.3512 N   0  0  0  0  0  0  0  0  0  0  0  0
  151.1681  145.2723  161.1784 H   0  0  0  0  0  0  0  0  0  0  0  0
  150.2817  145.0894  159.6642 H   0  0  0  0  0  0  0  0  0  0  0  0
  151.7467  146.0878  159.7252 H   0  0  0  0  0  0  0  0  0  0  0  0
  152.6285  144.7751  157.9740 H   0  0  0  0  0  0  0  0  0  0  0  0
  152.9983  143.0746  158.2157 H   0  0  0  0  0  0  0  0  0  0  0  0
  150.1883  144.2913  157.8642 H   0  0  0  0  0  0  0  0  0  0  0  0
  151.0738  143.3857  156.6703 H   0  0  0  0  0  0  0  0  0  0  0  0
  149.4681  142.2128  158.6333 H   0  0  0  0  0  0  0  0  0  0  0  0
  151.9205  141.9605  156.0619 H   0  0  0  0  0  0  0  0  0  0  0  0
  152.8421  139.8116  155.1800 H   0  0  0  0  0  0  0  0  0  0  0  0
  150.7001  135.2177  153.6683 H   0  0  0  0  0  0  0  0  0  0  0  0
  151.3107  134.7073  155.2222 H   0  0  0  0  0  0  0  0  0  0  0  0
  148.8168  134.9099  155.2595 H   0  0  0  0  0  0  0  0  0  0  0  0
  149.5316  136.0456  156.3881 H   0  0  0  0  0  0  0  0  0  0  0  0
  147.3773  137.4436  156.1484 H   0  0  0  0  0  0  0  0  0  0  0  0
  146.7809  136.2525  154.9857 H   0  0  0  0  0  0  0  0  0  0  0  0
  146.9043  137.9476  154.5209 H   0  0  0  0  0  0  0  0  0  0  0  0
  149.1084  138.9380  154.0905 H   0  0  0  0  0  0  0  0  0  0  0  0
  149.6641  138.5070  155.6908 H   0  0  0  0  0  0  0  0  0  0  0  0
  151.6220  138.7726  154.1649 H   0  0  0  0  0  0  0  0  0  0  0  0
  150.9199  137.6610  153.0137 H   0  0  0  0  0  0  0  0  0  0  0  0
  150.8083  137.7901  158.4180 H   0  0  0  0  0  0  0  0  0  0  0  0
  148.6930  136.6520  153.6465 H   0  0  0  0  0  0  0  0  0  0  0  0
  1  2  1  0  0  0  0
  1 22  1  0  0  0  0
  1 23  1  0  0  0  0
  1 24  1  0  0  0  0
  2  3  1  0  0  0  0
  3  4  1  0  0  0  0
  3 25  1  0  0  0  0
  3 26  1  0  0  0  0
  4  5  1  0  0  0  0
  4 27  1  0  0  0  0
  4 28  1  0  0  0  0
  5  6  1  0  0  0  0
  5 29  1  0  0  0  0
  6 21  1  0  0  0  0
  6  7  2  0  0  0  0
  7  8  1  0  0  0  0
  7 30  1  0  0  0  0
  8  9  2  0  0  0  0
  8 31  1  0  0  0  0
  9 10  1  0  0  0  0
  9 20  1  0  0  0  0
 10 11  2  0  0  0  0
 10 12  2  0  0  0  0
 10 13  1  0  0  0  0
 13 19  1  0  0  0  0
 13 14  1  0  0  0  0
 14 15  1  0  0  0  0
 14 32  1  0  0  0  0
 14 33  1  0  0  0  0
 15 16  1  0  0  0  0
 15 34  1  0  0  0  0
 15 35  1  0  0  0  0
 16 17  1  0  0  0  0
 16 18  1  0  0  0  0
 16 44  1  0  0  0  0
 17 36  1  0  0  0  0
 17 37  1  0  0  0  0
 17 38  1  0  0  0  0
 18 19  1  0  0  0  0
 18 39  1  0  0  0  0
 18 40  1  0  0  0  0
 19 41  1  0  0  0  0
 19 42  1  0  0  0  0
 20 21  2  0  0  0  0
 20 43  1  0  0  0  0
M  CHG  1  16   1
M  END
> <s_m_source_file>
AV-unprocessed.smi

> <i_m_source_file_index>
454

> <i_lp_mmshare_version>
43012

> <i_f3d_flags>
0

> <s_epik_input>
W0NIM11PW0NIMl1bQ0gyXVtOSF1jMVtjSF1bY0hdYyhbY0hdbjEpUyg9TykoPU8pTjJbQ0gyXVtDSDJdTihbQ0gzXSlbQ0gyXVtDSDJdMg==

> <s_epik_cmdline>
J2VwaWtfcHl0aG9uJywgJy1waCcsICc3LjAnLCAnLXRuJywgJzgnLCAnLW1hJywgJzIwMCcsICctbWV0YWxfYmluZGluZycsICctaW1hZScsICc8aW5maWxlLm1hZT4nLCAnLW9tYWUnLCAnPG91dGZpbGUubWFlPic=

> <r_lp_tautomer_probability>
1

> <r_epik_Ionization_Penalty>
1.23801

> <r_epik_Ionization_Penalty_Charging>
1.23786

> <r_epik_Ionization_Penalty_Neutral>
0.00015121

> <r_epik_State_Penalty>
1.30655

> <r_epik_Charging_Adjusted_Penalty>
2.54442

> <i_epik_Tot_Q>
1

> <i_epik_Tot_abs_Q>
1

> <r_epik_Metal_State_Penalty>
1.30672

> <b_epik_Metal_Only>
0

> <s_lp_Force_Field>
OPLS_2005

> <r_lp_Energy>
1.84277

> <b_lp_Chiralities_Consistent>
1

> <s_lp_Variant>
AV-unprocessed.smi:454-2

> <Gold.Version>
5.8.1

> <Gold.Id.Protein>
6NUR|6NUR_protein|mol2

> <Gold.PLP.Fitness>
42.0138

> <Gold.PLP.PLP>
-32.0401

> <Gold.PLP.part.hbond>
-4.0000

> <Gold.PLP.part.metal>
0.0000

> <Gold.PLP.part.buried>
-5.7221

> <Gold.PLP.part.nonpolar>
-23.2865

> <Gold.PLP.part.repulsive>
0.1922

> <Gold.PLP.ligand.clash>
0.0000

> <Gold.PLP.ligand.torsion>
1.6769

> <Gold.PLP.Chemscore.Hbond>
3.5483

> <Gold.PLP.Chemscore.CHOScore>
0.0000

> <Gold.PLP.Chemscore.Metal>
0.0000

> <Gold.Chemscore.Hbonds>
donor molecule, donor type, donor heavy atom, donor atom, acceptor molecule, acceptor atom, score
      L1  H    16    44       P1  7948  2.00
      P1  H 10752 10763       L1    11  0.09
      P1  H 10752 10765       L1    13  0.09

> <Gold.PLP.Chemscore.Internal.Correction>
2.6827

> <Gold.Rescore>
     Score         DG    S(hbond)    S(metal)    S(lipo)     H(rot)  DE(clash)    DE(int)     intcor
     14.48     -16.31       1.72        0.00      79.50       1.65       0.06       1.77       ----

> <Gold.Chemscore.Fitness>
14.4832

> <Gold.Chemscore.DG>
-16.3142

> <Gold.Chemscore.ZeroCoef>
-5.4800

> <Gold.Chemscore.Hbond>
1.7228

> <Gold.Chemscore.Metal>
0.0000

> <Gold.Chemscore.Lipo>
79.5031

> <Gold.Chemscore.Internal_Hbond>
0.0000

> <Gold.Chemscore.DEClash>
0.0575

> <Gold.Chemscore.DEInternal>
1.7735

> <Gold.Chemscore.Rot>
1.6491

> <Gold.Chemscore.Internal.Correction>
   9.000000E+99

> <Gold.Chemscore.Hbonds>
donor molecule, donor type, donor heavy atom, donor atom, acceptor molecule, acceptor atom, score
      L1  H    16    44       P1  7948  1.00
      P1  H 10752 10763       L1    11  0.01

> <Gold.Chemscore.Hbond.Weighted>
-5.7541

> <Gold.Chemscore.Metal.Weighted>
-0.0000

> <Gold.Chemscore.Lipo.Weighted>
-9.3019

> <Gold.Chemscore.Internal_Hbond.Weighted>
0.0000

> <Gold.Chemscore.DEClash.Weighted>
0.0575

> <Gold.Chemscore.DEInternal.Weighted>
1.7735

> <Gold.Chemscore.Rot.Weighted>
4.2218

> <Gold.Chemscore.Internal.Correction.Weighted>
   9.000000E+99

> <Gold.Protein.RotatedTorsions>
[ 6907 6896 6895 6894 ] final  -50.77 input  -60.11 | X-H torsion
[ 7974 7965 7964 7962 ] final -178.99 input  175.53 | X-H torsion
[ 8008 7997 7996 7995 ] final -137.90 input   59.86 | X-H torsion
[ 10167 10162 10161 10158 ] final -107.29 input  -65.29 | X-H torsion
[ 10718 10713 10712 10709 ] final -129.95 input   66.30 | X-H torsion
[ 10763 10752 10751 10750 ] final  160.07 input  -60.55 | X-H torsion
[ 11005 11000 10999 10996 ] final   59.04 input  -57.11 | X-H torsion

> <Gold.Protein.ActiveResidues>
 VAL166  LYS551  ARG553  GLY616  TRP617  ASP618  TYR619  PRO620  LYS621  CYS622 
 ASP623  PHE694  ASN695  SER759  ASP760  ASP761  ALA762  ILE779  LEU786  VAL792 
 PHE793  MET794  SER795  GLU796  ALA797  LYS798  CYS799  TRP800  GLU811  SER814 

> <Gold.Protein.RotatedAtoms>
  150.8675  134.8041  159.7129 H   0  0  0  0  0  0  0  0  0  0  0  0  # atno 6907 bound_to 6896
  152.4691  134.5000  159.9732 H   0  0  0  0  0  0  0  0  0  0  0  0  # atno 6908 bound_to 6896
  151.5094  133.3449  159.2918 H   0  0  0  0  0  0  0  0  0  0  0  0  # atno 6909 bound_to 6896
  144.7134  140.0784  143.6426 H   0  0  0  0  0  0  0  0  0  0  0  0  # atno 7974 bound_to 7965
  155.4194  140.0517  157.3026 H   0  0  0  0  0  0  0  0  0  0  0  0  # atno 8008 bound_to 7997
  154.4909  140.2120  155.9509 H   0  0  0  0  0  0  0  0  0  0  0  0  # atno 8009 bound_to 7997
  156.1341  140.3166  155.8399 H   0  0  0  0  0  0  0  0  0  0  0  0  # atno 8010 bound_to 7997
  140.1785  143.3985  152.1300 H   0  0  0  0  0  0  0  0  0  0  0  0  # atno 10167 bound_to 10162
  156.2097  130.6910  151.0635 H   0  0  0  0  0  0  0  0  0  0  0  0  # atno 10718 bound_to 10713
  154.2417  135.2774  155.2851 H   0  0  0  0  0  0  0  0  0  0  0  0  # atno 10763 bound_to 10752
  154.5539  135.5667  153.6950 H   0  0  0  0  0  0  0  0  0  0  0  0  # atno 10764 bound_to 10752
  152.9998  135.6281  154.2561 H   0  0  0  0  0  0  0  0  0  0  0  0  # atno 10765 bound_to 10752
  140.0333  134.5980  155.9478 H   0  0  0  0  0  0  0  0  0  0  0  0  # atno 11005 bound_to 11000
  145.9723  139.2879  143.1091 LP  0  0  0  0  0  0  0  0  0  0  0  0  # atno 17320 bound_to 7965
  145.9103  140.9184  143.0457 LP  0  0  0  0  0  0  0  0  0  0  0  0  # atno 17321 bound_to 7965
  139.5306  144.7155  151.5069 LP  0  0  0  0  0  0  0  0  0  0  0  0  # atno 17342 bound_to 10162
  140.6535  143.8647  150.6810 LP  0  0  0  0  0  0  0  0  0  0  0  0  # atno 17343 bound_to 10162
  157.7031  131.0767  150.6754 LP  0  0  0  0  0  0  0  0  0  0  0  0  # atno 17370 bound_to 10713
  156.6814  130.4568  149.5627 LP  0  0  0  0  0  0  0  0  0  0  0  0  # atno 17371 bound_to 10713
  141.1843  133.6552  156.5151 LP  0  0  0  0  0  0  0  0  0  0  0  0  # atno 17394 bound_to 11000
  140.4190  134.7204  157.4879 LP  0  0  0  0  0  0  0  0  0  0  0  0  # atno 17395 bound_to 11000

$$$$
