AV-unprocessed.smi:69|AV-procd|sdf|650|dock4
  -GOLD-   2262016543D 1   1.00000     0.00000
 Structure written by MMmdl.
 32 34  0  0  0  0  0  0  0  0  1 V2000
  149.9495  128.9505  153.8821 N   0  0  0  0  0  0  0  0  0  0  0  0
  148.8253  129.0167  153.1560 C   0  0  0  0  0  0  0  0  0  0  0  0
  148.4441  127.9212  152.4573 N   0  0  0  0  0  0  0  0  0  0  0  0
  147.3273  127.9634  151.7223 C   0  0  0  0  0  0  0  0  0  0  0  0
  146.4726  128.9772  151.5562 N   0  0  0  0  0  0  0  0  0  0  0  0
  146.8603  130.0777  152.2648 C   0  0  0  0  0  0  0  0  0  0  0  0
  148.0180  130.1800  153.0835 C   0  0  0  0  0  0  0  0  0  0  0  0
  148.0910  131.4501  153.6416 N   0  0  0  0  0  0  0  0  0  0  0  0
  147.0337  132.0603  153.1749 C   0  0  0  0  0  0  0  0  0  0  0  0
  146.2385  131.3036  152.3404 N   0  0  0  0  0  0  0  0  0  0  0  0
  144.9782  131.6912  151.6386 C   0  0  1  0  0  0  0  0  0  0  0  0
  144.6451  132.9895  152.0029 O   0  0  0  0  0  0  0  0  0  0  0  0
  143.8387  133.5552  150.9764 C   0  0  1  0  0  0  0  0  0  0  0  0
  144.1209  135.0648  150.8749 C   0  0  0  0  0  0  0  0  0  0  0  0
  145.3791  135.3262  150.2877 O   0  0  0  0  0  0  0  0  0  0  0  0
  144.0869  132.7290  149.6949 C   0  0  2  0  0  0  0  0  0  0  0  0
  142.8912  132.0717  149.3198 O   0  0  0  0  0  0  0  0  0  0  0  0
  145.1311  131.6984  150.1121 C   0  0  1  0  0  0  0  0  0  0  0  0
  146.4252  132.0856  149.6857 O   0  0  0  0  0  0  0  0  0  0  0  0
  144.2123  130.9986  151.9927 H   0  0  0  0  0  0  0  0  0  0  0  0
  142.8051  133.4288  151.3045 H   0  0  0  0  0  0  0  0  0  0  0  0
  144.4197  133.3329  148.8497 H   0  0  0  0  0  0  0  0  0  0  0  0
  144.9306  130.7007  149.7185 H   0  0  0  0  0  0  0  0  0  0  0  0
  150.2544  129.7557  154.4101 H   0  0  0  0  0  0  0  0  0  0  0  0
  150.4901  128.0979  153.8985 H   0  0  0  0  0  0  0  0  0  0  0  0
  147.0837  127.0556  151.1904 H   0  0  0  0  0  0  0  0  0  0  0  0
  146.8064  133.0872  153.4231 H   0  0  0  0  0  0  0  0  0  0  0  0
  143.3588  135.5401  150.2572 H   0  0  0  0  0  0  0  0  0  0  0  0
  144.0722  135.5323  151.8588 H   0  0  0  0  0  0  0  0  0  0  0  0
  145.4105  134.9051  149.4423 H   0  0  0  0  0  0  0  0  0  0  0  0
  142.1955  132.7107  149.2872 H   0  0  0  0  0  0  0  0  0  0  0  0
  147.0355  131.4105  149.9407 H   0  0  0  0  0  0  0  0  0  0  0  0
  1  2  1  0  0  0  0
  1 24  1  0  0  0  0
  1 25  1  0  0  0  0
  2  7  1  0  0  0  0
  2  3  2  0  0  0  0
  3  4  1  0  0  0  0
  4  5  2  0  0  0  0
  4 26  1  0  0  0  0
  5  6  1  0  0  0  0
  6 10  1  0  0  0  0
  6  7  2  0  0  0  0
  7  8  1  0  0  0  0
  8  9  2  0  0  0  0
  9 10  1  0  0  0  0
  9 27  1  0  0  0  0
 10 11  1  0  0  0  0
 11 20  1  0  0  0  0
 11 18  1  0  0  0  0
 11 12  1  0  0  0  0
 12 13  1  0  0  0  0
 13 21  1  0  0  0  0
 13 14  1  0  0  0  0
 13 16  1  0  0  0  0
 14 15  1  0  0  0  0
 14 28  1  0  0  0  0
 14 29  1  0  0  0  0
 15 30  1  0  0  0  0
 16 22  1  0  0  0  0
 16 17  1  0  0  0  0
 16 18  1  0  0  0  0
 17 31  1  0  0  0  0
 18 23  1  0  0  0  0
 18 19  1  0  0  0  0
 19 32  1  0  0  0  0
M  END
> <s_m_source_file>
AV-unprocessed.smi

> <i_m_source_file_index>
69

> <i_lp_mmshare_version>
43012

> <i_f3d_flags>
0

> <s_epik_input>
bjFbY0hdbmMoW05IMl0pYyhjMTIpbltjSF1uMltDQEBIXTNPW0NASF0oW0NIMl1bT0hdKVtDQEBIXShbT0hdKVtDQEhdM1tPSF0=

> <s_epik_cmdline>
J2VwaWtfcHl0aG9uJywgJy1waCcsICc3LjAnLCAnLXRuJywgJzgnLCAnLW1hJywgJzIwMCcsICctbWV0YWxfYmluZGluZycsICctaW1hZScsICc8aW5maWxlLm1hZT4nLCAnLW9tYWUnLCAnPG91dGZpbGUubWFlPic=

> <r_lp_tautomer_probability>
1

> <r_epik_Ionization_Penalty>
0.000428445

> <r_epik_Ionization_Penalty_Charging>
0

> <r_epik_Ionization_Penalty_Neutral>
0.000428445

> <r_epik_State_Penalty>
-0

> <r_epik_Charging_Adjusted_Penalty>
0

> <i_epik_Tot_Q>
0

> <i_epik_Tot_abs_Q>
0

> <r_epik_Metal_State_Penalty>
-0

> <b_epik_Metal_Only>
0

> <s_epik_Chemistry_Notes>
This compound contains an acetal/aminal-like group ( X-CH(R)-Y where X, Y are N, S, or O) that may be acid/base labile, releasing an aldehyde.

> <s_lp_Force_Field>
OPLS_2005

> <r_lp_Energy>
41.0304

> <b_lp_Chiralities_Consistent>
1

> <s_lp_Variant>
AV-unprocessed.smi:69-8

> <Gold.Version>
5.8.1

> <Gold.Id.Protein>
6NUR|6NUR_protein|mol2

> <Gold.PLP.Fitness>
45.0367

> <Gold.PLP.PLP>
-33.9931

> <Gold.PLP.part.hbond>
-5.0000

> <Gold.PLP.part.metal>
0.0000

> <Gold.PLP.part.buried>
-6.8582

> <Gold.PLP.part.nonpolar>
-22.8397

> <Gold.PLP.part.repulsive>
0.4656

> <Gold.PLP.ligand.clash>
0.0000

> <Gold.PLP.ligand.torsion>
0.1036

> <Gold.PLP.Chemscore.Hbond>
3.7475

> <Gold.PLP.Chemscore.CHOScore>
0.0000

> <Gold.PLP.Chemscore.Metal>
0.0000

> <Gold.Chemscore.Hbonds>
donor molecule, donor type, donor heavy atom, donor atom, acceptor molecule, acceptor atom, score
      L1  H    15    30       P1  7921  0.98
      L1  H    17    31       P1 10186  0.86
      L1  H    19    32       P1 10747  0.95
      P1  H 10785 10796       L1    17  0.99

> <Gold.PLP.Chemscore.Internal.Correction>
0.0082

> <Gold.Rescore>
     Score         DG    S(hbond)    S(metal)    S(lipo)     H(rot)  DE(clash)    DE(int)     intcor
     10.87     -11.06       3.38        0.00      39.38       4.03       0.10       0.08       ----

> <Gold.Chemscore.Fitness>
10.8709

> <Gold.Chemscore.DG>
-11.0573

> <Gold.Chemscore.ZeroCoef>
-5.4800

> <Gold.Chemscore.Hbond>
3.3774

> <Gold.Chemscore.Metal>
0.0000

> <Gold.Chemscore.Lipo>
39.3824

> <Gold.Chemscore.Internal_Hbond>
0.0000

> <Gold.Chemscore.DEClash>
0.1036

> <Gold.Chemscore.DEInternal>
0.0828

> <Gold.Chemscore.Rot>
4.0277

> <Gold.Chemscore.Internal.Correction>
   9.000000E+99

> <Gold.Chemscore.Hbonds>
donor molecule, donor type, donor heavy atom, donor atom, acceptor molecule, acceptor atom, score
      L1  H    15    30       P1  7921  0.92
      L1  H    17    31       P1 10186  0.84
      L1  H    19    32       P1 10747  0.86
      P1  H 10785 10796       L1    17  0.79

> <Gold.Chemscore.Hbond.Weighted>
-11.2805

> <Gold.Chemscore.Metal.Weighted>
-0.0000

> <Gold.Chemscore.Lipo.Weighted>
-4.6077

> <Gold.Chemscore.Internal_Hbond.Weighted>
0.0000

> <Gold.Chemscore.DEClash.Weighted>
0.1036

> <Gold.Chemscore.DEInternal.Weighted>
0.0828

> <Gold.Chemscore.Rot.Weighted>
10.3110

> <Gold.Chemscore.Internal.Correction.Weighted>
   9.000000E+99

> <Gold.Protein.RotatedTorsions>
[ 6907 6896 6895 6894 ] final  -55.99 input  -60.11 | X-H torsion
[ 7974 7965 7964 7962 ] final   13.99 input  175.53 | X-H torsion
[ 8008 7997 7996 7995 ] final  172.03 input   59.86 | X-H torsion
[ 10167 10162 10161 10158 ] final  -54.15 input  -65.29 | X-H torsion
[ 10718 10713 10712 10709 ] final -157.85 input   66.30 | X-H torsion
[ 10763 10752 10751 10750 ] final   68.84 input  -60.55 | X-H torsion
[ 11005 11000 10999 10996 ] final   15.80 input  -57.11 | X-H torsion

> <Gold.Protein.ActiveResidues>
 VAL166  LYS551  ARG553  GLY616  TRP617  ASP618  TYR619  PRO620  LYS621  CYS622 
 ASP623  PHE694  ASN695  SER759  ASP760  ASP761  ALA762  ILE779  LEU786  VAL792 
 PHE793  MET794  SER795  GLU796  ALA797  LYS798  CYS799  TRP800  GLU811  SER814 

> <Gold.Protein.RotatedAtoms>
  150.8205  134.7410  159.6767 H   0  0  0  0  0  0  0  0  0  0  0  0  # atno 6907 bound_to 6896
  152.4321  134.5754  159.9943 H   0  0  0  0  0  0  0  0  0  0  0  0  # atno 6908 bound_to 6896
  151.5940  133.3326  159.3069 H   0  0  0  0  0  0  0  0  0  0  0  0  # atno 6909 bound_to 6896
  146.2316  139.9107  142.8525 H   0  0  0  0  0  0  0  0  0  0  0  0  # atno 7974 bound_to 7965
  156.1214  140.1496  156.9198 H   0  0  0  0  0  0  0  0  0  0  0  0  # atno 8008 bound_to 7997
  154.4839  140.0871  156.7482 H   0  0  0  0  0  0  0  0  0  0  0  0  # atno 8009 bound_to 7997
  155.4421  140.3431  155.4293 H   0  0  0  0  0  0  0  0  0  0  0  0  # atno 8010 bound_to 7997
  140.6446  143.2528  151.4895 H   0  0  0  0  0  0  0  0  0  0  0  0  # atno 10167 bound_to 10162
  156.5461  130.8584  151.2764 H   0  0  0  0  0  0  0  0  0  0  0  0  # atno 10718 bound_to 10713
  153.0256  135.5232  154.7196 H   0  0  0  0  0  0  0  0  0  0  0  0  # atno 10763 bound_to 10752
  154.6255  135.2894  155.0279 H   0  0  0  0  0  0  0  0  0  0  0  0  # atno 10764 bound_to 10752
  154.1250  135.6602  153.4963 H   0  0  0  0  0  0  0  0  0  0  0  0  # atno 10765 bound_to 10752
  140.4543  134.1192  155.7707 H   0  0  0  0  0  0  0  0  0  0  0  0  # atno 11005 bound_to 11000
  145.2232  140.9943  143.4033 LP  0  0  0  0  0  0  0  0  0  0  0  0  # atno 17320 bound_to 7965
  144.9592  139.3998  143.6364 LP  0  0  0  0  0  0  0  0  0  0  0  0  # atno 17321 bound_to 7965
  139.5656  144.2050  152.1760 LP  0  0  0  0  0  0  0  0  0  0  0  0  # atno 17342 bound_to 10162
  140.1331  144.5270  150.6790 LP  0  0  0  0  0  0  0  0  0  0  0  0  # atno 17343 bound_to 10162
  157.7396  130.9835  150.2326 LP  0  0  0  0  0  0  0  0  0  0  0  0  # atno 17370 bound_to 10713
  156.2927  130.3748  149.7826 LP  0  0  0  0  0  0  0  0  0  0  0  0  # atno 17371 bound_to 10713
  141.1650  133.8720  157.1740 LP  0  0  0  0  0  0  0  0  0  0  0  0  # atno 17394 bound_to 11000
  139.9986  135.0037  157.0140 LP  0  0  0  0  0  0  0  0  0  0  0  0  # atno 17395 bound_to 11000

$$$$
