AV-unprocessed.smi:1522|AV-procd|sdf|6136|dock10
  -GOLD-   22720 6283D 1   1.00000     0.00000
 Structure written by MMmdl.
 34 35  0  0  0  0  0  0  0  0  3 V2000
  150.1188  134.4818  154.8436 C   0  0  0  0  0  0  0  0  0  0  0  0
  148.5781  134.5828  154.9011 C   0  0  2  0  0  0  0  0  0  0  0  0
  148.0082  133.5207  155.8733 C   0  0  0  0  0  0  0  0  0  0  0  0
  148.5219  133.6772  157.2335 N   0  0  0  0  0  0  0  0  0  0  0  0
  148.1503  134.6017  158.1301 C   0  0  0  0  0  0  0  0  0  0  0  0
  147.3363  135.4729  157.8185 O   0  0  0  0  0  0  0  0  0  0  0  0
  148.7327  134.4477  159.3393 N   0  5  0  0  0  0  0  0  0  0  0  0
  148.3198  135.1894  160.3803 C   0  0  0  0  0  0  0  0  0  0  0  0
  148.2860  136.5312  160.3365 N   0  0  0  0  0  0  0  0  0  0  0  0
  147.8293  137.1040  161.5155 N   0  0  0  0  0  0  0  0  0  0  0  0
  147.5195  136.1744  162.4193 C   0  0  0  0  0  0  0  0  0  0  0  0
  147.7589  134.5154  161.9126 S   0  0  0  0  0  0  0  0  0  0  0  0
  147.9507  134.4746  153.5515 N   0  3  0  0  0  0  0  0  0  0  0  0
  148.0131  133.1303  152.9412 C   0  0  0  0  0  0  0  0  0  0  0  0
  147.0464  133.1929  151.7621 C   0  0  0  0  0  0  0  0  0  0  0  0
  145.9685  134.1876  152.2004 C   0  0  0  0  0  0  0  0  0  0  0  0
  146.5303  134.8780  153.4508 C   0  0  0  0  0  0  0  0  0  0  0  0
  150.5454  134.4778  155.8472 H   0  0  0  0  0  0  0  0  0  0  0  0
  150.5655  135.3256  154.3183 H   0  0  0  0  0  0  0  0  0  0  0  0
  150.4449  133.5685  154.3443 H   0  0  0  0  0  0  0  0  0  0  0  0
  148.3376  135.5688  155.3012 H   0  0  0  0  0  0  0  0  0  0  0  0
  146.9238  133.6230  155.9235 H   0  0  0  0  0  0  0  0  0  0  0  0
  148.1849  132.5094  155.5052 H   0  0  0  0  0  0  0  0  0  0  0  0
  149.2024  132.9962  157.5386 H   0  0  0  0  0  0  0  0  0  0  0  0
  147.1463  136.4672  163.3893 H   0  0  0  0  0  0  0  0  0  0  0  0
  149.0181  132.8495  152.6291 H   0  0  0  0  0  0  0  0  0  0  0  0
  147.6669  132.3860  153.6601 H   0  0  0  0  0  0  0  0  0  0  0  0
  147.5660  133.5796  150.8840 H   0  0  0  0  0  0  0  0  0  0  0  0
  146.6394  132.2149  151.5039 H   0  0  0  0  0  0  0  0  0  0  0  0
  145.7641  134.9071  151.4065 H   0  0  0  0  0  0  0  0  0  0  0  0
  145.0321  133.6790  152.4327 H   0  0  0  0  0  0  0  0  0  0  0  0
  145.9846  134.5259  154.3277 H   0  0  0  0  0  0  0  0  0  0  0  0
  146.4281  135.9626  153.3996 H   0  0  0  0  0  0  0  0  0  0  0  0
  148.4627  135.0933  152.9372 H   0  0  0  0  0  0  0  0  0  0  0  0
  1  2  1  0  0  0  0
  1 18  1  0  0  0  0
  1 19  1  0  0  0  0
  1 20  1  0  0  0  0
  2  3  1  0  0  0  0
  2 13  1  0  0  0  0
  2 21  1  0  0  0  0
  3  4  1  0  0  0  0
  3 22  1  0  0  0  0
  3 23  1  0  0  0  0
  4  5  1  0  0  0  0
  4 24  1  0  0  0  0
  5  6  2  0  0  0  0
  5  7  1  0  0  0  0
  7  8  1  0  0  0  0
  8 12  1  0  0  0  0
  8  9  2  0  0  0  0
  9 10  1  0  0  0  0
 10 11  2  0  0  0  0
 11 12  1  0  0  0  0
 11 25  1  0  0  0  0
 13 17  1  0  0  0  0
 13 14  1  0  0  0  0
 13 34  1  0  0  0  0
 14 15  1  0  0  0  0
 14 26  1  0  0  0  0
 14 27  1  0  0  0  0
 15 16  1  0  0  0  0
 15 28  1  0  0  0  0
 15 29  1  0  0  0  0
 16 17  1  0  0  0  0
 16 30  1  0  0  0  0
 16 31  1  0  0  0  0
 17 32  1  0  0  0  0
 17 33  1  0  0  0  0
M  CHG  1   7  -1
M  CHG  1  13   1
M  END
> <s_m_source_file>
AV-unprocessed.smi

> <i_m_source_file_index>
1522

> <i_lp_mmshare_version>
43012

> <i_f3d_flags>
0

> <s_epik_input>
W0NIMl0xW0NIMl1bQ0gyXVtDSDJdTjFbQ0BIXShbQ0gzXSlbQ0gyXVtOSF1DKD1PKVtOSF1jMm5uW2NIXXMy

> <s_epik_cmdline>
J2VwaWtfcHl0aG9uJywgJy1waCcsICc3LjAnLCAnLXRuJywgJzgnLCAnLW1hJywgJzIwMCcsICctbWV0YWxfYmluZGluZycsICctaW1hZScsICc8aW5maWxlLm1hZT4nLCAnLW9tYWUnLCAnPG91dGZpbGUubWFlPic=

> <r_lp_tautomer_probability>
1

> <r_epik_Ionization_Penalty>
3.04208

> <r_epik_Ionization_Penalty_Charging>
3.00964

> <r_epik_Ionization_Penalty_Neutral>
0.0324455

> <r_epik_State_Penalty>
3.0051

> <r_epik_Charging_Adjusted_Penalty>
6.01474

> <i_epik_Tot_Q>
0

> <i_epik_Tot_abs_Q>
2

> <r_epik_Metal_State_Penalty>
0.454155

> <b_epik_Metal_Only>
1

> <s_lp_Force_Field>
OPLS_2005

> <r_lp_Energy>
27.863

> <b_lp_Chiralities_Consistent>
1

> <s_lp_Variant>
AV-unprocessed.smi:1522-3

> <Gold.Version>
5.8.1

> <Gold.Id.Protein>
6NUR|6NUR_protein|mol2

> <Gold.PLP.Fitness>
41.6545

> <Gold.PLP.PLP>
-25.6987

> <Gold.PLP.part.hbond>
-4.0000

> <Gold.PLP.part.metal>
0.0000

> <Gold.PLP.part.buried>
-2.3261

> <Gold.PLP.part.nonpolar>
-18.6768

> <Gold.PLP.part.repulsive>
0.0479

> <Gold.PLP.ligand.clash>
0.0000

> <Gold.PLP.ligand.torsion>
0.7460

> <Gold.PLP.Chemscore.Hbond>
5.7920

> <Gold.PLP.Chemscore.CHOScore>
0.0000

> <Gold.PLP.Chemscore.Metal>
0.0000

> <Gold.Chemscore.Hbonds>
donor molecule, donor type, donor heavy atom, donor atom, acceptor molecule, acceptor atom, score
      L1  H    13    34       P1  7948  2.00
      P1  H  6896  6909       L1     7  2.00
      P1  H  6931  6943       L1    10  1.00
      P1  H  6934  6947       L1    10  0.61

> <Gold.PLP.Chemscore.Internal.Correction>
0.0717

> <Gold.Rescore>
     Score         DG    S(hbond)    S(metal)    S(lipo)     H(rot)  DE(clash)    DE(int)     intcor
     13.71     -15.48       2.60        0.00      47.92       1.68       0.06       1.72       ----

> <Gold.Chemscore.Fitness>
13.7062

> <Gold.Chemscore.DG>
-15.4809

> <Gold.Chemscore.ZeroCoef>
-5.4800

> <Gold.Chemscore.Hbond>
2.6003

> <Gold.Chemscore.Metal>
0.0000

> <Gold.Chemscore.Lipo>
47.9227

> <Gold.Chemscore.Internal_Hbond>
0.0000

> <Gold.Chemscore.DEClash>
0.0580

> <Gold.Chemscore.DEInternal>
1.7167

> <Gold.Chemscore.Rot>
1.6762

> <Gold.Chemscore.Internal.Correction>
   9.000000E+99

> <Gold.Chemscore.Hbonds>
donor molecule, donor type, donor heavy atom, donor atom, acceptor molecule, acceptor atom, score
      L1  H    13    34       P1  7948  0.78
      P1  H  6896  6909       L1     7  0.47
      P1  H  6931  6943       L1    10  0.42
      P1  H  6934  6947       L1    10  0.26

> <Gold.Chemscore.Hbond.Weighted>
-8.6849

> <Gold.Chemscore.Metal.Weighted>
-0.0000

> <Gold.Chemscore.Lipo.Weighted>
-5.6070

> <Gold.Chemscore.Internal_Hbond.Weighted>
0.0000

> <Gold.Chemscore.DEClash.Weighted>
0.0580

> <Gold.Chemscore.DEInternal.Weighted>
1.7167

> <Gold.Chemscore.Rot.Weighted>
4.2910

> <Gold.Chemscore.Internal.Correction.Weighted>
   9.000000E+99

> <Gold.Protein.RotatedTorsions>
[ 6907 6896 6895 6894 ] final   37.17 input  -60.11 | X-H torsion
[ 7974 7965 7964 7962 ] final -150.45 input  175.53 | X-H torsion
[ 8008 7997 7996 7995 ] final  -70.72 input   59.86 | X-H torsion
[ 10167 10162 10161 10158 ] final  -57.36 input  -65.29 | X-H torsion
[ 10718 10713 10712 10709 ] final -126.18 input   66.30 | X-H torsion
[ 10763 10752 10751 10750 ] final  111.93 input  -60.55 | X-H torsion
[ 11005 11000 10999 10996 ] final  101.76 input  -57.11 | X-H torsion

> <Gold.Protein.ActiveResidues>
 VAL166  LYS551  ARG553  GLY616  TRP617  ASP618  TYR619  PRO620  LYS621  CYS622 
 ASP623  PHE694  ASN695  SER759  ASP760  ASP761  ALA762  ILE779  LEU786  VAL792 
 PHE793  MET794  SER795  GLU796  ALA797  LYS798  CYS799  TRP800  GLU811  SER814 

> <Gold.Protein.RotatedAtoms>
  152.1396  134.9072  160.0554 H   0  0  0  0  0  0  0  0  0  0  0  0  # atno 6907 bound_to 6896
  152.0145  133.3869  159.4241 H   0  0  0  0  0  0  0  0  0  0  0  0  # atno 6908 bound_to 6896
  150.6864  134.3615  159.4996 H   0  0  0  0  0  0  0  0  0  0  0  0  # atno 6909 bound_to 6896
  144.7907  140.4930  143.5775 H   0  0  0  0  0  0  0  0  0  0  0  0  # atno 7974 bound_to 7965
  154.5033  140.0829  156.7842 H   0  0  0  0  0  0  0  0  0  0  0  0  # atno 8008 bound_to 7997
  155.3952  140.3434  155.4235 H   0  0  0  0  0  0  0  0  0  0  0  0  # atno 8009 bound_to 7997
  156.1484  140.1551  156.8797 H   0  0  0  0  0  0  0  0  0  0  0  0  # atno 8010 bound_to 7997
  140.6262  143.2439  151.5357 H   0  0  0  0  0  0  0  0  0  0  0  0  # atno 10167 bound_to 10162
  156.1742  130.6688  151.0219 H   0  0  0  0  0  0  0  0  0  0  0  0  # atno 10718 bound_to 10713
  153.4704  135.3702  155.2388 H   0  0  0  0  0  0  0  0  0  0  0  0  # atno 10763 bound_to 10752
  154.8757  135.3930  154.3818 H   0  0  0  0  0  0  0  0  0  0  0  0  # atno 10764 bound_to 10752
  153.4406  135.7084  153.6236 H   0  0  0  0  0  0  0  0  0  0  0  0  # atno 10765 bound_to 10752
  139.8774  134.9196  156.4955 H   0  0  0  0  0  0  0  0  0  0  0  0  # atno 11005 bound_to 11000
  145.5802  139.1488  143.3239 LP  0  0  0  0  0  0  0  0  0  0  0  0  # atno 17320 bound_to 7965
  146.2158  140.5932  142.9039 LP  0  0  0  0  0  0  0  0  0  0  0  0  # atno 17321 bound_to 7965
  139.5482  144.2464  152.1482 LP  0  0  0  0  0  0  0  0  0  0  0  0  # atno 17342 bound_to 10162
  140.1696  144.4948  150.6587 LP  0  0  0  0  0  0  0  0  0  0  0  0  # atno 17343 bound_to 10162
  157.6824  131.0834  150.7335 LP  0  0  0  0  0  0  0  0  0  0  0  0  # atno 17370 bound_to 10713
  156.7393  130.4734  149.5481 LP  0  0  0  0  0  0  0  0  0  0  0  0  # atno 17371 bound_to 10713
  140.8627  133.8047  155.9282 LP  0  0  0  0  0  0  0  0  0  0  0  0  # atno 17394 bound_to 11000
  140.9032  134.2352  157.5029 LP  0  0  0  0  0  0  0  0  0  0  0  0  # atno 17395 bound_to 11000

$$$$
