AV-unprocessed.smi:2082|AV-procd|sdf|8489|dock1
  -GOLD-   2272011193D 1   1.00000     0.00000
 Structure written by MMmdl.
 39 40  0  0  0  0  0  0  0  0  1 V2000
  144.5136  123.3740  155.5810 C   0  0  0  0  0  0  0  0  0  0  0  0
  145.8118  122.9206  155.9218 O   0  0  0  0  0  0  0  0  0  0  0  0
  146.7864  123.2905  154.9605 C   0  0  0  0  0  0  0  0  0  0  0  0
  146.8741  124.8181  154.8979 C   0  0  0  0  0  0  0  0  0  0  0  0
  147.6247  125.1851  153.7442 O   0  0  0  0  0  0  0  0  0  0  0  0
  147.3403  126.3851  153.1259 C   0  0  0  0  0  0  0  0  0  0  0  0
  148.1021  126.7595  152.0012 C   0  0  0  0  0  0  0  0  0  0  0  0
  147.8202  127.9828  151.3635 C   0  0  0  0  0  0  0  0  0  0  0  0
  146.7865  128.7999  151.8798 C   0  0  0  0  0  0  0  0  0  0  0  0
  146.3902  130.0414  151.3142 N   0  0  0  0  0  0  0  0  0  0  0  0
  146.0107  131.1733  151.9401 C   0  0  0  0  0  0  0  0  0  0  0  0
  145.8896  131.2556  153.1628 O   0  0  0  0  0  0  0  0  0  0  0  0
  145.7222  132.2047  151.1037 N   0  0  0  0  0  0  0  0  0  0  0  0
  145.5026  132.0965  149.6533 C   0  0  0  0  0  0  0  0  0  0  0  0
  144.0132  132.3595  149.3720 C   0  0  0  0  0  0  0  0  0  0  0  0
  143.5205  133.5422  150.0804 N   0  0  0  0  0  0  0  0  0  0  0  0
  144.1418  134.1467  151.1103 C   0  0  0  0  0  0  0  0  0  0  0  0
  143.6727  135.1466  151.6486 O   0  0  0  0  0  0  0  0  0  0  0  0
  145.4743  133.5619  151.6184 C   0  0  0  0  0  0  0  0  0  0  0  0
  146.0739  128.3275  153.0011 C   0  0  0  0  0  0  0  0  0  0  0  0
  146.3395  127.1567  153.6174 N   0  0  0  0  0  0  0  0  0  0  0  0
  143.8038  123.0614  156.3468 H   0  0  0  0  0  0  0  0  0  0  0  0
  144.1864  122.9567  154.6278 H   0  0  0  0  0  0  0  0  0  0  0  0
  144.4812  124.4624  155.5167 H   0  0  0  0  0  0  0  0  0  0  0  0
  147.7537  122.8817  155.2561 H   0  0  0  0  0  0  0  0  0  0  0  0
  146.5439  122.8828  153.9778 H   0  0  0  0  0  0  0  0  0  0  0  0
  145.8731  125.2525  154.8780 H   0  0  0  0  0  0  0  0  0  0  0  0
  147.3817  125.1844  155.7917 H   0  0  0  0  0  0  0  0  0  0  0  0
  148.8862  126.1163  151.6300 H   0  0  0  0  0  0  0  0  0  0  0  0
  148.3883  128.2599  150.4892 H   0  0  0  0  0  0  0  0  0  0  0  0
  146.3457  130.0620  150.3059 H   0  0  0  0  0  0  0  0  0  0  0  0
  146.1077  132.8589  149.1597 H   0  0  0  0  0  0  0  0  0  0  0  0
  145.8150  131.1519  149.2079 H   0  0  0  0  0  0  0  0  0  0  0  0
  143.8455  132.4850  148.3022 H   0  0  0  0  0  0  0  0  0  0  0  0
  143.4180  131.5019  149.6878 H   0  0  0  0  0  0  0  0  0  0  0  0
  142.6459  133.9342  149.7622 H   0  0  0  0  0  0  0  0  0  0  0  0
  145.4652  133.6123  152.7082 H   0  0  0  0  0  0  0  0  0  0  0  0
  146.2855  134.2125  151.2901 H   0  0  0  0  0  0  0  0  0  0  0  0
  145.2665  128.9086  153.4222 H   0  0  0  0  0  0  0  0  0  0  0  0
  1  2  1  0  0  0  0
  1 22  1  0  0  0  0
  1 23  1  0  0  0  0
  1 24  1  0  0  0  0
  2  3  1  0  0  0  0
  3  4  1  0  0  0  0
  3 25  1  0  0  0  0
  3 26  1  0  0  0  0
  4  5  1  0  0  0  0
  4 27  1  0  0  0  0
  4 28  1  0  0  0  0
  5  6  1  0  0  0  0
  6 21  1  0  0  0  0
  6  7  2  0  0  0  0
  7  8  1  0  0  0  0
  7 29  1  0  0  0  0
  8  9  2  0  0  0  0
  8 30  1  0  0  0  0
  9 10  1  0  0  0  0
  9 20  1  0  0  0  0
 10 11  1  0  0  0  0
 10 31  1  0  0  0  0
 11 12  2  0  0  0  0
 11 13  1  0  0  0  0
 13 19  1  0  0  0  0
 13 14  1  0  0  0  0
 14 15  1  0  0  0  0
 14 32  1  0  0  0  0
 14 33  1  0  0  0  0
 15 16  1  0  0  0  0
 15 34  1  0  0  0  0
 15 35  1  0  0  0  0
 16 17  1  0  0  0  0
 16 36  1  0  0  0  0
 17 18  2  0  0  0  0
 17 19  1  0  0  0  0
 19 37  1  0  0  0  0
 19 38  1  0  0  0  0
 20 21  2  0  0  0  0
 20 39  1  0  0  0  0
M  END
> <s_m_source_file>
AV-unprocessed.smi

> <i_m_source_file_index>
2082

> <i_lp_mmshare_version>
43012

> <i_f3d_flags>
0

> <s_epik_input>
W0NIM11PW0NIMl1bQ0gyXU9jMVtjSF1bY0hdYyhbY0hdbjEpW05IXUMoPU8pTjJbQ0gyXVtDSDJdW05IXUMoPU8pW0NIMl0y

> <s_epik_cmdline>
J2VwaWtfcHl0aG9uJywgJy1waCcsICc3LjAnLCAnLXRuJywgJzgnLCAnLW1hJywgJzIwMCcsICctbWV0YWxfYmluZGluZycsICctaW1hZScsICc8aW5maWxlLm1hZT4nLCAnLW9tYWUnLCAnPG91dGZpbGUubWFlPic=

> <r_lp_tautomer_probability>
1

> <r_epik_Ionization_Penalty>
5.92413e-05

> <r_epik_Ionization_Penalty_Charging>
0

> <r_epik_Ionization_Penalty_Neutral>
5.92413e-05

> <r_epik_State_Penalty>
-0

> <r_epik_Charging_Adjusted_Penalty>
0

> <i_epik_Tot_Q>
0

> <i_epik_Tot_abs_Q>
0

> <r_epik_Metal_State_Penalty>
-0

> <b_epik_Metal_Only>
0

> <s_lp_Force_Field>
OPLS_2005

> <r_lp_Energy>
31.1837

> <b_lp_Chiralities_Consistent>
1

> <s_lp_Variant>
AV-unprocessed.smi:2082-1

> <Gold.Version>
5.8.1

> <Gold.Id.Protein>
6NUR|6NUR_protein|mol2

> <Gold.PLP.Fitness>
40.0911

> <Gold.PLP.PLP>
-35.1977

> <Gold.PLP.part.hbond>
-3.2394

> <Gold.PLP.part.metal>
0.0000

> <Gold.PLP.part.buried>
-5.2223

> <Gold.PLP.part.nonpolar>
-28.8685

> <Gold.PLP.part.repulsive>
0.4732

> <Gold.PLP.ligand.clash>
0.0000

> <Gold.PLP.ligand.torsion>
0.6055

> <Gold.PLP.Chemscore.Hbond>
1.0000

> <Gold.PLP.Chemscore.CHOScore>
1.0000

> <Gold.PLP.Chemscore.Metal>
0.0000

> <Gold.Chemscore.Hbonds>
donor molecule, donor type, donor heavy atom, donor atom, acceptor molecule, acceptor atom, score
      L1  H    16    36       P1 10186  1.00
      L1  C    20    39       P1 10956  1.00

> <Gold.PLP.Chemscore.Internal.Correction>
0.1044

> <Gold.Rescore>
     Score         DG    S(hbond)    S(metal)    S(lipo)     H(rot)  DE(clash)    DE(int)     intcor
     10.41     -12.22       1.00        0.00      68.72       1.81       0.10       1.71       ----

> <Gold.Chemscore.Fitness>
10.4090

> <Gold.Chemscore.DG>
-12.2223

> <Gold.Chemscore.ZeroCoef>
-5.4800

> <Gold.Chemscore.Hbond>
0.9983

> <Gold.Chemscore.Metal>
0.0000

> <Gold.Chemscore.Lipo>
68.7206

> <Gold.Chemscore.Internal_Hbond>
0.0000

> <Gold.Chemscore.DEClash>
0.1049

> <Gold.Chemscore.DEInternal>
1.7084

> <Gold.Chemscore.Rot>
1.8095

> <Gold.Chemscore.Internal.Correction>
   9.000000E+99

> <Gold.Chemscore.Hbonds>
donor molecule, donor type, donor heavy atom, donor atom, acceptor molecule, acceptor atom, score
      L1  H    16    36       P1 10186  1.00

> <Gold.Chemscore.Hbond.Weighted>
-3.3342

> <Gold.Chemscore.Metal.Weighted>
-0.0000

> <Gold.Chemscore.Lipo.Weighted>
-8.0403

> <Gold.Chemscore.Internal_Hbond.Weighted>
0.0000

> <Gold.Chemscore.DEClash.Weighted>
0.1049

> <Gold.Chemscore.DEInternal.Weighted>
1.7084

> <Gold.Chemscore.Rot.Weighted>
4.6322

> <Gold.Chemscore.Internal.Correction.Weighted>
   9.000000E+99

> <Gold.Protein.RotatedTorsions>
[ 6907 6896 6895 6894 ] final -148.38 input  -60.11 | X-H torsion
[ 7974 7965 7964 7962 ] final -111.69 input  175.53 | X-H torsion
[ 8008 7997 7996 7995 ] final  -99.80 input   59.86 | X-H torsion
[ 10167 10162 10161 10158 ] final    7.01 input  -65.29 | X-H torsion
[ 10718 10713 10712 10709 ] final   -5.01 input   66.30 | X-H torsion
[ 10763 10752 10751 10750 ] final -107.77 input  -60.55 | X-H torsion
[ 11005 11000 10999 10996 ] final -169.04 input  -57.11 | X-H torsion

> <Gold.Protein.ActiveResidues>
 VAL166  LYS551  ARG553  GLY616  TRP617  ASP618  TYR619  PRO620  LYS621  CYS622 
 ASP623  PHE694  ASN695  SER759  ASP760  ASP761  ALA762  ILE779  LEU786  VAL792 
 PHE793  MET794  SER795  GLU796  ALA797  LYS798  CYS799  TRP800  GLU811  SER814 

> <Gold.Protein.RotatedAtoms>
  151.1690  133.4796  159.2593 H   0  0  0  0  0  0  0  0  0  0  0  0  # atno 6907 bound_to 6896
  151.1376  135.0162  159.8621 H   0  0  0  0  0  0  0  0  0  0  0  0  # atno 6908 bound_to 6896
  152.5461  134.1587  159.8602 H   0  0  0  0  0  0  0  0  0  0  0  0  # atno 6909 bound_to 6896
  145.1530  140.8839  143.3635 H   0  0  0  0  0  0  0  0  0  0  0  0  # atno 7974 bound_to 7965
  154.8198  140.0445  157.1403 H   0  0  0  0  0  0  0  0  0  0  0  0  # atno 8008 bound_to 7997
  154.9272  140.3035  155.5166 H   0  0  0  0  0  0  0  0  0  0  0  0  # atno 8009 bound_to 7997
  156.2979  140.2329  156.4328 H   0  0  0  0  0  0  0  0  0  0  0  0  # atno 8010 bound_to 7997
  140.6396  143.7806  150.7408 H   0  0  0  0  0  0  0  0  0  0  0  0  # atno 10167 bound_to 10162
  156.7528  130.5245  149.5800 H   0  0  0  0  0  0  0  0  0  0  0  0  # atno 10718 bound_to 10713
  154.8095  135.4662  154.0480 H   0  0  0  0  0  0  0  0  0  0  0  0  # atno 10763 bound_to 10752
  153.1922  135.6857  153.8345 H   0  0  0  0  0  0  0  0  0  0  0  0  # atno 10764 bound_to 10752
  153.7859  135.3250  155.3349 H   0  0  0  0  0  0  0  0  0  0  0  0  # atno 10765 bound_to 10752
  140.5352  134.5577  157.5085 H   0  0  0  0  0  0  0  0  0  0  0  0  # atno 11005 bound_to 11000
  145.0411  139.3259  143.5976 LP  0  0  0  0  0  0  0  0  0  0  0  0  # atno 17320 bound_to 7965
  146.3492  139.9784  142.8698 LP  0  0  0  0  0  0  0  0  0  0  0  0  # atno 17321 bound_to 7965
  140.1435  143.4420  152.2178 LP  0  0  0  0  0  0  0  0  0  0  0  0  # atno 17342 bound_to 10162
  139.5605  144.7402  151.4169 LP  0  0  0  0  0  0  0  0  0  0  0  0  # atno 17343 bound_to 10162
  156.1390  130.6231  151.0440 LP  0  0  0  0  0  0  0  0  0  0  0  0  # atno 17370 bound_to 10713
  157.6769  131.0848  150.7470 LP  0  0  0  0  0  0  0  0  0  0  0  0  # atno 17371 bound_to 10713
  139.9533  134.7579  156.0398 LP  0  0  0  0  0  0  0  0  0  0  0  0  # atno 17394 bound_to 11000
  141.1259  133.6599  156.3335 LP  0  0  0  0  0  0  0  0  0  0  0  0  # atno 17395 bound_to 11000

$$$$
