AV-unprocessed.smi:1978|AV-procd|sdf|8003|dock7
  -GOLD-   2272010193D 1   1.00000     0.00000
 Structure written by MMmdl.
 44 45  0  0  0  0  0  0  0  0  3 V2000
  146.7798  136.3418  163.1276 C   0  0  0  0  0  0  0  0  0  0  0  0
  147.3401  136.1237  161.7636 C   0  0  0  0  0  0  0  0  0  0  0  0
  147.7458  135.0030  161.0962 C   0  0  0  0  0  0  0  0  0  0  0  0
  148.1751  135.5108  159.8394 C   0  0  0  0  0  0  0  0  0  0  0  0
  148.6548  134.7879  158.8155 N   0  5  0  0  0  0  0  0  0  0  0  0
  148.7694  135.3397  157.5860 C   0  0  0  0  0  0  0  0  0  0  0  0
  149.6832  136.0683  157.1927 O   0  0  0  0  0  0  0  0  0  0  0  0
  147.7581  135.0280  156.7639 N   0  0  0  0  0  0  0  0  0  0  0  0
  147.5853  135.5016  155.3939 C   0  0  0  0  0  0  0  0  0  0  0  0
  147.0015  134.3919  154.4905 C   0  0  1  0  0  0  0  0  0  0  0  0
  145.8598  133.6097  155.1767 C   0  0  0  0  0  0  0  0  0  0  0  0
  146.6118  134.9231  153.1429 N   0  3  2  0  0  0  0  0  0  0  0  0
  145.6936  136.0998  153.1994 C   0  0  0  0  0  0  0  0  0  0  0  0
  145.5459  136.7664  151.8242 C   0  0  0  0  0  0  0  0  0  0  0  0
  145.0350  135.7603  150.7913 C   0  0  0  0  0  0  0  0  0  0  0  0
  145.9627  134.5419  150.7585 C   0  0  0  0  0  0  0  0  0  0  0  0
  146.1246  133.9014  152.1550 C   0  0  1  0  0  0  0  0  0  0  0  0
  147.0396  132.6656  152.0328 C   0  0  0  0  0  0  0  0  0  0  0  0
  148.0286  136.8218  159.7471 N   0  0  0  0  0  0  0  0  0  0  0  0
  147.4986  137.2235  160.9792 O   0  0  0  0  0  0  0  0  0  0  0  0
  145.7892  135.8950  163.2123 H   0  0  0  0  0  0  0  0  0  0  0  0
  146.6913  137.4051  163.3520 H   0  0  0  0  0  0  0  0  0  0  0  0
  147.4212  135.8901  163.8843 H   0  0  0  0  0  0  0  0  0  0  0  0
  147.7408  133.9833  161.4505 H   0  0  0  0  0  0  0  0  0  0  0  0
  147.0386  134.4231  157.1325 H   0  0  0  0  0  0  0  0  0  0  0  0
  146.9377  136.3774  155.3944 H   0  0  0  0  0  0  0  0  0  0  0  0
  148.5571  135.8240  155.0181 H   0  0  0  0  0  0  0  0  0  0  0  0
  147.8305  133.7008  154.3575 H   0  0  0  0  0  0  0  0  0  0  0  0
  146.2089  133.1208  156.0865 H   0  0  0  0  0  0  0  0  0  0  0  0
  145.4617  132.8252  154.5337 H   0  0  0  0  0  0  0  0  0  0  0  0
  145.0352  134.2631  155.4617 H   0  0  0  0  0  0  0  0  0  0  0  0
  144.7122  135.7884  153.5590 H   0  0  0  0  0  0  0  0  0  0  0  0
  146.0557  136.8530  153.8956 H   0  0  0  0  0  0  0  0  0  0  0  0
  144.8592  137.6109  151.8909 H   0  0  0  0  0  0  0  0  0  0  0  0
  146.5070  137.1717  151.5047 H   0  0  0  0  0  0  0  0  0  0  0  0
  144.0208  135.4487  151.0451 H   0  0  0  0  0  0  0  0  0  0  0  0
  144.9838  136.2233  149.8053 H   0  0  0  0  0  0  0  0  0  0  0  0
  145.5664  133.8104  150.0530 H   0  0  0  0  0  0  0  0  0  0  0  0
  146.9394  134.8402  150.3745 H   0  0  0  0  0  0  0  0  0  0  0  0
  145.1418  133.5560  152.4783 H   0  0  0  0  0  0  0  0  0  0  0  0
  146.7339  132.0364  151.1965 H   0  0  0  0  0  0  0  0  0  0  0  0
  146.9942  132.0318  152.9181 H   0  0  0  0  0  0  0  0  0  0  0  0
  148.0783  132.9523  151.8647 H   0  0  0  0  0  0  0  0  0  0  0  0
  147.4749  135.2721  152.7511 H   0  0  0  0  0  0  0  0  0  0  0  0
  1  2  1  0  0  0  0
  1 21  1  0  0  0  0
  1 22  1  0  0  0  0
  1 23  1  0  0  0  0
  2 20  1  0  0  0  0
  2  3  2  0  0  0  0
  3  4  1  0  0  0  0
  3 24  1  0  0  0  0
  4  5  1  0  0  0  0
  4 19  2  0  0  0  0
  5  6  1  0  0  0  0
  6  7  2  0  0  0  0
  6  8  1  0  0  0  0
  8  9  1  0  0  0  0
  8 25  1  0  0  0  0
  9 10  1  0  0  0  0
  9 26  1  0  0  0  0
  9 27  1  0  0  0  0
 10 11  1  0  0  0  0
 10 12  1  0  0  0  0
 10 28  1  0  0  0  0
 11 29  1  0  0  0  0
 11 30  1  0  0  0  0
 11 31  1  0  0  0  0
 12 17  1  0  0  0  0
 12 13  1  0  0  0  0
 12 44  1  0  0  0  0
 13 14  1  0  0  0  0
 13 32  1  0  0  0  0
 13 33  1  0  0  0  0
 14 15  1  0  0  0  0
 14 34  1  0  0  0  0
 14 35  1  0  0  0  0
 15 16  1  0  0  0  0
 15 36  1  0  0  0  0
 15 37  1  0  0  0  0
 16 17  1  0  0  0  0
 16 38  1  0  0  0  0
 16 39  1  0  0  0  0
 17 18  1  0  0  0  0
 17 40  1  0  0  0  0
 18 41  1  0  0  0  0
 18 42  1  0  0  0  0
 18 43  1  0  0  0  0
 19 20  1  0  0  0  0
M  CHG  1   5  -1
M  CHG  1  12   1
M  END
> <s_m_source_file>
AV-unprocessed.smi

> <i_m_source_file_index>
1978

> <i_lp_mmshare_version>
43012

> <i_f3d_flags>
0

> <s_epik_input>
W0NIM11jMVtjSF1jKG5vMSlbTkhdQyg9TylbTkhdW0NIMl1bQ0BIXShbQ0gzXSlOMltDSDJdW0NIMl1bQ0gyXVtDSDJdW0NASF0yW0NIM10=

> <s_epik_cmdline>
J2VwaWtfcHl0aG9uJywgJy1waCcsICc3LjAnLCAnLXRuJywgJzgnLCAnLW1hJywgJzIwMCcsICctbWV0YWxfYmluZGluZycsICctaW1hZScsICc8aW5maWxlLm1hZT4nLCAnLW9tYWUnLCAnPG91dGZpbGUubWFlPic=

> <r_epik_Ionization_Penalty>
6.22372

> <r_epik_Ionization_Penalty_Charging>
6.22362

> <r_epik_Ionization_Penalty_Neutral>
9.65074e-05

> <r_epik_State_Penalty>
6.22363

> <r_epik_Charging_Adjusted_Penalty>
12.4472

> <i_epik_Tot_Q>
0

> <i_epik_Tot_abs_Q>
2

> <r_epik_Metal_State_Penalty>
2.16675

> <b_epik_Metal_Only>
1

> <s_lp_Force_Field>
OPLS_2005

> <r_lp_Energy>
13.2836

> <b_lp_Chiralities_Consistent>
1

> <s_lp_Variant>
AV-unprocessed.smi:1978-12

> <Gold.Version>
5.8.1

> <Gold.Id.Protein>
6NUR|6NUR_protein|mol2

> <Gold.PLP.Fitness>
41.9038

> <Gold.PLP.PLP>
-26.6115

> <Gold.PLP.part.hbond>
-4.0000

> <Gold.PLP.part.metal>
0.0000

> <Gold.PLP.part.buried>
-2.2299

> <Gold.PLP.part.nonpolar>
-19.7928

> <Gold.PLP.part.repulsive>
0.0048

> <Gold.PLP.ligand.clash>
0.0000

> <Gold.PLP.ligand.torsion>
1.0901

> <Gold.PLP.Chemscore.Hbond>
5.7760

> <Gold.PLP.Chemscore.CHOScore>
0.0000

> <Gold.PLP.Chemscore.Metal>
0.0000

> <Gold.Chemscore.Hbonds>
donor molecule, donor type, donor heavy atom, donor atom, acceptor molecule, acceptor atom, score
      L1  H    12    44       P1  7948  2.00
      P1  H  6896  6907       L1     5  1.56
      P1  H  6931  6943       L1    20  0.77
      P1  H  6934  6947       L1    20  0.99

> <Gold.PLP.Chemscore.Internal.Correction>
0.1446

> <Gold.Rescore>
     Score         DG    S(hbond)    S(metal)    S(lipo)     H(rot)  DE(clash)    DE(int)     intcor
     15.43     -16.79       2.32        0.00      63.81       1.52       0.29       1.07       ----

> <Gold.Chemscore.Fitness>
15.4284

> <Gold.Chemscore.DG>
-16.7931

> <Gold.Chemscore.ZeroCoef>
-5.4800

> <Gold.Chemscore.Hbond>
2.3160

> <Gold.Chemscore.Metal>
0.0000

> <Gold.Chemscore.Lipo>
63.8143

> <Gold.Chemscore.Internal_Hbond>
0.0000

> <Gold.Chemscore.DEClash>
0.2945

> <Gold.Chemscore.DEInternal>
1.0703

> <Gold.Chemscore.Rot>
1.5190

> <Gold.Chemscore.Internal.Correction>
   9.000000E+99

> <Gold.Chemscore.Hbonds>
donor molecule, donor type, donor heavy atom, donor atom, acceptor molecule, acceptor atom, score
      L1  H    12    44       P1  7948  0.99
      P1  H  6896  6907       L1     5  0.15
      P1  H  6931  6943       L1    20  0.16
      P1  H  6934  6947       L1    20  0.66

> <Gold.Chemscore.Hbond.Weighted>
-7.7355

> <Gold.Chemscore.Metal.Weighted>
-0.0000

> <Gold.Chemscore.Lipo.Weighted>
-7.4663

> <Gold.Chemscore.Internal_Hbond.Weighted>
0.0000

> <Gold.Chemscore.DEClash.Weighted>
0.2945

> <Gold.Chemscore.DEInternal.Weighted>
1.0703

> <Gold.Chemscore.Rot.Weighted>
3.8886

> <Gold.Chemscore.Internal.Correction.Weighted>
   9.000000E+99

> <Gold.Protein.RotatedTorsions>
[ 6907 6896 6895 6894 ] final  -83.81 input  -60.11 | X-H torsion
[ 7974 7965 7964 7962 ] final   43.53 input  175.53 | X-H torsion
[ 8008 7997 7996 7995 ] final  149.55 input   59.86 | X-H torsion
[ 10167 10162 10161 10158 ] final  119.06 input  -65.29 | X-H torsion
[ 10718 10713 10712 10709 ] final -174.51 input   66.30 | X-H torsion
[ 10763 10752 10751 10750 ] final  -87.16 input  -60.55 | X-H torsion
[ 11005 11000 10999 10996 ] final  -42.27 input  -57.11 | X-H torsion

> <Gold.Protein.ActiveResidues>
 VAL166  LYS551  ARG553  GLY616  TRP617  ASP618  TYR619  PRO620  LYS621  CYS622 
 ASP623  PHE694  ASN695  SER759  ASP760  ASP761  ALA762  ILE779  LEU786  VAL792 
 PHE793  MET794  SER795  GLU796  ALA797  LYS798  CYS799  TRP800  GLU811  SER814 

> <Gold.Protein.RotatedAtoms>
  150.6882  134.3454  159.4885 H   0  0  0  0  0  0  0  0  0  0  0  0  # atno 6907 bound_to 6896
  152.1302  134.9138  160.0568 H   0  0  0  0  0  0  0  0  0  0  0  0  # atno 6908 bound_to 6896
  152.0310  133.3903  159.4334 H   0  0  0  0  0  0  0  0  0  0  0  0  # atno 6909 bound_to 6896
  146.0648  139.5177  142.9635 H   0  0  0  0  0  0  0  0  0  0  0  0  # atno 7974 bound_to 7965
  156.2751  140.2099  156.5875 H   0  0  0  0  0  0  0  0  0  0  0  0  # atno 8008 bound_to 7997
  154.7009  140.0521  157.0480 H   0  0  0  0  0  0  0  0  0  0  0  0  # atno 8009 bound_to 7997
  155.0736  140.3179  155.4625 H   0  0  0  0  0  0  0  0  0  0  0  0  # atno 8010 bound_to 7997
  139.6071  144.7072  151.2929 H   0  0  0  0  0  0  0  0  0  0  0  0  # atno 10167 bound_to 10162
  156.7861  130.9501  151.3120 H   0  0  0  0  0  0  0  0  0  0  0  0  # atno 10718 bound_to 10713
  154.6305  135.5423  153.7675 H   0  0  0  0  0  0  0  0  0  0  0  0  # atno 10763 bound_to 10752
  153.0282  135.6435  154.1308 H   0  0  0  0  0  0  0  0  0  0  0  0  # atno 10764 bound_to 10752
  154.1238  135.2918  155.3182 H   0  0  0  0  0  0  0  0  0  0  0  0  # atno 10765 bound_to 10752
  141.0304  133.6822  156.2571 H   0  0  0  0  0  0  0  0  0  0  0  0  # atno 11005 bound_to 11000
  145.6497  141.0266  143.1767 LP  0  0  0  0  0  0  0  0  0  0  0  0  # atno 17320 bound_to 7965
  144.7196  139.8077  143.7387 LP  0  0  0  0  0  0  0  0  0  0  0  0  # atno 17321 bound_to 7965
  140.7292  143.6913  150.7920 LP  0  0  0  0  0  0  0  0  0  0  0  0  # atno 17342 bound_to 10162
  140.0501  143.5258  152.2678 LP  0  0  0  0  0  0  0  0  0  0  0  0  # atno 17343 bound_to 10162
  157.6623  130.8977  149.9856 LP  0  0  0  0  0  0  0  0  0  0  0  0  # atno 17370 bound_to 10713
  156.1188  130.3647  149.9923 LP  0  0  0  0  0  0  0  0  0  0  0  0  # atno 17371 bound_to 10713
  140.6417  134.5159  157.5570 LP  0  0  0  0  0  0  0  0  0  0  0  0  # atno 17394 bound_to 11000
  139.9204  134.8161  156.1230 LP  0  0  0  0  0  0  0  0  0  0  0  0  # atno 17395 bound_to 11000

$$$$
