AV-unprocessed.smi:2355|AV-procd|sdf|9391|dock4
  -GOLD-   2272013 23D 1   1.00000     0.00000
 Structure written by MMmdl.
 49 50  0  0  0  0  0  0  0  0  2 V2000
  154.2496  141.2304  160.9230 C   0  0  0  0  0  0  0  0  0  0  0  0
  153.2728  141.8523  159.9474 C   0  0  0  0  0  0  0  0  0  0  0  0
  153.1728  143.2507  159.8178 C   0  0  0  0  0  0  0  0  0  0  0  0
  152.2446  143.7680  158.8933 C   0  0  0  0  0  0  0  0  0  0  0  0
  152.0821  145.2616  158.7067 C   0  0  0  0  0  0  0  0  0  0  0  0
  151.4496  142.9863  158.1315 N   0  0  0  0  0  0  0  0  0  0  0  0
  151.5369  141.6381  158.2478 C   0  0  0  0  0  0  0  0  0  0  0  0
  150.7460  140.7304  157.4938 N   0  0  0  0  0  0  0  0  0  0  0  0
  151.1159  139.5523  156.9613 C   0  0  0  0  0  0  0  0  0  0  0  0
  152.2395  139.0544  157.0396 O   0  0  0  0  0  0  0  0  0  0  0  0
  150.0940  138.9636  156.3220 N   0  0  0  0  0  0  0  0  0  0  0  0
  150.1615  137.6744  155.6347 C   0  0  2  0  0  0  0  0  0  0  0  0
  151.0254  137.8332  154.3711 C   0  0  0  0  0  0  0  0  0  0  0  0
  148.7401  137.0974  155.3448 C   0  0  1  0  0  0  0  0  0  0  0  0
  147.8664  138.1103  154.5614 C   0  0  0  0  0  0  0  0  0  0  0  0
  148.8212  135.7455  154.6970 N   0  3  0  0  0  0  0  0  0  0  0  0
  149.8024  134.8456  155.3639 C   0  0  0  0  0  0  0  0  0  0  0  0
  149.9136  133.4989  154.6311 C   0  0  0  0  0  0  0  0  0  0  0  0
  148.6357  132.8839  154.5699 O   0  0  0  0  0  0  0  0  0  0  0  0
  147.7132  133.6774  153.8392 C   0  0  0  0  0  0  0  0  0  0  0  0
  147.5223  135.0340  154.5388 C   0  0  0  0  0  0  0  0  0  0  0  0
  152.4436  141.0375  159.1501 C   0  0  0  0  0  0  0  0  0  0  0  0
  154.7714  141.9932  161.5018 H   0  0  0  0  0  0  0  0  0  0  0  0
  154.9936  140.6399  160.3881 H   0  0  0  0  0  0  0  0  0  0  0  0
  153.7247  140.5753  161.6187 H   0  0  0  0  0  0  0  0  0  0  0  0
  153.7902  143.9094  160.4112 H   0  0  0  0  0  0  0  0  0  0  0  0
  152.8866  145.8103  159.1976 H   0  0  0  0  0  0  0  0  0  0  0  0
  151.1337  145.5929  159.1307 H   0  0  0  0  0  0  0  0  0  0  0  0
  152.0943  145.5189  157.6471 H   0  0  0  0  0  0  0  0  0  0  0  0
  149.7884  141.0118  157.3443 H   0  0  0  0  0  0  0  0  0  0  0  0
  149.2054  139.4426  156.3047 H   0  0  0  0  0  0  0  0  0  0  0  0
  150.7026  137.0051  156.3023 H   0  0  0  0  0  0  0  0  0  0  0  0
  151.1541  136.8831  153.8524 H   0  0  0  0  0  0  0  0  0  0  0  0
  152.0210  138.1982  154.6252 H   0  0  0  0  0  0  0  0  0  0  0  0
  150.5891  138.5421  153.6671 H   0  0  0  0  0  0  0  0  0  0  0  0
  148.2348  136.9506  156.3007 H   0  0  0  0  0  0  0  0  0  0  0  0
  147.8623  139.0927  155.0326 H   0  0  0  0  0  0  0  0  0  0  0  0
  146.8222  137.7998  154.5235 H   0  0  0  0  0  0  0  0  0  0  0  0
  148.2156  138.2405  153.5370 H   0  0  0  0  0  0  0  0  0  0  0  0
  150.7925  135.2951  155.3956 H   0  0  0  0  0  0  0  0  0  0  0  0
  149.4983  134.6770  156.3982 H   0  0  0  0  0  0  0  0  0  0  0  0
  150.3200  133.6315  153.6273 H   0  0  0  0  0  0  0  0  0  0  0  0
  150.5960  132.8375  155.1652 H   0  0  0  0  0  0  0  0  0  0  0  0
  148.0622  133.8129  152.8142 H   0  0  0  0  0  0  0  0  0  0  0  0
  146.7616  133.1484  153.7825 H   0  0  0  0  0  0  0  0  0  0  0  0
  147.0611  134.8890  155.5171 H   0  0  0  0  0  0  0  0  0  0  0  0
  146.8300  135.6171  153.9324 H   0  0  0  0  0  0  0  0  0  0  0  0
  152.5041  139.9618  159.2333 H   0  0  0  0  0  0  0  0  0  0  0  0
  149.1612  135.9047  153.7594 H   0  0  0  0  0  0  0  0  0  0  0  0
  1  2  1  0  0  0  0
  1 23  1  0  0  0  0
  1 24  1  0  0  0  0
  1 25  1  0  0  0  0
  2 22  1  0  0  0  0
  2  3  2  0  0  0  0
  3  4  1  0  0  0  0
  3 26  1  0  0  0  0
  4  5  1  0  0  0  0
  4  6  2  0  0  0  0
  5 27  1  0  0  0  0
  5 28  1  0  0  0  0
  5 29  1  0  0  0  0
  6  7  1  0  0  0  0
  7  8  1  0  0  0  0
  7 22  2  0  0  0  0
  8  9  1  0  0  0  0
  8 30  1  0  0  0  0
  9 10  2  0  0  0  0
  9 11  1  0  0  0  0
 11 12  1  0  0  0  0
 11 31  1  0  0  0  0
 12 13  1  0  0  0  0
 12 14  1  0  0  0  0
 12 32  1  0  0  0  0
 13 33  1  0  0  0  0
 13 34  1  0  0  0  0
 13 35  1  0  0  0  0
 14 15  1  0  0  0  0
 14 16  1  0  0  0  0
 14 36  1  0  0  0  0
 15 37  1  0  0  0  0
 15 38  1  0  0  0  0
 15 39  1  0  0  0  0
 16 21  1  0  0  0  0
 16 17  1  0  0  0  0
 16 49  1  0  0  0  0
 17 18  1  0  0  0  0
 17 40  1  0  0  0  0
 17 41  1  0  0  0  0
 18 19  1  0  0  0  0
 18 42  1  0  0  0  0
 18 43  1  0  0  0  0
 19 20  1  0  0  0  0
 20 21  1  0  0  0  0
 20 44  1  0  0  0  0
 20 45  1  0  0  0  0
 21 46  1  0  0  0  0
 21 47  1  0  0  0  0
 22 48  1  0  0  0  0
M  CHG  1  16   1
M  END
> <s_m_source_file>
AV-unprocessed.smi

> <i_m_source_file_index>
2355

> <i_lp_mmshare_version>
43012

> <i_f3d_flags>
0

> <s_epik_input>
W0NIM11jMVtjSF1jKFtDSDNdKW5jKFtjSF0xKVtOSF1DKD1PKVtOSF1bQ0BIXShbQ0gzXSlbQ0BIXShbQ0gzXSlOMltDSDJdW0NIMl1PW0NIMl1bQ0gyXTI=

> <s_epik_cmdline>
J2VwaWtfcHl0aG9uJywgJy1waCcsICc3LjAnLCAnLXRuJywgJzgnLCAnLW1hJywgJzIwMCcsICctbWV0YWxfYmluZGluZycsICctaW1hZScsICc8aW5maWxlLm1hZT4nLCAnLW9tYWUnLCAnPG91dGZpbGUubWFlPic=

> <r_epik_Ionization_Penalty>
0.602711

> <r_epik_Ionization_Penalty_Charging>
0.602531

> <r_epik_Ionization_Penalty_Neutral>
0.000180055

> <r_epik_State_Penalty>
0.617039

> <r_epik_Charging_Adjusted_Penalty>
1.21957

> <i_epik_Tot_Q>
1

> <i_epik_Tot_abs_Q>
1

> <r_epik_Metal_State_Penalty>
0.617075

> <b_epik_Metal_Only>
0

> <s_lp_Force_Field>
OPLS_2005

> <r_lp_Energy>
24.3328

> <b_lp_Chiralities_Consistent>
1

> <s_lp_Variant>
AV-unprocessed.smi:2355-7

> <Gold.Version>
5.8.1

> <Gold.Id.Protein>
6NUR|6NUR_protein|mol2

> <Gold.PLP.Fitness>
43.3406

> <Gold.PLP.PLP>
-38.3156

> <Gold.PLP.part.hbond>
-1.0000

> <Gold.PLP.part.metal>
0.0000

> <Gold.PLP.part.buried>
-5.0473

> <Gold.PLP.part.nonpolar>
-32.4440

> <Gold.PLP.part.repulsive>
0.1803

> <Gold.PLP.ligand.clash>
0.0000

> <Gold.PLP.ligand.torsion>
0.5443

> <Gold.PLP.Chemscore.Hbond>
2.0000

> <Gold.PLP.Chemscore.CHOScore>
0.0000

> <Gold.PLP.Chemscore.Metal>
0.0000

> <Gold.Chemscore.Hbonds>
donor molecule, donor type, donor heavy atom, donor atom, acceptor molecule, acceptor atom, score
      L1  H    16    49       P1  7948  2.00

> <Gold.PLP.Chemscore.Internal.Correction>
0.1136

> <Gold.Rescore>
     Score         DG    S(hbond)    S(metal)    S(lipo)     H(rot)  DE(clash)    DE(int)     intcor
     15.29     -17.09       0.99        0.00     102.50       1.45       0.03       1.77       ----

> <Gold.Chemscore.Fitness>
15.2901

> <Gold.Chemscore.DG>
-17.0910

> <Gold.Chemscore.ZeroCoef>
-5.4800

> <Gold.Chemscore.Hbond>
0.9941

> <Gold.Chemscore.Metal>
0.0000

> <Gold.Chemscore.Lipo>
102.5038

> <Gold.Chemscore.Internal_Hbond>
0.0000

> <Gold.Chemscore.DEClash>
0.0328

> <Gold.Chemscore.DEInternal>
1.7681

> <Gold.Chemscore.Rot>
1.4462

> <Gold.Chemscore.Internal.Correction>
   9.000000E+99

> <Gold.Chemscore.Hbonds>
donor molecule, donor type, donor heavy atom, donor atom, acceptor molecule, acceptor atom, score
      L1  H    16    49       P1  7948  0.84

> <Gold.Chemscore.Hbond.Weighted>
-3.3203

> <Gold.Chemscore.Metal.Weighted>
-0.0000

> <Gold.Chemscore.Lipo.Weighted>
-11.9929

> <Gold.Chemscore.Internal_Hbond.Weighted>
0.0000

> <Gold.Chemscore.DEClash.Weighted>
0.0328

> <Gold.Chemscore.DEInternal.Weighted>
1.7681

> <Gold.Chemscore.Rot.Weighted>
3.7023

> <Gold.Chemscore.Internal.Correction.Weighted>
   9.000000E+99

> <Gold.Protein.RotatedTorsions>
[ 6907 6896 6895 6894 ] final   47.79 input  -60.11 | X-H torsion
[ 7974 7965 7964 7962 ] final    2.46 input  175.53 | X-H torsion
[ 8008 7997 7996 7995 ] final -109.78 input   59.86 | X-H torsion
[ 10167 10162 10161 10158 ] final -131.97 input  -65.29 | X-H torsion
[ 10718 10713 10712 10709 ] final -167.76 input   66.30 | X-H torsion
[ 10763 10752 10751 10750 ] final  179.27 input  -60.55 | X-H torsion
[ 11005 11000 10999 10996 ] final   24.22 input  -57.11 | X-H torsion

> <Gold.Protein.ActiveResidues>
 VAL166  LYS551  ARG553  GLY616  TRP617  ASP618  TYR619  PRO620  LYS621  CYS622 
 ASP623  PHE694  ASN695  SER759  ASP760  ASP761  ALA762  ILE779  LEU786  VAL792 
 PHE793  MET794  SER795  GLU796  ALA797  LYS798  CYS799  TRP800  GLU811  SER814 

> <Gold.Protein.RotatedAtoms>
  152.2721  134.7921  160.0411 H   0  0  0  0  0  0  0  0  0  0  0  0  # atno 6907 bound_to 6896
  151.8530  133.3438  159.3687 H   0  0  0  0  0  0  0  0  0  0  0  0  # atno 6908 bound_to 6896
  150.7156  134.5209  159.5697 H   0  0  0  0  0  0  0  0  0  0  0  0  # atno 6909 bound_to 6896
  146.2444  140.0832  142.8356 H   0  0  0  0  0  0  0  0  0  0  0  0  # atno 7974 bound_to 7965
  154.9645  140.0398  157.2205 H   0  0  0  0  0  0  0  0  0  0  0  0  # atno 8008 bound_to 7997
  154.7858  140.2827  155.6007 H   0  0  0  0  0  0  0  0  0  0  0  0  # atno 8009 bound_to 7997
  156.2943  140.2583  156.2694 H   0  0  0  0  0  0  0  0  0  0  0  0  # atno 8010 bound_to 7997
  139.9134  143.6467  152.2570 H   0  0  0  0  0  0  0  0  0  0  0  0  # atno 10167 bound_to 10162
  156.6871  130.9145  151.3064 H   0  0  0  0  0  0  0  0  0  0  0  0  # atno 10718 bound_to 10713
  154.5185  135.2792  155.1283 H   0  0  0  0  0  0  0  0  0  0  0  0  # atno 10763 bound_to 10752
  154.2850  135.6278  153.5366 H   0  0  0  0  0  0  0  0  0  0  0  0  # atno 10764 bound_to 10752
  152.9932  135.5660  154.5668 H   0  0  0  0  0  0  0  0  0  0  0  0  # atno 10765 bound_to 10752
  140.3611  134.2124  155.7672 H   0  0  0  0  0  0  0  0  0  0  0  0  # atno 11005 bound_to 11000
  145.0715  140.9158  143.4879 LP  0  0  0  0  0  0  0  0  0  0  0  0  # atno 17320 bound_to 7965
  145.0967  139.2851  143.5707 LP  0  0  0  0  0  0  0  0  0  0  0  0  # atno 17321 bound_to 7965
  139.6923  144.7645  151.1417 LP  0  0  0  0  0  0  0  0  0  0  0  0  # atno 17342 bound_to 10162
  140.7680  143.5572  150.9139 LP  0  0  0  0  0  0  0  0  0  0  0  0  # atno 17343 bound_to 10162
  157.7022  130.9346  150.0821 LP  0  0  0  0  0  0  0  0  0  0  0  0  # atno 17370 bound_to 10713
  156.1825  130.3650  149.9017 LP  0  0  0  0  0  0  0  0  0  0  0  0  # atno 17371 bound_to 10713
  141.1984  133.8037  157.0585 LP  0  0  0  0  0  0  0  0  0  0  0  0  # atno 17394 bound_to 11000
  140.0626  134.9746  157.1331 LP  0  0  0  0  0  0  0  0  0  0  0  0  # atno 17395 bound_to 11000

$$$$
