#       Name:                AV-unprocessed.smi:2107
#       Creating user name   scv26
#       Creation time:       Fri Mar 27 11:33:58 2020


#       File generated by GOLD software.
#

@<TRIPOS>MOLECULE
AV-unprocessed.smi:2107
    50    51     1
SMALL
NO_CHARGES


@<TRIPOS>ATOM
      1 ****        -3.7211   1.8246   2.2591 C.3            1 S1                 0.0000
      2 ****        -2.7551   2.8287   1.6069 C.3            1 S1                 0.0000
      3 ****        -1.6567   2.1715   0.8728 N.pl3          1 S1                 0.0000
      4 ****        -1.8226   2.0689  -0.5918 C.3            1 S1                 0.0000
      5 ****        -2.9306   1.0910  -1.0083 C.3            1 S1                 0.0000
      6 ****        -0.6567   1.0261   1.7122 S.o2           1 S1                 0.0000
      7 ****        -0.4514   1.4887   3.0932 O.2            1 S1                 0.0000
      8 ****        -1.1489  -0.3328   1.4394 O.2            1 S1                 0.0000
      9 ****         0.8228   1.2485   0.8566 N.pl3          1 S1                 0.0000
     10 ****         2.0547   0.5996   1.3054 C.3            1 S1                 0.0000
     11 ****         2.0061  -0.9251   1.2683 C.ar           1 S1                 0.0000
     12 ****         2.3230  -1.6388   2.4468 C.ar           1 S1                 0.0000
     13 ****         2.2604  -3.0457   2.4558 C.ar           1 S1                 0.0000
     14 ****         1.8797  -3.7180   1.2805 C.ar           1 S1                 0.0000
     15 ****         1.5853  -3.0098   0.1703 N.pl3          1 S1                 1.0000
     16 ****         1.6305  -1.6556   0.1064 C.ar           1 S1                 0.0000
     17 ****         1.3098  -1.0325  -1.1135 N.3            1 S1                 0.0000
     18 ****         2.4785  -0.6686  -1.9034 C.3            1 S1                 0.0000
     19 ****         2.0534   0.2071  -3.0940 C.3            1 S1                 0.0000
     20 ****         1.0692  -0.4791  -3.8621 O.3            1 S1                 0.0000
     21 ****        -0.1039  -0.7592  -3.1040 C.3            1 S1                 0.0000
     22 ****         0.2569  -1.6569  -1.9083 C.3            1 S1                 0.0000
     23 ****        -4.5447   2.3501   2.7425 H              1 S1                 0.0000
     24 ****        -3.2255   1.2299   3.0265 H              1 S1                 0.0000
     25 ****        -4.1539   1.1354   1.5357 H              1 S1                 0.0000
     26 ****        -3.3034   3.4933   0.9382 H              1 S1                 0.0000
     27 ****        -2.3225   3.4646   2.3796 H              1 S1                 0.0000
     28 ****        -2.0369   3.0585  -0.9968 H              1 S1                 0.0000
     29 ****        -0.8805   1.7631  -1.0434 H              1 S1                 0.0000
     30 ****        -2.9518   0.9811  -2.0927 H              1 S1                 0.0000
     31 ****        -3.9146   1.4471  -0.7053 H              1 S1                 0.0000
     32 ****        -2.7779   0.0995  -0.5832 H              1 S1                 0.0000
     33 ****         0.9315   2.1540   0.4000 H              1 S1                 0.0000
     34 ****         2.8773   0.9414   0.6784 H              1 S1                 0.0000
     35 ****         2.2784   0.9466   2.3147 H              1 S1                 0.0000
     36 ****         2.6062  -1.1131   3.3470 H              1 S1                 0.0000
     37 ****         2.4974  -3.5996   3.3523 H              1 S1                 0.0000
     38 ****         1.8022  -4.7922   1.1944 H              1 S1                 0.0000
     39 ****         3.2082  -0.1378  -1.2928 H              1 S1                 0.0000
     40 ****         2.9645  -1.5765  -2.2631 H              1 S1                 0.0000
     41 ****         1.6601   1.1657  -2.7510 H              1 S1                 0.0000
     42 ****         2.9133   0.4229  -3.7283 H              1 S1                 0.0000
     43 ****        -0.5622   0.1719  -2.7705 H              1 S1                 0.0000
     44 ****        -0.8310  -1.2593  -3.7437 H              1 S1                 0.0000
     45 ****         0.5933  -2.6292  -2.2711 H              1 S1                 0.0000
     46 ****        -0.6243  -1.8256  -1.2877 H              1 S1                 0.0000
     47 ****         1.3143  -3.5234  -0.6683 H              1 S1                 0.0000
     48 ****         0.8853  -0.1789  -0.8115 LP             1 S1                 0.0000
     49 ****         1.4571  -1.3419  -4.1862 LP             1 S1                 0.0000
     50 ****         0.8184   0.0889  -4.6460 LP             1 S1                 0.0000
@<TRIPOS>BOND
    1    1    2 1     
    2    1   23 1     
    3    1   24 1     
    4    1   25 1     
    5    2    3 1     
    6    2   26 1     
    7    2   27 1     
    8    3    4 1     
    9    3    6 1     
   10    4    5 1     
   11    4   28 1     
   12    4   29 1     
   13    5   30 1     
   14    5   31 1     
   15    5   32 1     
   16    6    7 2     
   17    6    8 2     
   18    6    9 1     
   19    9   10 1     
   20    9   33 1     
   21   10   11 1     
   22   10   34 1     
   23   10   35 1     
   24   11   16 ar    
   25   11   12 ar    
   26   12   13 ar    
   27   12   36 1     
   28   13   14 ar    
   29   13   37 1     
   30   14   15 ar    
   31   14   38 1     
   32   15   16 ar    
   33   15   47 1     
   34   16   17 1     
   35   17   22 1     
   36   17   18 1     
   37   18   19 1     
   38   18   39 1     
   39   18   40 1     
   40   19   20 1     
   41   19   41 1     
   42   19   42 1     
   43   20   21 1     
   44   21   22 1     
   45   21   43 1     
   46   21   44 1     
   47   22   45 1     
   48   22   46 1     
   49   17   48 1     
   50   20   49 1     
   51   20   50 1     
@<TRIPOS>SUBSTRUCTURE
      1 S1             1
@<TRIPOS>SET
LONE_PAIRS      STATIC     ATOMS    <user>   **** ""
5 7 8 48 49 50
DONOR_HYDROGENS      STATIC     ATOMS    <user>   **** ""
2 33 47
ATOM$BLUE        STATIC     ATOMS    COLORGROUP SYSTEM
5 7 8 48 49 50
ATOM$RED        STATIC     ATOMS    COLORGROUP SYSTEM
2 33 47
