AV-unprocessed.smi:1702|AV-procd|sdf|6849|dock7
  -GOLD-   22720 8 33D 1   1.00000     0.00000
 Structure written by MMmdl.
 45 47  0  0  0  0  0  0  0  0  3 V2000
  144.3539  135.7810  151.6923 C   0  0  0  0  0  0  0  0  0  0  0  0
  145.1615  136.3079  152.8868 C   0  0  2  0  0  0  0  0  0  0  0  0
  145.9848  137.5516  152.5128 C   0  0  0  0  0  0  0  0  0  0  0  0
  146.8122  138.0540  153.7078 C   0  0  0  0  0  0  0  0  0  0  0  0
  147.7045  136.9845  154.2293 N   0  3  1  0  0  0  0  0  0  0  0  0
  148.6163  137.4498  155.3064 C   0  0  0  0  0  0  0  0  0  0  0  0
  149.7600  138.3509  154.7876 C   0  0  2  0  0  0  0  0  0  0  0  0
  150.5922  137.5956  153.9308 O   0  0  0  0  0  0  0  0  0  0  0  0
  150.6569  138.9144  155.9082 C   0  0  0  0  0  0  0  0  0  0  0  0
  150.4687  140.3557  156.1302 N   0  0  0  0  0  0  0  0  0  0  0  0
  149.6859  141.2395  155.4525 C   0  0  0  0  0  0  0  0  0  0  0  0
  149.8593  142.4644  156.0216 N   0  3  0  0  0  0  0  0  0  0  0  0
  150.7705  142.3652  157.0749 C   0  0  0  0  0  0  0  0  0  0  0  0
  151.2649  143.3319  157.9448 C   0  0  0  0  0  0  0  0  0  0  0  0
  152.1913  142.8989  158.9159 C   0  0  0  0  0  0  0  0  0  0  0  0
  152.7043  143.7990  159.7877 F   0  0  0  0  0  0  0  0  0  0  0  0
  152.5917  141.5485  158.9963 C   0  0  0  0  0  0  0  0  0  0  0  0
  153.4814  141.1735  159.9457 F   0  0  0  0  0  0  0  0  0  0  0  0
  152.0834  140.5772  158.1088 C   0  0  0  0  0  0  0  0  0  0  0  0
  151.1689  141.0134  157.1502 C   0  0  0  0  0  0  0  0  0  0  0  0
  146.9308  135.7816  154.6322 C   0  0  0  0  0  0  0  0  0  0  0  0
  146.1011  135.2332  153.4589 C   0  0  0  0  0  0  0  0  0  0  0  0
  145.0068  135.4761  150.8738 H   0  0  0  0  0  0  0  0  0  0  0  0
  143.6757  136.5443  151.3100 H   0  0  0  0  0  0  0  0  0  0  0  0
  143.7511  134.9177  151.9760 H   0  0  0  0  0  0  0  0  0  0  0  0
  144.4526  136.5909  153.6667 H   0  0  0  0  0  0  0  0  0  0  0  0
  146.6509  137.3194  151.6805 H   0  0  0  0  0  0  0  0  0  0  0  0
  145.3233  138.3464  152.1653 H   0  0  0  0  0  0  0  0  0  0  0  0
  147.3947  138.9177  153.3904 H   0  0  0  0  0  0  0  0  0  0  0  0
  146.1490  138.3971  154.5034 H   0  0  0  0  0  0  0  0  0  0  0  0
  148.0235  137.9668  156.0617 H   0  0  0  0  0  0  0  0  0  0  0  0
  149.0619  136.5889  155.8074 H   0  0  0  0  0  0  0  0  0  0  0  0
  149.3623  139.1901  154.2178 H   0  0  0  0  0  0  0  0  0  0  0  0
  150.0689  137.2279  153.2351 H   0  0  0  0  0  0  0  0  0  0  0  0
  150.5032  138.3783  156.8448 H   0  0  0  0  0  0  0  0  0  0  0  0
  151.7067  138.7707  155.6486 H   0  0  0  0  0  0  0  0  0  0  0  0
  149.0456  141.0119  154.6120 H   0  0  0  0  0  0  0  0  0  0  0  0
  150.9612  144.3670  157.8867 H   0  0  0  0  0  0  0  0  0  0  0  0
  152.4009  139.5481  158.1840 H   0  0  0  0  0  0  0  0  0  0  0  0
  147.6124  135.0034  154.9780 H   0  0  0  0  0  0  0  0  0  0  0  0
  146.2795  136.0289  155.4720 H   0  0  0  0  0  0  0  0  0  0  0  0
  145.5229  134.3703  153.7914 H   0  0  0  0  0  0  0  0  0  0  0  0
  146.7714  134.8722  152.6773 H   0  0  0  0  0  0  0  0  0  0  0  0
  148.2938  136.6908  153.4636 H   0  0  0  0  0  0  0  0  0  0  0  0
  149.3937  143.3065  155.7068 H   0  0  0  0  0  0  0  0  0  0  0  0
  1  2  1  0  0  0  0
  1 23  1  0  0  0  0
  1 24  1  0  0  0  0
  1 25  1  0  0  0  0
  2 22  1  0  0  0  0
  2  3  1  0  0  0  0
  2 26  1  0  0  0  0
  3  4  1  0  0  0  0
  3 27  1  0  0  0  0
  3 28  1  0  0  0  0
  4  5  1  0  0  0  0
  4 29  1  0  0  0  0
  4 30  1  0  0  0  0
  5  6  1  0  0  0  0
  5 21  1  0  0  0  0
  5 44  1  0  0  0  0
  6  7  1  0  0  0  0
  6 31  1  0  0  0  0
  6 32  1  0  0  0  0
  7  8  1  0  0  0  0
  7  9  1  0  0  0  0
  7 33  1  0  0  0  0
  8 34  1  0  0  0  0
  9 10  1  0  0  0  0
  9 35  1  0  0  0  0
  9 36  1  0  0  0  0
 10 20  1  0  0  0  0
 10 11  1  0  0  0  0
 11 12  2  0  0  0  0
 11 37  1  0  0  0  0
 12 13  1  0  0  0  0
 12 45  1  0  0  0  0
 13 20  2  0  0  0  0
 13 14  1  0  0  0  0
 14 15  2  0  0  0  0
 14 38  1  0  0  0  0
 15 16  1  0  0  0  0
 15 17  1  0  0  0  0
 17 18  1  0  0  0  0
 17 19  2  0  0  0  0
 19 20  1  0  0  0  0
 19 39  1  0  0  0  0
 21 22  1  0  0  0  0
 21 40  1  0  0  0  0
 21 41  1  0  0  0  0
 22 42  1  0  0  0  0
 22 43  1  0  0  0  0
M  CHG  1   5   1
M  CHG  1  12   1
M  END
> <s_m_source_file>
AV-unprocessed.smi

> <i_m_source_file_index>
1702

> <i_lp_mmshare_version>
43012

> <i_f3d_flags>
0

> <s_epik_input>
W0NIM11bQ0hdMVtDSDJdW0NIMl1OKFtDSDJdW0NIMl0xKVtDSDJdW0NASF0oW09IXSlbQ0gyXW4oW2NIXW4yKWMoYzIzKVtjSF1jKEYpYyhGKVtjSF0z

> <s_epik_cmdline>
J2VwaWtfcHl0aG9uJywgJy1waCcsICc3LjAnLCAnLXRuJywgJzgnLCAnLW1hJywgJzIwMCcsICctbWV0YWxfYmluZGluZycsICctaW1hZScsICc8aW5maWxlLm1hZT4nLCAnLW9tYWUnLCAnPG91dGZpbGUubWFlPic=

> <r_epik_Ionization_Penalty>
2.33291

> <r_epik_Ionization_Penalty_Charging>
2.33291

> <r_epik_Ionization_Penalty_Neutral>
6.90208e-07

> <r_epik_State_Penalty>
2.4838

> <r_epik_Charging_Adjusted_Penalty>
4.81672

> <i_epik_Tot_Q>
2

> <i_epik_Tot_abs_Q>
2

> <r_epik_Metal_State_Penalty>
6.56754

> <b_epik_Metal_Only>
0

> <s_lp_Force_Field>
OPLS_2005

> <r_lp_Energy>
33.9441

> <b_lp_Chiralities_Consistent>
1

> <s_lp_Variant>
AV-unprocessed.smi:1702-5

> <Gold.Version>
5.8.1

> <Gold.Id.Protein>
6NUR|6NUR_protein|mol2

> <Gold.PLP.Fitness>
53.1184

> <Gold.PLP.PLP>
-40.0692

> <Gold.PLP.part.hbond>
-3.8808

> <Gold.PLP.part.metal>
0.0000

> <Gold.PLP.part.buried>
-5.1076

> <Gold.PLP.part.nonpolar>
-33.6986

> <Gold.PLP.part.repulsive>
0.1560

> <Gold.PLP.ligand.clash>
0.0000

> <Gold.PLP.ligand.torsion>
0.8427

> <Gold.PLP.Chemscore.Hbond>
4.9000

> <Gold.PLP.Chemscore.CHOScore>
0.0000

> <Gold.PLP.Chemscore.Metal>
0.0000

> <Gold.Chemscore.Hbonds>
donor molecule, donor type, donor heavy atom, donor atom, acceptor molecule, acceptor atom, score
      L1  H     5    44       P1  7948  2.00
      L1  H     8    34       P1  7948  0.90
      L1  H    12    45       P1  8028  1.85

> <Gold.PLP.Chemscore.Internal.Correction>
0.0347

> <Gold.Rescore>
     Score         DG    S(hbond)    S(metal)    S(lipo)     H(rot)  DE(clash)    DE(int)     intcor
     16.47     -17.22       2.42        0.00      82.11       2.32       0.00       0.75       ----

> <Gold.Chemscore.Fitness>
16.4742

> <Gold.Chemscore.DG>
-17.2215

> <Gold.Chemscore.ZeroCoef>
-5.4800

> <Gold.Chemscore.Hbond>
2.4181

> <Gold.Chemscore.Metal>
0.0000

> <Gold.Chemscore.Lipo>
82.1075

> <Gold.Chemscore.Internal_Hbond>
0.0000

> <Gold.Chemscore.DEClash>
0.0000

> <Gold.Chemscore.DEInternal>
0.7472

> <Gold.Chemscore.Rot>
2.3210

> <Gold.Chemscore.Internal.Correction>
   9.000000E+99

> <Gold.Chemscore.Hbonds>
donor molecule, donor type, donor heavy atom, donor atom, acceptor molecule, acceptor atom, score
      L1  H     5    44       P1  7948  1.00
      L1  H     8    34       P1  7948  0.17
      L1  H    12    45       P1  8028  0.88

> <Gold.Chemscore.Hbond.Weighted>
-8.0765

> <Gold.Chemscore.Metal.Weighted>
-0.0000

> <Gold.Chemscore.Lipo.Weighted>
-9.6066

> <Gold.Chemscore.Internal_Hbond.Weighted>
0.0000

> <Gold.Chemscore.DEClash.Weighted>
0.0000

> <Gold.Chemscore.DEInternal.Weighted>
0.7472

> <Gold.Chemscore.Rot.Weighted>
5.9416

> <Gold.Chemscore.Internal.Correction.Weighted>
   9.000000E+99

> <Gold.Protein.RotatedTorsions>
[ 6907 6896 6895 6894 ] final  135.99 input  -60.11 | X-H torsion
[ 7974 7965 7964 7962 ] final   48.30 input  175.53 | X-H torsion
[ 8008 7997 7996 7995 ] final  103.19 input   59.86 | X-H torsion
[ 10167 10162 10161 10158 ] final  -57.31 input  -65.29 | X-H torsion
[ 10718 10713 10712 10709 ] final   57.03 input   66.30 | X-H torsion
[ 10763 10752 10751 10750 ] final   25.11 input  -60.55 | X-H torsion
[ 11005 11000 10999 10996 ] final   -9.89 input  -57.11 | X-H torsion

> <Gold.Protein.ActiveResidues>
 VAL166  LYS551  ARG553  GLY616  TRP617  ASP618  TYR619  PRO620  LYS621  CYS622 
 ASP623  PHE694  ASN695  SER759  ASP760  ASP761  ALA762  ILE779  LEU786  VAL792 
 PHE793  MET794  SER795  GLU796  ALA797  LYS798  CYS799  TRP800  GLU811  SER814 

> <Gold.Protein.RotatedAtoms>
  152.2943  133.5592  159.5577 H   0  0  0  0  0  0  0  0  0  0  0  0  # atno 6907 bound_to 6896
  150.7249  134.0384  159.3766 H   0  0  0  0  0  0  0  0  0  0  0  0  # atno 6908 bound_to 6896
  151.8288  135.0628  160.0485 H   0  0  0  0  0  0  0  0  0  0  0  0  # atno 6909 bound_to 6896
  146.0217  139.4659  142.9893 H   0  0  0  0  0  0  0  0  0  0  0  0  # atno 7974 bound_to 7965
  156.1461  140.3169  155.8573 H   0  0  0  0  0  0  0  0  0  0  0  0  # atno 8008 bound_to 7997
  155.4061  140.0503  157.3051 H   0  0  0  0  0  0  0  0  0  0  0  0  # atno 8009 bound_to 7997
  154.5018  140.2132  155.9344 H   0  0  0  0  0  0  0  0  0  0  0  0  # atno 8010 bound_to 7997
  140.6265  143.2441  151.5349 H   0  0  0  0  0  0  0  0  0  0  0  0  # atno 10167 bound_to 10162
  157.5481  130.8745  149.8921 H   0  0  0  0  0  0  0  0  0  0  0  0  # atno 10718 bound_to 10713
  153.0715  135.6590  154.0237 H   0  0  0  0  0  0  0  0  0  0  0  0  # atno 10763 bound_to 10752
  153.9881  135.2948  155.3416 H   0  0  0  0  0  0  0  0  0  0  0  0  # atno 10764 bound_to 10752
  154.7091  135.5212  153.8710 H   0  0  0  0  0  0  0  0  0  0  0  0  # atno 10765 bound_to 10752
  140.7390  133.8686  155.8952 H   0  0  0  0  0  0  0  0  0  0  0  0  # atno 11005 bound_to 11000
  145.7183  141.0083  143.1416 LP  0  0  0  0  0  0  0  0  0  0  0  0  # atno 17320 bound_to 7965
  144.6992  139.8839  143.7449 LP  0  0  0  0  0  0  0  0  0  0  0  0  # atno 17321 bound_to 7965
  139.5485  144.2458  152.1487 LP  0  0  0  0  0  0  0  0  0  0  0  0  # atno 17342 bound_to 10162
  140.1690  144.4953  150.6590 LP  0  0  0  0  0  0  0  0  0  0  0  0  # atno 17343 bound_to 10162
  156.0553  130.3709  150.1107 LP  0  0  0  0  0  0  0  0  0  0  0  0  # atno 17370 bound_to 10713
  156.9281  130.9705  151.3537 LP  0  0  0  0  0  0  0  0  0  0  0  0  # atno 17371 bound_to 10713
  140.9854  134.1350  157.4457 LP  0  0  0  0  0  0  0  0  0  0  0  0  # atno 17394 bound_to 11000
  139.8810  135.0024  156.6123 LP  0  0  0  0  0  0  0  0  0  0  0  0  # atno 17395 bound_to 11000

$$$$
