AV-unprocessed.smi:2168|AV-procd|sdf|8820|dock10
  -GOLD-   2272012 13D 1   1.00000     0.00000
 Structure written by MMmdl.
 45 46  0  0  0  0  0  0  0  0  2 V2000
  150.6412  141.6963  155.9494 C   0  0  0  0  0  0  0  0  0  0  0  0
  150.5994  141.9255  157.4681 C   0  0  0  0  0  0  0  0  0  0  0  0
  151.7998  141.4081  158.1559 N   0  0  0  0  0  0  0  0  0  0  0  0
  152.5641  142.3588  158.9898 C   0  0  0  0  0  0  0  0  0  0  0  0
  152.0999  143.8153  158.8279 C   0  0  0  0  0  0  0  0  0  0  0  0
  152.1437  139.6947  158.1903 S   0  0  0  0  0  0  0  0  0  0  0  0
  152.4133  139.3250  156.7921 O   0  0  0  0  0  0  0  0  0  0  0  0
  153.2339  139.5069  159.1641 O   0  0  0  0  0  0  0  0  0  0  0  0
  150.6836  139.1646  158.6820 N   0  5  0  0  0  0  0  0  0  0  0  0
  149.9241  138.1792  157.9274 C   0  0  0  0  0  0  0  0  0  0  0  0
  148.9209  137.4583  158.8154 C   0  0  0  0  0  0  0  0  0  0  0  0
  149.3470  136.6846  159.9167 C   0  0  0  0  0  0  0  0  0  0  0  0
  148.3827  136.0237  160.7026 C   0  0  0  0  0  0  0  0  0  0  0  0
  147.0127  136.1521  160.3713 C   0  0  0  0  0  0  0  0  0  0  0  0
  146.0285  135.4909  161.1389 N   0  0  0  0  0  0  0  0  0  0  0  0
  144.8964  136.2755  161.6295 C   0  0  0  0  0  0  0  0  0  0  0  0
  143.7916  135.3478  162.1623 C   0  0  0  0  0  0  0  0  0  0  0  0
  144.3307  134.4775  163.1514 O   0  0  0  0  0  0  0  0  0  0  0  0
  145.3548  133.6433  162.6204 C   0  0  0  0  0  0  0  0  0  0  0  0
  146.5171  134.5090  162.1038 C   0  0  0  0  0  0  0  0  0  0  0  0
  146.6072  136.8949  159.3118 N   0  0  0  0  0  0  0  0  0  0  0  0
  147.5337  137.5272  158.5594 C   0  0  0  0  0  0  0  0  0  0  0  0
  149.7071  142.0152  155.4875 H   0  0  0  0  0  0  0  0  0  0  0  0
  150.7907  140.6462  155.7007 H   0  0  0  0  0  0  0  0  0  0  0  0
  151.4436  142.2676  155.4831 H   0  0  0  0  0  0  0  0  0  0  0  0
  150.5070  142.9920  157.6734 H   0  0  0  0  0  0  0  0  0  0  0  0
  149.7065  141.4643  157.8907 H   0  0  0  0  0  0  0  0  0  0  0  0
  152.4850  142.0714  160.0377 H   0  0  0  0  0  0  0  0  0  0  0  0
  153.6202  142.2786  158.7320 H   0  0  0  0  0  0  0  0  0  0  0  0
  152.6322  144.4644  159.5230 H   0  0  0  0  0  0  0  0  0  0  0  0
  151.0354  143.9207  159.0310 H   0  0  0  0  0  0  0  0  0  0  0  0
  152.2891  144.1936  157.8237 H   0  0  0  0  0  0  0  0  0  0  0  0
  149.3765  138.6379  157.1035 H   0  0  0  0  0  0  0  0  0  0  0  0
  150.5725  137.4329  157.4672 H   0  0  0  0  0  0  0  0  0  0  0  0
  150.3946  136.5798  160.1649 H   0  0  0  0  0  0  0  0  0  0  0  0
  148.7090  135.4136  161.5312 H   0  0  0  0  0  0  0  0  0  0  0  0
  145.2371  136.9444  162.4209 H   0  0  0  0  0  0  0  0  0  0  0  0
  144.4895  136.8958  160.8300 H   0  0  0  0  0  0  0  0  0  0  0  0
  142.9894  135.9370  162.6064 H   0  0  0  0  0  0  0  0  0  0  0  0
  143.3484  134.7662  161.3523 H   0  0  0  0  0  0  0  0  0  0  0  0
  145.7066  132.9713  163.4031 H   0  0  0  0  0  0  0  0  0  0  0  0
  144.9516  133.0181  161.8218 H   0  0  0  0  0  0  0  0  0  0  0  0
  147.2766  133.8580  161.6739 H   0  0  0  0  0  0  0  0  0  0  0  0
  146.9865  135.0372  162.9346 H   0  0  0  0  0  0  0  0  0  0  0  0
  147.1366  138.0977  157.7311 H   0  0  0  0  0  0  0  0  0  0  0  0
  1  2  1  0  0  0  0
  1 23  1  0  0  0  0
  1 24  1  0  0  0  0
  1 25  1  0  0  0  0
  2  3  1  0  0  0  0
  2 26  1  0  0  0  0
  2 27  1  0  0  0  0
  3  4  1  0  0  0  0
  3  6  1  0  0  0  0
  4  5  1  0  0  0  0
  4 28  1  0  0  0  0
  4 29  1  0  0  0  0
  5 30  1  0  0  0  0
  5 31  1  0  0  0  0
  5 32  1  0  0  0  0
  6  7  2  0  0  0  0
  6  8  2  0  0  0  0
  6  9  1  0  0  0  0
  9 10  1  0  0  0  0
 10 11  1  0  0  0  0
 10 33  1  0  0  0  0
 10 34  1  0  0  0  0
 11 22  1  0  0  0  0
 11 12  2  0  0  0  0
 12 13  1  0  0  0  0
 12 35  1  0  0  0  0
 13 14  2  0  0  0  0
 13 36  1  0  0  0  0
 14 15  1  0  0  0  0
 14 21  1  0  0  0  0
 15 20  1  0  0  0  0
 15 16  1  0  0  0  0
 16 17  1  0  0  0  0
 16 37  1  0  0  0  0
 16 38  1  0  0  0  0
 17 18  1  0  0  0  0
 17 39  1  0  0  0  0
 17 40  1  0  0  0  0
 18 19  1  0  0  0  0
 19 20  1  0  0  0  0
 19 41  1  0  0  0  0
 19 42  1  0  0  0  0
 20 43  1  0  0  0  0
 20 44  1  0  0  0  0
 21 22  2  0  0  0  0
 22 45  1  0  0  0  0
M  CHG  1   9  -1
M  END
> <s_m_source_file>
AV-unprocessed.smi

> <i_m_source_file_index>
2168

> <i_lp_mmshare_version>
43012

> <i_f3d_flags>
0

> <s_epik_input>
W0NIM11bQ0gyXU4oW0NIMl1bQ0gzXSlTKD1PKSg9TylbTkhdW0NIMl1jMVtjSF1bY0hdYyhuW2NIXTEpTjJbQ0gyXVtDSDJdT1tDSDJdW0NIMl0y

> <s_epik_cmdline>
J2VwaWtfcHl0aG9uJywgJy1waCcsICc3LjAnLCAnLXRuJywgJzgnLCAnLW1hJywgJzIwMCcsICctbWV0YWxfYmluZGluZycsICctaW1hZScsICc8aW5maWxlLm1hZT4nLCAnLW9tYWUnLCAnPG91dGZpbGUubWFlPic=

> <r_lp_tautomer_probability>
1

> <r_epik_Ionization_Penalty>
2.49252

> <r_epik_Ionization_Penalty_Charging>
2.41478

> <r_epik_Ionization_Penalty_Neutral>
0.0777351

> <r_epik_State_Penalty>
2.68884

> <r_epik_Charging_Adjusted_Penalty>
5.10362

> <i_epik_Tot_Q>
-1

> <i_epik_Tot_abs_Q>
1

> <r_epik_Metal_State_Penalty>
0.584574

> <b_epik_Metal_Only>
0

> <s_lp_Force_Field>
OPLS_2005

> <r_lp_Energy>
16.7

> <b_lp_Chiralities_Consistent>
1

> <s_lp_Variant>
AV-unprocessed.smi:2168-3

> <Gold.Version>
5.8.1

> <Gold.Id.Protein>
6NUR|6NUR_protein|mol2

> <Gold.PLP.Fitness>
37.3099

> <Gold.PLP.PLP>
-34.7717

> <Gold.PLP.part.hbond>
-0.9928

> <Gold.PLP.part.metal>
0.0000

> <Gold.PLP.part.buried>
-5.1829

> <Gold.PLP.part.nonpolar>
-29.7642

> <Gold.PLP.part.repulsive>
0.0898

> <Gold.PLP.ligand.clash>
0.0000

> <Gold.PLP.ligand.torsion>
2.0340

> <Gold.PLP.Chemscore.Hbond>
1.0000

> <Gold.PLP.Chemscore.CHOScore>
0.0000

> <Gold.PLP.Chemscore.Metal>
0.0000

> <Gold.Chemscore.Hbonds>
donor molecule, donor type, donor heavy atom, donor atom, acceptor molecule, acceptor atom, score
      P1  H  7997  8010       L1     7  0.83

> <Gold.PLP.Chemscore.Internal.Correction>
3.6062

> <Gold.Rescore>
     Score         DG    S(hbond)    S(metal)    S(lipo)     H(rot)  DE(clash)    DE(int)     intcor
     11.77     -13.98       0.98        0.00      81.17       1.66       0.17       2.04       ----

> <Gold.Chemscore.Fitness>
11.7677

> <Gold.Chemscore.DG>
-13.9766

> <Gold.Chemscore.ZeroCoef>
-5.4800

> <Gold.Chemscore.Hbond>
0.9760

> <Gold.Chemscore.Metal>
0.0000

> <Gold.Chemscore.Lipo>
81.1715

> <Gold.Chemscore.Internal_Hbond>
0.0000

> <Gold.Chemscore.DEClash>
0.1702

> <Gold.Chemscore.DEInternal>
2.0387

> <Gold.Chemscore.Rot>
1.6642

> <Gold.Chemscore.Internal.Correction>
   9.000000E+99

> <Gold.Chemscore.Hbonds>
donor molecule, donor type, donor heavy atom, donor atom, acceptor molecule, acceptor atom, score
      P1  H  7997  8010       L1     7  0.24

> <Gold.Chemscore.Hbond.Weighted>
-3.2599

> <Gold.Chemscore.Metal.Weighted>
-0.0000

> <Gold.Chemscore.Lipo.Weighted>
-9.4971

> <Gold.Chemscore.Internal_Hbond.Weighted>
0.0000

> <Gold.Chemscore.DEClash.Weighted>
0.1702

> <Gold.Chemscore.DEInternal.Weighted>
2.0387

> <Gold.Chemscore.Rot.Weighted>
4.2604

> <Gold.Chemscore.Internal.Correction.Weighted>
   9.000000E+99

> <Gold.Protein.RotatedTorsions>
[ 6907 6896 6895 6894 ] final    4.99 input  -60.11 | X-H torsion
[ 7974 7965 7964 7962 ] final -108.47 input  175.53 | X-H torsion
[ 8008 7997 7996 7995 ] final   65.27 input   59.86 | X-H torsion
[ 10167 10162 10161 10158 ] final  -13.14 input  -65.29 | X-H torsion
[ 10718 10713 10712 10709 ] final  -58.74 input   66.30 | X-H torsion
[ 10763 10752 10751 10750 ] final -150.48 input  -60.55 | X-H torsion
[ 11005 11000 10999 10996 ] final -163.99 input  -57.11 | X-H torsion

> <Gold.Protein.ActiveResidues>
 VAL166  LYS551  ARG553  GLY616  TRP617  ASP618  TYR619  PRO620  LYS621  CYS622 
 ASP623  PHE694  ASN695  SER759  ASP760  ASP761  ALA762  ILE779  LEU786  VAL792 
 PHE793  MET794  SER795  GLU796  ALA797  LYS798  CYS799  TRP800  GLU811  SER814 

> <Gold.Protein.RotatedAtoms>
  151.6502  135.1002  160.0158 H   0  0  0  0  0  0  0  0  0  0  0  0  # atno 6907 bound_to 6896
  152.4005  133.6806  159.6321 H   0  0  0  0  0  0  0  0  0  0  0  0  # atno 6908 bound_to 6896
  150.7906  133.8716  159.3301 H   0  0  0  0  0  0  0  0  0  0  0  0  # atno 6909 bound_to 6896
  145.1925  140.9021  143.3416 H   0  0  0  0  0  0  0  0  0  0  0  0  # atno 7974 bound_to 7965
  155.6590  140.3497  155.4776 H   0  0  0  0  0  0  0  0  0  0  0  0  # atno 8008 bound_to 7997
  155.9784  140.1169  157.0772 H   0  0  0  0  0  0  0  0  0  0  0  0  # atno 8009 bound_to 7997
  154.4185  140.1143  156.5388 H   0  0  0  0  0  0  0  0  0  0  0  0  # atno 8010 bound_to 7997
  140.7176  143.5457  150.9358 H   0  0  0  0  0  0  0  0  0  0  0  0  # atno 10167 bound_to 10162
  156.1113  130.4175  150.0619 H   0  0  0  0  0  0  0  0  0  0  0  0  # atno 10718 bound_to 10713
  154.8116  135.3283  154.7289 H   0  0  0  0  0  0  0  0  0  0  0  0  # atno 10763 bound_to 10752
  153.7937  135.6909  153.4871 H   0  0  0  0  0  0  0  0  0  0  0  0  # atno 10764 bound_to 10752
  153.1899  135.4555  155.0083 H   0  0  0  0  0  0  0  0  0  0  0  0  # atno 10765 bound_to 10752
  140.5919  134.5036  157.5194 H   0  0  0  0  0  0  0  0  0  0  0  0  # atno 11005 bound_to 11000
  145.0027  139.3583  143.6159 LP  0  0  0  0  0  0  0  0  0  0  0  0  # atno 17320 bound_to 7965
  146.3433  139.9257  142.8760 LP  0  0  0  0  0  0  0  0  0  0  0  0  # atno 17321 bound_to 7965
  139.9181  143.6639  152.3102 LP  0  0  0  0  0  0  0  0  0  0  0  0  # atno 17342 bound_to 10162
  139.7046  144.7630  151.1215 LP  0  0  0  0  0  0  0  0  0  0  0  0  # atno 17343 bound_to 10162
  156.8582  130.9482  151.3620 LP  0  0  0  0  0  0  0  0  0  0  0  0  # atno 17370 bound_to 10713
  157.6294  130.8717  149.9246 LP  0  0  0  0  0  0  0  0  0  0  0  0  # atno 17371 bound_to 10713
  139.9270  134.8036  156.1039 LP  0  0  0  0  0  0  0  0  0  0  0  0  # atno 17394 bound_to 11000
  141.0929  133.6707  156.2580 LP  0  0  0  0  0  0  0  0  0  0  0  0  # atno 17395 bound_to 11000

$$$$
