AV-unprocessed.smi:258|AV-procd|sdf|1971|dock2
  -GOLD-   2262021133D 1   1.00000     0.00000
 Structure written by MMmdl.
 57 60  0  0  0  0  0  0  0  0  1 V2000
  146.2410  131.7042  150.7955 O   0  0  0  0  0  0  0  0  0  0  0  0
  146.4968  132.3270  152.0364 C   0  0  0  0  0  0  0  0  0  0  0  0
  147.7317  133.2298  151.9296 C   0  0  0  0  0  0  0  0  0  0  0  0
  147.9866  133.8124  153.1996 O   0  0  0  0  0  0  0  0  0  0  0  0
  149.3525  133.7994  153.5938 C   0  0  2  0  0  0  0  0  0  0  0  0
  149.7347  132.4454  154.2249 C   0  0  0  0  0  0  0  0  0  0  0  0
  151.1634  132.5042  154.7855 C   0  0  0  0  0  0  0  0  0  0  0  0
  151.3179  133.6667  155.7785 C   0  0  0  0  0  0  0  0  0  0  0  0
  150.8961  134.9282  155.1730 N   0  0  0  0  0  0  0  0  0  0  0  0
  151.3069  136.0942  155.7357 C   0  0  0  0  0  0  0  0  0  0  0  0
  152.6356  136.3741  155.6815 N   0  0  0  0  0  0  0  0  0  0  0  0
  153.1160  137.5008  156.2143 C   0  0  0  0  0  0  0  0  0  0  0  0
  152.4543  138.4761  156.8378 N   0  0  0  0  0  0  0  0  0  0  0  0
  151.1191  138.2073  156.8946 C   0  0  0  0  0  0  0  0  0  0  0  0
  150.4639  137.0508  156.3797 C   0  0  0  0  0  0  0  0  0  0  0  0
  149.0974  137.1451  156.6271 N   0  0  0  0  0  0  0  0  0  0  0  0
  148.9562  138.2820  157.2513 C   0  0  0  0  0  0  0  0  0  0  0  0
  150.1197  138.9892  157.4447 N   0  0  0  0  0  0  0  0  0  0  0  0
  150.2580  140.2816  158.0917 C   0  0  0  0  0  0  0  0  0  0  0  0
  150.9168  141.3598  157.1942 C   0  0  1  0  0  0  0  0  0  0  0  0
  150.0719  141.6941  155.9371 C   0  0  0  0  0  0  0  0  0  0  0  0
  148.7723  142.1268  156.2826 O   0  0  0  0  0  0  0  0  0  0  0  0
  151.2768  142.6005  158.0526 C   0  0  1  0  0  0  0  0  0  0  0  0
  152.5571  142.5107  158.8631 C   0  0  0  0  0  0  0  0  0  0  0  0
  152.7724  143.9701  159.2540 C   0  0  0  0  0  0  0  0  0  0  0  0
  152.2442  144.7447  158.1801 O   0  0  0  0  0  0  0  0  0  0  0  0
  151.4811  143.9202  157.3032 C   0  0  0  0  0  0  0  0  0  0  0  0
  149.5440  134.9383  154.6112 C   0  0  0  0  0  0  0  0  0  0  0  0
  147.0186  131.2398  150.5269 H   0  0  0  0  0  0  0  0  0  0  0  0
  145.6220  132.9263  152.2907 H   0  0  0  0  0  0  0  0  0  0  0  0
  146.6166  131.5803  152.8220 H   0  0  0  0  0  0  0  0  0  0  0  0
  148.5882  132.6718  151.5505 H   0  0  0  0  0  0  0  0  0  0  0  0
  147.5257  134.0294  151.2168 H   0  0  0  0  0  0  0  0  0  0  0  0
  149.9921  134.0000  152.7319 H   0  0  0  0  0  0  0  0  0  0  0  0
  149.0364  132.2019  155.0268 H   0  0  0  0  0  0  0  0  0  0  0  0
  149.6651  131.6399  153.4943 H   0  0  0  0  0  0  0  0  0  0  0  0
  151.4140  131.5620  155.2732 H   0  0  0  0  0  0  0  0  0  0  0  0
  151.8724  132.6279  153.9660 H   0  0  0  0  0  0  0  0  0  0  0  0
  150.7137  133.4749  156.6659 H   0  0  0  0  0  0  0  0  0  0  0  0
  152.3589  133.7315  156.0974 H   0  0  0  0  0  0  0  0  0  0  0  0
  154.1834  137.6414  156.1270 H   0  0  0  0  0  0  0  0  0  0  0  0
  147.9922  138.6436  157.5781 H   0  0  0  0  0  0  0  0  0  0  0  0
  149.2700  140.6121  158.4144 H   0  0  0  0  0  0  0  0  0  0  0  0
  150.8448  140.1347  158.9994 H   0  0  0  0  0  0  0  0  0  0  0  0
  151.8698  140.9557  156.8490 H   0  0  0  0  0  0  0  0  0  0  0  0
  150.5582  142.4627  155.3358 H   0  0  0  0  0  0  0  0  0  0  0  0
  149.9481  140.8263  155.2925 H   0  0  0  0  0  0  0  0  0  0  0  0
  148.6050  142.9521  155.8535 H   0  0  0  0  0  0  0  0  0  0  0  0
  150.4719  142.7545  158.7736 H   0  0  0  0  0  0  0  0  0  0  0  0
  152.4695  141.8520  159.7274 H   0  0  0  0  0  0  0  0  0  0  0  0
  153.3974  142.1681  158.2612 H   0  0  0  0  0  0  0  0  0  0  0  0
  152.2124  144.2066  160.1596 H   0  0  0  0  0  0  0  0  0  0  0  0
  153.8219  144.2028  159.4358 H   0  0  0  0  0  0  0  0  0  0  0  0
  152.0588  143.7806  156.3899 H   0  0  0  0  0  0  0  0  0  0  0  0
  150.5382  144.3967  157.0349 H   0  0  0  0  0  0  0  0  0  0  0  0
  149.3183  135.8886  154.1265 H   0  0  0  0  0  0  0  0  0  0  0  0
  148.8310  134.8290  155.4296 H   0  0  0  0  0  0  0  0  0  0  0  0
  1  2  1  0  0  0  0
  1 29  1  0  0  0  0
  2  3  1  0  0  0  0
  2 30  1  0  0  0  0
  2 31  1  0  0  0  0
  3  4  1  0  0  0  0
  3 32  1  0  0  0  0
  3 33  1  0  0  0  0
  4  5  1  0  0  0  0
  5 28  1  0  0  0  0
  5  6  1  0  0  0  0
  5 34  1  0  0  0  0
  6  7  1  0  0  0  0
  6 35  1  0  0  0  0
  6 36  1  0  0  0  0
  7  8  1  0  0  0  0
  7 37  1  0  0  0  0
  7 38  1  0  0  0  0
  8  9  1  0  0  0  0
  8 39  1  0  0  0  0
  8 40  1  0  0  0  0
  9 10  1  0  0  0  0
  9 28  1  0  0  0  0
 10 15  1  0  0  0  0
 10 11  2  0  0  0  0
 11 12  1  0  0  0  0
 12 13  2  0  0  0  0
 12 41  1  0  0  0  0
 13 14  1  0  0  0  0
 14 18  1  0  0  0  0
 14 15  2  0  0  0  0
 15 16  1  0  0  0  0
 16 17  2  0  0  0  0
 17 18  1  0  0  0  0
 17 42  1  0  0  0  0
 18 19  1  0  0  0  0
 19 20  1  0  0  0  0
 19 43  1  0  0  0  0
 19 44  1  0  0  0  0
 20 21  1  0  0  0  0
 20 23  1  0  0  0  0
 20 45  1  0  0  0  0
 21 22  1  0  0  0  0
 21 46  1  0  0  0  0
 21 47  1  0  0  0  0
 22 48  1  0  0  0  0
 23 27  1  0  0  0  0
 23 24  1  0  0  0  0
 23 49  1  0  0  0  0
 24 25  1  0  0  0  0
 24 50  1  0  0  0  0
 24 51  1  0  0  0  0
 25 26  1  0  0  0  0
 25 52  1  0  0  0  0
 25 53  1  0  0  0  0
 26 27  1  0  0  0  0
 27 54  1  0  0  0  0
 27 55  1  0  0  0  0
 28 56  1  0  0  0  0
 28 57  1  0  0  0  0
M  END
> <s_m_source_file>
AV-unprocessed.smi

> <i_m_source_file_index>
258

> <i_lp_mmshare_version>
43012

> <i_f3d_flags>
0

> <s_epik_input>
W09IXVtDSDJdW0NIMl1PW0NAQEhdMVtDSDJdW0NIMl1bQ0gyXU4oW0NIMl0xKWMobltjSF1uMiljKGMyMyluW2NIXW4zW0NIMl1bQ0BIXShbQ0gyXVtPSF0pW0NAQEhdNFtDSDJdW0NIMl1PW0NIMl00

> <s_epik_cmdline>
J2VwaWtfcHl0aG9uJywgJy1waCcsICc3LjAnLCAnLXRuJywgJzgnLCAnLW1hJywgJzIwMCcsICctbWV0YWxfYmluZGluZycsICctaW1hZScsICc8aW5maWxlLm1hZT4nLCAnLW9tYWUnLCAnPG91dGZpbGUubWFlPic=

> <r_lp_tautomer_probability>
1

> <r_epik_Ionization_Penalty>
0.00349036

> <r_epik_Ionization_Penalty_Charging>
0

> <r_epik_Ionization_Penalty_Neutral>
0.00349036

> <r_epik_State_Penalty>
0.00229798

> <r_epik_Charging_Adjusted_Penalty>
0.00229798

> <i_epik_Tot_Q>
0

> <i_epik_Tot_abs_Q>
0

> <r_epik_Metal_State_Penalty>
-0

> <b_epik_Metal_Only>
0

> <s_lp_Force_Field>
OPLS_2005

> <r_lp_Energy>
47.622

> <b_lp_Chiralities_Consistent>
1

> <s_lp_Variant>
AV-unprocessed.smi:258-7

> <Gold.Version>
5.8.1

> <Gold.Id.Protein>
6NUR|6NUR_protein|mol2

> <Gold.PLP.Fitness>
49.1504

> <Gold.PLP.PLP>
-42.3212

> <Gold.PLP.part.hbond>
-3.0000

> <Gold.PLP.part.metal>
0.0000

> <Gold.PLP.part.buried>
-7.5581

> <Gold.PLP.part.nonpolar>
-32.8032

> <Gold.PLP.part.repulsive>
0.2545

> <Gold.PLP.ligand.clash>
0.0000

> <Gold.PLP.ligand.torsion>
1.5693

> <Gold.PLP.Chemscore.Hbond>
3.0000

> <Gold.PLP.Chemscore.CHOScore>
0.0000

> <Gold.PLP.Chemscore.Metal>
0.0000

> <Gold.Chemscore.Hbonds>
donor molecule, donor type, donor heavy atom, donor atom, acceptor molecule, acceptor atom, score
      L1  H     1    29       P1 10747  1.00
      L1  H    22    48       P1  8028  1.00
      P1  H 10752 10763       L1    11  0.24

> <Gold.PLP.Chemscore.Internal.Correction>
0.9677

> <Gold.Rescore>
     Score         DG    S(hbond)    S(metal)    S(lipo)     H(rot)  DE(clash)    DE(int)     intcor
     13.67     -16.23       2.80        0.00     104.38       4.22       0.13       2.44       ----

> <Gold.Chemscore.Fitness>
13.6663

> <Gold.Chemscore.DG>
-16.2313

> <Gold.Chemscore.ZeroCoef>
-5.4800

> <Gold.Chemscore.Hbond>
2.8007

> <Gold.Chemscore.Metal>
0.0000

> <Gold.Chemscore.Lipo>
104.3755

> <Gold.Chemscore.Internal_Hbond>
0.0000

> <Gold.Chemscore.DEClash>
0.1290

> <Gold.Chemscore.DEInternal>
2.4360

> <Gold.Chemscore.Rot>
4.2246

> <Gold.Chemscore.Internal.Correction>
   9.000000E+99

> <Gold.Chemscore.Hbonds>
donor molecule, donor type, donor heavy atom, donor atom, acceptor molecule, acceptor atom, score
      L1  H     1    29       P1 10747  0.95
      L1  H    22    48       P1  8028  0.96
      P1  H 10752 10763       L1    11  0.20

> <Gold.Chemscore.Hbond.Weighted>
-9.3542

> <Gold.Chemscore.Metal.Weighted>
-0.0000

> <Gold.Chemscore.Lipo.Weighted>
-12.2119

> <Gold.Chemscore.Internal_Hbond.Weighted>
0.0000

> <Gold.Chemscore.DEClash.Weighted>
0.1290

> <Gold.Chemscore.DEInternal.Weighted>
2.4360

> <Gold.Chemscore.Rot.Weighted>
10.8149

> <Gold.Chemscore.Internal.Correction.Weighted>
   9.000000E+99

> <Gold.Protein.RotatedTorsions>
[ 6907 6896 6895 6894 ] final  -18.77 input  -60.11 | X-H torsion
[ 7974 7965 7964 7962 ] final   37.88 input  175.53 | X-H torsion
[ 8008 7997 7996 7995 ] final   62.50 input   59.86 | X-H torsion
[ 10167 10162 10161 10158 ] final -125.70 input  -65.29 | X-H torsion
[ 10718 10713 10712 10709 ] final  118.61 input   66.30 | X-H torsion
[ 10763 10752 10751 10750 ] final  103.78 input  -60.55 | X-H torsion
[ 11005 11000 10999 10996 ] final -170.79 input  -57.11 | X-H torsion

> <Gold.Protein.ActiveResidues>
 VAL166  LYS551  ARG553  GLY616  TRP617  ASP618  TYR619  PRO620  LYS621  CYS622 
 ASP623  PHE694  ASN695  SER759  ASP760  ASP761  ALA762  ILE779  LEU786  VAL792 
 PHE793  MET794  SER795  GLU796  ALA797  LYS798  CYS799  TRP800  GLU811  SER814 

> <Gold.Protein.RotatedAtoms>
  151.2732  135.0691  159.9141 H   0  0  0  0  0  0  0  0  0  0  0  0  # atno 6907 bound_to 6896
  152.5347  134.0109  159.7948 H   0  0  0  0  0  0  0  0  0  0  0  0  # atno 6908 bound_to 6896
  151.0350  133.5706  159.2687 H   0  0  0  0  0  0  0  0  0  0  0  0  # atno 6909 bound_to 6896
  146.1104  139.5840  142.9356 H   0  0  0  0  0  0  0  0  0  0  0  0  # atno 7974 bound_to 7965
  155.6153  140.3495  155.4635 H   0  0  0  0  0  0  0  0  0  0  0  0  # atno 8008 bound_to 7997
  156.0122  140.1235  157.0466 H   0  0  0  0  0  0  0  0  0  0  0  0  # atno 8009 bound_to 7997
  154.4285  140.1079  156.5832 H   0  0  0  0  0  0  0  0  0  0  0  0  # atno 8010 bound_to 7997
  139.9793  143.5759  152.2384 H   0  0  0  0  0  0  0  0  0  0  0  0  # atno 10167 bound_to 10162
  157.6018  131.1050  150.7781 H   0  0  0  0  0  0  0  0  0  0  0  0  # atno 10718 bound_to 10713
  153.3571  135.3965  155.1690 H   0  0  0  0  0  0  0  0  0  0  0  0  # atno 10763 bound_to 10752
  154.8673  135.3670  154.5146 H   0  0  0  0  0  0  0  0  0  0  0  0  # atno 10764 bound_to 10752
  153.5603  135.7081  153.5610 H   0  0  0  0  0  0  0  0  0  0  0  0  # atno 10765 bound_to 10752
  140.5155  134.5760  157.5032 H   0  0  0  0  0  0  0  0  0  0  0  0  # atno 11005 bound_to 11000
  145.5675  141.0398  143.2192 LP  0  0  0  0  0  0  0  0  0  0  0  0  # atno 17320 bound_to 7965
  144.7507  139.7203  143.7274 LP  0  0  0  0  0  0  0  0  0  0  0  0  # atno 17321 bound_to 7965
  139.6421  144.7655  151.2317 LP  0  0  0  0  0  0  0  0  0  0  0  0  # atno 17342 bound_to 10162
  140.7494  143.6299  150.8433 LP  0  0  0  0  0  0  0  0  0  0  0  0  # atno 17343 bound_to 10162
  156.8178  130.4974  149.5347 LP  0  0  0  0  0  0  0  0  0  0  0  0  # atno 17370 bound_to 10713
  156.1093  130.6028  151.0022 LP  0  0  0  0  0  0  0  0  0  0  0  0  # atno 17371 bound_to 10713
  139.9635  134.7413  156.0187 LP  0  0  0  0  0  0  0  0  0  0  0  0  # atno 17394 bound_to 11000
  141.1362  133.6574  156.3601 LP  0  0  0  0  0  0  0  0  0  0  0  0  # atno 17395 bound_to 11000

$$$$
