#       Name:                AV-unprocessed.smi:2229
#       Creating user name   scv26
#       Creation time:       Fri Mar 27 12:24:04 2020


#       File generated by GOLD software.
#

@<TRIPOS>MOLECULE
AV-unprocessed.smi:2229
    49    50     1
SMALL
NO_CHARGES


@<TRIPOS>ATOM
      1 ****        -3.3648   2.2627   0.5486 C.3            1 S1                 0.0000
      2 ****        -3.5433   1.4825  -0.7649 C.3            1 S1                 0.0000
      3 ****        -5.0300   1.4133  -1.1468 C.3            1 S1                 0.0000
      4 ****        -2.9307   0.0680  -0.7015 C.3            1 S1                 0.0000
      5 ****        -1.3973   0.0533  -0.5657 C.3            1 S1                 0.0000
      6 ****        -0.7893  -1.3632  -0.6578 C.3            1 S1                 0.0000
      7 ****        -1.1510  -2.2878   0.5077 C.3            1 S1                 0.0000
      8 ****        -0.1550  -3.4389   0.3893 C.3            1 S1                 0.0000
      9 ****         1.1394  -2.8043  -0.1325 C.3            1 S1                 0.0000
     10 ****         0.7524  -1.4366  -0.7356 C.3            1 S1                 0.0000
     11 ****         1.3916  -0.3452  -0.0015 N.am           1 S1                 0.0000
     12 ****         2.6362   0.1085  -0.2095 C.2            1 S1                 0.0000
     13 ****         3.3853  -0.3481  -1.0738 O.2            1 S1                 0.0000
     14 ****         3.0798   1.2732   0.6851 C.3            1 S1                 0.0000
     15 ****         4.5295   1.3299   0.8871 N.am           1 S1                 0.0000
     16 ****         5.3300   2.2774   0.3003 C.2            1 S1                 0.0000
     17 ****         6.5554   2.1197   0.6524 N.2            1 S1                 0.0000
     18 ****         6.5816   0.9925   1.5346 N.pl3          1 S1                -1.0000
     19 ****         5.3084   0.5512   1.6397 C.2            1 S1                 0.0000
     20 ****         4.8789  -0.3934   2.3012 O.2            1 S1                 0.0000
     21 ****        -3.8258   1.7384   1.3863 H              1 S1                 0.0000
     22 ****        -3.8245   3.2492   0.4826 H              1 S1                 0.0000
     23 ****        -2.3130   2.4170   0.7878 H              1 S1                 0.0000
     24 ****        -3.0336   2.0363  -1.5544 H              1 S1                 0.0000
     25 ****        -5.6073   0.8719  -0.3965 H              1 S1                 0.0000
     26 ****        -5.1691   0.9072  -2.1024 H              1 S1                 0.0000
     27 ****        -5.4597   2.4111  -1.2402 H              1 S1                 0.0000
     28 ****        -3.3818  -0.4878   0.1214 H              1 S1                 0.0000
     29 ****        -3.1988  -0.4703  -1.6114 H              1 S1                 0.0000
     30 ****        -0.9684   0.6708  -1.3559 H              1 S1                 0.0000
     31 ****        -1.1089   0.5151   0.3784 H              1 S1                 0.0000
     32 ****        -1.1690  -1.8304  -1.5682 H              1 S1                 0.0000
     33 ****        -1.0060  -1.7703   1.4570 H              1 S1                 0.0000
     34 ****        -2.1846  -2.6325   0.4682 H              1 S1                 0.0000
     35 ****        -0.0112  -3.9634   1.3344 H              1 S1                 0.0000
     36 ****        -0.5236  -4.1646  -0.3369 H              1 S1                 0.0000
     37 ****         1.8547  -2.6909   0.6839 H              1 S1                 0.0000
     38 ****         1.6112  -3.4461  -0.8772 H              1 S1                 0.0000
     39 ****         1.0560  -1.3828  -1.7829 H              1 S1                 0.0000
     40 ****         0.8466   0.0917   0.7273 H              1 S1                 0.0000
     41 ****         2.7154   2.2039   0.2475 H              1 S1                 0.0000
     42 ****         2.5978   1.1857   1.6603 H              1 S1                 0.0000
     43 ****         4.8984   3.0282  -0.3637 H              1 S1                 0.0000
     44 ****         3.0736  -1.0942  -1.6623 LP             1 S1                 0.0000
     45 ****         4.3052   0.0271  -1.1872 LP             1 S1                 0.0000
     46 ****         7.3366   2.6746   0.3666 LP             1 S1                 0.0000
     47 ****         7.3861   0.6063   1.9857 LP             1 S1                 0.0000
     48 ****         3.9022  -0.6081   2.2907 LP             1 S1                 0.0000
     49 ****         5.5065  -0.9464   2.8492 LP             1 S1                 0.0000
@<TRIPOS>BOND
    1    1    2 1     
    2    1   21 1     
    3    1   22 1     
    4    1   23 1     
    5    2    3 1     
    6    2    4 1     
    7    2   24 1     
    8    3   25 1     
    9    3   26 1     
   10    3   27 1     
   11    4    5 1     
   12    4   28 1     
   13    4   29 1     
   14    5    6 1     
   15    5   30 1     
   16    5   31 1     
   17    6   10 1     
   18    6    7 1     
   19    6   32 1     
   20    7    8 1     
   21    7   33 1     
   22    7   34 1     
   23    8    9 1     
   24    8   35 1     
   25    8   36 1     
   26    9   10 1     
   27    9   37 1     
   28    9   38 1     
   29   10   11 1     
   30   10   39 1     
   31   11   12 am    
   32   11   40 1     
   33   12   13 2     
   34   12   14 1     
   35   14   15 1     
   36   14   41 1     
   37   14   42 1     
   38   15   19 am    
   39   15   16 1     
   40   16   17 2     
   41   16   43 1     
   42   17   18 1     
   43   18   19 1     
   44   19   20 2     
   45   13   44 1     
   46   13   45 1     
   47   17   46 1     
   48   18   47 1     
   49   20   48 1     
   50   20   49 1     
@<TRIPOS>SUBSTRUCTURE
      1 S1             1
@<TRIPOS>SET
LONE_PAIRS      STATIC     ATOMS    <user>   **** ""
6 44 45 46 47 48 49
DONOR_HYDROGENS      STATIC     ATOMS    <user>   **** ""
1 40
ATOM$BLUE        STATIC     ATOMS    COLORGROUP SYSTEM
6 44 45 46 47 48 49
ATOM$RED        STATIC     ATOMS    COLORGROUP SYSTEM
1 40
