#       Name:                AV-unprocessed.smi:1705
#       Creating user name   scv26
#       Creation time:       Fri Mar 27 08:09:04 2020


#       File generated by GOLD software.
#

@<TRIPOS>MOLECULE
AV-unprocessed.smi:1705
    45    46     1
SMALL
NO_CHARGES


@<TRIPOS>ATOM
      1 ****        -2.3379  -1.1182   1.0839 C.3            1 S1                 0.0000
      2 ****        -1.6892  -1.1744  -0.3062 C.3            1 S1                 0.0000
      3 ****        -0.6147  -0.1939  -0.3930 N.pl3          1 S1                 0.0000
      4 ****         0.7556  -0.3256  -0.6192 C.2            1 S1                 0.0000
      5 ****         1.6198   0.7326  -0.6532 C.2            1 S1                 0.0000
      6 ****         1.2516   2.0948  -0.4262 C.1            1 S1                 0.0000
      7 ****         1.0049   3.2138  -0.2547 N.1            1 S1                 0.0000
      8 ****         3.0506   0.5579  -0.9032 C.2            1 S1                 0.0000
      9 ****         3.8615   1.4874  -0.9147 O.2            1 S1                 0.0000
     10 ****         3.4576  -0.7725  -1.1254 N.am           1 S1                 0.0000
     11 ****         4.8688  -1.0028  -1.3687 C.3            1 S1                 0.0000
     12 ****         2.5947  -1.8840  -1.0728 C.2            1 S1                 0.0000
     13 ****         3.0128  -3.0330  -1.2470 O.2            1 S1                 0.0000
     14 ****         1.2273  -1.6316  -0.8024 N.am           1 S1                 0.0000
     15 ****         0.3997  -2.8229  -0.7571 C.3            1 S1                 0.0000
     16 ****        -2.7241  -0.9714  -1.4334 C.3            1 S1                 0.0000
     17 ****        -3.4226   0.3937  -1.4686 C.3            1 S1                 0.0000
     18 ****        -3.7774   0.5201  -2.9326 C.3            1 S1                 0.0000
     19 ****        -2.5512  -0.0973  -3.5956 C.3            1 S1                 0.0000
     20 ****        -2.1267  -1.1352  -2.7181 O.3            1 S1                 0.0000
     21 ****        -3.1345  -1.8571   1.1743 H              1 S1                 0.0000
     22 ****        -2.7684  -0.1373   1.2878 H              1 S1                 0.0000
     23 ****        -1.6059  -1.3271   1.8648 H              1 S1                 0.0000
     24 ****        -1.2771  -2.1759  -0.3918 H              1 S1                 0.0000
     25 ****        -0.8866   0.7015  -0.0135 H              1 S1                 0.0000
     26 ****         5.0165  -1.9436  -1.8998 H              1 S1                 0.0000
     27 ****         5.3598  -1.0169  -0.3945 H              1 S1                 0.0000
     28 ****         5.2548  -0.2004  -1.9995 H              1 S1                 0.0000
     29 ****         0.3599  -3.2263  -1.7702 H              1 S1                 0.0000
     30 ****        -0.6018  -2.5885  -0.4045 H              1 S1                 0.0000
     31 ****         0.8567  -3.5258  -0.0577 H              1 S1                 0.0000
     32 ****        -3.4896  -1.7449  -1.3545 H              1 S1                 0.0000
     33 ****        -4.2923   0.4423  -0.8131 H              1 S1                 0.0000
     34 ****        -2.7421   1.1984  -1.1883 H              1 S1                 0.0000
     35 ****        -4.6662  -0.0707  -3.1572 H              1 S1                 0.0000
     36 ****        -3.9590   1.5489  -3.2445 H              1 S1                 0.0000
     37 ****        -2.7607  -0.4787  -4.5952 H              1 S1                 0.0000
     38 ****        -1.7504   0.6391  -3.6735 H              1 S1                 0.0000
     39 ****         0.7920   4.1796  -0.1067 LP             1 S1                 0.0000
     40 ****         3.5518   2.4233  -0.7469 LP             1 S1                 0.0000
     41 ****         4.8287   1.3051  -1.0918 LP             1 S1                 0.0000
     42 ****         3.9834  -3.1895  -1.4301 LP             1 S1                 0.0000
     43 ****         2.3808  -3.8068  -1.2049 LP             1 S1                 0.0000
     44 ****        -2.3977  -2.0198  -3.0977 LP             1 S1                 0.0000
     45 ****        -1.1315  -1.1029  -2.6258 LP             1 S1                 0.0000
@<TRIPOS>BOND
    1    1    2 1     
    2    1   21 1     
    3    1   22 1     
    4    1   23 1     
    5    2    3 1     
    6    2   16 1     
    7    2   24 1     
    8    3    4 1     
    9    3   25 1     
   10    4   14 1     
   11    4    5 2     
   12    5    6 1     
   13    5    8 1     
   14    6    7 3     
   15    8    9 2     
   16    8   10 am    
   17   10   11 1     
   18   10   12 am    
   19   11   26 1     
   20   11   27 1     
   21   11   28 1     
   22   12   13 2     
   23   12   14 am    
   24   14   15 1     
   25   15   29 1     
   26   15   30 1     
   27   15   31 1     
   28   16   20 1     
   29   16   17 1     
   30   16   32 1     
   31   17   18 1     
   32   17   33 1     
   33   17   34 1     
   34   18   19 1     
   35   18   35 1     
   36   18   36 1     
   37   19   20 1     
   38   19   37 1     
   39   19   38 1     
   40    7   39 1     
   41    9   40 1     
   42    9   41 1     
   43   13   42 1     
   44   13   43 1     
   45   20   44 1     
   46   20   45 1     
@<TRIPOS>SUBSTRUCTURE
      1 S1             1
@<TRIPOS>SET
LONE_PAIRS      STATIC     ATOMS    <user>   **** ""
7 39 40 41 42 43 44 45
DONOR_HYDROGENS      STATIC     ATOMS    <user>   **** ""
1 25
ATOM$BLUE        STATIC     ATOMS    COLORGROUP SYSTEM
7 39 40 41 42 43 44 45
ATOM$RED        STATIC     ATOMS    COLORGROUP SYSTEM
1 25
