AV-unprocessed.smi:1816|AV-procd|sdf|7367|dock8
  -GOLD-   22720 9 33D 1   1.00000     0.00000
 Structure written by MMmdl.
 35 36  0  0  0  0  0  0  0  0  3 V2000
  151.0511  137.2482  154.8665 C   0  0  0  0  0  0  0  0  0  0  0  0
  149.5501  137.0385  155.1712 C   0  0  1  0  0  0  0  0  0  0  0  0
  149.1972  137.5695  156.5805 C   0  0  0  0  0  0  0  0  0  0  0  0
  149.0624  136.4885  157.5487 N   0  0  0  0  0  0  0  0  0  0  0  0
  148.6948  136.6403  158.8272 C   0  0  0  0  0  0  0  0  0  0  0  0
  148.4372  137.7651  159.2619 O   0  0  0  0  0  0  0  0  0  0  0  0
  148.6509  135.4801  159.5195 N   0  5  0  0  0  0  0  0  0  0  0  0
  147.9879  135.4183  160.6859 C   0  0  0  0  0  0  0  0  0  0  0  0
  147.9452  136.4346  161.5552 N   0  0  0  0  0  0  0  0  0  0  0  0
  147.1945  136.1556  162.6987 C   0  0  0  0  0  0  0  0  0  0  0  0
  146.6445  134.9011  162.6952 C   0  0  0  0  0  0  0  0  0  0  0  0
  147.0568  134.0270  161.2477 S   0  0  0  0  0  0  0  0  0  0  0  0
  148.6936  137.6872  154.1367 N   0  3  0  0  0  0  0  0  0  0  0  0
  147.2366  137.6487  154.3903 C   0  0  0  0  0  0  0  0  0  0  0  0
  146.6536  138.7512  153.5144 C   0  0  0  0  0  0  0  0  0  0  0  0
  147.7107  139.8461  153.5935 C   0  0  0  0  0  0  0  0  0  0  0  0
  149.0318  139.1006  153.8290 C   0  0  0  0  0  0  0  0  0  0  0  0
  151.6854  136.7857  155.6227 H   0  0  0  0  0  0  0  0  0  0  0  0
  151.3023  138.3087  154.8324 H   0  0  0  0  0  0  0  0  0  0  0  0
  151.3426  136.8042  153.9150 H   0  0  0  0  0  0  0  0  0  0  0  0
  149.3487  135.9662  155.1457 H   0  0  0  0  0  0  0  0  0  0  0  0
  149.9683  138.2631  156.9205 H   0  0  0  0  0  0  0  0  0  0  0  0
  148.2568  138.1214  156.5701 H   0  0  0  0  0  0  0  0  0  0  0  0
  149.2642  135.5521  157.2301 H   0  0  0  0  0  0  0  0  0  0  0  0
  147.1032  136.9103  163.4655 H   0  0  0  0  0  0  0  0  0  0  0  0
  146.0252  134.4403  163.4498 H   0  0  0  0  0  0  0  0  0  0  0  0
  146.8057  136.6743  154.1584 H   0  0  0  0  0  0  0  0  0  0  0  0
  147.0391  137.8703  155.4405 H   0  0  0  0  0  0  0  0  0  0  0  0
  146.5601  138.3982  152.4862 H   0  0  0  0  0  0  0  0  0  0  0  0
  145.6703  139.0844  153.8480 H   0  0  0  0  0  0  0  0  0  0  0  0
  147.7331  140.4682  152.6983 H   0  0  0  0  0  0  0  0  0  0  0  0
  147.5011  140.4970  154.4435 H   0  0  0  0  0  0  0  0  0  0  0  0
  149.5762  139.5736  154.6478 H   0  0  0  0  0  0  0  0  0  0  0  0
  149.6689  139.1322  152.9445 H   0  0  0  0  0  0  0  0  0  0  0  0
  148.8356  137.1755  153.2775 H   0  0  0  0  0  0  0  0  0  0  0  0
  1  2  1  0  0  0  0
  1 18  1  0  0  0  0
  1 19  1  0  0  0  0
  1 20  1  0  0  0  0
  2  3  1  0  0  0  0
  2 13  1  0  0  0  0
  2 21  1  0  0  0  0
  3  4  1  0  0  0  0
  3 22  1  0  0  0  0
  3 23  1  0  0  0  0
  4  5  1  0  0  0  0
  4 24  1  0  0  0  0
  5  6  2  0  0  0  0
  5  7  1  0  0  0  0
  7  8  1  0  0  0  0
  8 12  1  0  0  0  0
  8  9  2  0  0  0  0
  9 10  1  0  0  0  0
 10 11  2  0  0  0  0
 10 25  1  0  0  0  0
 11 12  1  0  0  0  0
 11 26  1  0  0  0  0
 13 17  1  0  0  0  0
 13 14  1  0  0  0  0
 13 35  1  0  0  0  0
 14 15  1  0  0  0  0
 14 27  1  0  0  0  0
 14 28  1  0  0  0  0
 15 16  1  0  0  0  0
 15 29  1  0  0  0  0
 15 30  1  0  0  0  0
 16 17  1  0  0  0  0
 16 31  1  0  0  0  0
 16 32  1  0  0  0  0
 17 33  1  0  0  0  0
 17 34  1  0  0  0  0
M  CHG  1   7  -1
M  CHG  1  13   1
M  END
> <s_m_source_file>
AV-unprocessed.smi

> <i_m_source_file_index>
1816

> <i_lp_mmshare_version>
43012

> <i_f3d_flags>
0

> <s_epik_input>
W0NIMl0xW0NIMl1bQ0gyXVtDSDJdTjFbQ0BIXShbQ0gzXSlbQ0gyXVtOSF1DKD1PKVtOSF1jMm5bY0hdW2NIXXMy

> <s_epik_cmdline>
J2VwaWtfcHl0aG9uJywgJy1waCcsICc3LjAnLCAnLXRuJywgJzgnLCAnLW1hJywgJzIwMCcsICctbWV0YWxfYmluZGluZycsICctaW1hZScsICc8aW5maWxlLm1hZT4nLCAnLW9tYWUnLCAnPG91dGZpbGUubWFlPic=

> <r_lp_tautomer_probability>
0.999

> <r_epik_Ionization_Penalty>
6.21769

> <r_epik_Ionization_Penalty_Charging>
5.38662

> <r_epik_Ionization_Penalty_Neutral>
0.831074

> <r_epik_State_Penalty>
5.38626

> <r_epik_Charging_Adjusted_Penalty>
10.7729

> <i_epik_Tot_Q>
0

> <i_epik_Tot_abs_Q>
2

> <r_epik_Metal_State_Penalty>
1.41347

> <b_epik_Metal_Only>
1

> <s_lp_Force_Field>
OPLS_2005

> <r_lp_Energy>
20.95

> <b_lp_Chiralities_Consistent>
1

> <s_lp_Variant>
AV-unprocessed.smi:1816-4

> <Gold.Version>
5.8.1

> <Gold.Id.Protein>
6NUR|6NUR_protein|mol2

> <Gold.PLP.Fitness>
40.3274

> <Gold.PLP.PLP>
-27.2932

> <Gold.PLP.part.hbond>
-4.6522

> <Gold.PLP.part.metal>
0.0000

> <Gold.PLP.part.buried>
-1.8196

> <Gold.PLP.part.nonpolar>
-21.2848

> <Gold.PLP.part.repulsive>
0.0417

> <Gold.PLP.ligand.clash>
0.0000

> <Gold.PLP.ligand.torsion>
1.0600

> <Gold.PLP.Chemscore.Hbond>
5.0364

> <Gold.PLP.Chemscore.CHOScore>
0.0000

> <Gold.PLP.Chemscore.Metal>
0.0000

> <Gold.Chemscore.Hbonds>
donor molecule, donor type, donor heavy atom, donor atom, acceptor molecule, acceptor atom, score
      L1  H    13    35       P1  7948  2.00
      P1  H  6896  6907       L1     7  1.01
      P1  H  6931  6943       L1     9  0.71
      P1  H  6934  6947       L1     6  0.02

> <Gold.PLP.Chemscore.Internal.Correction>
0.0450

> <Gold.Rescore>
     Score         DG    S(hbond)    S(metal)    S(lipo)     H(rot)  DE(clash)    DE(int)     intcor
     15.44     -18.19       3.13        0.00      53.80       1.57       0.05       2.70       ----

> <Gold.Chemscore.Fitness>
15.4435

> <Gold.Chemscore.DG>
-18.1940

> <Gold.Chemscore.ZeroCoef>
-5.4800

> <Gold.Chemscore.Hbond>
3.1262

> <Gold.Chemscore.Metal>
0.0000

> <Gold.Chemscore.Lipo>
53.7968

> <Gold.Chemscore.Internal_Hbond>
0.0000

> <Gold.Chemscore.DEClash>
0.0509

> <Gold.Chemscore.DEInternal>
2.6996

> <Gold.Chemscore.Rot>
1.5710

> <Gold.Chemscore.Internal.Correction>
   9.000000E+99

> <Gold.Chemscore.Hbonds>
donor molecule, donor type, donor heavy atom, donor atom, acceptor molecule, acceptor atom, score
      L1  H    13    35       P1  7948  1.00
      P1  H  6896  6907       L1     7  0.23
      P1  H  6931  6943       L1     9  0.46
      P1  H  6934  6947       L1     6  0.03

> <Gold.Chemscore.Hbond.Weighted>
-10.4417

> <Gold.Chemscore.Metal.Weighted>
-0.0000

> <Gold.Chemscore.Lipo.Weighted>
-6.2942

> <Gold.Chemscore.Internal_Hbond.Weighted>
0.0000

> <Gold.Chemscore.DEClash.Weighted>
0.0509

> <Gold.Chemscore.DEInternal.Weighted>
2.6996

> <Gold.Chemscore.Rot.Weighted>
4.0219

> <Gold.Chemscore.Internal.Correction.Weighted>
   9.000000E+99

> <Gold.Protein.RotatedTorsions>
[ 6907 6896 6895 6894 ] final  -55.92 input  -60.11 | X-H torsion
[ 7974 7965 7964 7962 ] final  -74.32 input  175.53 | X-H torsion
[ 8008 7997 7996 7995 ] final   55.89 input   59.86 | X-H torsion
[ 10167 10162 10161 10158 ] final   91.20 input  -65.29 | X-H torsion
[ 10718 10713 10712 10709 ] final   45.60 input   66.30 | X-H torsion
[ 10763 10752 10751 10750 ] final   78.39 input  -60.55 | X-H torsion
[ 11005 11000 10999 10996 ] final  142.27 input  -57.11 | X-H torsion

> <Gold.Protein.ActiveResidues>
 VAL166  LYS551  ARG553  GLY616  TRP617  ASP618  TYR619  PRO620  LYS621  CYS622 
 ASP623  PHE694  ASN695  SER759  ASP760  ASP761  ALA762  ILE779  LEU786  VAL792 
 PHE793  MET794  SER795  GLU796  ALA797  LYS798  CYS799  TRP800  GLU811  SER814 

> <Gold.Protein.RotatedAtoms>
  150.8211  134.7419  159.6772 H   0  0  0  0  0  0  0  0  0  0  0  0  # atno 6907 bound_to 6896
  152.4326  134.5745  159.9940 H   0  0  0  0  0  0  0  0  0  0  0  0  # atno 6908 bound_to 6896
  151.5929  133.3327  159.3067 H   0  0  0  0  0  0  0  0  0  0  0  0  # atno 6909 bound_to 6896
  145.6406  140.9312  143.1038 H   0  0  0  0  0  0  0  0  0  0  0  0  # atno 7974 bound_to 7965
  155.5085  140.3476  155.4384 H   0  0  0  0  0  0  0  0  0  0  0  0  # atno 8008 bound_to 7997
  156.0866  140.1400  156.9673 H   0  0  0  0  0  0  0  0  0  0  0  0  # atno 8009 bound_to 7997
  154.4610  140.0935  156.6869 H   0  0  0  0  0  0  0  0  0  0  0  0  # atno 8010 bound_to 7997
  139.8398  144.6647  150.9298 H   0  0  0  0  0  0  0  0  0  0  0  0  # atno 10167 bound_to 10162
  157.4392  130.8071  149.7678 H   0  0  0  0  0  0  0  0  0  0  0  0  # atno 10718 bound_to 10713
  153.0871  135.4879  154.8617 H   0  0  0  0  0  0  0  0  0  0  0  0  # atno 10763 bound_to 10752
  154.7223  135.3042  154.9029 H   0  0  0  0  0  0  0  0  0  0  0  0  # atno 10764 bound_to 10752
  153.9689  135.6803  153.4800 H   0  0  0  0  0  0  0  0  0  0  0  0  # atno 10765 bound_to 10752
  140.0464  134.9278  157.0937 H   0  0  0  0  0  0  0  0  0  0  0  0  # atno 11005 bound_to 11000
  144.7159  139.8200  143.7399 LP  0  0  0  0  0  0  0  0  0  0  0  0  # atno 17320 bound_to 7965
  146.1284  139.4314  143.0184 LP  0  0  0  0  0  0  0  0  0  0  0  0  # atno 17321 bound_to 7965
  140.7799  143.3924  151.1288 LP  0  0  0  0  0  0  0  0  0  0  0  0  # atno 17342 bound_to 10162
  139.7571  143.8691  152.3091 LP  0  0  0  0  0  0  0  0  0  0  0  0  # atno 17343 bound_to 10162
  155.9942  130.3919  150.2868 LP  0  0  0  0  0  0  0  0  0  0  0  0  # atno 17370 bound_to 10713
  157.1031  131.0201  151.3078 LP  0  0  0  0  0  0  0  0  0  0  0  0  # atno 17371 bound_to 10713
  140.3987  134.2106  155.7164 LP  0  0  0  0  0  0  0  0  0  0  0  0  # atno 17394 bound_to 11000
  141.1909  133.8207  157.0901 LP  0  0  0  0  0  0  0  0  0  0  0  0  # atno 17395 bound_to 11000

$$$$
