AV-unprocessed.smi:1483|AV-procd|sdf|5989|dock2
  -GOLD-   22720 6 83D 1   1.00000     0.00000
 Structure written by MMmdl.
 49 50  0  0  0  0  0  0  0  0  2 V2000
  152.7978  140.2808  158.9417 C   0  0  0  0  0  0  0  0  0  0  0  0
  151.8779  140.6078  157.7839 C   0  0  0  0  0  0  0  0  0  0  0  0
  151.8811  139.8220  156.6122 C   0  0  0  0  0  0  0  0  0  0  0  0
  151.0014  140.1696  155.5692 C   0  0  0  0  0  0  0  0  0  0  0  0
  150.1556  141.2857  155.7359 C   0  0  0  0  0  0  0  0  0  0  0  0
  149.1940  141.7045  154.6390 C   0  0  0  0  0  0  0  0  0  0  0  0
  148.0311  140.7164  154.5602 C   0  0  0  0  0  0  0  0  0  0  0  0
  147.3361  140.5028  155.5531 O   0  0  0  0  0  0  0  0  0  0  0  0
  147.8416  140.1082  153.3789 N   0  0  0  0  0  0  0  0  0  0  0  0
  146.8234  139.0985  153.1101 C   0  0  2  0  0  0  0  0  0  0  0  0
  147.1035  137.8183  153.9169 C   0  0  0  0  0  0  0  0  0  0  0  0
  146.0999  136.7085  153.5645 C   0  0  0  0  0  0  0  0  0  0  0  0
  146.1036  136.4189  152.1071 N   0  3  1  0  0  0  0  0  0  0  0  0
  145.2405  135.2580  151.7667 C   0  0  0  0  0  0  0  0  0  0  0  0
  145.9954  134.1307  151.0294 C   0  0  0  0  0  0  0  0  0  0  0  0
  145.0032  133.1223  150.4318 C   0  0  0  0  0  0  0  0  0  0  0  0
  147.0002  133.4145  151.9475 C   0  0  0  0  0  0  0  0  0  0  0  0
  145.7971  137.6372  151.3103 C   0  0  0  0  0  0  0  0  0  0  0  0
  146.8001  138.7635  151.6110 C   0  0  0  0  0  0  0  0  0  0  0  0
  150.2318  142.0053  156.9474 C   0  0  0  0  0  0  0  0  0  0  0  0
  151.0732  141.6806  157.9520 N   0  0  0  0  0  0  0  0  0  0  0  0
  153.3627  139.3676  158.7526 H   0  0  0  0  0  0  0  0  0  0  0  0
  152.2212  140.1390  159.8563 H   0  0  0  0  0  0  0  0  0  0  0  0
  153.5074  141.0925  159.1041 H   0  0  0  0  0  0  0  0  0  0  0  0
  152.5401  138.9720  156.5122 H   0  0  0  0  0  0  0  0  0  0  0  0
  150.9796  139.5907  154.6574 H   0  0  0  0  0  0  0  0  0  0  0  0
  148.8118  142.7062  154.8415 H   0  0  0  0  0  0  0  0  0  0  0  0
  149.7160  141.7532  153.6822 H   0  0  0  0  0  0  0  0  0  0  0  0
  148.4631  140.3470  152.6195 H   0  0  0  0  0  0  0  0  0  0  0  0
  145.8432  139.4907  153.3887 H   0  0  0  0  0  0  0  0  0  0  0  0
  148.1173  137.4678  153.7165 H   0  0  0  0  0  0  0  0  0  0  0  0
  147.0556  138.0285  154.9861 H   0  0  0  0  0  0  0  0  0  0  0  0
  146.3588  135.8070  154.1211 H   0  0  0  0  0  0  0  0  0  0  0  0
  145.0950  136.9966  153.8771 H   0  0  0  0  0  0  0  0  0  0  0  0
  144.8181  134.8388  152.6813 H   0  0  0  0  0  0  0  0  0  0  0  0
  144.3918  135.6052  151.1747 H   0  0  0  0  0  0  0  0  0  0  0  0
  146.5504  134.5543  150.1933 H   0  0  0  0  0  0  0  0  0  0  0  0
  144.4102  132.6392  151.2091 H   0  0  0  0  0  0  0  0  0  0  0  0
  145.5228  132.3412  149.8761 H   0  0  0  0  0  0  0  0  0  0  0  0
  144.3134  133.6101  149.7426 H   0  0  0  0  0  0  0  0  0  0  0  0
  146.5029  132.9666  152.8084 H   0  0  0  0  0  0  0  0  0  0  0  0
  147.7612  134.0999  152.3212 H   0  0  0  0  0  0  0  0  0  0  0  0
  147.5183  132.6172  151.4132 H   0  0  0  0  0  0  0  0  0  0  0  0
  145.8298  137.4161  150.2445 H   0  0  0  0  0  0  0  0  0  0  0  0
  144.7822  137.9723  151.5305 H   0  0  0  0  0  0  0  0  0  0  0  0
  146.5407  139.6517  151.0334 H   0  0  0  0  0  0  0  0  0  0  0  0
  147.7950  138.4602  151.2808 H   0  0  0  0  0  0  0  0  0  0  0  0
  149.6048  142.8691  157.1133 H   0  0  0  0  0  0  0  0  0  0  0  0
  147.0488  136.1457  151.8784 H   0  0  0  0  0  0  0  0  0  0  0  0
  1  2  1  0  0  0  0
  1 22  1  0  0  0  0
  1 23  1  0  0  0  0
  1 24  1  0  0  0  0
  2 21  1  0  0  0  0
  2  3  2  0  0  0  0
  3  4  1  0  0  0  0
  3 25  1  0  0  0  0
  4  5  2  0  0  0  0
  4 26  1  0  0  0  0
  5  6  1  0  0  0  0
  5 20  1  0  0  0  0
  6  7  1  0  0  0  0
  6 27  1  0  0  0  0
  6 28  1  0  0  0  0
  7  8  2  0  0  0  0
  7  9  1  0  0  0  0
  9 10  1  0  0  0  0
  9 29  1  0  0  0  0
 10 19  1  0  0  0  0
 10 11  1  0  0  0  0
 10 30  1  0  0  0  0
 11 12  1  0  0  0  0
 11 31  1  0  0  0  0
 11 32  1  0  0  0  0
 12 13  1  0  0  0  0
 12 33  1  0  0  0  0
 12 34  1  0  0  0  0
 13 14  1  0  0  0  0
 13 18  1  0  0  0  0
 13 49  1  0  0  0  0
 14 15  1  0  0  0  0
 14 35  1  0  0  0  0
 14 36  1  0  0  0  0
 15 16  1  0  0  0  0
 15 17  1  0  0  0  0
 15 37  1  0  0  0  0
 16 38  1  0  0  0  0
 16 39  1  0  0  0  0
 16 40  1  0  0  0  0
 17 41  1  0  0  0  0
 17 42  1  0  0  0  0
 17 43  1  0  0  0  0
 18 19  1  0  0  0  0
 18 44  1  0  0  0  0
 18 45  1  0  0  0  0
 19 46  1  0  0  0  0
 19 47  1  0  0  0  0
 20 21  2  0  0  0  0
 20 48  1  0  0  0  0
M  CHG  1  13   1
M  END
> <s_m_source_file>
AV-unprocessed.smi

> <i_m_source_file_index>
1483

> <i_lp_mmshare_version>
43012

> <i_f3d_flags>
0

> <s_epik_input>
W0NIM11jMVtjSF1bY0hdYyhbY0hdbjEpW0NIMl1DKD1PKVtOSF1bQ0hdMltDSDJdW0NIMl1OKFtDSDJdW0NIMl0yKVtDSDJdW0NIXShbQ0gzXSlbQ0gzXQ==

> <s_epik_cmdline>
J2VwaWtfcHl0aG9uJywgJy1waCcsICc3LjAnLCAnLXRuJywgJzgnLCAnLW1hJywgJzIwMCcsICctbWV0YWxfYmluZGluZycsICctaW1hZScsICc8aW5maWxlLm1hZT4nLCAnLW9tYWUnLCAnPG91dGZpbGUubWFlPic=

> <r_epik_Ionization_Penalty>
0.0186701

> <r_epik_Ionization_Penalty_Charging>
0.00405837

> <r_epik_Ionization_Penalty_Neutral>
0.0146117

> <r_epik_State_Penalty>
0.0114383

> <r_epik_Charging_Adjusted_Penalty>
0.0154967

> <i_epik_Tot_Q>
1

> <i_epik_Tot_abs_Q>
1

> <r_epik_Metal_State_Penalty>
0.0111573

> <b_epik_Metal_Only>
0

> <s_lp_Force_Field>
OPLS_2005

> <r_lp_Energy>
16.8869

> <b_lp_Chiralities_Consistent>
1

> <s_lp_Variant>
AV-unprocessed.smi:1483-1

> <Gold.Version>
5.8.1

> <Gold.Id.Protein>
6NUR|6NUR_protein|mol2

> <Gold.PLP.Fitness>
46.8735

> <Gold.PLP.PLP>
-36.7475

> <Gold.PLP.part.hbond>
-2.0000

> <Gold.PLP.part.metal>
0.0000

> <Gold.PLP.part.buried>
2.3564

> <Gold.PLP.part.nonpolar>
-37.5957

> <Gold.PLP.part.repulsive>
0.1734

> <Gold.PLP.ligand.clash>
0.0000

> <Gold.PLP.ligand.torsion>
0.9787

> <Gold.PLP.Chemscore.Hbond>
3.0000

> <Gold.PLP.Chemscore.CHOScore>
1.0000

> <Gold.PLP.Chemscore.Metal>
0.0000

> <Gold.Chemscore.Hbonds>
donor molecule, donor type, donor heavy atom, donor atom, acceptor molecule, acceptor atom, score
      L1  H     9    29       P1  7957  1.00
      L1  H    13    49       P1  7948  2.00
      L1  C    20    48       P1  8028  1.00

> <Gold.PLP.Chemscore.Internal.Correction>
0.0833

> <Gold.Rescore>
     Score         DG    S(hbond)    S(metal)    S(lipo)     H(rot)  DE(clash)    DE(int)     intcor
     18.31     -20.58       1.98        0.00     104.70       1.47       1.41       0.87       ----

> <Gold.Chemscore.Fitness>
18.3069

> <Gold.Chemscore.DG>
-20.5839

> <Gold.Chemscore.ZeroCoef>
-5.4800

> <Gold.Chemscore.Hbond>
1.9829

> <Gold.Chemscore.Metal>
0.0000

> <Gold.Chemscore.Lipo>
104.7022

> <Gold.Chemscore.Internal_Hbond>
0.0000

> <Gold.Chemscore.DEClash>
1.4102

> <Gold.Chemscore.DEInternal>
0.8668

> <Gold.Chemscore.Rot>
1.4723

> <Gold.Chemscore.Internal.Correction>
   9.000000E+99

> <Gold.Chemscore.Hbonds>
donor molecule, donor type, donor heavy atom, donor atom, acceptor molecule, acceptor atom, score
      L1  H     9    29       P1  7957  0.99
      L1  H    13    49       P1  7948  0.99

> <Gold.Chemscore.Hbond.Weighted>
-6.6229

> <Gold.Chemscore.Metal.Weighted>
-0.0000

> <Gold.Chemscore.Lipo.Weighted>
-12.2502

> <Gold.Chemscore.Internal_Hbond.Weighted>
0.0000

> <Gold.Chemscore.DEClash.Weighted>
1.4102

> <Gold.Chemscore.DEInternal.Weighted>
0.8668

> <Gold.Chemscore.Rot.Weighted>
3.7691

> <Gold.Chemscore.Internal.Correction.Weighted>
   9.000000E+99

> <Gold.Protein.RotatedTorsions>
[ 6907 6896 6895 6894 ] final -134.57 input  -60.11 | X-H torsion
[ 7974 7965 7964 7962 ] final  152.02 input  175.53 | X-H torsion
[ 8008 7997 7996 7995 ] final -164.17 input   59.86 | X-H torsion
[ 10167 10162 10161 10158 ] final   10.07 input  -65.29 | X-H torsion
[ 10718 10713 10712 10709 ] final -155.41 input   66.30 | X-H torsion
[ 10763 10752 10751 10750 ] final -108.06 input  -60.55 | X-H torsion
[ 11005 11000 10999 10996 ] final   63.24 input  -57.11 | X-H torsion

> <Gold.Protein.ActiveResidues>
 VAL166  LYS551  ARG553  GLY616  TRP617  ASP618  TYR619  PRO620  LYS621  CYS622 
 ASP623  PHE694  ASN695  SER759  ASP760  ASP761  ALA762  ILE779  LEU786  VAL792 
 PHE793  MET794  SER795  GLU796  ALA797  LYS798  CYS799  TRP800  GLU811  SER814 

> <Gold.Protein.RotatedAtoms>
  150.9874  133.6183  159.2713 H   0  0  0  0  0  0  0  0  0  0  0  0  # atno 6907 bound_to 6896
  151.3416  135.0864  159.9383 H   0  0  0  0  0  0  0  0  0  0  0  0  # atno 6908 bound_to 6896
  152.5235  133.9484  159.7714 H   0  0  0  0  0  0  0  0  0  0  0  0  # atno 6909 bound_to 6896
  144.8252  139.6613  143.6083 H   0  0  0  0  0  0  0  0  0  0  0  0  # atno 7974 bound_to 7965
  155.8318  140.0935  157.1788 H   0  0  0  0  0  0  0  0  0  0  0  0  # atno 8008 bound_to 7997
  154.3980  140.1417  156.3683 H   0  0  0  0  0  0  0  0  0  0  0  0  # atno 8009 bound_to 7997
  155.8158  140.3448  155.5487 H   0  0  0  0  0  0  0  0  0  0  0  0  # atno 8010 bound_to 7997
  140.6216  143.8191  150.7182 H   0  0  0  0  0  0  0  0  0  0  0  0  # atno 10167 bound_to 10162
  156.5124  130.8441  151.2651 H   0  0  0  0  0  0  0  0  0  0  0  0  # atno 10718 bound_to 10713
  154.8113  135.4652  154.0524 H   0  0  0  0  0  0  0  0  0  0  0  0  # atno 10763 bound_to 10752
  153.1952  135.6861  153.8307 H   0  0  0  0  0  0  0  0  0  0  0  0  # atno 10764 bound_to 10752
  153.7811  135.3256  155.3343 H   0  0  0  0  0  0  0  0  0  0  0  0  # atno 10765 bound_to 10752
  140.0038  134.6401  155.9888 H   0  0  0  0  0  0  0  0  0  0  0  0  # atno 11005 bound_to 11000
  146.2557  139.6297  142.9396 LP  0  0  0  0  0  0  0  0  0  0  0  0  # atno 17320 bound_to 7965
  145.5017  141.0437  143.2537 LP  0  0  0  0  0  0  0  0  0  0  0  0  # atno 17321 bound_to 7965
  140.1782  143.4137  152.1952 LP  0  0  0  0  0  0  0  0  0  0  0  0  # atno 17342 bound_to 10162
  139.5444  144.7285  151.4630 LP  0  0  0  0  0  0  0  0  0  0  0  0  # atno 17343 bound_to 10162
  157.7448  130.9945  150.2710 LP  0  0  0  0  0  0  0  0  0  0  0  0  # atno 17370 bound_to 10713
  156.3227  130.3788  149.7560 LP  0  0  0  0  0  0  0  0  0  0  0  0  # atno 17371 bound_to 10713
  141.1661  133.6537  156.4486 LP  0  0  0  0  0  0  0  0  0  0  0  0  # atno 17394 bound_to 11000
  140.4679  134.6780  157.5116 LP  0  0  0  0  0  0  0  0  0  0  0  0  # atno 17395 bound_to 11000

$$$$
