AV-unprocessed.smi:1570|AV-procd|sdf|6324|dock6
  -GOLD-   22720 6533D 1   1.00000     0.00000
 Structure written by MMmdl.
 52 54  0  0  0  0  0  0  0  0  2 V2000
  153.2846  141.9080  162.2265 C   0  0  0  0  0  0  0  0  0  0  0  0
  153.8633  141.4654  160.8765 C   0  0  0  0  0  0  0  0  0  0  0  0
  153.0002  141.8762  159.7720 N   0  0  0  0  0  0  0  0  0  0  0  0
  152.6665  141.1348  158.6896 C   0  0  0  0  0  0  0  0  0  0  0  0
  153.0597  139.9948  158.4412 O   0  0  0  0  0  0  0  0  0  0  0  0
  151.8248  141.8661  157.9219 N   0  0  0  0  0  0  0  0  0  0  0  0
  151.2183  141.4473  156.6598 C   0  0  0  0  0  0  0  0  0  0  0  0
  150.7024  139.9955  156.7300 C   0  0  2  0  0  0  0  0  0  0  0  0
  151.5691  139.1844  155.9607 O   0  0  0  0  0  0  0  0  0  0  0  0
  149.2854  139.8682  156.1336 C   0  0  0  0  0  0  0  0  0  0  0  0
  149.2411  140.1727  154.6771 N   0  3  1  0  0  0  0  0  0  0  0  0
  148.5811  139.1408  153.8361 C   0  0  0  0  0  0  0  0  0  0  0  0
  147.0419  139.2265  153.9251 C   0  0  2  0  0  0  0  0  0  0  0  0
  146.3570  138.2591  152.9533 C   0  0  0  0  0  0  0  0  0  0  0  0
  146.6229  140.5479  153.5994 O   0  0  0  0  0  0  0  0  0  0  0  0
  147.1546  141.5304  154.4818 C   0  0  2  0  0  0  0  0  0  0  0  0
  146.5599  142.8896  154.0975 C   0  0  0  0  0  0  0  0  0  0  0  0
  148.6928  141.5164  154.3706 C   0  0  0  0  0  0  0  0  0  0  0  0
  151.6200  143.1147  158.5256 C   0  0  0  0  0  0  0  0  0  0  0  0
  150.8487  144.2206  158.1274 C   0  0  0  0  0  0  0  0  0  0  0  0
  150.8522  145.3510  158.9776 C   0  0  0  0  0  0  0  0  0  0  0  0
  151.6069  145.3547  160.1792 C   0  0  0  0  0  0  0  0  0  0  0  0
  152.3761  144.2288  160.5554 C   0  0  0  0  0  0  0  0  0  0  0  0
  152.3571  143.1198  159.6916 C   0  0  0  0  0  0  0  0  0  0  0  0
  153.9342  141.6004  163.0460 H   0  0  0  0  0  0  0  0  0  0  0  0
  152.3021  141.4675  162.3983 H   0  0  0  0  0  0  0  0  0  0  0  0
  153.1793  142.9924  162.2750 H   0  0  0  0  0  0  0  0  0  0  0  0
  154.8590  141.8876  160.7397 H   0  0  0  0  0  0  0  0  0  0  0  0
  153.9912  140.3820  160.8660 H   0  0  0  0  0  0  0  0  0  0  0  0
  150.3855  142.1237  156.4597 H   0  0  0  0  0  0  0  0  0  0  0  0
  151.9084  141.5874  155.8266 H   0  0  0  0  0  0  0  0  0  0  0  0
  150.7099  139.6494  157.7630 H   0  0  0  0  0  0  0  0  0  0  0  0
  152.1653  138.7390  156.5437 H   0  0  0  0  0  0  0  0  0  0  0  0
  148.8902  138.8687  156.3132 H   0  0  0  0  0  0  0  0  0  0  0  0
  148.6249  140.5520  156.6693 H   0  0  0  0  0  0  0  0  0  0  0  0
  148.8910  139.3067  152.8034 H   0  0  0  0  0  0  0  0  0  0  0  0
  148.9246  138.1400  154.0937 H   0  0  0  0  0  0  0  0  0  0  0  0
  146.7085  138.9843  154.9349 H   0  0  0  0  0  0  0  0  0  0  0  0
  146.6386  137.2267  153.1628 H   0  0  0  0  0  0  0  0  0  0  0  0
  146.6292  138.4774  151.9202 H   0  0  0  0  0  0  0  0  0  0  0  0
  145.2719  138.3297  153.0334 H   0  0  0  0  0  0  0  0  0  0  0  0
  146.8495  141.3011  155.5041 H   0  0  0  0  0  0  0  0  0  0  0  0
  146.9299  143.6792  154.7519 H   0  0  0  0  0  0  0  0  0  0  0  0
  145.4726  142.8754  154.1782 H   0  0  0  0  0  0  0  0  0  0  0  0
  146.8142  143.1575  153.0716 H   0  0  0  0  0  0  0  0  0  0  0  0
  149.1390  142.2692  155.0217 H   0  0  0  0  0  0  0  0  0  0  0  0
  148.9867  141.7810  153.3537 H   0  0  0  0  0  0  0  0  0  0  0  0
  150.2765  144.2136  157.2118 H   0  0  0  0  0  0  0  0  0  0  0  0
  150.2727  146.2219  158.7089 H   0  0  0  0  0  0  0  0  0  0  0  0
  151.5944  146.2280  160.8144 H   0  0  0  0  0  0  0  0  0  0  0  0
  152.9521  144.2264  161.4689 H   0  0  0  0  0  0  0  0  0  0  0  0
  150.2103  140.1984  154.3921 H   0  0  0  0  0  0  0  0  0  0  0  0
  1  2  1  0  0  0  0
  1 25  1  0  0  0  0
  1 26  1  0  0  0  0
  1 27  1  0  0  0  0
  2  3  1  0  0  0  0
  2 28  1  0  0  0  0
  2 29  1  0  0  0  0
  3 24  1  0  0  0  0
  3  4  1  0  0  0  0
  4  5  2  0  0  0  0
  4  6  1  0  0  0  0
  6  7  1  0  0  0  0
  6 19  1  0  0  0  0
  7  8  1  0  0  0  0
  7 30  1  0  0  0  0
  7 31  1  0  0  0  0
  8  9  1  0  0  0  0
  8 10  1  0  0  0  0
  8 32  1  0  0  0  0
  9 33  1  0  0  0  0
 10 11  1  0  0  0  0
 10 34  1  0  0  0  0
 10 35  1  0  0  0  0
 11 18  1  0  0  0  0
 11 12  1  0  0  0  0
 11 52  1  0  0  0  0
 12 13  1  0  0  0  0
 12 36  1  0  0  0  0
 12 37  1  0  0  0  0
 13 14  1  0  0  0  0
 13 15  1  0  0  0  0
 13 38  1  0  0  0  0
 14 39  1  0  0  0  0
 14 40  1  0  0  0  0
 14 41  1  0  0  0  0
 15 16  1  0  0  0  0
 16 17  1  0  0  0  0
 16 18  1  0  0  0  0
 16 42  1  0  0  0  0
 17 43  1  0  0  0  0
 17 44  1  0  0  0  0
 17 45  1  0  0  0  0
 18 46  1  0  0  0  0
 18 47  1  0  0  0  0
 19 24  2  0  0  0  0
 19 20  1  0  0  0  0
 20 21  2  0  0  0  0
 20 48  1  0  0  0  0
 21 22  1  0  0  0  0
 21 49  1  0  0  0  0
 22 23  2  0  0  0  0
 22 50  1  0  0  0  0
 23 24  1  0  0  0  0
 23 51  1  0  0  0  0
M  CHG  1  11   1
M  END
> <s_m_source_file>
AV-unprocessed.smi

> <i_m_source_file_index>
1570

> <i_lp_mmshare_version>
43012

> <i_f3d_flags>
0

> <s_epik_input>
W2NIXTFbY0hdW2NIXVtjSF1jKGMxMiluKFtDSDJdW0NIM10pYyg9TyluMltDSDJdW0NASF0oW09IXSlbQ0gyXU4zW0NIMl1bQ0BASF0oW0NIM10pT1tDQEBIXShbQ0gzXSlbQ0gyXTM=

> <s_epik_cmdline>
J2VwaWtfcHl0aG9uJywgJy1waCcsICc3LjAnLCAnLXRuJywgJzgnLCAnLW1hJywgJzIwMCcsICctbWV0YWxfYmluZGluZycsICctaW1hZScsICc8aW5maWxlLm1hZT4nLCAnLW9tYWUnLCAnPG91dGZpbGUubWFlPic=

> <r_epik_Ionization_Penalty>
0.706332

> <r_epik_Ionization_Penalty_Charging>
0.706318

> <r_epik_Ionization_Penalty_Neutral>
1.42224e-05

> <r_epik_State_Penalty>
0.729493

> <r_epik_Charging_Adjusted_Penalty>
1.43581

> <i_epik_Tot_Q>
1

> <i_epik_Tot_abs_Q>
1

> <r_epik_Metal_State_Penalty>
0.729493

> <b_epik_Metal_Only>
0

> <s_lp_Force_Field>
OPLS_2005

> <r_lp_Energy>
54.3222

> <b_lp_Chiralities_Consistent>
1

> <s_lp_Variant>
AV-unprocessed.smi:1570-13

> <Gold.Version>
5.8.1

> <Gold.Id.Protein>
6NUR|6NUR_protein|mol2

> <Gold.PLP.Fitness>
50.4919

> <Gold.PLP.PLP>
-50.9723

> <Gold.PLP.part.hbond>
-1.0000

> <Gold.PLP.part.metal>
0.0000

> <Gold.PLP.part.buried>
-5.6243

> <Gold.PLP.part.nonpolar>
-43.9057

> <Gold.PLP.part.repulsive>
0.2796

> <Gold.PLP.ligand.clash>
0.0000

> <Gold.PLP.ligand.torsion>
1.8124

> <Gold.PLP.Chemscore.Hbond>
1.0000

> <Gold.PLP.Chemscore.CHOScore>
0.0000

> <Gold.PLP.Chemscore.Metal>
0.0000

> <Gold.Chemscore.Hbonds>
donor molecule, donor type, donor heavy atom, donor atom, acceptor molecule, acceptor atom, score
      P1  H  7997  8008       L1     5  0.86

> <Gold.PLP.Chemscore.Internal.Correction>
0.1444

> <Gold.Rescore>
     Score         DG    S(hbond)    S(metal)    S(lipo)     H(rot)  DE(clash)    DE(int)     intcor
     15.98     -18.85       0.89        0.00     135.37       2.13       0.09       2.77       ----

> <Gold.Chemscore.Fitness>
15.9846

> <Gold.Chemscore.DG>
-18.8456

> <Gold.Chemscore.ZeroCoef>
-5.4800

> <Gold.Chemscore.Hbond>
0.8926

> <Gold.Chemscore.Metal>
0.0000

> <Gold.Chemscore.Lipo>
135.3657

> <Gold.Chemscore.Internal_Hbond>
0.0000

> <Gold.Chemscore.DEClash>
0.0922

> <Gold.Chemscore.DEInternal>
2.7688

> <Gold.Chemscore.Rot>
2.1303

> <Gold.Chemscore.Internal.Correction>
   9.000000E+99

> <Gold.Chemscore.Hbonds>
donor molecule, donor type, donor heavy atom, donor atom, acceptor molecule, acceptor atom, score
      P1  H  7997  8008       L1     5  0.61

> <Gold.Chemscore.Hbond.Weighted>
-2.9814

> <Gold.Chemscore.Metal.Weighted>
-0.0000

> <Gold.Chemscore.Lipo.Weighted>
-15.8378

> <Gold.Chemscore.Internal_Hbond.Weighted>
0.0000

> <Gold.Chemscore.DEClash.Weighted>
0.0922

> <Gold.Chemscore.DEInternal.Weighted>
2.7688

> <Gold.Chemscore.Rot.Weighted>
5.4535

> <Gold.Chemscore.Internal.Correction.Weighted>
   9.000000E+99

> <Gold.Protein.RotatedTorsions>
[ 6907 6896 6895 6894 ] final  166.58 input  -60.11 | X-H torsion
[ 7974 7965 7964 7962 ] final  121.46 input  175.53 | X-H torsion
[ 8008 7997 7996 7995 ] final  -89.73 input   59.86 | X-H torsion
[ 10167 10162 10161 10158 ] final  109.51 input  -65.29 | X-H torsion
[ 10718 10713 10712 10709 ] final -104.79 input   66.30 | X-H torsion
[ 10763 10752 10751 10750 ] final  176.93 input  -60.55 | X-H torsion
[ 11005 11000 10999 10996 ] final  -16.26 input  -57.11 | X-H torsion

> <Gold.Protein.ActiveResidues>
 VAL166  LYS551  ARG553  GLY616  TRP617  ASP618  TYR619  PRO620  LYS621  CYS622 
 ASP623  PHE694  ASN695  SER759  ASP760  ASP761  ALA762  ILE779  LEU786  VAL792 
 PHE793  MET794  SER795  GLU796  ALA797  LYS798  CYS799  TRP800  GLU811  SER814 

> <Gold.Protein.RotatedAtoms>
  151.8767  133.3486  159.3752 H   0  0  0  0  0  0  0  0  0  0  0  0  # atno 6907 bound_to 6896
  150.7138  134.5059  159.5593 H   0  0  0  0  0  0  0  0  0  0  0  0  # atno 6908 bound_to 6896
  152.2603  134.8041  160.0482 H   0  0  0  0  0  0  0  0  0  0  0  0  # atno 6909 bound_to 6896
  145.1191  139.3401  143.4723 H   0  0  0  0  0  0  0  0  0  0  0  0  # atno 7974 bound_to 7965
  154.6901  140.0538  157.0355 H   0  0  0  0  0  0  0  0  0  0  0  0  # atno 8008 bound_to 7997
  155.0829  140.3211  155.4577 H   0  0  0  0  0  0  0  0  0  0  0  0  # atno 8009 bound_to 7997
  156.2725  140.2062  156.5956 H   0  0  0  0  0  0  0  0  0  0  0  0  # atno 8010 bound_to 7997
  139.6761  144.7122  151.1600 H   0  0  0  0  0  0  0  0  0  0  0  0  # atno 10167 bound_to 10162
  156.0319  130.5532  150.7446 H   0  0  0  0  0  0  0  0  0  0  0  0  # atno 10718 bound_to 10713
  154.4878  135.2777  155.1521 H   0  0  0  0  0  0  0  0  0  0  0  0  # atno 10763 bound_to 10752
  154.3205  135.6210  153.5509 H   0  0  0  0  0  0  0  0  0  0  0  0  # atno 10764 bound_to 10752
  152.9883  135.5741  154.5292 H   0  0  0  0  0  0  0  0  0  0  0  0  # atno 10765 bound_to 10752
  140.8050  133.8185  155.9507 H   0  0  0  0  0  0  0  0  0  0  0  0  # atno 11005 bound_to 11000
  146.3522  140.1143  142.8602 LP  0  0  0  0  0  0  0  0  0  0  0  0  # atno 17320 bound_to 7965
  145.0760  140.9189  143.4853 LP  0  0  0  0  0  0  0  0  0  0  0  0  # atno 17321 bound_to 7965
  140.7636  143.5770  150.8935 LP  0  0  0  0  0  0  0  0  0  0  0  0  # atno 17342 bound_to 10162
  139.9439  143.6350  152.3046 LP  0  0  0  0  0  0  0  0  0  0  0  0  # atno 17343 bound_to 10162
  157.5006  131.0918  151.0319 LP  0  0  0  0  0  0  0  0  0  0  0  0  # atno 17370 bound_to 10713
  157.0701  130.5860  149.5401 LP  0  0  0  0  0  0  0  0  0  0  0  0  # atno 17371 bound_to 10713
  140.9256  134.2086  157.4898 LP  0  0  0  0  0  0  0  0  0  0  0  0  # atno 17394 bound_to 11000
  139.8718  134.9811  156.5103 LP  0  0  0  0  0  0  0  0  0  0  0  0  # atno 17395 bound_to 11000

$$$$
