AV-unprocessed.smi:140|AV-procd|sdf|1186|dock4
  -GOLD-   2262018343D 1   1.00000     0.00000
 Structure written by MMmdl.
 52 55  0  0  0  0  0  0  0  0  1 V2000
  155.0265  138.8967  161.9640 C   0  0  0  0  0  0  0  0  0  0  0  0
  154.0392  138.8778  160.8412 C   0  0  0  0  0  0  0  0  0  0  0  0
  153.2602  137.8538  160.3901 C   0  0  0  0  0  0  0  0  0  0  0  0
  152.4819  138.3237  159.2963 C   0  0  0  0  0  0  0  0  0  0  0  0
  151.5027  137.5715  158.4716 C   0  0  0  0  0  0  0  0  0  0  0  0
  150.6132  136.8685  158.9537 O   0  0  0  0  0  0  0  0  0  0  0  0
  151.6567  137.7243  156.9467 C   0  0  0  0  0  0  0  0  0  0  0  0
  150.4953  137.2498  156.2052 N   0  0  0  0  0  0  0  0  0  0  0  0
  150.4704  135.8884  155.8114 C   0  0  0  0  0  0  0  0  0  0  0  0
  151.3897  135.1122  156.0776 O   0  0  0  0  0  0  0  0  0  0  0  0
  149.2812  135.4966  155.0631 C   0  0  0  0  0  0  0  0  0  0  0  0
  149.1455  134.2250  154.6502 F   0  0  0  0  0  0  0  0  0  0  0  0
  148.3100  136.3906  154.7764 C   0  0  0  0  0  0  0  0  0  0  0  0
  148.3694  137.7206  155.1604 N   0  0  0  0  0  0  0  0  0  0  0  0
  147.2731  138.7062  154.8182 C   0  0  1  0  0  0  0  0  0  0  0  0
  147.8202  139.8365  153.9271 C   0  0  0  0  0  0  0  0  0  0  0  0
  146.8220  139.8740  152.7874 C   0  0  0  0  0  0  0  0  0  0  0  0
  146.3675  138.4237  152.7222 C   0  0  0  0  0  0  0  0  0  0  0  0
  146.2636  138.0623  154.0935 O   0  0  0  0  0  0  0  0  0  0  0  0
  149.4811  138.1872  155.8945 C   0  0  0  0  0  0  0  0  0  0  0  0
  149.5599  139.3700  156.2355 O   0  0  0  0  0  0  0  0  0  0  0  0
  152.7982  139.6495  159.1073 C   0  0  0  0  0  0  0  0  0  0  0  0
  152.2766  140.6486  158.1117 C   0  0  0  0  0  0  0  0  0  0  0  0
  153.7715  139.9886  160.0495 N   0  0  0  0  0  0  0  0  0  0  0  0
  154.4059  141.2958  160.1941 C   0  0  0  0  0  0  0  0  0  0  0  0
  153.4199  142.4165  160.3044 C   0  0  0  0  0  0  0  0  0  0  0  0
  152.6712  142.7837  161.3947 C   0  0  0  0  0  0  0  0  0  0  0  0
  151.8280  143.9057  161.1457 C   0  0  0  0  0  0  0  0  0  0  0  0
  151.9447  144.3837  159.8680 C   0  0  0  0  0  0  0  0  0  0  0  0
  153.0983  143.4622  158.9437 S   0  0  0  0  0  0  0  0  0  0  0  0
  154.9882  137.9653  162.5293 H   0  0  0  0  0  0  0  0  0  0  0  0
  154.8203  139.7128  162.6567 H   0  0  0  0  0  0  0  0  0  0  0  0
  156.0425  139.0152  161.5869 H   0  0  0  0  0  0  0  0  0  0  0  0
  153.2560  136.8577  160.8078 H   0  0  0  0  0  0  0  0  0  0  0  0
  151.8307  138.7663  156.6740 H   0  0  0  0  0  0  0  0  0  0  0  0
  152.5317  137.1820  156.5855 H   0  0  0  0  0  0  0  0  0  0  0  0
  147.4574  136.0306  154.2214 H   0  0  0  0  0  0  0  0  0  0  0  0
  146.8681  139.0457  155.7732 H   0  0  0  0  0  0  0  0  0  0  0  0
  147.8829  140.7754  154.4779 H   0  0  0  0  0  0  0  0  0  0  0  0
  148.8126  139.5766  153.5547 H   0  0  0  0  0  0  0  0  0  0  0  0
  145.9805  140.5182  153.0452 H   0  0  0  0  0  0  0  0  0  0  0  0
  147.2532  140.2293  151.8512 H   0  0  0  0  0  0  0  0  0  0  0  0
  145.4176  138.3006  152.2020 H   0  0  0  0  0  0  0  0  0  0  0  0
  147.1164  137.8057  152.2248 H   0  0  0  0  0  0  0  0  0  0  0  0
  151.1898  140.5989  158.0460 H   0  0  0  0  0  0  0  0  0  0  0  0
  152.6832  140.4493  157.1202 H   0  0  0  0  0  0  0  0  0  0  0  0
  152.5201  141.6768  158.3711 H   0  0  0  0  0  0  0  0  0  0  0  0
  155.0549  141.2943  161.0690 H   0  0  0  0  0  0  0  0  0  0  0  0
  155.0723  141.4540  159.3458 H   0  0  0  0  0  0  0  0  0  0  0  0
  152.6963  142.2878  162.3538 H   0  0  0  0  0  0  0  0  0  0  0  0
  151.1746  144.3158  161.9017 H   0  0  0  0  0  0  0  0  0  0  0  0
  151.4268  145.2164  159.4153 H   0  0  0  0  0  0  0  0  0  0  0  0
  1  2  1  0  0  0  0
  1 31  1  0  0  0  0
  1 32  1  0  0  0  0
  1 33  1  0  0  0  0
  2 24  1  0  0  0  0
  2  3  2  0  0  0  0
  3  4  1  0  0  0  0
  3 34  1  0  0  0  0
  4  5  1  0  0  0  0
  4 22  2  0  0  0  0
  5  6  2  0  0  0  0
  5  7  1  0  0  0  0
  7  8  1  0  0  0  0
  7 35  1  0  0  0  0
  7 36  1  0  0  0  0
  8 20  1  0  0  0  0
  8  9  1  0  0  0  0
  9 10  2  0  0  0  0
  9 11  1  0  0  0  0
 11 12  1  0  0  0  0
 11 13  2  0  0  0  0
 13 14  1  0  0  0  0
 13 37  1  0  0  0  0
 14 15  1  0  0  0  0
 14 20  1  0  0  0  0
 15 19  1  0  0  0  0
 15 16  1  0  0  0  0
 15 38  1  0  0  0  0
 16 17  1  0  0  0  0
 16 39  1  0  0  0  0
 16 40  1  0  0  0  0
 17 18  1  0  0  0  0
 17 41  1  0  0  0  0
 17 42  1  0  0  0  0
 18 19  1  0  0  0  0
 18 43  1  0  0  0  0
 18 44  1  0  0  0  0
 20 21  2  0  0  0  0
 22 23  1  0  0  0  0
 22 24  1  0  0  0  0
 23 45  1  0  0  0  0
 23 46  1  0  0  0  0
 23 47  1  0  0  0  0
 24 25  1  0  0  0  0
 25 26  1  0  0  0  0
 25 48  1  0  0  0  0
 25 49  1  0  0  0  0
 26 30  1  0  0  0  0
 26 27  2  0  0  0  0
 27 28  1  0  0  0  0
 27 50  1  0  0  0  0
 28 29  2  0  0  0  0
 28 51  1  0  0  0  0
 29 30  1  0  0  0  0
 29 52  1  0  0  0  0
M  END
> <s_m_source_file>
AV-unprocessed.smi

> <i_m_source_file_index>
140

> <i_lp_mmshare_version>
43012

> <i_f3d_flags>
0

> <s_epik_input>
czFbY0hdW2NIXVtjSF1jMVtDSDJdbjJjKFtDSDNdKWMoW2NIXWMyW0NIM10pQyg9TylbQ0gyXW4zYyg9TyljKEYpW2NIXW4oYzM9TylbQ0BASF00W0NIMl1bQ0gyXVtDSDJdTzQ=

> <s_epik_cmdline>
J2VwaWtfcHl0aG9uJywgJy1waCcsICc3LjAnLCAnLXRuJywgJzgnLCAnLW1hJywgJzIwMCcsICctbWV0YWxfYmluZGluZycsICctaW1hZScsICc8aW5maWxlLm1hZT4nLCAnLW9tYWUnLCAnPG91dGZpbGUubWFlPic=

> <r_lp_tautomer_probability>
1

> <r_epik_Ionization_Penalty>
5.024e-09

> <r_epik_Ionization_Penalty_Charging>
5.01743e-09

> <r_epik_Ionization_Penalty_Neutral>
6.5712e-12

> <r_epik_State_Penalty>
-0

> <r_epik_Charging_Adjusted_Penalty>
5.01743e-09

> <i_epik_Tot_Q>
0

> <i_epik_Tot_abs_Q>
0

> <r_epik_Metal_State_Penalty>
-0

> <b_epik_Metal_Only>
0

> <s_epik_Chemistry_Notes>
This compound contains an acetal/aminal-like group ( X-CH(R)-Y where X, Y are N, S, or O) that may be acid/base labile, releasing an aldehyde.

> <s_lp_Force_Field>
OPLS_2005

> <r_lp_Energy>
38.6163

> <b_lp_Chiralities_Consistent>
1

> <s_lp_Variant>
AV-unprocessed.smi:140-2

> <Gold.Version>
5.8.1

> <Gold.Id.Protein>
6NUR|6NUR_protein|mol2

> <Gold.PLP.Fitness>
53.1508

> <Gold.PLP.PLP>
-49.9386

> <Gold.PLP.part.hbond>
-2.0000

> <Gold.PLP.part.metal>
0.0000

> <Gold.PLP.part.buried>
-3.3416

> <Gold.PLP.part.nonpolar>
-44.9638

> <Gold.PLP.part.repulsive>
0.1309

> <Gold.PLP.ligand.clash>
0.0000

> <Gold.PLP.ligand.torsion>
1.6696

> <Gold.PLP.Chemscore.Hbond>
2.0000

> <Gold.PLP.Chemscore.CHOScore>
0.1604

> <Gold.PLP.Chemscore.Metal>
0.0000

> <Gold.Chemscore.Hbonds>
donor molecule, donor type, donor heavy atom, donor atom, acceptor molecule, acceptor atom, score
      P1  H  6896  6909       L1     6  0.93
      P1  H 10752 10765       L1    10  0.80
      L1  C    13    37       P1  7948  0.06

> <Gold.PLP.Chemscore.Internal.Correction>
0.0702

> <Gold.Rescore>
     Score         DG    S(hbond)    S(metal)    S(lipo)     H(rot)  DE(clash)    DE(int)     intcor
     21.73     -23.29       1.94        0.00     137.80       1.87       0.07       1.49       ----

> <Gold.Chemscore.Fitness>
21.7307

> <Gold.Chemscore.DG>
-23.2862

> <Gold.Chemscore.ZeroCoef>
-5.4800

> <Gold.Chemscore.Hbond>
1.9383

> <Gold.Chemscore.Metal>
0.0000

> <Gold.Chemscore.Lipo>
137.8028

> <Gold.Chemscore.Internal_Hbond>
0.0000

> <Gold.Chemscore.DEClash>
0.0676

> <Gold.Chemscore.DEInternal>
1.4879

> <Gold.Chemscore.Rot>
1.8713

> <Gold.Chemscore.Internal.Correction>
   9.000000E+99

> <Gold.Chemscore.Hbonds>
donor molecule, donor type, donor heavy atom, donor atom, acceptor molecule, acceptor atom, score
      P1  H  6896  6909       L1     6  0.85
      P1  H 10752 10765       L1    10  0.72

> <Gold.Chemscore.Hbond.Weighted>
-6.4738

> <Gold.Chemscore.Metal.Weighted>
-0.0000

> <Gold.Chemscore.Lipo.Weighted>
-16.1229

> <Gold.Chemscore.Internal_Hbond.Weighted>
0.0000

> <Gold.Chemscore.DEClash.Weighted>
0.0676

> <Gold.Chemscore.DEInternal.Weighted>
1.4879

> <Gold.Chemscore.Rot.Weighted>
4.7905

> <Gold.Chemscore.Internal.Correction.Weighted>
   9.000000E+99

> <Gold.Protein.RotatedTorsions>
[ 6907 6896 6895 6894 ] final   91.27 input  -60.11 | X-H torsion
[ 7974 7965 7964 7962 ] final  -27.96 input  175.53 | X-H torsion
[ 8008 7997 7996 7995 ] final   19.75 input   59.86 | X-H torsion
[ 10167 10162 10161 10158 ] final  -20.61 input  -65.29 | X-H torsion
[ 10718 10713 10712 10709 ] final -105.74 input   66.30 | X-H torsion
[ 10763 10752 10751 10750 ] final -141.69 input  -60.55 | X-H torsion
[ 11005 11000 10999 10996 ] final -132.53 input  -57.11 | X-H torsion

> <Gold.Protein.ActiveResidues>
 VAL166  LYS551  ARG553  GLY616  TRP617  ASP618  TYR619  PRO620  LYS621  CYS622 
 ASP623  PHE694  ASN695  SER759  ASP760  ASP761  ALA762  ILE779  LEU786  VAL792 
 PHE793  MET794  SER795  GLU796  ALA797  LYS798  CYS799  TRP800  GLU811  SER814 

> <Gold.Protein.RotatedAtoms>
  152.5449  134.1683  159.8585 H   0  0  0  0  0  0  0  0  0  0  0  0  # atno 6907 bound_to 6896
  151.1695  133.4786  159.2601 H   0  0  0  0  0  0  0  0  0  0  0  0  # atno 6908 bound_to 6896
  151.1290  135.0131  159.8628 H   0  0  0  0  0  0  0  0  0  0  0  0  # atno 6909 bound_to 6896
  146.1321  140.5220  142.8689 H   0  0  0  0  0  0  0  0  0  0  0  0  # atno 7974 bound_to 7965
  154.9254  140.3033  155.5194 H   0  0  0  0  0  0  0  0  0  0  0  0  # atno 8008 bound_to 7997
  156.3007  140.2363  156.4245 H   0  0  0  0  0  0  0  0  0  0  0  0  # atno 8009 bound_to 7997
  154.8289  140.0419  157.1452 H   0  0  0  0  0  0  0  0  0  0  0  0  # atno 8010 bound_to 7997
  140.7277  143.4706  151.0253 H   0  0  0  0  0  0  0  0  0  0  0  0  # atno 10167 bound_to 10162
  156.0359  130.5578  150.7582 H   0  0  0  0  0  0  0  0  0  0  0  0  # atno 10718 bound_to 10713
  154.8536  135.3517  154.5908 H   0  0  0  0  0  0  0  0  0  0  0  0  # atno 10763 bound_to 10752
  153.6518  135.6994  153.5211 H   0  0  0  0  0  0  0  0  0  0  0  0  # atno 10764 bound_to 10752
  153.2888  135.4241  155.1105 H   0  0  0  0  0  0  0  0  0  0  0  0  # atno 10765 bound_to 10752
  140.9162  134.1504  157.4350 H   0  0  0  0  0  0  0  0  0  0  0  0  # atno 11005 bound_to 11000
  144.7702  140.5620  143.6675 LP  0  0  0  0  0  0  0  0  0  0  0  0  # atno 17320 bound_to 7965
  145.5237  139.1476  143.3538 LP  0  0  0  0  0  0  0  0  0  0  0  0  # atno 17321 bound_to 7965
  139.8397  143.7580  152.3180 LP  0  0  0  0  0  0  0  0  0  0  0  0  # atno 17342 bound_to 10162
  139.7724  144.7472  151.0205 LP  0  0  0  0  0  0  0  0  0  0  0  0  # atno 17343 bound_to 10162
  157.5108  131.0925  151.0200 LP  0  0  0  0  0  0  0  0  0  0  0  0  # atno 17370 bound_to 10713
  157.0556  130.5804  149.5377 LP  0  0  0  0  0  0  0  0  0  0  0  0  # atno 17371 bound_to 10713
  139.8766  134.9954  156.5744 LP  0  0  0  0  0  0  0  0  0  0  0  0  # atno 17394 bound_to 11000
  140.8047  133.8477  155.8757 LP  0  0  0  0  0  0  0  0  0  0  0  0  # atno 17395 bound_to 11000

$$$$
