AV-unprocessed.smi:2092|AV-procd|sdf|8543|dock1
  -GOLD-   2272011263D 1   1.00000     0.00000
 Structure written by MMmdl.
 44 45  0  0  0  0  0  0  0  0  1 V2000
  150.1092  133.7236  156.3895 C   0  0  0  0  0  0  0  0  0  0  0  0
  149.8985  134.6738  155.2012 C   0  0  1  0  0  0  0  0  0  0  0  0
  148.5480  135.1279  155.2486 O   0  0  0  0  0  0  0  0  0  0  0  0
  147.5581  134.1098  155.3628 C   0  0  0  0  0  0  0  0  0  0  0  0
  147.1046  133.6825  153.9620 C   0  0  0  0  0  0  0  0  0  0  0  0
  146.6205  134.7418  153.3146 F   0  0  0  0  0  0  0  0  0  0  0  0
  148.1362  133.1955  153.2731 F   0  0  0  0  0  0  0  0  0  0  0  0
  146.1473  132.7594  154.0478 F   0  0  0  0  0  0  0  0  0  0  0  0
  150.8703  135.8641  155.2549 C   0  0  0  0  0  0  0  0  0  0  0  0
  151.7437  135.9137  156.1211 O   0  0  0  0  0  0  0  0  0  0  0  0
  150.6919  136.8174  154.3278 N   0  0  0  0  0  0  0  0  0  0  0  0
  151.5049  138.0202  154.1732 C   0  0  0  0  0  0  0  0  0  0  0  0
  150.8763  139.2635  154.7837 C   0  0  0  0  0  0  0  0  0  0  0  0
  149.6428  139.7789  154.3307 C   0  0  0  0  0  0  0  0  0  0  0  0
  149.1297  140.9316  154.9540 C   0  0  0  0  0  0  0  0  0  0  0  0
  149.7606  141.5734  155.9593 N   0  0  0  0  0  0  0  0  0  0  0  0
  150.9544  141.0979  156.3916 C   0  0  0  0  0  0  0  0  0  0  0  0
  151.6113  141.7836  157.4352 N   0  0  0  0  0  0  0  0  0  0  0  0
  151.1794  143.1624  157.6478 C   0  0  0  0  0  0  0  0  0  0  0  0
  152.1604  143.8918  158.5818 C   0  0  0  0  0  0  0  0  0  0  0  0
  152.3013  143.1636  159.7973 O   0  0  0  0  0  0  0  0  0  0  0  0
  152.8270  141.8590  159.5753 C   0  0  0  0  0  0  0  0  0  0  0  0
  151.8668  141.0592  158.6785 C   0  0  0  0  0  0  0  0  0  0  0  0
  151.5417  139.9414  155.8257 C   0  0  0  0  0  0  0  0  0  0  0  0
  151.1356  133.3570  156.4280 H   0  0  0  0  0  0  0  0  0  0  0  0
  149.4529  132.8566  156.3115 H   0  0  0  0  0  0  0  0  0  0  0  0
  149.8921  134.2141  157.3391 H   0  0  0  0  0  0  0  0  0  0  0  0
  150.0583  134.1088  154.2807 H   0  0  0  0  0  0  0  0  0  0  0  0
  147.9509  133.2440  155.8972 H   0  0  0  0  0  0  0  0  0  0  0  0
  146.7024  134.4825  155.9276 H   0  0  0  0  0  0  0  0  0  0  0  0
  149.9448  136.6906  153.6607 H   0  0  0  0  0  0  0  0  0  0  0  0
  152.4687  137.8356  154.6489 H   0  0  0  0  0  0  0  0  0  0  0  0
  151.7134  138.2331  153.1237 H   0  0  0  0  0  0  0  0  0  0  0  0
  149.0953  139.3122  153.5252 H   0  0  0  0  0  0  0  0  0  0  0  0
  148.1870  141.3513  154.6355 H   0  0  0  0  0  0  0  0  0  0  0  0
  151.1061  143.7113  156.7099 H   0  0  0  0  0  0  0  0  0  0  0  0
  150.1816  143.1531  158.0888 H   0  0  0  0  0  0  0  0  0  0  0  0
  153.1334  144.0142  158.1031 H   0  0  0  0  0  0  0  0  0  0  0  0
  151.7895  144.8914  158.8079 H   0  0  0  0  0  0  0  0  0  0  0  0
  153.8175  141.9265  159.1224 H   0  0  0  0  0  0  0  0  0  0  0  0
  152.9494  141.3573  160.5353 H   0  0  0  0  0  0  0  0  0  0  0  0
  150.9238  140.8903  159.2001 H   0  0  0  0  0  0  0  0  0  0  0  0
  152.3013  140.0822  158.4626 H   0  0  0  0  0  0  0  0  0  0  0  0
  152.4846  139.5627  156.1921 H   0  0  0  0  0  0  0  0  0  0  0  0
  1  2  1  0  0  0  0
  1 25  1  0  0  0  0
  1 26  1  0  0  0  0
  1 27  1  0  0  0  0
  2  3  1  0  0  0  0
  2  9  1  0  0  0  0
  2 28  1  0  0  0  0
  3  4  1  0  0  0  0
  4  5  1  0  0  0  0
  4 29  1  0  0  0  0
  4 30  1  0  0  0  0
  5  6  1  0  0  0  0
  5  7  1  0  0  0  0
  5  8  1  0  0  0  0
  9 10  2  0  0  0  0
  9 11  1  0  0  0  0
 11 12  1  0  0  0  0
 11 31  1  0  0  0  0
 12 13  1  0  0  0  0
 12 32  1  0  0  0  0
 12 33  1  0  0  0  0
 13 24  1  0  0  0  0
 13 14  2  0  0  0  0
 14 15  1  0  0  0  0
 14 34  1  0  0  0  0
 15 16  2  0  0  0  0
 15 35  1  0  0  0  0
 16 17  1  0  0  0  0
 17 18  1  0  0  0  0
 17 24  2  0  0  0  0
 18 23  1  0  0  0  0
 18 19  1  0  0  0  0
 19 20  1  0  0  0  0
 19 36  1  0  0  0  0
 19 37  1  0  0  0  0
 20 21  1  0  0  0  0
 20 38  1  0  0  0  0
 20 39  1  0  0  0  0
 21 22  1  0  0  0  0
 22 23  1  0  0  0  0
 22 40  1  0  0  0  0
 22 41  1  0  0  0  0
 23 42  1  0  0  0  0
 23 43  1  0  0  0  0
 24 44  1  0  0  0  0
M  END
> <s_m_source_file>
AV-unprocessed.smi

> <i_m_source_file_index>
2092

> <i_lp_mmshare_version>
43012

> <i_f3d_flags>
0

> <s_epik_input>
RkMoRikoRilbQ0gyXU9bQ0BASF0oW0NIM10pQyg9TylbTkhdW0NIMl1jMVtjSF1bY0hdbmMoW2NIXTEpTjJbQ0gyXVtDSDJdT1tDSDJdW0NIMl0y

> <s_epik_cmdline>
J2VwaWtfcHl0aG9uJywgJy1waCcsICc3LjAnLCAnLXRuJywgJzgnLCAnLW1hJywgJzIwMCcsICctbWV0YWxfYmluZGluZycsICctaW1hZScsICc8aW5maWxlLm1hZT4nLCAnLW9tYWUnLCAnPG91dGZpbGUubWFlPic=

> <r_lp_tautomer_probability>
1

> <r_epik_Ionization_Penalty>
0.00451782

> <r_epik_Ionization_Penalty_Charging>
0

> <r_epik_Ionization_Penalty_Neutral>
0.00451782

> <r_epik_State_Penalty>
0.00326147

> <r_epik_Charging_Adjusted_Penalty>
0.00326147

> <i_epik_Tot_Q>
0

> <i_epik_Tot_abs_Q>
0

> <r_epik_Metal_State_Penalty>
-0

> <b_epik_Metal_Only>
0

> <s_lp_Force_Field>
OPLS_2005

> <r_lp_Energy>
17.1262

> <b_lp_Chiralities_Consistent>
1

> <s_lp_Variant>
AV-unprocessed.smi:2092-2

> <Gold.Version>
5.8.1

> <Gold.Id.Protein>
6NUR|6NUR_protein|mol2

> <Gold.PLP.Fitness>
47.3402

> <Gold.PLP.PLP>
-42.1752

> <Gold.PLP.part.hbond>
-3.0000

> <Gold.PLP.part.metal>
0.0000

> <Gold.PLP.part.buried>
-2.4397

> <Gold.PLP.part.nonpolar>
-36.6772

> <Gold.PLP.part.repulsive>
0.3194

> <Gold.PLP.ligand.clash>
0.0000

> <Gold.PLP.ligand.torsion>
0.7078

> <Gold.PLP.Chemscore.Hbond>
2.0000

> <Gold.PLP.Chemscore.CHOScore>
0.0000

> <Gold.PLP.Chemscore.Metal>
0.0000

> <Gold.Chemscore.Hbonds>
donor molecule, donor type, donor heavy atom, donor atom, acceptor molecule, acceptor atom, score
      L1  H    11    31       P1  7948  0.91
      P1  H 10752 10764       L1    10  1.00

> <Gold.PLP.Chemscore.Internal.Correction>
0.5806

> <Gold.Rescore>
     Score         DG    S(hbond)    S(metal)    S(lipo)     H(rot)  DE(clash)    DE(int)     intcor
     13.75     -14.77       1.53        0.00      90.10       2.49       0.22       0.79       ----

> <Gold.Chemscore.Fitness>
13.7497

> <Gold.Chemscore.DG>
-14.7658

> <Gold.Chemscore.ZeroCoef>
-5.4800

> <Gold.Chemscore.Hbond>
1.5326

> <Gold.Chemscore.Metal>
0.0000

> <Gold.Chemscore.Lipo>
90.0952

> <Gold.Chemscore.Internal_Hbond>
0.0000

> <Gold.Chemscore.DEClash>
0.2217

> <Gold.Chemscore.DEInternal>
0.7944

> <Gold.Chemscore.Rot>
2.4899

> <Gold.Chemscore.Internal.Correction>
   9.000000E+99

> <Gold.Chemscore.Hbonds>
donor molecule, donor type, donor heavy atom, donor atom, acceptor molecule, acceptor atom, score
      L1  H    11    31       P1  7948  0.26
      P1  H 10752 10764       L1    10  0.39

> <Gold.Chemscore.Hbond.Weighted>
-5.1188

> <Gold.Chemscore.Metal.Weighted>
-0.0000

> <Gold.Chemscore.Lipo.Weighted>
-10.5411

> <Gold.Chemscore.Internal_Hbond.Weighted>
0.0000

> <Gold.Chemscore.DEClash.Weighted>
0.2217

> <Gold.Chemscore.DEInternal.Weighted>
0.7944

> <Gold.Chemscore.Rot.Weighted>
6.3741

> <Gold.Chemscore.Internal.Correction.Weighted>
   9.000000E+99

> <Gold.Protein.RotatedTorsions>
[ 6907 6896 6895 6894 ] final -138.84 input  -60.11 | X-H torsion
[ 7974 7965 7964 7962 ] final -167.93 input  175.53 | X-H torsion
[ 8008 7997 7996 7995 ] final  -79.70 input   59.86 | X-H torsion
[ 10167 10162 10161 10158 ] final  -49.67 input  -65.29 | X-H torsion
[ 10718 10713 10712 10709 ] final  -40.66 input   66.30 | X-H torsion
[ 10763 10752 10751 10750 ] final  -15.61 input  -60.55 | X-H torsion
[ 11005 11000 10999 10996 ] final   56.68 input  -57.11 | X-H torsion

> <Gold.Protein.ActiveResidues>
 VAL166  LYS551  ARG553  GLY616  TRP617  ASP618  TYR619  PRO620  LYS621  CYS622 
 ASP623  PHE694  ASN695  SER759  ASP760  ASP761  ALA762  ILE779  LEU786  VAL792 
 PHE793  MET794  SER795  GLU796  ALA797  LYS798  CYS799  TRP800  GLU811  SER814 

> <Gold.Protein.RotatedAtoms>
  151.0401  133.5713  159.2651 H   0  0  0  0  0  0  0  0  0  0  0  0  # atno 6907 bound_to 6896
  151.2763  135.0699  159.9162 H   0  0  0  0  0  0  0  0  0  0  0  0  # atno 6908 bound_to 6896
  152.5362  134.0123  159.7998 H   0  0  0  0  0  0  0  0  0  0  0  0  # atno 6909 bound_to 6896
  144.7213  140.2446  143.6287 H   0  0  0  0  0  0  0  0  0  0  0  0  # atno 7974 bound_to 7965
  154.5811  140.0674  156.9105 H   0  0  0  0  0  0  0  0  0  0  0  0  # atno 8008 bound_to 7997
  155.2461  140.3348  155.4269 H   0  0  0  0  0  0  0  0  0  0  0  0  # atno 8009 bound_to 7997
  156.2190  140.1790  156.7507 H   0  0  0  0  0  0  0  0  0  0  0  0  # atno 8010 bound_to 7997
  140.6674  143.2688  151.4248 H   0  0  0  0  0  0  0  0  0  0  0  0  # atno 10167 bound_to 10162
  156.2788  130.4215  149.8358 H   0  0  0  0  0  0  0  0  0  0  0  0  # atno 10718 bound_to 10713
  153.5459  135.7012  153.5614 H   0  0  0  0  0  0  0  0  0  0  0  0  # atno 10763 bound_to 10752
  153.3560  135.3982  155.1682 H   0  0  0  0  0  0  0  0  0  0  0  0  # atno 10764 bound_to 10752
  154.8667  135.3777  154.4967 H   0  0  0  0  0  0  0  0  0  0  0  0  # atno 10765 bound_to 10752
  140.0510  134.5737  155.9264 H   0  0  0  0  0  0  0  0  0  0  0  0  # atno 11005 bound_to 11000
  145.8287  139.2076  143.1895 LP  0  0  0  0  0  0  0  0  0  0  0  0  # atno 17320 bound_to 7965
  146.0450  140.8127  142.9810 LP  0  0  0  0  0  0  0  0  0  0  0  0  # atno 17321 bound_to 7965
  139.5928  144.1461  152.2109 LP  0  0  0  0  0  0  0  0  0  0  0  0  # atno 17342 bound_to 10162
  140.0821  144.5692  150.7115 LP  0  0  0  0  0  0  0  0  0  0  0  0  # atno 17343 bound_to 10162
  156.5813  130.8467  151.3384 LP  0  0  0  0  0  0  0  0  0  0  0  0  # atno 17370 bound_to 10713
  157.7308  130.9690  150.1849 LP  0  0  0  0  0  0  0  0  0  0  0  0  # atno 17371 bound_to 10713
  141.1930  133.6577  156.5529 LP  0  0  0  0  0  0  0  0  0  0  0  0  # atno 17394 bound_to 11000
  140.3917  134.7434  157.4726 LP  0  0  0  0  0  0  0  0  0  0  0  0  # atno 17395 bound_to 11000

$$$$
