#       Name:                AV-unprocessed.smi:2330
#       Creating user name   scv26
#       Creation time:       Fri Mar 27 12:53:15 2020


#       File generated by GOLD software.
#

@<TRIPOS>MOLECULE
AV-unprocessed.smi:2330
    45    46     1
SMALL
NO_CHARGES


@<TRIPOS>ATOM
      1 ****        -4.2978  -0.1976   2.5289 C.3            1 S1                 0.0000
      2 ****        -3.6687   0.6947   1.4498 C.3            1 S1                 0.0000
      3 ****        -3.0545  -0.1434   0.3123 C.3            1 S1                 0.0000
      4 ****        -2.4263   0.7479  -0.7739 C.3            1 S1                 0.0000
      5 ****        -1.3886   1.7307  -0.1977 C.3            1 S1                 0.0000
      6 ****        -0.1905   1.0107   0.2320 N.am           1 S1                 0.0000
      7 ****         1.0572   1.2225  -0.2090 C.2            1 S1                 0.0000
      8 ****         1.3687   2.0830  -1.0324 O.2            1 S1                 0.0000
      9 ****         1.9267   0.3657   0.3429 N.am           1 S1                 0.0000
     10 ****         3.3463   0.2818   0.0108 C.3            1 S1                 0.0000
     11 ****         3.6042  -0.3925  -1.3554 C.3            1 S1                 0.0000
     12 ****         5.0980  -0.5572  -1.6690 C.3            1 S1                 0.0000
     13 ****         2.8431  -1.6715  -1.5352 C.2            1 S1                 0.0000
     14 ****         3.0537  -2.7708  -0.8040 N.2            1 S1                 0.0000
     15 ****         2.1997  -3.8189  -1.1552 C.2            1 S1                 0.0000
     16 ****         1.3285  -3.5004  -2.1654 C.2            1 S1                 0.0000
     17 ****         1.5509  -1.8631  -2.7169 S.3            1 S1                 0.0000
     18 ****        -1.9815   2.5432   0.9700 C.3            1 S1                 0.0000
     19 ****        -2.6127   1.6438   2.0479 C.3            1 S1                 0.0000
     20 ****        -3.5508  -0.8372   3.0002 H              1 S1                 0.0000
     21 ****        -5.0688  -0.8417   2.1051 H              1 S1                 0.0000
     22 ****        -4.7643   0.4021   3.3109 H              1 S1                 0.0000
     23 ****        -4.4662   1.3053   1.0236 H              1 S1                 0.0000
     24 ****        -2.2983  -0.8176   0.7167 H              1 S1                 0.0000
     25 ****        -3.8195  -0.7774  -0.1377 H              1 S1                 0.0000
     26 ****        -1.9706   0.1294  -1.5483 H              1 S1                 0.0000
     27 ****        -3.2172   1.3146  -1.2671 H              1 S1                 0.0000
     28 ****        -1.1247   2.4324  -0.9908 H              1 S1                 0.0000
     29 ****        -0.3301   0.2745   0.9085 H              1 S1                 0.0000
     30 ****         1.5764  -0.3050   1.0112 H              1 S1                 0.0000
     31 ****         3.7988   1.2742   0.0416 H              1 S1                 0.0000
     32 ****         3.8258  -0.2991   0.7991 H              1 S1                 0.0000
     33 ****         3.2187   0.2907  -2.1133 H              1 S1                 0.0000
     34 ****         5.2470  -0.9407  -2.6788 H              1 S1                 0.0000
     35 ****         5.5747  -1.2504  -0.9754 H              1 S1                 0.0000
     36 ****         5.6212   0.3967  -1.5974 H              1 S1                 0.0000
     37 ****         2.2798  -4.7601  -0.6316 H              1 S1                 0.0000
     38 ****         0.5728  -4.1263  -2.6164 H              1 S1                 0.0000
     39 ****        -1.2148   3.1788   1.4148 H              1 S1                 0.0000
     40 ****        -2.7452   3.2184   0.5819 H              1 S1                 0.0000
     41 ****        -3.0670   2.2670   2.8189 H              1 S1                 0.0000
     42 ****        -1.8331   1.0641   2.5441 H              1 S1                 0.0000
     43 ****         0.6676   2.6822  -1.4190 LP             1 S1                 0.0000
     44 ****         2.3228   2.1827  -1.3147 LP             1 S1                 0.0000
     45 ****         3.7459  -2.8356  -0.0853 LP             1 S1                 0.0000
@<TRIPOS>BOND
    1    1    2 1     
    2    1   20 1     
    3    1   21 1     
    4    1   22 1     
    5    2   19 1     
    6    2    3 1     
    7    2   23 1     
    8    3    4 1     
    9    3   24 1     
   10    3   25 1     
   11    4    5 1     
   12    4   26 1     
   13    4   27 1     
   14    5    6 1     
   15    5   18 1     
   16    5   28 1     
   17    6    7 am    
   18    6   29 1     
   19    7    8 2     
   20    7    9 am    
   21    9   10 1     
   22    9   30 1     
   23   10   11 1     
   24   10   31 1     
   25   10   32 1     
   26   11   12 1     
   27   11   13 1     
   28   11   33 1     
   29   12   34 1     
   30   12   35 1     
   31   12   36 1     
   32   13   17 1     
   33   13   14 2     
   34   14   15 1     
   35   15   16 2     
   36   15   37 1     
   37   16   17 1     
   38   16   38 1     
   39   18   19 1     
   40   18   39 1     
   41   18   40 1     
   42   19   41 1     
   43   19   42 1     
   44    8   43 1     
   45    8   44 1     
   46   14   45 1     
@<TRIPOS>SUBSTRUCTURE
      1 S1             1
@<TRIPOS>SET
LONE_PAIRS      STATIC     ATOMS    <user>   **** ""
3 43 44 45
DONOR_HYDROGENS      STATIC     ATOMS    <user>   **** ""
2 29 30
ATOM$BLUE        STATIC     ATOMS    COLORGROUP SYSTEM
3 43 44 45
ATOM$RED        STATIC     ATOMS    COLORGROUP SYSTEM
2 29 30
