#       Name:                AV-unprocessed.smi:1740
#       Creating user name   scv26
#       Creation time:       Fri Mar 27 08:21:50 2020


#       File generated by GOLD software.
#

@<TRIPOS>MOLECULE
AV-unprocessed.smi:1740
    58    60     1
SMALL
NO_CHARGES


@<TRIPOS>ATOM
      1 ****        -7.0367  -3.0201  -0.9137 N.am           1 S1                 0.0000
      2 ****        -6.2895  -2.8570   0.1806 C.2            1 S1                 0.0000
      3 ****        -5.9322  -3.8037   0.8784 O.2            1 S1                 0.0000
      4 ****        -5.8777  -1.4242   0.5409 C.3            1 S1                 0.0000
      5 ****        -4.4163  -1.2135   0.6541 N.3            1 S1                 0.0000
      6 ****        -4.1614   0.1557   1.1147 C.3            1 S1                 0.0000
      7 ****        -2.6595   0.3753   1.3663 C.3            1 S1                 0.0000
      8 ****        -1.8410   0.0975   0.0954 C.3            1 S1                 0.0000
      9 ****        -0.4095   0.1845   0.3663 N.am           1 S1                 0.0000
     10 ****         0.3064   1.3174   0.3809 C.2            1 S1                 0.0000
     11 ****        -0.1735   2.4302   0.1638 O.2            1 S1                 0.0000
     12 ****         1.6006   1.0696   0.6417 N.am           1 S1                 0.0000
     13 ****         2.6768   1.9995   0.6992 C.ar           1 S1                 0.0000
     14 ****         2.4907   3.3175   1.1832 C.ar           1 S1                 0.0000
     15 ****         3.5975   4.1776   1.2857 C.ar           1 S1                 0.0000
     16 ****         4.8590   3.6835   0.9150 C.ar           1 S1                 0.0000
     17 ****         5.0556   2.4277   0.4665 N.ar           1 S1                 0.0000
     18 ****         3.9953   1.5907   0.3478 C.ar           1 S1                 0.0000
     19 ****         4.2571   0.2926  -0.1471 N.3            1 S1                 0.0000
     20 ****         3.5330  -0.1406  -1.3389 C.3            1 S1                 0.0000
     21 ****         4.5173  -0.9756  -2.1647 C.3            1 S1                 0.0000
     22 ****         5.5596  -1.4178  -1.1425 C.3            1 S1                 0.0000
     23 ****         5.6236  -0.2163  -0.2039 C.3            1 S1                 0.0000
     24 ****        -2.1911  -1.3030  -0.4249 C.3            1 S1                 0.0000
     25 ****        -3.7101  -1.4658  -0.6110 C.3            1 S1                 0.0000
     26 ****        -7.3285  -3.9475  -1.1862 H              1 S1                 0.0000
     27 ****        -7.3067  -2.2185  -1.4646 H              1 S1                 0.0000
     28 ****        -6.2930  -0.7267  -0.1892 H              1 S1                 0.0000
     29 ****        -6.3514  -1.1900   1.4952 H              1 S1                 0.0000
     30 ****        -4.5303   0.8781   0.3842 H              1 S1                 0.0000
     31 ****        -4.7033   0.3398   2.0433 H              1 S1                 0.0000
     32 ****        -2.4912   1.3978   1.7060 H              1 S1                 0.0000
     33 ****        -2.3279  -0.2778   2.1754 H              1 S1                 0.0000
     34 ****        -2.1101   0.8266  -0.6716 H              1 S1                 0.0000
     35 ****         0.0703  -0.6835   0.5547 H              1 S1                 0.0000
     36 ****         1.8657   0.0974   0.7029 H              1 S1                 0.0000
     37 ****         1.5223   3.6747   1.4987 H              1 S1                 0.0000
     38 ****         3.4833   5.1870   1.6519 H              1 S1                 0.0000
     39 ****         5.7353   4.3107   0.9860 H              1 S1                 0.0000
     40 ****         2.6890  -0.7589  -1.0317 H              1 S1                 0.0000
     41 ****         3.1445   0.7011  -1.9143 H              1 S1                 0.0000
     42 ****         4.0389  -1.8111  -2.6766 H              1 S1                 0.0000
     43 ****         4.9902  -0.3450  -2.9190 H              1 S1                 0.0000
     44 ****         5.2035  -2.2963  -0.6027 H              1 S1                 0.0000
     45 ****         6.5236  -1.6602  -1.5903 H              1 S1                 0.0000
     46 ****         6.3011   0.5306  -0.6199 H              1 S1                 0.0000
     47 ****         5.9845  -0.4940   0.7868 H              1 S1                 0.0000
     48 ****        -1.6831  -1.4864  -1.3723 H              1 S1                 0.0000
     49 ****        -1.8302  -2.0618   0.2715 H              1 S1                 0.0000
     50 ****        -3.8973  -2.4789  -0.9667 H              1 S1                 0.0000
     51 ****        -4.0718  -0.7875  -1.3858 H              1 S1                 0.0000
     52 ****        -6.2012  -4.7352   0.6332 LP             1 S1                 0.0000
     53 ****        -5.3726  -3.6425   1.6913 LP             1 S1                 0.0000
     54 ****        -4.0619  -1.8731   1.3170 LP             1 S1                 0.0000
     55 ****        -1.1486   2.5236  -0.0373 LP             1 S1                 0.0000
     56 ****         0.4118   3.2406   0.1886 LP             1 S1                 0.0000
     57 ****         5.9743   2.1163   0.2237 LP             1 S1                 0.0000
     58 ****         3.8506  -0.1417   0.6568 LP             1 S1                 0.0000
@<TRIPOS>BOND
    1    1    2 am    
    2    1   26 1     
    3    1   27 1     
    4    2    3 2     
    5    2    4 1     
    6    4    5 1     
    7    4   28 1     
    8    4   29 1     
    9    5   25 1     
   10    5    6 1     
   11    6    7 1     
   12    6   30 1     
   13    6   31 1     
   14    7    8 1     
   15    7   32 1     
   16    7   33 1     
   17    8    9 1     
   18    8   24 1     
   19    8   34 1     
   20    9   10 am    
   21    9   35 1     
   22   10   11 2     
   23   10   12 am    
   24   12   13 1     
   25   12   36 1     
   26   13   18 ar    
   27   13   14 ar    
   28   14   15 ar    
   29   14   37 1     
   30   15   16 ar    
   31   15   38 1     
   32   16   17 ar    
   33   16   39 1     
   34   17   18 ar    
   35   18   19 1     
   36   19   23 1     
   37   19   20 1     
   38   20   21 1     
   39   20   40 1     
   40   20   41 1     
   41   21   22 1     
   42   21   42 1     
   43   21   43 1     
   44   22   23 1     
   45   22   44 1     
   46   22   45 1     
   47   23   46 1     
   48   23   47 1     
   49   24   25 1     
   50   24   48 1     
   51   24   49 1     
   52   25   50 1     
   53   25   51 1     
   54    3   52 1     
   55    3   53 1     
   56    5   54 1     
   57   11   55 1     
   58   11   56 1     
   59   17   57 1     
   60   19   58 1     
@<TRIPOS>SUBSTRUCTURE
      1 S1             1
@<TRIPOS>SET
LONE_PAIRS      STATIC     ATOMS    <user>   **** ""
7 52 53 54 55 56 57 58
DONOR_HYDROGENS      STATIC     ATOMS    <user>   **** ""
4 26 27 35 36
ATOM$BLUE        STATIC     ATOMS    COLORGROUP SYSTEM
7 52 53 54 55 56 57 58
ATOM$RED        STATIC     ATOMS    COLORGROUP SYSTEM
4 26 27 35 36
