AV-unprocessed.smi:2953|AV-procd|sdf|11295|dock4
  -GOLD-   2272016183D 1   1.00000     0.00000
 Structure written by MMmdl.
 46 48  0  0  0  0  0  0  0  0  2 V2000
  147.3568  137.4015  162.9729 C   0  0  0  0  0  0  0  0  0  0  0  0
  147.2279  136.1349  162.1476 C   0  0  0  0  0  0  0  0  0  0  0  0
  146.6241  134.9933  162.7156 C   0  0  0  0  0  0  0  0  0  0  0  0
  146.4985  133.8101  161.9660 C   0  0  0  0  0  0  0  0  0  0  0  0
  146.9772  133.7652  160.6447 C   0  0  0  0  0  0  0  0  0  0  0  0
  147.5808  134.9013  160.0730 C   0  0  0  0  0  0  0  0  0  0  0  0
  147.7140  136.1003  160.8195 C   0  0  0  0  0  0  0  0  0  0  0  0
  148.2972  137.2492  160.3249 O   0  0  0  0  0  0  0  0  0  0  0  0
  148.7949  137.2367  158.9953 C   0  0  0  0  0  0  0  0  0  0  0  0
  147.6076  137.1047  158.0343 C   0  0  0  0  0  0  0  0  0  0  0  0
  147.9827  137.4398  156.6544 N   0  0  0  0  0  0  0  0  0  0  0  0
  147.9846  136.6709  155.5268 C   0  0  0  0  0  0  0  0  0  0  0  0
  147.5500  135.2352  155.4260 C   0  0  2  0  0  0  0  0  0  0  0  0
  148.3849  134.3008  156.3223 C   0  0  0  0  0  0  0  0  0  0  0  0
  147.5157  134.7598  154.0447 N   0  0  0  0  0  0  0  0  0  0  0  0
  147.2021  133.5159  153.6569 C   0  0  0  0  0  0  0  0  0  0  0  0
  146.9042  132.6221  154.4443 O   0  0  0  0  0  0  0  0  0  0  0  0
  148.4078  137.4677  154.5024 N   0  3  0  0  0  0  0  0  0  0  0  0
  148.6973  138.7454  154.9822 C   0  0  0  0  0  0  0  0  0  0  0  0
  149.1613  139.8822  154.3276 C   0  0  0  0  0  0  0  0  0  0  0  0
  149.3539  141.0336  155.1193 C   0  0  0  0  0  0  0  0  0  0  0  0
  149.0879  141.0256  156.5040 C   0  0  0  0  0  0  0  0  0  0  0  0
  148.6164  139.8670  157.1562 C   0  0  0  0  0  0  0  0  0  0  0  0
  148.4279  138.7339  156.3655 C   0  0  0  0  0  0  0  0  0  0  0  0
  146.8316  137.3133  163.9241 H   0  0  0  0  0  0  0  0  0  0  0  0
  146.9373  138.2520  162.4349 H   0  0  0  0  0  0  0  0  0  0  0  0
  148.4062  137.6098  163.1819 H   0  0  0  0  0  0  0  0  0  0  0  0
  146.2548  135.0204  163.7304 H   0  0  0  0  0  0  0  0  0  0  0  0
  146.0364  132.9379  162.4042 H   0  0  0  0  0  0  0  0  0  0  0  0
  146.8819  132.8570  160.0679 H   0  0  0  0  0  0  0  0  0  0  0  0
  147.9353  134.8248  159.0566 H   0  0  0  0  0  0  0  0  0  0  0  0
  149.3397  138.1590  158.7875 H   0  0  0  0  0  0  0  0  0  0  0  0
  149.4769  136.3963  158.8553 H   0  0  0  0  0  0  0  0  0  0  0  0
  147.2285  136.0826  158.0427 H   0  0  0  0  0  0  0  0  0  0  0  0
  146.7784  137.7430  158.3414 H   0  0  0  0  0  0  0  0  0  0  0  0
  146.5212  135.1868  155.7847 H   0  0  0  0  0  0  0  0  0  0  0  0
  148.3257  134.6070  157.3673 H   0  0  0  0  0  0  0  0  0  0  0  0
  149.4377  134.2934  156.0381 H   0  0  0  0  0  0  0  0  0  0  0  0
  148.0207  133.2746  156.2622 H   0  0  0  0  0  0  0  0  0  0  0  0
  147.7646  135.4262  153.3278 H   0  0  0  0  0  0  0  0  0  0  0  0
  147.2467  133.4014  152.5625 H   0  0  0  0  0  0  0  0  0  0  0  0
  149.3661  139.8908  153.2670 H   0  0  0  0  0  0  0  0  0  0  0  0
  149.7128  141.9408  154.6550 H   0  0  0  0  0  0  0  0  0  0  0  0
  149.2482  141.9266  157.0785 H   0  0  0  0  0  0  0  0  0  0  0  0
  148.4162  139.8709  158.2176 H   0  0  0  0  0  0  0  0  0  0  0  0
  148.4920  137.1548  153.5438 H   0  0  0  0  0  0  0  0  0  0  0  0
  1  2  1  0  0  0  0
  1 25  1  0  0  0  0
  1 26  1  0  0  0  0
  1 27  1  0  0  0  0
  2  7  1  0  0  0  0
  2  3  2  0  0  0  0
  3  4  1  0  0  0  0
  3 28  1  0  0  0  0
  4  5  2  0  0  0  0
  4 29  1  0  0  0  0
  5  6  1  0  0  0  0
  5 30  1  0  0  0  0
  6  7  2  0  0  0  0
  6 31  1  0  0  0  0
  7  8  1  0  0  0  0
  8  9  1  0  0  0  0
  9 10  1  0  0  0  0
  9 32  1  0  0  0  0
  9 33  1  0  0  0  0
 10 11  1  0  0  0  0
 10 34  1  0  0  0  0
 10 35  1  0  0  0  0
 11 24  1  0  0  0  0
 11 12  1  0  0  0  0
 12 13  1  0  0  0  0
 12 18  2  0  0  0  0
 13 14  1  0  0  0  0
 13 15  1  0  0  0  0
 13 36  1  0  0  0  0
 14 37  1  0  0  0  0
 14 38  1  0  0  0  0
 14 39  1  0  0  0  0
 15 16  1  0  0  0  0
 15 40  1  0  0  0  0
 16 17  2  0  0  0  0
 16 41  1  0  0  0  0
 18 19  1  0  0  0  0
 18 46  1  0  0  0  0
 19 24  2  0  0  0  0
 19 20  1  0  0  0  0
 20 21  2  0  0  0  0
 20 42  1  0  0  0  0
 21 22  1  0  0  0  0
 21 43  1  0  0  0  0
 22 23  2  0  0  0  0
 22 44  1  0  0  0  0
 23 24  1  0  0  0  0
 23 45  1  0  0  0  0
M  CHG  1  18   1
M  END
> <s_m_source_file>
AV-unprocessed.smi

> <i_m_source_file_index>
2953

> <i_lp_mmshare_version>
43012

> <i_f3d_flags>
0

> <s_epik_input>
W0NIM11jMVtjSF1bY0hdW2NIXVtjSF1jMU9bQ0gyXVtDSDJdbihjKG4yKVtDQEhdKFtDSDNdKVtOSF1bQ0hdPU8pYyhjMjMpW2NIXVtjSF1bY0hdW2NIXTM=

> <s_epik_cmdline>
J2VwaWtfcHl0aG9uJywgJy1waCcsICc3LjAnLCAnLXRuJywgJzgnLCAnLW1hJywgJzIwMCcsICctbWV0YWxfYmluZGluZycsICctaW1hZScsICc8aW5maWxlLm1hZT4nLCAnLW9tYWUnLCAnPG91dGZpbGUubWFlPic=

> <r_lp_tautomer_probability>
1

> <r_epik_Ionization_Penalty>
1.14644

> <r_epik_Ionization_Penalty_Charging>
1.14644

> <r_epik_Ionization_Penalty_Neutral>
5.5802e-08

> <r_epik_State_Penalty>
1.20743

> <r_epik_Charging_Adjusted_Penalty>
2.35387

> <i_epik_Tot_Q>
1

> <i_epik_Tot_abs_Q>
1

> <r_epik_Metal_State_Penalty>
1.28856

> <b_epik_Metal_Only>
0

> <s_lp_Force_Field>
OPLS_2005

> <r_lp_Energy>
18.7543

> <b_lp_Chiralities_Consistent>
1

> <s_lp_Variant>
AV-unprocessed.smi:2953-3

> <Gold.Version>
5.8.1

> <Gold.Id.Protein>
6NUR|6NUR_protein|mol2

> <Gold.PLP.Fitness>
51.3686

> <Gold.PLP.PLP>
-39.8607

> <Gold.PLP.part.hbond>
-4.0000

> <Gold.PLP.part.metal>
0.0000

> <Gold.PLP.part.buried>
-4.2197

> <Gold.PLP.part.nonpolar>
-31.4161

> <Gold.PLP.part.repulsive>
0.0415

> <Gold.PLP.ligand.clash>
0.0000

> <Gold.PLP.ligand.torsion>
0.1582

> <Gold.PLP.Chemscore.Hbond>
3.9087

> <Gold.PLP.Chemscore.CHOScore>
0.0000

> <Gold.PLP.Chemscore.Metal>
0.0000

> <Gold.Chemscore.Hbonds>
donor molecule, donor type, donor heavy atom, donor atom, acceptor molecule, acceptor atom, score
      L1  H    15    40       P1  7948  0.98
      L1  H    18    46       P1  7948  2.00
      P1  H  6931  6943       L1     8  0.66
      P1  H  6934  6947       L1     8  0.40

> <Gold.PLP.Chemscore.Internal.Correction>
0.0981

> <Gold.Rescore>
     Score         DG    S(hbond)    S(metal)    S(lipo)     H(rot)  DE(clash)    DE(int)     intcor
     16.85     -18.49       2.50        0.00      90.53       2.32       0.07       1.57       ----

> <Gold.Chemscore.Fitness>
16.8492

> <Gold.Chemscore.DG>
-18.4866

> <Gold.Chemscore.ZeroCoef>
-5.4800

> <Gold.Chemscore.Hbond>
2.5030

> <Gold.Chemscore.Metal>
0.0000

> <Gold.Chemscore.Lipo>
90.5265

> <Gold.Chemscore.Internal_Hbond>
0.0000

> <Gold.Chemscore.DEClash>
0.0686

> <Gold.Chemscore.DEInternal>
1.5688

> <Gold.Chemscore.Rot>
2.3223

> <Gold.Chemscore.Internal.Correction>
   9.000000E+99

> <Gold.Chemscore.Hbonds>
donor molecule, donor type, donor heavy atom, donor atom, acceptor molecule, acceptor atom, score
      L1  H    15    40       P1  7948  0.90
      L1  H    18    46       P1  7948  0.98
      P1  H  6931  6943       L1     8  0.41
      P1  H  6934  6947       L1     8  0.30

> <Gold.Chemscore.Hbond.Weighted>
-8.3600

> <Gold.Chemscore.Metal.Weighted>
-0.0000

> <Gold.Chemscore.Lipo.Weighted>
-10.5916

> <Gold.Chemscore.Internal_Hbond.Weighted>
0.0000

> <Gold.Chemscore.DEClash.Weighted>
0.0686

> <Gold.Chemscore.DEInternal.Weighted>
1.5688

> <Gold.Chemscore.Rot.Weighted>
5.9450

> <Gold.Chemscore.Internal.Correction.Weighted>
   9.000000E+99

> <Gold.Protein.RotatedTorsions>
[ 6907 6896 6895 6894 ] final   88.03 input  -60.11 | X-H torsion
[ 7974 7965 7964 7962 ] final  -66.91 input  175.53 | X-H torsion
[ 8008 7997 7996 7995 ] final  179.12 input   59.86 | X-H torsion
[ 10167 10162 10161 10158 ] final  -24.04 input  -65.29 | X-H torsion
[ 10718 10713 10712 10709 ] final   81.82 input   66.30 | X-H torsion
[ 10763 10752 10751 10750 ] final -139.09 input  -60.55 | X-H torsion
[ 11005 11000 10999 10996 ] final -137.06 input  -57.11 | X-H torsion

> <Gold.Protein.ActiveResidues>
 VAL166  LYS551  ARG553  GLY616  TRP617  ASP618  TYR619  PRO620  LYS621  CYS622 
 ASP623  PHE694  ASN695  SER759  ASP760  ASP761  ALA762  ILE779  LEU786  VAL792 
 PHE793  MET794  SER795  GLU796  ALA797  LYS798  CYS799  TRP800  GLU811  SER814 

> <Gold.Protein.RotatedAtoms>
  152.5419  134.2185  159.8777 H   0  0  0  0  0  0  0  0  0  0  0  0  # atno 6907 bound_to 6896
  151.2163  133.4520  159.2607 H   0  0  0  0  0  0  0  0  0  0  0  0  # atno 6908 bound_to 6896
  151.0848  134.9893  159.8429 H   0  0  0  0  0  0  0  0  0  0  0  0  # atno 6909 bound_to 6896
  145.7358  140.8976  143.0556 H   0  0  0  0  0  0  0  0  0  0  0  0  # atno 7974 bound_to 7965
  156.0470  140.1316  157.0093 H   0  0  0  0  0  0  0  0  0  0  0  0  # atno 8008 bound_to 7997
  154.4417  140.1018  156.6391 H   0  0  0  0  0  0  0  0  0  0  0  0  # atno 8009 bound_to 7997
  155.5581  140.3464  155.4487 H   0  0  0  0  0  0  0  0  0  0  0  0  # atno 8010 bound_to 7997
  140.7288  143.4389  151.0687 H   0  0  0  0  0  0  0  0  0  0  0  0  # atno 10167 bound_to 10162
  157.6842  131.0021  150.2283 H   0  0  0  0  0  0  0  0  0  0  0  0  # atno 10718 bound_to 10713
  154.8619  135.3593  154.5490 H   0  0  0  0  0  0  0  0  0  0  0  0  # atno 10763 bound_to 10752
  153.6109  135.7009  153.5352 H   0  0  0  0  0  0  0  0  0  0  0  0  # atno 10764 bound_to 10752
  153.3210  135.4151  155.1377 H   0  0  0  0  0  0  0  0  0  0  0  0  # atno 10765 bound_to 10752
  140.8747  134.2007  157.4629 H   0  0  0  0  0  0  0  0  0  0  0  0  # atno 11005 bound_to 11000
  144.6882  139.9393  143.7474 LP  0  0  0  0  0  0  0  0  0  0  0  0  # atno 17320 bound_to 7965
  146.0495  139.3497  143.0648 LP  0  0  0  0  0  0  0  0  0  0  0  0  # atno 17321 bound_to 7965
  139.8054  143.8025  152.3167 LP  0  0  0  0  0  0  0  0  0  0  0  0  # atno 17342 bound_to 10162
  139.8056  144.7356  150.9765 LP  0  0  0  0  0  0  0  0  0  0  0  0  # atno 17343 bound_to 10162
  156.2921  130.3747  149.7832 LP  0  0  0  0  0  0  0  0  0  0  0  0  # atno 17370 bound_to 10713
  156.5488  130.8332  151.3293 LP  0  0  0  0  0  0  0  0  0  0  0  0  # atno 17371 bound_to 10713
  139.8714  134.9790  156.5020 LP  0  0  0  0  0  0  0  0  0  0  0  0  # atno 17394 bound_to 11000
  140.8532  133.8116  155.9190 LP  0  0  0  0  0  0  0  0  0  0  0  0  # atno 17395 bound_to 11000

$$$$
