#       Name:                AV-unprocessed.smi:1727
#       Creating user name   scv26
#       Creation time:       Fri Mar 27 08:18:04 2020


#       File generated by GOLD software.
#

@<TRIPOS>MOLECULE
AV-unprocessed.smi:1727
    55    57     1
SMALL
NO_CHARGES


@<TRIPOS>ATOM
      1 ****        -5.0797  -3.5377   0.4187 C.3            1 S1                 0.0000
      2 ****        -5.0696  -2.5397  -0.7415 C.2            1 S1                 0.0000
      3 ****        -5.3601  -2.9550  -1.8633 O.2            1 S1                 0.0000
      4 ****        -4.7429  -1.2470  -0.5013 N.am           1 S1                 0.0000
      5 ****        -4.3132  -0.7054   0.7939 C.3            1 S1                 0.0000
      6 ****        -2.8148  -0.3629   0.7167 C.3            1 S1                 0.0000
      7 ****        -2.5211   0.6127  -0.4467 C.3            1 S1                 0.0000
      8 ****        -1.0825   0.7740  -0.6343 N.am           1 S1                 0.0000
      9 ****        -0.2927   1.5764   0.0929 C.2            1 S1                 0.0000
     10 ****        -0.6980   2.2771   1.0202 O.2            1 S1                 0.0000
     11 ****         0.9869   1.4953  -0.3077 N.am           1 S1                 0.0000
     12 ****         2.1140   2.1607   0.2506 C.ar           1 S1                 0.0000
     13 ****         2.0126   3.4940   0.7242 C.ar           1 S1                 0.0000
     14 ****         3.1566   4.1578   1.2052 C.ar           1 S1                 0.0000
     15 ****         4.3898   3.4840   1.1909 C.ar           1 S1                 0.0000
     16 ****         4.4561   2.2204   0.7229 N.pl3          1 S1                 1.0000
     17 ****         3.3884   1.5229   0.2602 C.ar           1 S1                 0.0000
     18 ****         3.6067   0.1997  -0.1870 N.3            1 S1                 0.0000
     19 ****         4.9633  -0.3171  -0.3280 C.3            1 S1                 0.0000
     20 ****         4.7992  -1.8287  -0.4608 C.3            1 S1                 0.0000
     21 ****         3.6086  -2.1102   0.4509 C.3            1 S1                 0.0000
     22 ****         2.7313  -0.8629   0.2985 C.3            1 S1                 0.0000
     23 ****        -3.1622   0.1272  -1.7646 C.3            1 S1                 0.0000
     24 ****        -4.6432  -0.2421  -1.5661 C.3            1 S1                 0.0000
     25 ****        -4.0984  -3.5930   0.8911 H              1 S1                 0.0000
     26 ****        -5.3343  -4.5368   0.0635 H              1 S1                 0.0000
     27 ****        -5.8195  -3.2524   1.1670 H              1 S1                 0.0000
     28 ****        -4.8889   0.1949   1.0131 H              1 S1                 0.0000
     29 ****        -4.4968  -1.3764   1.6317 H              1 S1                 0.0000
     30 ****        -2.4863   0.0684   1.6629 H              1 S1                 0.0000
     31 ****        -2.2443  -1.2832   0.5820 H              1 S1                 0.0000
     32 ****        -2.9609   1.5820  -0.2031 H              1 S1                 0.0000
     33 ****        -0.6608   0.2338  -1.3756 H              1 S1                 0.0000
     34 ****         1.1915   0.8044  -1.0149 H              1 S1                 0.0000
     35 ****         1.0742   4.0278   0.7044 H              1 S1                 0.0000
     36 ****         3.0898   5.1734   1.5672 H              1 S1                 0.0000
     37 ****         5.3198   3.9146   1.5327 H              1 S1                 0.0000
     38 ****         5.4657   0.1133  -1.1948 H              1 S1                 0.0000
     39 ****         5.5536  -0.0910   0.5611 H              1 S1                 0.0000
     40 ****         4.5498  -2.0890  -1.4905 H              1 S1                 0.0000
     41 ****         5.6960  -2.3808  -0.1780 H              1 S1                 0.0000
     42 ****         3.0839  -3.0314   0.1955 H              1 S1                 0.0000
     43 ****         3.9512  -2.1950   1.4831 H              1 S1                 0.0000
     44 ****         2.2477  -0.6013   1.2409 H              1 S1                 0.0000
     45 ****         1.9536  -1.0434  -0.4442 H              1 S1                 0.0000
     46 ****        -3.0709   0.8973  -2.5316 H              1 S1                 0.0000
     47 ****        -2.6260  -0.7465  -2.1388 H              1 S1                 0.0000
     48 ****        -5.0702  -0.5826  -2.5105 H              1 S1                 0.0000
     49 ****        -5.2166   0.6423  -1.2845 H              1 S1                 0.0000
     50 ****         5.3657   1.7586   0.7255 H              1 S1                 0.0000
     51 ****        -5.5932  -3.9185  -1.9949 LP             1 S1                 0.0000
     52 ****        -5.3630  -2.3289  -2.6430 LP             1 S1                 0.0000
     53 ****        -1.6669   2.2675   1.2677 LP             1 S1                 0.0000
     54 ****        -0.0585   2.8559   1.5261 LP             1 S1                 0.0000
     55 ****         3.3122   0.4443  -1.1108 LP             1 S1                 0.0000
@<TRIPOS>BOND
    1    1    2 1     
    2    1   25 1     
    3    1   26 1     
    4    1   27 1     
    5    2    3 2     
    6    2    4 am    
    7    4   24 1     
    8    4    5 1     
    9    5    6 1     
   10    5   28 1     
   11    5   29 1     
   12    6    7 1     
   13    6   30 1     
   14    6   31 1     
   15    7    8 1     
   16    7   23 1     
   17    7   32 1     
   18    8    9 am    
   19    8   33 1     
   20    9   10 2     
   21    9   11 am    
   22   11   12 1     
   23   11   34 1     
   24   12   17 ar    
   25   12   13 ar    
   26   13   14 ar    
   27   13   35 1     
   28   14   15 ar    
   29   14   36 1     
   30   15   16 ar    
   31   15   37 1     
   32   16   17 ar    
   33   16   50 1     
   34   17   18 1     
   35   18   22 1     
   36   18   19 1     
   37   19   20 1     
   38   19   38 1     
   39   19   39 1     
   40   20   21 1     
   41   20   40 1     
   42   20   41 1     
   43   21   22 1     
   44   21   42 1     
   45   21   43 1     
   46   22   44 1     
   47   22   45 1     
   48   23   24 1     
   49   23   46 1     
   50   23   47 1     
   51   24   48 1     
   52   24   49 1     
   53    3   51 1     
   54    3   52 1     
   55   10   53 1     
   56   10   54 1     
   57   18   55 1     
@<TRIPOS>SUBSTRUCTURE
      1 S1             1
@<TRIPOS>SET
LONE_PAIRS      STATIC     ATOMS    <user>   **** ""
5 51 52 53 54 55
DONOR_HYDROGENS      STATIC     ATOMS    <user>   **** ""
3 33 34 50
ATOM$BLUE        STATIC     ATOMS    COLORGROUP SYSTEM
5 51 52 53 54 55
ATOM$RED        STATIC     ATOMS    COLORGROUP SYSTEM
3 33 34 50
