AV-unprocessed.smi:3250|AV-procd|sdf|12434|dock2
  -GOLD-   2272018323D 1   1.00000     0.00000
 Structure written by MMmdl.
 40 41  0  0  0  0  0  0  0  0  3 V2000
  144.9726  131.6492  150.6483 C   0  0  0  0  0  0  0  0  0  0  0  0
  145.8255  132.9251  150.6128 C   0  0  0  0  0  0  0  0  0  0  0  0
  145.2815  134.0001  151.4799 N   0  3  2  0  0  0  0  0  0  0  0  0
  143.8027  134.0730  151.4184 C   0  0  0  0  0  0  0  0  0  0  0  0
  143.2775  135.1700  152.3573 C   0  0  0  0  0  0  0  0  0  0  0  0
  143.8739  136.4133  152.0108 O   0  0  0  0  0  0  0  0  0  0  0  0
  145.2890  136.3962  152.1695 C   0  0  2  0  0  0  0  0  0  0  0  0
  145.8231  137.8005  151.8522 C   0  0  0  0  0  0  0  0  0  0  0  0
  147.1300  138.0295  152.4508 N   0  0  0  0  0  0  0  0  0  0  0  0
  147.4432  139.1488  153.1995 C   0  0  0  0  0  0  0  0  0  0  0  0
  146.4818  140.0677  153.3742 N   0  3  0  0  0  0  0  0  0  0  0  0
  146.7421  141.1863  154.0947 C   0  0  0  0  0  0  0  0  0  0  0  0
  148.0136  141.3862  154.6617 C   0  0  0  0  0  0  0  0  0  0  0  0
  148.9726  140.3833  154.4444 C   0  0  0  0  0  0  0  0  0  0  0  0
  150.2354  140.5231  154.9817 O   0  0  0  0  0  0  0  0  0  0  0  0
  150.4571  141.5672  155.9235 C   0  0  0  0  0  0  0  0  0  0  0  0
  148.6737  139.2812  153.7159 N   0  0  0  0  0  0  0  0  0  0  0  0
  145.8771  135.3347  151.2173 C   0  0  0  0  0  0  0  0  0  0  0  0
  145.3462  130.9197  149.9293 H   0  0  0  0  0  0  0  0  0  0  0  0
  143.9340  131.8611  150.3928 H   0  0  0  0  0  0  0  0  0  0  0  0
  144.9900  131.1728  151.6280 H   0  0  0  0  0  0  0  0  0  0  0  0
  146.8577  132.7058  150.8898 H   0  0  0  0  0  0  0  0  0  0  0  0
  145.8513  133.2806  149.5818 H   0  0  0  0  0  0  0  0  0  0  0  0
  143.4881  134.2765  150.3936 H   0  0  0  0  0  0  0  0  0  0  0  0
  143.3711  133.1124  151.7022 H   0  0  0  0  0  0  0  0  0  0  0  0
  142.1950  135.2586  152.2637 H   0  0  0  0  0  0  0  0  0  0  0  0
  143.4885  134.9269  153.4001 H   0  0  0  0  0  0  0  0  0  0  0  0
  145.5413  136.1402  153.2006 H   0  0  0  0  0  0  0  0  0  0  0  0
  145.9140  137.9244  150.7723 H   0  0  0  0  0  0  0  0  0  0  0  0
  145.1233  138.5593  152.2045 H   0  0  0  0  0  0  0  0  0  0  0  0
  147.7974  137.2719  152.4452 H   0  0  0  0  0  0  0  0  0  0  0  0
  145.9237  141.8845  154.1939 H   0  0  0  0  0  0  0  0  0  0  0  0
  148.2417  142.2699  155.2398 H   0  0  0  0  0  0  0  0  0  0  0  0
  151.4975  141.5451  156.2477 H   0  0  0  0  0  0  0  0  0  0  0  0
  149.8319  141.4467  156.8093 H   0  0  0  0  0  0  0  0  0  0  0  0
  150.2693  142.5475  155.4832 H   0  0  0  0  0  0  0  0  0  0  0  0
  146.9581  135.2961  151.3485 H   0  0  0  0  0  0  0  0  0  0  0  0
  145.6911  135.6170  150.1794 H   0  0  0  0  0  0  0  0  0  0  0  0
  145.5143  133.7500  152.4304 H   0  0  0  0  0  0  0  0  0  0  0  0
  145.5541  139.9398  152.9697 H   0  0  0  0  0  0  0  0  0  0  0  0
  1  2  1  0  0  0  0
  1 19  1  0  0  0  0
  1 20  1  0  0  0  0
  1 21  1  0  0  0  0
  2  3  1  0  0  0  0
  2 22  1  0  0  0  0
  2 23  1  0  0  0  0
  3 18  1  0  0  0  0
  3  4  1  0  0  0  0
  3 39  1  0  0  0  0
  4  5  1  0  0  0  0
  4 24  1  0  0  0  0
  4 25  1  0  0  0  0
  5  6  1  0  0  0  0
  5 26  1  0  0  0  0
  5 27  1  0  0  0  0
  6  7  1  0  0  0  0
  7  8  1  0  0  0  0
  7 18  1  0  0  0  0
  7 28  1  0  0  0  0
  8  9  1  0  0  0  0
  8 29  1  0  0  0  0
  8 30  1  0  0  0  0
  9 10  1  0  0  0  0
  9 31  1  0  0  0  0
 10 17  1  0  0  0  0
 10 11  2  0  0  0  0
 11 12  1  0  0  0  0
 11 40  1  0  0  0  0
 12 13  2  0  0  0  0
 12 32  1  0  0  0  0
 13 14  1  0  0  0  0
 13 33  1  0  0  0  0
 14 15  1  0  0  0  0
 14 17  2  0  0  0  0
 15 16  1  0  0  0  0
 16 34  1  0  0  0  0
 16 35  1  0  0  0  0
 16 36  1  0  0  0  0
 18 37  1  0  0  0  0
 18 38  1  0  0  0  0
M  CHG  1   3   1
M  CHG  1  11   1
M  END
> <s_m_source_file>
AV-unprocessed.smi

> <i_m_source_file_index>
3250

> <i_lp_mmshare_version>
43012

> <i_f3d_flags>
0

> <s_epik_input>
W0NIM11bQ0gyXU4xW0NIMl1bQ0gyXU9bQ0BIXShbQ0gyXTEpW0NIMl1bTkhdYzJuW2NIXVtjSF1jKG4yKU9bQ0gzXQ==

> <s_epik_cmdline>
J2VwaWtfcHl0aG9uJywgJy1waCcsICc3LjAnLCAnLXRuJywgJzgnLCAnLW1hJywgJzIwMCcsICctbWV0YWxfYmluZGluZycsICctaW1hZScsICc8aW5maWxlLm1hZT4nLCAnLW9tYWUnLCAnPG91dGZpbGUubWFlPic=

> <r_lp_tautomer_probability>
0.999985

> <r_epik_Ionization_Penalty>
2.24691

> <r_epik_Ionization_Penalty_Charging>
2.24686

> <r_epik_Ionization_Penalty_Neutral>
4.52111e-05

> <r_epik_State_Penalty>
2.24709

> <r_epik_Charging_Adjusted_Penalty>
4.49395

> <i_epik_Tot_Q>
2

> <i_epik_Tot_abs_Q>
2

> <r_epik_Metal_State_Penalty>
2.26327

> <b_epik_Metal_Only>
0

> <s_lp_Force_Field>
OPLS_2005

> <r_lp_Energy>
18.1158

> <b_lp_Chiralities_Consistent>
1

> <s_lp_Variant>
AV-unprocessed.smi:3250-10

> <Gold.Version>
5.8.1

> <Gold.Id.Protein>
6NUR|6NUR_protein|mol2

> <Gold.PLP.Fitness>
45.0416

> <Gold.PLP.PLP>
-31.1370

> <Gold.PLP.part.hbond>
-3.0000

> <Gold.PLP.part.metal>
0.0000

> <Gold.PLP.part.buried>
-4.5231

> <Gold.PLP.part.nonpolar>
-26.5134

> <Gold.PLP.part.repulsive>
2.8411

> <Gold.PLP.ligand.clash>
0.0000

> <Gold.PLP.ligand.torsion>
0.5195

> <Gold.PLP.Chemscore.Hbond>
4.9760

> <Gold.PLP.Chemscore.CHOScore>
0.0000

> <Gold.PLP.Chemscore.Metal>
0.0000

> <Gold.Chemscore.Hbonds>
donor molecule, donor type, donor heavy atom, donor atom, acceptor molecule, acceptor atom, score
      L1  H     9    31       P1  7948  2.00
      L1  H    11    40       P1 10175  2.00
      P1  H  7989  7998       L1    15  0.89

> <Gold.PLP.Chemscore.Internal.Correction>
0.0156

> <Gold.Rescore>
     Score         DG    S(hbond)    S(metal)    S(lipo)     H(rot)  DE(clash)    DE(int)     intcor
     14.07     -16.94       2.47        0.00      65.74       1.75       2.16       0.72       ----

> <Gold.Chemscore.Fitness>
14.0698

> <Gold.Chemscore.DG>
-16.9428

> <Gold.Chemscore.ZeroCoef>
-5.4800

> <Gold.Chemscore.Hbond>
2.4725

> <Gold.Chemscore.Metal>
0.0000

> <Gold.Chemscore.Lipo>
65.7445

> <Gold.Chemscore.Internal_Hbond>
0.0000

> <Gold.Chemscore.DEClash>
2.1563

> <Gold.Chemscore.DEInternal>
0.7166

> <Gold.Chemscore.Rot>
1.7530

> <Gold.Chemscore.Internal.Correction>
   9.000000E+99

> <Gold.Chemscore.Hbonds>
donor molecule, donor type, donor heavy atom, donor atom, acceptor molecule, acceptor atom, score
      L1  H     9    31       P1  7948  0.99
      L1  H    11    40       P1 10175  0.94
      P1  H  7989  7998       L1    15  0.29

> <Gold.Chemscore.Hbond.Weighted>
-8.2583

> <Gold.Chemscore.Metal.Weighted>
-0.0000

> <Gold.Chemscore.Lipo.Weighted>
-7.6921

> <Gold.Chemscore.Internal_Hbond.Weighted>
0.0000

> <Gold.Chemscore.DEClash.Weighted>
2.1563

> <Gold.Chemscore.DEInternal.Weighted>
0.7166

> <Gold.Chemscore.Rot.Weighted>
4.4876

> <Gold.Chemscore.Internal.Correction.Weighted>
   9.000000E+99

> <Gold.Protein.RotatedTorsions>
[ 6907 6896 6895 6894 ] final  159.40 input  -60.11 | X-H torsion
[ 7974 7965 7964 7962 ] final   36.99 input  175.53 | X-H torsion
[ 8008 7997 7996 7995 ] final  -33.36 input   59.86 | X-H torsion
[ 10167 10162 10161 10158 ] final   50.64 input  -65.29 | X-H torsion
[ 10718 10713 10712 10709 ] final  -71.94 input   66.30 | X-H torsion
[ 10763 10752 10751 10750 ] final   74.62 input  -60.55 | X-H torsion
[ 11005 11000 10999 10996 ] final  145.09 input  -57.11 | X-H torsion

> <Gold.Protein.ActiveResidues>
 VAL166  LYS551  ARG553  GLY616  TRP617  ASP618  TYR619  PRO620  LYS621  CYS622 
 ASP623  PHE694  ASN695  SER759  ASP760  ASP761  ALA762  ILE779  LEU786  VAL792 
 PHE793  MET794  SER795  GLU796  ALA797  LYS798  CYS799  TRP800  GLU811  SER814 

> <Gold.Protein.RotatedAtoms>
  151.9862  133.3775  159.4126 H   0  0  0  0  0  0  0  0  0  0  0  0  # atno 6907 bound_to 6896
  150.6928  134.3986  159.5118 H   0  0  0  0  0  0  0  0  0  0  0  0  # atno 6908 bound_to 6896
  152.1712  134.8832  160.0585 H   0  0  0  0  0  0  0  0  0  0  0  0  # atno 6909 bound_to 6896
  146.1171  139.5949  142.9314 H   0  0  0  0  0  0  0  0  0  0  0  0  # atno 7974 bound_to 7965
  154.4151  140.1713  156.1875 H   0  0  0  0  0  0  0  0  0  0  0  0  # atno 8008 bound_to 7997
  155.9631  140.3392  155.6484 H   0  0  0  0  0  0  0  0  0  0  0  0  # atno 8009 bound_to 7997
  155.6723  140.0713  157.2506 H   0  0  0  0  0  0  0  0  0  0  0  0  # atno 8010 bound_to 7997
  140.2703  144.3273  150.6292 H   0  0  0  0  0  0  0  0  0  0  0  0  # atno 10167 bound_to 10162
  156.0341  130.4362  150.2519 H   0  0  0  0  0  0  0  0  0  0  0  0  # atno 10718 bound_to 10713
  153.0599  135.5019  154.8070 H   0  0  0  0  0  0  0  0  0  0  0  0  # atno 10763 bound_to 10752
  154.6867  135.2977  154.9540 H   0  0  0  0  0  0  0  0  0  0  0  0  # atno 10764 bound_to 10752
  154.0309  135.6730  153.4833 H   0  0  0  0  0  0  0  0  0  0  0  0  # atno 10765 bound_to 10752
  140.0684  134.9165  157.1304 H   0  0  0  0  0  0  0  0  0  0  0  0  # atno 11005 bound_to 11000
  145.5545  141.0410  143.2260 LP  0  0  0  0  0  0  0  0  0  0  0  0  # atno 17320 bound_to 7965
  144.7562  139.7067  143.7253 LP  0  0  0  0  0  0  0  0  0  0  0  0  # atno 17321 bound_to 7965
  140.5895  143.2168  151.7279 LP  0  0  0  0  0  0  0  0  0  0  0  0  # atno 17342 bound_to 10162
  139.4991  144.3960  152.0230 LP  0  0  0  0  0  0  0  0  0  0  0  0  # atno 17343 bound_to 10162
  157.0620  131.0092  151.3219 LP  0  0  0  0  0  0  0  0  0  0  0  0  # atno 17370 bound_to 10713
  157.5064  130.7911  149.7658 LP  0  0  0  0  0  0  0  0  0  0  0  0  # atno 17371 bound_to 10713
  140.3664  134.2438  155.7182 LP  0  0  0  0  0  0  0  0  0  0  0  0  # atno 17394 bound_to 11000
  141.2002  133.7993  157.0500 LP  0  0  0  0  0  0  0  0  0  0  0  0  # atno 17395 bound_to 11000

$$$$
