AV-unprocessed.smi:1634|AV-procd|sdf|6539|dock4
  -GOLD-   22720 7223D 1   1.00000     0.00000
 Structure written by MMmdl.
 37 37  0  0  0  0  0  0  0  0  2 V2000
  148.0603  141.7149  155.1114 C   0  0  0  0  0  0  0  0  0  0  0  0
  148.3273  140.9351  153.8141 C   0  0  0  0  0  0  0  0  0  0  0  0
  147.0240  140.7183  153.0314 C   0  0  0  0  0  0  0  0  0  0  0  0
  149.0288  139.5965  154.0946 C   0  0  0  0  0  0  0  0  0  0  0  0
  150.4036  139.8366  154.3775 O   0  0  0  0  0  0  0  0  0  0  0  0
  151.0689  138.8090  155.1079 C   0  0  1  0  0  0  0  0  0  0  0  0
  151.9072  137.9984  154.1086 C   0  0  0  0  0  0  0  0  0  0  0  0
  151.9510  139.4228  156.2070 C   0  0  0  0  0  0  0  0  0  0  0  0
  153.1590  139.1855  156.2158 O   0  0  0  0  0  0  0  0  0  0  0  0
  151.3058  140.1997  157.0989 N   0  0  0  0  0  0  0  0  0  0  0  0
  151.8304  140.9638  158.1544 C   0  0  0  0  0  0  0  0  0  0  0  0
  151.5460  142.2775  158.3720 C   0  0  0  0  0  0  0  0  0  0  0  0
  152.0989  143.0197  159.4975 C   0  0  0  0  0  0  0  0  0  0  0  0
  151.7389  144.4615  159.8103 C   0  0  0  0  0  0  0  0  0  0  0  0
  152.2316  145.2925  158.8915 F   0  0  0  0  0  0  0  0  0  0  0  0
  150.4145  144.6036  159.8323 F   0  0  0  0  0  0  0  0  0  0  0  0
  152.2145  144.8230  161.0022 F   0  0  0  0  0  0  0  0  0  0  0  0
  152.8954  142.2302  160.3046 C   0  0  0  0  0  0  0  0  0  0  0  0
  153.2312  140.9295  160.1579 N   0  5  0  0  0  0  0  0  0  0  0  0
  152.7136  140.2473  159.0973 C   0  0  0  0  0  0  0  0  0  0  0  0
  152.9659  139.0564  158.9114 O   0  0  0  0  0  0  0  0  0  0  0  0
  147.4051  141.1577  155.7818 H   0  0  0  0  0  0  0  0  0  0  0  0
  147.5855  142.6740  154.9026 H   0  0  0  0  0  0  0  0  0  0  0  0
  148.9867  141.9201  155.6486 H   0  0  0  0  0  0  0  0  0  0  0  0
  148.9898  141.5364  153.1902 H   0  0  0  0  0  0  0  0  0  0  0  0
  146.3140  140.1193  153.6026 H   0  0  0  0  0  0  0  0  0  0  0  0
  147.2119  140.2029  152.0893 H   0  0  0  0  0  0  0  0  0  0  0  0
  146.5441  141.6686  152.7955 H   0  0  0  0  0  0  0  0  0  0  0  0
  148.5320  139.0885  154.9223 H   0  0  0  0  0  0  0  0  0  0  0  0
  148.9526  138.9455  153.2223 H   0  0  0  0  0  0  0  0  0  0  0  0
  150.3255  138.1444  155.5524 H   0  0  0  0  0  0  0  0  0  0  0  0
  152.4584  137.2019  154.6095 H   0  0  0  0  0  0  0  0  0  0  0  0
  152.6279  138.6274  153.5846 H   0  0  0  0  0  0  0  0  0  0  0  0
  151.2688  137.5340  153.3567 H   0  0  0  0  0  0  0  0  0  0  0  0
  150.2991  140.2278  157.0241 H   0  0  0  0  0  0  0  0  0  0  0  0
  150.8757  142.8122  157.7189 H   0  0  0  0  0  0  0  0  0  0  0  0
  153.3221  142.7150  161.2084 H   0  0  0  0  0  0  0  0  0  0  0  0
  1  2  1  0  0  0  0
  1 22  1  0  0  0  0
  1 23  1  0  0  0  0
  1 24  1  0  0  0  0
  2  3  1  0  0  0  0
  2  4  1  0  0  0  0
  2 25  1  0  0  0  0
  3 26  1  0  0  0  0
  3 27  1  0  0  0  0
  3 28  1  0  0  0  0
  4  5  1  0  0  0  0
  4 29  1  0  0  0  0
  4 30  1  0  0  0  0
  5  6  1  0  0  0  0
  6  7  1  0  0  0  0
  6  8  1  0  0  0  0
  6 31  1  0  0  0  0
  7 32  1  0  0  0  0
  7 33  1  0  0  0  0
  7 34  1  0  0  0  0
  8  9  2  0  0  0  0
  8 10  1  0  0  0  0
 10 11  1  0  0  0  0
 10 35  1  0  0  0  0
 11 20  1  0  0  0  0
 11 12  2  0  0  0  0
 12 13  1  0  0  0  0
 12 36  1  0  0  0  0
 13 14  1  0  0  0  0
 13 18  2  0  0  0  0
 14 15  1  0  0  0  0
 14 16  1  0  0  0  0
 14 17  1  0  0  0  0
 18 19  1  0  0  0  0
 18 37  1  0  0  0  0
 19 20  1  0  0  0  0
 20 21  2  0  0  0  0
M  CHG  1  19  -1
M  END
> <s_m_source_file>
AV-unprocessed.smi

> <i_m_source_file_index>
1634

> <i_lp_mmshare_version>
43012

> <i_f3d_flags>
0

> <s_epik_input>
W0NIM11bQ0hdKFtDSDNdKVtDSDJdT1tDQEhdKFtDSDNdKUMoPU8pW05IXWMxW2NIXWMoQyhGKShGKUYpW2NIXVtuSF1jMT1P

> <s_epik_cmdline>
J2VwaWtfcHl0aG9uJywgJy1waCcsICc3LjAnLCAnLXRuJywgJzgnLCAnLW1hJywgJzIwMCcsICctbWV0YWxfYmluZGluZycsICctaW1hZScsICc8aW5maWxlLm1hZT4nLCAnLW9tYWUnLCAnPG91dGZpbGUubWFlPic=

> <r_epik_Ionization_Penalty>
2.55349

> <r_epik_Ionization_Penalty_Charging>
0.0582825

> <r_epik_Ionization_Penalty_Neutral>
2.49521

> <r_epik_State_Penalty>
2.65983

> <r_epik_Charging_Adjusted_Penalty>
2.71812

> <i_epik_Tot_Q>
-1

> <i_epik_Tot_abs_Q>
1

> <r_epik_Metal_State_Penalty>
0.516727

> <b_epik_Metal_Only>
0

> <s_lp_Force_Field>
OPLS_2005

> <r_lp_Energy>
21.4582

> <b_lp_Chiralities_Consistent>
1

> <s_lp_Variant>
AV-unprocessed.smi:1634-4

> <Gold.Version>
5.8.1

> <Gold.Id.Protein>
6NUR|6NUR_protein|mol2

> <Gold.PLP.Fitness>
49.9365

> <Gold.PLP.PLP>
-46.7040

> <Gold.PLP.part.hbond>
-1.8367

> <Gold.PLP.part.metal>
0.0000

> <Gold.PLP.part.buried>
-4.8125

> <Gold.PLP.part.nonpolar>
-40.0753

> <Gold.PLP.part.repulsive>
0.1926

> <Gold.PLP.ligand.clash>
0.0000

> <Gold.PLP.ligand.torsion>
1.5056

> <Gold.PLP.Chemscore.Hbond>
2.0000

> <Gold.PLP.Chemscore.CHOScore>
0.0000

> <Gold.PLP.Chemscore.Metal>
0.0000

> <Gold.Chemscore.Hbonds>
donor molecule, donor type, donor heavy atom, donor atom, acceptor molecule, acceptor atom, score
      P1  H  7989  7998       L1     5  1.00
      P1  H  7997  8010       L1     9  1.00

> <Gold.PLP.Chemscore.Internal.Correction>
0.2438

> <Gold.Rescore>
     Score         DG    S(hbond)    S(metal)    S(lipo)     H(rot)  DE(clash)    DE(int)     intcor
     13.66     -18.10       1.90        0.00      91.97       1.75       0.34       4.09       ----

> <Gold.Chemscore.Fitness>
13.6612

> <Gold.Chemscore.DG>
-18.1002

> <Gold.Chemscore.ZeroCoef>
-5.4800

> <Gold.Chemscore.Hbond>
1.9012

> <Gold.Chemscore.Metal>
0.0000

> <Gold.Chemscore.Lipo>
91.9657

> <Gold.Chemscore.Internal_Hbond>
0.0000

> <Gold.Chemscore.DEClash>
0.3441

> <Gold.Chemscore.DEInternal>
4.0948

> <Gold.Chemscore.Rot>
1.7538

> <Gold.Chemscore.Internal.Correction>
   9.000000E+99

> <Gold.Chemscore.Hbonds>
donor molecule, donor type, donor heavy atom, donor atom, acceptor molecule, acceptor atom, score
      P1  H  7989  7998       L1     5  0.74
      P1  H  7997  8010       L1     9  0.92

> <Gold.Chemscore.Hbond.Weighted>
-6.3500

> <Gold.Chemscore.Metal.Weighted>
-0.0000

> <Gold.Chemscore.Lipo.Weighted>
-10.7600

> <Gold.Chemscore.Internal_Hbond.Weighted>
0.0000

> <Gold.Chemscore.DEClash.Weighted>
0.3441

> <Gold.Chemscore.DEInternal.Weighted>
4.0948

> <Gold.Chemscore.Rot.Weighted>
4.4898

> <Gold.Chemscore.Internal.Correction.Weighted>
   9.000000E+99

> <Gold.Protein.RotatedTorsions>
[ 6907 6896 6895 6894 ] final  -89.98 input  -60.11 | X-H torsion
[ 7974 7965 7964 7962 ] final -100.99 input  175.53 | X-H torsion
[ 8008 7997 7996 7995 ] final   59.98 input   59.86 | X-H torsion
[ 10167 10162 10161 10158 ] final -103.65 input  -65.29 | X-H torsion
[ 10718 10713 10712 10709 ] final   62.49 input   66.30 | X-H torsion
[ 10763 10752 10751 10750 ] final  -33.98 input  -60.55 | X-H torsion
[ 11005 11000 10999 10996 ] final   19.43 input  -57.11 | X-H torsion

> <Gold.Protein.ActiveResidues>
 VAL166  LYS551  ARG553  GLY616  TRP617  ASP618  TYR619  PRO620  LYS621  CYS622 
 ASP623  PHE694  ASN695  SER759  ASP760  ASP761  ALA762  ILE779  LEU786  VAL792 
 PHE793  MET794  SER795  GLU796  ALA797  LYS798  CYS799  TRP800  GLU811  SER814 

> <Gold.Protein.RotatedAtoms>
  150.6878  134.2502  159.4507 H   0  0  0  0  0  0  0  0  0  0  0  0  # atno 6907 bound_to 6896
  152.0440  134.9691  160.0583 H   0  0  0  0  0  0  0  0  0  0  0  0  # atno 6908 bound_to 6896
  152.1182  133.4303  159.4700 H   0  0  0  0  0  0  0  0  0  0  0  0  # atno 6909 bound_to 6896
  145.2874  140.9343  143.2897 H   0  0  0  0  0  0  0  0  0  0  0  0  # atno 7974 bound_to 7965
  155.5750  140.3490  155.4525 H   0  0  0  0  0  0  0  0  0  0  0  0  # atno 8008 bound_to 7997
  156.0416  140.1297  157.0175 H   0  0  0  0  0  0  0  0  0  0  0  0  # atno 8009 bound_to 7997
  154.4394  140.1023  156.6230 H   0  0  0  0  0  0  0  0  0  0  0  0  # atno 8010 bound_to 7997
  140.2177  143.3699  152.0996 H   0  0  0  0  0  0  0  0  0  0  0  0  # atno 10167 bound_to 10162
  157.5904  130.9053  149.9594 H   0  0  0  0  0  0  0  0  0  0  0  0  # atno 10718 bound_to 10713
  153.8391  135.6859  153.4805 H   0  0  0  0  0  0  0  0  0  0  0  0  # atno 10763 bound_to 10752
  153.1464  135.4636  154.9570 H   0  0  0  0  0  0  0  0  0  0  0  0  # atno 10764 bound_to 10752
  154.7853  135.3282  154.7847 H   0  0  0  0  0  0  0  0  0  0  0  0  # atno 10765 bound_to 10752
  140.4137  134.1591  155.7668 H   0  0  0  0  0  0  0  0  0  0  0  0  # atno 11005 bound_to 11000
  144.9202  139.4421  143.6545 LP  0  0  0  0  0  0  0  0  0  0  0  0  # atno 17320 bound_to 7965
  146.3196  139.8058  142.8956 LP  0  0  0  0  0  0  0  0  0  0  0  0  # atno 17321 bound_to 7965
  139.5156  144.6965  151.5616 LP  0  0  0  0  0  0  0  0  0  0  0  0  # atno 17342 bound_to 10162
  140.6278  143.9135  150.6579 LP  0  0  0  0  0  0  0  0  0  0  0  0  # atno 17343 bound_to 10162
  156.0958  130.3659  150.0309 LP  0  0  0  0  0  0  0  0  0  0  0  0  # atno 17370 bound_to 10713
  156.8433  130.9433  151.3630 LP  0  0  0  0  0  0  0  0  0  0  0  0  # atno 17371 bound_to 10713
  141.1811  133.8412  157.1254 LP  0  0  0  0  0  0  0  0  0  0  0  0  # atno 17394 bound_to 11000
  140.0249  134.9929  157.0666 LP  0  0  0  0  0  0  0  0  0  0  0  0  # atno 17395 bound_to 11000

$$$$
