AV-unprocessed.smi:4|AV-procd|sdf|33|dock7
  -GOLD-   2262015143D 1   1.00000     0.00000
 Structure written by MMmdl.
 44 45  0  0  0  0  0  0  0  0  2 V2000
  151.5088  138.4640  156.3991 C   0  0  0  0  0  0  0  0  0  0  0  0
  151.2540  138.6558  154.8811 C   0  0  0  0  0  0  0  0  0  0  0  0
  152.5666  139.2592  154.3173 C   0  0  0  0  0  0  0  0  0  0  0  0
  151.0165  137.2302  154.3190 C   0  0  0  0  0  0  0  0  0  0  0  0
  150.1002  139.5381  154.6055 N   0  0  0  0  0  0  0  0  0  0  0  0
  148.9795  139.1499  153.8670 C   0  0  0  0  0  0  0  0  0  0  0  0
  147.9056  139.9416  153.6160 C   0  0  0  0  0  0  0  0  0  0  0  0
  146.7291  139.4537  152.7777 C   0  0  0  0  0  0  0  0  0  0  0  0
  146.6994  137.9785  152.6691 N   0  3  0  0  0  0  0  0  0  0  0  0
  145.7145  137.4296  151.7117 C   0  0  0  0  0  0  0  0  0  0  0  0
  145.3624  135.9747  152.0398 C   0  0  0  0  0  0  0  0  0  0  0  0
  146.5396  135.2213  151.8308 O   0  0  0  0  0  0  0  0  0  0  0  0
  144.6957  135.7197  153.4042 C   0  0  0  0  0  0  0  0  0  0  0  0
  143.3371  135.6902  152.7037 C   0  0  0  0  0  0  0  0  0  0  0  0
  144.0879  135.3820  151.4080 C   0  0  0  0  0  0  0  0  0  0  0  0
  147.8950  141.3165  154.1163 C   0  0  0  0  0  0  0  0  0  0  0  0
  146.9890  142.1310  153.9495 O   0  0  0  0  0  0  0  0  0  0  0  0
  149.0240  141.6813  154.8454 N   0  0  0  0  0  0  0  0  0  0  0  0
  150.1205  140.8669  155.1185 C   0  0  0  0  0  0  0  0  0  0  0  0
  151.0400  141.3406  155.7834 O   0  0  0  0  0  0  0  0  0  0  0  0
  149.0514  142.6224  155.2112 H   0  0  0  0  0  0  0  0  0  0  0  0
  152.3650  137.8120  156.5779 H   0  0  0  0  0  0  0  0  0  0  0  0
  150.6593  137.9989  156.9013 H   0  0  0  0  0  0  0  0  0  0  0  0
  151.7327  139.4076  156.8986 H   0  0  0  0  0  0  0  0  0  0  0  0
  152.7111  140.2821  154.6667 H   0  0  0  0  0  0  0  0  0  0  0  0
  152.6077  139.2741  153.2298 H   0  0  0  0  0  0  0  0  0  0  0  0
  153.4344  138.6824  154.6392 H   0  0  0  0  0  0  0  0  0  0  0  0
  151.8005  136.5446  154.6423 H   0  0  0  0  0  0  0  0  0  0  0  0
  151.0134  137.1855  153.2316 H   0  0  0  0  0  0  0  0  0  0  0  0
  150.0672  136.8222  154.6679 H   0  0  0  0  0  0  0  0  0  0  0  0
  148.9132  138.1589  153.4492 H   0  0  0  0  0  0  0  0  0  0  0  0
  145.7784  139.8246  153.1632 H   0  0  0  0  0  0  0  0  0  0  0  0
  146.8252  139.8606  151.7706 H   0  0  0  0  0  0  0  0  0  0  0  0
  147.6147  137.6707  152.3730 H   0  0  0  0  0  0  0  0  0  0  0  0
  144.8129  138.0428  151.7188 H   0  0  0  0  0  0  0  0  0  0  0  0
  146.1306  137.5029  150.7060 H   0  0  0  0  0  0  0  0  0  0  0  0
  147.2701  135.8106  151.9446 H   0  0  0  0  0  0  0  0  0  0  0  0
  144.9643  134.7562  153.8417 H   0  0  0  0  0  0  0  0  0  0  0  0
  144.8081  136.5282  154.1274 H   0  0  0  0  0  0  0  0  0  0  0  0
  142.6658  134.9003  153.0419 H   0  0  0  0  0  0  0  0  0  0  0  0
  142.8457  136.6642  152.6893 H   0  0  0  0  0  0  0  0  0  0  0  0
  143.7108  135.9183  150.5369 H   0  0  0  0  0  0  0  0  0  0  0  0
  144.1649  134.3110  151.2114 H   0  0  0  0  0  0  0  0  0  0  0  0
  146.5117  137.5855  153.5805 H   0  0  0  0  0  0  0  0  0  0  0  0
  1  2  1  0  0  0  0
  1 22  1  0  0  0  0
  1 23  1  0  0  0  0
  1 24  1  0  0  0  0
  2  3  1  0  0  0  0
  2  4  1  0  0  0  0
  2  5  1  0  0  0  0
  3 25  1  0  0  0  0
  3 26  1  0  0  0  0
  3 27  1  0  0  0  0
  4 28  1  0  0  0  0
  4 29  1  0  0  0  0
  4 30  1  0  0  0  0
  5 19  1  0  0  0  0
  5  6  1  0  0  0  0
  6  7  2  0  0  0  0
  6 31  1  0  0  0  0
  7  8  1  0  0  0  0
  7 16  1  0  0  0  0
  8  9  1  0  0  0  0
  8 32  1  0  0  0  0
  8 33  1  0  0  0  0
  9 10  1  0  0  0  0
  9 34  1  0  0  0  0
  9 44  1  0  0  0  0
 10 11  1  0  0  0  0
 10 35  1  0  0  0  0
 10 36  1  0  0  0  0
 11 15  1  0  0  0  0
 11 12  1  0  0  0  0
 11 13  1  0  0  0  0
 12 37  1  0  0  0  0
 13 14  1  0  0  0  0
 13 38  1  0  0  0  0
 13 39  1  0  0  0  0
 14 15  1  0  0  0  0
 14 40  1  0  0  0  0
 14 41  1  0  0  0  0
 15 42  1  0  0  0  0
 15 43  1  0  0  0  0
 16 17  2  0  0  0  0
 16 18  1  0  0  0  0
 18 21  1  0  0  0  0
 18 19  1  0  0  0  0
 19 20  2  0  0  0  0
M  CHG  1   9   1
M  END
> <s_m_source_file>
AV-unprocessed.smi

> <i_m_source_file_index>
4

> <i_lp_mmshare_version>
43012

> <i_f3d_flags>
0

> <s_epik_input>
W0NIM11DKFtDSDNdKShbQ0gzXSluMVtjSF1jKGMoPU8pW25IXWMxPU8pW0NIMl1bTkhdW0NIMl1DMihbT0hdKVtDSDJdW0NIMl1bQ0gyXTI=

> <s_epik_cmdline>
J2VwaWtfcHl0aG9uJywgJy1waCcsICc3LjAnLCAnLXRuJywgJzgnLCAnLW1hJywgJzIwMCcsICctbWV0YWxfYmluZGluZycsICctaW1hZScsICc8aW5maWxlLm1hZT4nLCAnLW9tYWUnLCAnPG91dGZpbGUubWFlPic=

> <r_lp_tautomer_probability>
0.999537

> <r_epik_Ionization_Penalty>
0.0188443

> <r_epik_Ionization_Penalty_Charging>
0.0188443

> <r_epik_Ionization_Penalty_Neutral>
1.97485e-08

> <r_epik_State_Penalty>
0.0134361

> <r_epik_Charging_Adjusted_Penalty>
0.0322804

> <i_epik_Tot_Q>
1

> <i_epik_Tot_abs_Q>
1

> <r_epik_Metal_State_Penalty>
0.855907

> <b_epik_Metal_Only>
0

> <s_lp_Force_Field>
OPLS_2005

> <r_lp_Energy>
23.9463

> <b_lp_Chiralities_Consistent>
1

> <s_lp_Variant>
AV-unprocessed.smi:4-1

> <Gold.Version>
5.8.1

> <Gold.Id.Protein>
6NUR|6NUR_protein|mol2

> <Gold.PLP.Fitness>
46.5352

> <Gold.PLP.PLP>
-33.0648

> <Gold.PLP.part.hbond>
-2.5819

> <Gold.PLP.part.metal>
0.0000

> <Gold.PLP.part.buried>
1.7208

> <Gold.PLP.part.nonpolar>
-32.6265

> <Gold.PLP.part.repulsive>
0.4677

> <Gold.PLP.ligand.clash>
0.0000

> <Gold.PLP.ligand.torsion>
0.4498

> <Gold.PLP.Chemscore.Hbond>
3.8775

> <Gold.PLP.Chemscore.CHOScore>
0.8616

> <Gold.PLP.Chemscore.Metal>
0.0000

> <Gold.Chemscore.Hbonds>
donor molecule, donor type, donor heavy atom, donor atom, acceptor molecule, acceptor atom, score
      L1  H     9    34       P1  7948  2.00
      L1  H    12    37       P1  7948  1.00
      L1  H    18    21       P1  8028  0.71
      L1  C     6    31       P1  7948  1.00

> <Gold.PLP.Chemscore.Internal.Correction>
0.1527

> <Gold.Rescore>
     Score         DG    S(hbond)    S(metal)    S(lipo)     H(rot)  DE(clash)    DE(int)     intcor
     14.25     -16.14       2.83        0.00      65.79       2.53       0.05       1.83       ----

> <Gold.Chemscore.Fitness>
14.2544

> <Gold.Chemscore.DG>
-16.1434

> <Gold.Chemscore.ZeroCoef>
-5.4800

> <Gold.Chemscore.Hbond>
2.8272

> <Gold.Chemscore.Metal>
0.0000

> <Gold.Chemscore.Lipo>
65.7879

> <Gold.Chemscore.Internal_Hbond>
0.0000

> <Gold.Chemscore.DEClash>
0.0546

> <Gold.Chemscore.DEInternal>
1.8343

> <Gold.Chemscore.Rot>
2.5300

> <Gold.Chemscore.Internal.Correction>
   9.000000E+99

> <Gold.Chemscore.Hbonds>
donor molecule, donor type, donor heavy atom, donor atom, acceptor molecule, acceptor atom, score
      L1  H     9    34       P1  7948  0.92
      L1  H    12    37       P1  7948  0.96
      L1  H    18    21       P1  8028  0.71

> <Gold.Chemscore.Hbond.Weighted>
-9.4430

> <Gold.Chemscore.Metal.Weighted>
-0.0000

> <Gold.Chemscore.Lipo.Weighted>
-7.6972

> <Gold.Chemscore.Internal_Hbond.Weighted>
0.0000

> <Gold.Chemscore.DEClash.Weighted>
0.0546

> <Gold.Chemscore.DEInternal.Weighted>
1.8343

> <Gold.Chemscore.Rot.Weighted>
6.4768

> <Gold.Chemscore.Internal.Correction.Weighted>
   9.000000E+99

> <Gold.Protein.RotatedTorsions>
[ 6907 6896 6895 6894 ] final -158.50 input  -60.11 | X-H torsion
[ 7974 7965 7964 7962 ] final -122.37 input  175.53 | X-H torsion
[ 8008 7997 7996 7995 ] final   78.71 input   59.86 | X-H torsion
[ 10167 10162 10161 10158 ] final  134.93 input  -65.29 | X-H torsion
[ 10718 10713 10712 10709 ] final   79.71 input   66.30 | X-H torsion
[ 10763 10752 10751 10750 ] final -147.27 input  -60.55 | X-H torsion
[ 11005 11000 10999 10996 ] final  -13.35 input  -57.11 | X-H torsion

> <Gold.Protein.ActiveResidues>
 VAL166  LYS551  ARG553  GLY616  TRP617  ASP618  TYR619  PRO620  LYS621  CYS622 
 ASP623  PHE694  ASN695  SER759  ASP760  ASP761  ALA762  ILE779  LEU786  VAL792 
 PHE793  MET794  SER795  GLU796  ALA797  LYS798  CYS799  TRP800  GLU811  SER814 

> <Gold.Protein.RotatedAtoms>
  151.3192  133.4047  159.2652 H   0  0  0  0  0  0  0  0  0  0  0  0  # atno 6907 bound_to 6896
  151.0049  134.9352  159.7985 H   0  0  0  0  0  0  0  0  0  0  0  0  # atno 6908 bound_to 6896
  152.5285  134.3156  159.9182 H   0  0  0  0  0  0  0  0  0  0  0  0  # atno 6909 bound_to 6896
  145.0302  140.8061  143.4328 H   0  0  0  0  0  0  0  0  0  0  0  0  # atno 7974 bound_to 7965
  155.8595  140.3454  155.5747 H   0  0  0  0  0  0  0  0  0  0  0  0  # atno 8008 bound_to 7997
  155.7949  140.0877  157.2008 H   0  0  0  0  0  0  0  0  0  0  0  0  # atno 8009 bound_to 7997
  154.4011  140.1476  156.3193 H   0  0  0  0  0  0  0  0  0  0  0  0  # atno 8010 bound_to 7997
  139.5237  144.6542  151.5210 H   0  0  0  0  0  0  0  0  0  0  0  0  # atno 10167 bound_to 10162
  157.6785  130.9926  150.1972 H   0  0  0  0  0  0  0  0  0  0  0  0  # atno 10718 bound_to 10713
  154.8294  135.3364  154.6792 H   0  0  0  0  0  0  0  0  0  0  0  0  # atno 10763 bound_to 10752
  153.7413  135.6945  153.4971 H   0  0  0  0  0  0  0  0  0  0  0  0  # atno 10764 bound_to 10752
  153.2242  135.4438  155.0474 H   0  0  0  0  0  0  0  0  0  0  0  0  # atno 10765 bound_to 10752
  140.7752  133.8407  155.9242 H   0  0  0  0  0  0  0  0  0  0  0  0  # atno 11005 bound_to 11000
  145.1780  139.2367  143.5307 LP  0  0  0  0  0  0  0  0  0  0  0  0  # atno 17320 bound_to 7965
  146.3497  140.1547  142.8592 LP  0  0  0  0  0  0  0  0  0  0  0  0  # atno 17321 bound_to 7965
  140.6361  143.8981  150.6648 LP  0  0  0  0  0  0  0  0  0  0  0  0  # atno 17342 bound_to 10162
  140.2301  143.3742  152.1573 LP  0  0  0  0  0  0  0  0  0  0  0  0  # atno 17343 bound_to 10162
  156.2671  130.3717  149.8070 LP  0  0  0  0  0  0  0  0  0  0  0  0  # atno 17370 bound_to 10713
  156.5798  130.8460  151.3380 LP  0  0  0  0  0  0  0  0  0  0  0  0  # atno 17371 bound_to 10713
  140.9536  134.1747  157.4709 LP  0  0  0  0  0  0  0  0  0  0  0  0  # atno 17394 bound_to 11000
  139.8750  134.9918  156.5568 LP  0  0  0  0  0  0  0  0  0  0  0  0  # atno 17395 bound_to 11000

$$$$
