AV-unprocessed.smi:1135|AV-procd|sdf|4860|dock6
  -GOLD-   22720 3433D 1   1.00000     0.00000
 Structure written by MMmdl.
 46 47  0  0  0  0  0  0  0  0  2 V2000
  150.4837  141.7578  157.3455 C   0  0  0  0  0  0  0  0  0  0  0  0
  149.4454  141.0974  156.4275 C   0  0  2  0  0  0  0  0  0  0  0  0
  149.2808  141.8731  155.1104 C   0  0  0  0  0  0  0  0  0  0  0  0
  148.2414  141.2122  154.1876 C   0  0  0  0  0  0  0  0  0  0  0  0
  146.8553  141.0058  154.8498 C   0  0  1  0  0  0  0  0  0  0  0  0
  146.1267  142.3615  155.0091 C   0  0  0  0  0  0  0  0  0  0  0  0
  146.0970  140.1408  153.9359 N   0  0  0  0  0  0  0  0  0  0  0  0
  146.4405  138.9323  153.4611 C   0  0  0  0  0  0  0  0  0  0  0  0
  147.4581  138.3177  153.7816 O   0  0  0  0  0  0  0  0  0  0  0  0
  145.5603  138.4903  152.5510 N   0  0  0  0  0  0  0  0  0  0  0  0
  145.7062  137.2678  151.7630 C   0  0  0  0  0  0  0  0  0  0  0  0
  145.4032  135.9962  152.5836 C   0  0  0  0  0  0  0  0  0  0  0  0
  145.5756  134.7045  151.8020 C   0  0  0  0  0  0  0  0  0  0  0  0
  144.4910  133.8436  151.5234 C   0  0  0  0  0  0  0  0  0  0  0  0
  144.7123  132.6826  150.7536 C   0  0  0  0  0  0  0  0  0  0  0  0
  146.0124  132.4032  150.2844 C   0  0  0  0  0  0  0  0  0  0  0  0
  147.0599  133.2934  150.5978 C   0  0  0  0  0  0  0  0  0  0  0  0
  146.8075  134.3969  151.3355 N   0  3  0  0  0  0  0  0  0  0  0  0
  147.0416  140.2871  156.2160 C   0  0  0  0  0  0  0  0  0  0  0  0
  148.0842  140.9570  157.1272 C   0  0  0  0  0  0  0  0  0  0  0  0
  150.1805  142.7670  157.6260 H   0  0  0  0  0  0  0  0  0  0  0  0
  151.4552  141.8258  156.8548 H   0  0  0  0  0  0  0  0  0  0  0  0
  150.6177  141.1835  158.2625 H   0  0  0  0  0  0  0  0  0  0  0  0
  149.8077  140.0964  156.1880 H   0  0  0  0  0  0  0  0  0  0  0  0
  148.9930  142.9040  155.3184 H   0  0  0  0  0  0  0  0  0  0  0  0
  150.2388  141.9271  154.5923 H   0  0  0  0  0  0  0  0  0  0  0  0
  148.1386  141.8004  153.2744 H   0  0  0  0  0  0  0  0  0  0  0  0
  148.6399  140.2456  153.8741 H   0  0  0  0  0  0  0  0  0  0  0  0
  146.6968  143.0628  155.6172 H   0  0  0  0  0  0  0  0  0  0  0  0
  145.1558  142.2491  155.4912 H   0  0  0  0  0  0  0  0  0  0  0  0
  145.9588  142.8357  154.0416 H   0  0  0  0  0  0  0  0  0  0  0  0
  145.2308  140.5311  153.5943 H   0  0  0  0  0  0  0  0  0  0  0  0
  144.7501  139.0614  152.3580 H   0  0  0  0  0  0  0  0  0  0  0  0
  145.0656  137.3071  150.8804 H   0  0  0  0  0  0  0  0  0  0  0  0
  146.7297  137.2249  151.3899 H   0  0  0  0  0  0  0  0  0  0  0  0
  146.0503  135.9646  153.4611 H   0  0  0  0  0  0  0  0  0  0  0  0
  144.3823  136.0430  152.9644 H   0  0  0  0  0  0  0  0  0  0  0  0
  143.4985  134.0768  151.8802 H   0  0  0  0  0  0  0  0  0  0  0  0
  143.8933  132.0174  150.5219 H   0  0  0  0  0  0  0  0  0  0  0  0
  146.2027  131.5210  149.6910 H   0  0  0  0  0  0  0  0  0  0  0  0
  148.0831  133.1608  150.2777 H   0  0  0  0  0  0  0  0  0  0  0  0
  146.0952  140.2256  156.7535 H   0  0  0  0  0  0  0  0  0  0  0  0
  147.3545  139.2563  156.0417 H   0  0  0  0  0  0  0  0  0  0  0  0
  148.1956  140.3693  158.0390 H   0  0  0  0  0  0  0  0  0  0  0  0
  147.7250  141.9375  157.4416 H   0  0  0  0  0  0  0  0  0  0  0  0
  147.5784  135.0336  151.5384 H   0  0  0  0  0  0  0  0  0  0  0  0
  1  2  1  0  0  0  0
  1 21  1  0  0  0  0
  1 22  1  0  0  0  0
  1 23  1  0  0  0  0
  2 20  1  0  0  0  0
  2  3  1  0  0  0  0
  2 24  1  0  0  0  0
  3  4  1  0  0  0  0
  3 25  1  0  0  0  0
  3 26  1  0  0  0  0
  4  5  1  0  0  0  0
  4 27  1  0  0  0  0
  4 28  1  0  0  0  0
  5  6  1  0  0  0  0
  5  7  1  0  0  0  0
  5 19  1  0  0  0  0
  6 29  1  0  0  0  0
  6 30  1  0  0  0  0
  6 31  1  0  0  0  0
  7  8  1  0  0  0  0
  7 32  1  0  0  0  0
  8  9  2  0  0  0  0
  8 10  1  0  0  0  0
 10 11  1  0  0  0  0
 10 33  1  0  0  0  0
 11 12  1  0  0  0  0
 11 34  1  0  0  0  0
 11 35  1  0  0  0  0
 12 13  1  0  0  0  0
 12 36  1  0  0  0  0
 12 37  1  0  0  0  0
 13 18  1  0  0  0  0
 13 14  2  0  0  0  0
 14 15  1  0  0  0  0
 14 38  1  0  0  0  0
 15 16  2  0  0  0  0
 15 39  1  0  0  0  0
 16 17  1  0  0  0  0
 16 40  1  0  0  0  0
 17 18  2  0  0  0  0
 17 41  1  0  0  0  0
 18 46  1  0  0  0  0
 19 20  1  0  0  0  0
 19 42  1  0  0  0  0
 19 43  1  0  0  0  0
 20 44  1  0  0  0  0
 20 45  1  0  0  0  0
M  CHG  1  18   1
M  END
> <s_m_source_file>
AV-unprocessed.smi

> <i_m_source_file_index>
1135

> <i_lp_mmshare_version>
43012

> <i_f3d_flags>
0

> <s_epik_input>
W0NIMl0xW0NIMl1bQ0BIXShbQ0gzXSlbQ0gyXVtDSDJdW0NAQF0xKFtDSDNdKVtOSF1DKD1PKVtOSF1bQ0gyXVtDSDJdYzJbY0hdW2NIXVtjSF1bY0hdbjI=

> <s_epik_cmdline>
J2VwaWtfcHl0aG9uJywgJy1waCcsICc3LjAnLCAnLXRuJywgJzgnLCAnLW1hJywgJzIwMCcsICctbWV0YWxfYmluZGluZycsICctaW1hZScsICc8aW5maWxlLm1hZT4nLCAnLW9tYWUnLCAnPG91dGZpbGUubWFlPic=

> <r_epik_Ionization_Penalty>
1.55217

> <r_epik_Ionization_Penalty_Charging>
1.55211

> <r_epik_Ionization_Penalty_Neutral>
5.91929e-05

> <r_epik_State_Penalty>
1.64641

> <r_epik_Charging_Adjusted_Penalty>
3.19851

> <i_epik_Tot_Q>
1

> <i_epik_Tot_abs_Q>
1

> <r_epik_Metal_State_Penalty>
1.68848

> <b_epik_Metal_Only>
0

> <s_lp_Force_Field>
OPLS_2005

> <r_lp_Energy>
15.0823

> <b_lp_Chiralities_Consistent>
1

> <s_lp_Variant>
AV-unprocessed.smi:1135-3

> <Gold.Version>
5.8.1

> <Gold.Id.Protein>
6NUR|6NUR_protein|mol2

> <Gold.PLP.Fitness>
46.0159

> <Gold.PLP.PLP>
-35.8335

> <Gold.PLP.part.hbond>
-4.0000

> <Gold.PLP.part.metal>
0.0000

> <Gold.PLP.part.buried>
-0.9954

> <Gold.PLP.part.nonpolar>
-32.1234

> <Gold.PLP.part.repulsive>
0.3949

> <Gold.PLP.ligand.clash>
0.0000

> <Gold.PLP.ligand.torsion>
0.1463

> <Gold.PLP.Chemscore.Hbond>
3.4880

> <Gold.PLP.Chemscore.CHOScore>
0.0000

> <Gold.PLP.Chemscore.Metal>
0.0000

> <Gold.Chemscore.Hbonds>
donor molecule, donor type, donor heavy atom, donor atom, acceptor molecule, acceptor atom, score
      L1  H     7    32       P1 10175  1.00
      L1  H    10    33       P1 10175  1.00
      L1  H    18    46       P1  7948  2.00

> <Gold.PLP.Chemscore.Internal.Correction>
0.0111

> <Gold.Rescore>
     Score         DG    S(hbond)    S(metal)    S(lipo)     H(rot)  DE(clash)    DE(int)     intcor
     18.92     -19.67       2.73        0.00      76.43       1.51       0.13       0.61       ----

> <Gold.Chemscore.Fitness>
18.9218

> <Gold.Chemscore.DG>
-19.6664

> <Gold.Chemscore.ZeroCoef>
-5.4800

> <Gold.Chemscore.Hbond>
2.7262

> <Gold.Chemscore.Metal>
0.0000

> <Gold.Chemscore.Lipo>
76.4337

> <Gold.Chemscore.Internal_Hbond>
0.0000

> <Gold.Chemscore.DEClash>
0.1297

> <Gold.Chemscore.DEInternal>
0.6148

> <Gold.Chemscore.Rot>
1.5085

> <Gold.Chemscore.Internal.Correction>
   9.000000E+99

> <Gold.Chemscore.Hbonds>
donor molecule, donor type, donor heavy atom, donor atom, acceptor molecule, acceptor atom, score
      L1  H     7    32       P1 10175  0.95
      L1  H    10    33       P1 10175  0.99
      L1  H    18    46       P1  7948  0.55

> <Gold.Chemscore.Hbond.Weighted>
-9.1054

> <Gold.Chemscore.Metal.Weighted>
-0.0000

> <Gold.Chemscore.Lipo.Weighted>
-8.9427

> <Gold.Chemscore.Internal_Hbond.Weighted>
0.0000

> <Gold.Chemscore.DEClash.Weighted>
0.1297

> <Gold.Chemscore.DEInternal.Weighted>
0.6148

> <Gold.Chemscore.Rot.Weighted>
3.8617

> <Gold.Chemscore.Internal.Correction.Weighted>
   9.000000E+99

> <Gold.Protein.RotatedTorsions>
[ 6907 6896 6895 6894 ] final   57.57 input  -60.11 | X-H torsion
[ 7974 7965 7964 7962 ] final  150.75 input  175.53 | X-H torsion
[ 8008 7997 7996 7995 ] final  155.33 input   59.86 | X-H torsion
[ 10167 10162 10161 10158 ] final  -86.12 input  -65.29 | X-H torsion
[ 10718 10713 10712 10709 ] final   26.86 input   66.30 | X-H torsion
[ 10763 10752 10751 10750 ] final   16.19 input  -60.55 | X-H torsion
[ 11005 11000 10999 10996 ] final  149.79 input  -57.11 | X-H torsion

> <Gold.Protein.ActiveResidues>
 VAL166  LYS551  ARG553  GLY616  TRP617  ASP618  TYR619  PRO620  LYS621  CYS622 
 ASP623  PHE694  ASN695  SER759  ASP760  ASP761  ALA762  ILE779  LEU786  VAL792 
 PHE793  MET794  SER795  GLU796  ALA797  LYS798  CYS799  TRP800  GLU811  SER814 

> <Gold.Protein.RotatedAtoms>
  152.3744  134.6686  160.0164 H   0  0  0  0  0  0  0  0  0  0  0  0  # atno 6907 bound_to 6896
  151.6969  133.3305  159.3265 H   0  0  0  0  0  0  0  0  0  0  0  0  # atno 6908 bound_to 6896
  150.7698  134.6585  159.6371 H   0  0  0  0  0  0  0  0  0  0  0  0  # atno 6909 bound_to 6896
  144.8341  139.6449  143.6045 H   0  0  0  0  0  0  0  0  0  0  0  0  # atno 7974 bound_to 7965
  156.2484  140.1942  156.6784 H   0  0  0  0  0  0  0  0  0  0  0  0  # atno 8008 bound_to 7997
  154.6340  140.0592  156.9792 H   0  0  0  0  0  0  0  0  0  0  0  0  # atno 8009 bound_to 7997
  155.1666  140.3264  155.4403 H   0  0  0  0  0  0  0  0  0  0  0  0  # atno 8010 bound_to 7997
  140.3972  143.2678  151.9189 H   0  0  0  0  0  0  0  0  0  0  0  0  # atno 10167 bound_to 10162
  157.2125  130.6941  149.6234 H   0  0  0  0  0  0  0  0  0  0  0  0  # atno 10718 bound_to 10713
  153.1454  135.6768  153.8962 H   0  0  0  0  0  0  0  0  0  0  0  0  # atno 10763 bound_to 10752
  153.8406  135.3106  155.3427 H   0  0  0  0  0  0  0  0  0  0  0  0  # atno 10764 bound_to 10752
  154.7821  135.4882  153.9951 H   0  0  0  0  0  0  0  0  0  0  0  0  # atno 10765 bound_to 10752
  140.1075  134.8945  157.1887 H   0  0  0  0  0  0  0  0  0  0  0  0  # atno 11005 bound_to 11000
  146.2642  139.6480  142.9341 LP  0  0  0  0  0  0  0  0  0  0  0  0  # atno 17320 bound_to 7965
  145.4832  141.0438  143.2634 LP  0  0  0  0  0  0  0  0  0  0  0  0  # atno 17321 bound_to 7965
  139.4786  144.5670  151.8149 LP  0  0  0  0  0  0  0  0  0  0  0  0  # atno 17342 bound_to 10162
  140.4778  144.1493  150.5927 LP  0  0  0  0  0  0  0  0  0  0  0  0  # atno 17343 bound_to 10162
  155.9689  130.4546  150.5858 LP  0  0  0  0  0  0  0  0  0  0  0  0  # atno 17370 bound_to 10713
  157.3658  131.0757  151.1599 LP  0  0  0  0  0  0  0  0  0  0  0  0  # atno 17371 bound_to 10713
  140.3136  134.2995  155.7261 LP  0  0  0  0  0  0  0  0  0  0  0  0  # atno 17394 bound_to 11000
  141.2122  133.7666  156.9812 LP  0  0  0  0  0  0  0  0  0  0  0  0  # atno 17395 bound_to 11000

$$$$
