AV-unprocessed.smi:1009|AV-procd|sdf|4414|dock4
  -GOLD-   22720 2363D 1   1.00000     0.00000
 Structure written by MMmdl.
 33 33  0  0  0  0  0  0  0  0  2 V2000
  145.3919  135.7233  150.9118 C   0  0  0  0  0  0  0  0  0  0  0  0
  146.2235  135.9768  152.1091 N   0  3  0  0  0  0  0  0  0  0  0  0
  146.1044  134.8774  153.0948 C   0  0  0  0  0  0  0  0  0  0  0  0
  145.9655  137.3163  152.6934 C   0  0  0  0  0  0  0  0  0  0  0  0
  146.4915  138.4603  151.8051 C   0  0  0  0  0  0  0  0  0  0  0  0
  147.5650  139.1900  152.4673 N   0  0  0  0  0  0  0  0  0  0  0  0
  147.4495  139.8295  153.6415 C   0  0  0  0  0  0  0  0  0  0  0  0
  146.4145  139.8408  154.3077 O   0  0  0  0  0  0  0  0  0  0  0  0
  148.6852  140.5847  154.1316 C   0  0  0  0  0  0  0  0  0  0  0  0
  149.7711  139.6654  154.4204 N   0  0  0  0  0  0  0  0  0  0  0  0
  149.7939  138.2920  154.2654 C   0  0  0  0  0  0  0  0  0  0  0  0
  151.0184  137.8516  154.6817 C   0  0  0  0  0  0  0  0  0  0  0  0
  151.6708  139.0511  155.0741 C   0  0  0  0  0  0  0  0  0  0  0  0
  152.9683  139.0839  155.5778 N   0  0  0  0  0  0  0  0  0  0  0  0
  150.9354  140.1370  154.9228 N   0  0  0  0  0  0  0  0  0  0  0  0
  144.3308  135.7244  151.1654 H   0  0  0  0  0  0  0  0  0  0  0  0
  145.6371  134.7577  150.4680 H   0  0  0  0  0  0  0  0  0  0  0  0
  145.5633  136.4865  150.1516 H   0  0  0  0  0  0  0  0  0  0  0  0
  145.0963  134.8301  153.5087 H   0  0  0  0  0  0  0  0  0  0  0  0
  146.8059  135.0008  153.9191 H   0  0  0  0  0  0  0  0  0  0  0  0
  146.3232  133.9168  152.6269 H   0  0  0  0  0  0  0  0  0  0  0  0
  144.8897  137.4523  152.8159 H   0  0  0  0  0  0  0  0  0  0  0  0
  146.3968  137.3654  153.6946 H   0  0  0  0  0  0  0  0  0  0  0  0
  146.8486  138.0910  150.8434 H   0  0  0  0  0  0  0  0  0  0  0  0
  145.6871  139.1636  151.5886 H   0  0  0  0  0  0  0  0  0  0  0  0
  148.4535  139.2368  151.9885 H   0  0  0  0  0  0  0  0  0  0  0  0
  149.0161  141.2926  153.3703 H   0  0  0  0  0  0  0  0  0  0  0  0
  148.4475  141.1628  155.0261 H   0  0  0  0  0  0  0  0  0  0  0  0
  148.9438  137.7490  153.8787 H   0  0  0  0  0  0  0  0  0  0  0  0
  151.3849  136.8359  154.7023 H   0  0  0  0  0  0  0  0  0  0  0  0
  153.5132  138.2409  155.6885 H   0  0  0  0  0  0  0  0  0  0  0  0
  153.4307  139.9583  155.7804 H   0  0  0  0  0  0  0  0  0  0  0  0
  147.1810  135.9816  151.7875 H   0  0  0  0  0  0  0  0  0  0  0  0
  1  2  1  0  0  0  0
  1 16  1  0  0  0  0
  1 17  1  0  0  0  0
  1 18  1  0  0  0  0
  2  3  1  0  0  0  0
  2  4  1  0  0  0  0
  2 33  1  0  0  0  0
  3 19  1  0  0  0  0
  3 20  1  0  0  0  0
  3 21  1  0  0  0  0
  4  5  1  0  0  0  0
  4 22  1  0  0  0  0
  4 23  1  0  0  0  0
  5  6  1  0  0  0  0
  5 24  1  0  0  0  0
  5 25  1  0  0  0  0
  6  7  1  0  0  0  0
  6 26  1  0  0  0  0
  7  8  2  0  0  0  0
  7  9  1  0  0  0  0
  9 10  1  0  0  0  0
  9 27  1  0  0  0  0
  9 28  1  0  0  0  0
 10 15  1  0  0  0  0
 10 11  1  0  0  0  0
 11 12  2  0  0  0  0
 11 29  1  0  0  0  0
 12 13  1  0  0  0  0
 12 30  1  0  0  0  0
 13 14  1  0  0  0  0
 13 15  2  0  0  0  0
 14 31  1  0  0  0  0
 14 32  1  0  0  0  0
M  CHG  1   2   1
M  END
> <s_m_source_file>
AV-unprocessed.smi

> <i_m_source_file_index>
1009

> <i_lp_mmshare_version>
43012

> <i_f3d_flags>
0

> <s_epik_input>
W0NIM11OKFtDSDNdKVtDSDJdW0NIMl1bTkhdQyg9TylbQ0gyXW4xW2NIXVtjSF1jKG4xKVtOSDJd

> <s_epik_cmdline>
J2VwaWtfcHl0aG9uJywgJy1waCcsICc3LjAnLCAnLXRuJywgJzgnLCAnLW1hJywgJzIwMCcsICctbWV0YWxfYmluZGluZycsICctaW1hZScsICc8aW5maWxlLm1hZT4nLCAnLW9tYWUnLCAnPG91dGZpbGUubWFlPic=

> <r_lp_tautomer_probability>
1

> <r_epik_Ionization_Penalty>
0.00595791

> <r_epik_Ionization_Penalty_Charging>
0.00581587

> <r_epik_Ionization_Penalty_Neutral>
0.000142034

> <r_epik_State_Penalty>
0.00427192

> <r_epik_Charging_Adjusted_Penalty>
0.0100878

> <i_epik_Tot_Q>
1

> <i_epik_Tot_abs_Q>
1

> <r_epik_Metal_State_Penalty>
-0

> <b_epik_Metal_Only>
0

> <s_lp_Force_Field>
OPLS_2005

> <r_lp_Energy>
4.99311

> <b_lp_Chiralities_Consistent>
1

> <s_lp_Variant>
AV-unprocessed.smi:1009-1

> <Gold.Version>
5.8.1

> <Gold.Id.Protein>
6NUR|6NUR_protein|mol2

> <Gold.PLP.Fitness>
42.2125

> <Gold.PLP.PLP>
-28.3570

> <Gold.PLP.part.hbond>
-3.0535

> <Gold.PLP.part.metal>
0.0000

> <Gold.PLP.part.buried>
-2.5177

> <Gold.PLP.part.nonpolar>
-25.4759

> <Gold.PLP.part.repulsive>
2.5169

> <Gold.PLP.ligand.clash>
0.0000

> <Gold.PLP.ligand.torsion>
0.4952

> <Gold.PLP.Chemscore.Hbond>
4.0000

> <Gold.PLP.Chemscore.CHOScore>
0.9308

> <Gold.PLP.Chemscore.Metal>
0.0000

> <Gold.Chemscore.Hbonds>
donor molecule, donor type, donor heavy atom, donor atom, acceptor molecule, acceptor atom, score
      L1  H     2    33       P1  7948  2.00
      L1  H     6    26       P1  7957  1.00
      P1  H  7989  7998       L1    15  1.00
      L1  C    11    29       P1  7948  0.90

> <Gold.PLP.Chemscore.Internal.Correction>
0.0533

> <Gold.Rescore>
     Score         DG    S(hbond)    S(metal)    S(lipo)     H(rot)  DE(clash)    DE(int)     intcor
     13.07     -13.81       2.76        0.00      46.06       2.45       0.12       0.62       ----

> <Gold.Chemscore.Fitness>
13.0662

> <Gold.Chemscore.DG>
-13.8091

> <Gold.Chemscore.ZeroCoef>
-5.4800

> <Gold.Chemscore.Hbond>
2.7580

> <Gold.Chemscore.Metal>
0.0000

> <Gold.Chemscore.Lipo>
46.0568

> <Gold.Chemscore.Internal_Hbond>
0.0000

> <Gold.Chemscore.DEClash>
0.1212

> <Gold.Chemscore.DEInternal>
0.6217

> <Gold.Chemscore.Rot>
2.4497

> <Gold.Chemscore.Internal.Correction>
   9.000000E+99

> <Gold.Chemscore.Hbonds>
donor molecule, donor type, donor heavy atom, donor atom, acceptor molecule, acceptor atom, score
      L1  H     2    33       P1  7948  1.00
      L1  H     6    26       P1  7957  0.96
      P1  H  7989  7998       L1    15  0.12

> <Gold.Chemscore.Hbond.Weighted>
-9.2117

> <Gold.Chemscore.Metal.Weighted>
-0.0000

> <Gold.Chemscore.Lipo.Weighted>
-5.3886

> <Gold.Chemscore.Internal_Hbond.Weighted>
0.0000

> <Gold.Chemscore.DEClash.Weighted>
0.1212

> <Gold.Chemscore.DEInternal.Weighted>
0.6217

> <Gold.Chemscore.Rot.Weighted>
6.2713

> <Gold.Chemscore.Internal.Correction.Weighted>
   9.000000E+99

> <Gold.Protein.RotatedTorsions>
[ 6907 6896 6895 6894 ] final  -23.65 input  -60.11 | X-H torsion
[ 7974 7965 7964 7962 ] final  -30.07 input  175.53 | X-H torsion
[ 8008 7997 7996 7995 ] final   71.27 input   59.86 | X-H torsion
[ 10167 10162 10161 10158 ] final  175.13 input  -65.29 | X-H torsion
[ 10718 10713 10712 10709 ] final  101.11 input   66.30 | X-H torsion
[ 10763 10752 10751 10750 ] final  120.78 input  -60.55 | X-H torsion
[ 11005 11000 10999 10996 ] final -122.67 input  -57.11 | X-H torsion

> <Gold.Protein.ActiveResidues>
 VAL166  LYS551  ARG553  GLY616  TRP617  ASP618  TYR619  PRO620  LYS621  CYS622 
 ASP623  PHE694  ASN695  SER759  ASP760  ASP761  ALA762  ILE779  LEU786  VAL792 
 PHE793  MET794  SER795  GLU796  ALA797  LYS798  CYS799  TRP800  GLU811  SER814 

> <Gold.Protein.RotatedAtoms>
  151.2009  135.0442  159.8871 H   0  0  0  0  0  0  0  0  0  0  0  0  # atno 6907 bound_to 6896
  152.5432  134.0851  159.8262 H   0  0  0  0  0  0  0  0  0  0  0  0  # atno 6908 bound_to 6896
  151.0991  133.5209  159.2643 H   0  0  0  0  0  0  0  0  0  0  0  0  # atno 6909 bound_to 6896
  146.1170  140.5494  142.8752 H   0  0  0  0  0  0  0  0  0  0  0  0  # atno 7974 bound_to 7965
  155.7514  140.3488  155.5152 H   0  0  0  0  0  0  0  0  0  0  0  0  # atno 8008 bound_to 7997
  155.9001  140.1032  157.1377 H   0  0  0  0  0  0  0  0  0  0  0  0  # atno 8009 bound_to 7997
  154.4043  140.1287  156.4412 H   0  0  0  0  0  0  0  0  0  0  0  0  # atno 8010 bound_to 7997
  139.5166  144.3067  152.0329 H   0  0  0  0  0  0  0  0  0  0  0  0  # atno 10167 bound_to 10162
  157.6837  131.0717  150.5203 H   0  0  0  0  0  0  0  0  0  0  0  0  # atno 10718 bound_to 10713
  153.6038  135.3443  155.2955 H   0  0  0  0  0  0  0  0  0  0  0  0  # atno 10763 bound_to 10752
  154.8631  135.4234  154.2383 H   0  0  0  0  0  0  0  0  0  0  0  0  # atno 10764 bound_to 10752
  153.3218  135.7038  153.7095 H   0  0  0  0  0  0  0  0  0  0  0  0  # atno 10765 bound_to 10752
  140.9978  134.0447  157.3576 H   0  0  0  0  0  0  0  0  0  0  0  0  # atno 11005 bound_to 11000
  144.7562  140.5312  143.6767 LP  0  0  0  0  0  0  0  0  0  0  0  0  # atno 17320 bound_to 7965
  145.5546  139.1477  143.3375 LP  0  0  0  0  0  0  0  0  0  0  0  0  # atno 17321 bound_to 7965
  140.2512  144.4166  150.6221 LP  0  0  0  0  0  0  0  0  0  0  0  0  # atno 17342 bound_to 10162
  140.6223  143.2177  151.6669 LP  0  0  0  0  0  0  0  0  0  0  0  0  # atno 17343 bound_to 10162
  156.5516  130.4233  149.6105 LP  0  0  0  0  0  0  0  0  0  0  0  0  # atno 17370 bound_to 10713
  156.2897  130.7117  151.1963 LP  0  0  0  0  0  0  0  0  0  0  0  0  # atno 17371 bound_to 10713
  139.9023  135.0169  156.7327 LP  0  0  0  0  0  0  0  0  0  0  0  0  # atno 17394 bound_to 11000
  140.6938  133.9366  155.7982 LP  0  0  0  0  0  0  0  0  0  0  0  0  # atno 17395 bound_to 11000

$$$$
