#       Name:                AV-unprocessed.smi:989
#       Creating user name   scv26
#       Creation time:       Fri Mar 27 02:23:04 2020


#       File generated by GOLD software.
#

@<TRIPOS>MOLECULE
AV-unprocessed.smi:989
    33    34     1
SMALL
NO_CHARGES


@<TRIPOS>ATOM
      1 ****        -4.0961   1.5548  -1.8768 O.co2          1 S1                 0.0000
      2 ****        -3.7135   0.4816  -2.3929 C.2            1 S1                 0.0000
      3 ****        -3.5015   0.2980  -3.6124 O.co2          1 S1                -1.0000
      4 ****        -3.5096  -0.7116  -1.4554 C.3            1 S1                 0.0000
      5 ****        -2.0371  -0.9942  -1.3560 C.2            1 S1                 0.0000
      6 ****        -1.2959  -1.8008  -2.1862 C.2            1 S1                 0.0000
      7 ****         0.3824  -1.8565  -1.7220 S.3            1 S1                 0.0000
      8 ****         0.0057  -0.7783  -0.3753 C.2            1 S1                 0.0000
      9 ****         0.9510  -0.2673   0.5648 N.am           1 S1                 0.0000
     10 ****         0.7538   1.1187   1.0274 C.3            1 S1                 0.0000
     11 ****         2.0877   1.8197   1.2936 C.3            1 S1                 0.0000
     12 ****         2.9444   0.9422   2.2028 C.3            1 S1                 0.0000
     13 ****         2.9186  -0.4466   1.7573 N.am           1 S1                 0.0000
     14 ****         1.9327  -1.0650   1.0749 C.2            1 S1                 0.0000
     15 ****         1.9827  -2.2824   0.9013 O.2            1 S1                 0.0000
     16 ****        -1.2823  -0.4217  -0.3254 N.2            1 S1                 0.0000
     17 ****        -3.9369  -0.4954  -0.4751 H              1 S1                 0.0000
     18 ****        -4.0465  -1.5744  -1.8513 H              1 S1                 0.0000
     19 ****        -1.6370  -2.3540  -3.0484 H              1 S1                 0.0000
     20 ****         0.1933   1.7003   0.2939 H              1 S1                 0.0000
     21 ****         0.1528   1.0975   1.9377 H              1 S1                 0.0000
     22 ****         2.6061   1.9818   0.3475 H              1 S1                 0.0000
     23 ****         1.9299   2.8022   1.7393 H              1 S1                 0.0000
     24 ****         3.9734   1.3015   2.2265 H              1 S1                 0.0000
     25 ****         2.5669   0.9796   3.2252 H              1 S1                 0.0000
     26 ****         3.6760  -1.0286   2.0853 H              1 S1                 0.0000
     27 ****        -4.2575   2.3566  -2.4521 LP             1 S1                 0.0000
     28 ****        -4.2406   1.6109  -0.8889 LP             1 S1                 0.0000
     29 ****        -3.6376   1.0462  -4.2618 LP             1 S1                 0.0000
     30 ****        -3.1961  -0.5970  -3.9376 LP             1 S1                 0.0000
     31 ****         1.2771  -2.7397   0.3599 LP             1 S1                 0.0000
     32 ****         2.7288  -2.8144   1.3016 LP             1 S1                 0.0000
     33 ****        -1.6639   0.1863   0.3708 LP             1 S1                 0.0000
@<TRIPOS>BOND
    1    1    2 ar    
    2    2    3 ar    
    3    2    4 1     
    4    4    5 1     
    5    4   17 1     
    6    4   18 1     
    7    5   16 1     
    8    5    6 2     
    9    6    7 1     
   10    6   19 1     
   11    7    8 1     
   12    8    9 1     
   13    8   16 2     
   14    9   14 am    
   15    9   10 1     
   16   10   11 1     
   17   10   20 1     
   18   10   21 1     
   19   11   12 1     
   20   11   22 1     
   21   11   23 1     
   22   12   13 1     
   23   12   24 1     
   24   12   25 1     
   25   13   14 am    
   26   13   26 1     
   27   14   15 2     
   28    1   27 1     
   29    1   28 1     
   30    3   29 1     
   31    3   30 1     
   32   15   31 1     
   33   15   32 1     
   34   16   33 1     
@<TRIPOS>SUBSTRUCTURE
      1 S1             1
@<TRIPOS>SET
LONE_PAIRS      STATIC     ATOMS    <user>   **** ""
7 27 28 29 30 31 32 33
DONOR_HYDROGENS      STATIC     ATOMS    <user>   **** ""
1 26
ATOM$BLUE        STATIC     ATOMS    COLORGROUP SYSTEM
7 27 28 29 30 31 32 33
ATOM$RED        STATIC     ATOMS    COLORGROUP SYSTEM
1 26
