AV-unprocessed.smi:34|AV-procd|sdf|226|dock9
  -GOLD-   2262015553D 1   1.00000     0.00000
 Structure written by MMmdl.
 55 59  0  0  0  0  0  0  0  0  1 V2000
  153.1975  139.6132  159.0273 O   0  0  0  0  0  0  0  0  0  0  0  0
  152.6126  140.6087  158.5994 C   0  0  0  0  0  0  0  0  0  0  0  0
  151.9727  140.6286  157.2959 N   0  0  0  0  0  0  0  0  0  0  0  0
  151.9570  139.6550  156.3555 C   0  0  0  0  0  0  0  0  0  0  0  0
  152.7707  139.6786  155.2678 N   0  0  0  0  0  0  0  0  0  0  0  0
  152.7159  138.6939  154.3675 C   0  0  0  0  0  0  0  0  0  0  0  0
  151.9391  137.6095  154.3674 N   0  0  0  0  0  0  0  0  0  0  0  0
  151.1233  137.5678  155.4617 C   0  0  0  0  0  0  0  0  0  0  0  0
  151.0711  138.5537  156.4873 C   0  0  0  0  0  0  0  0  0  0  0  0
  150.1126  138.2048  157.4278 N   0  0  0  0  0  0  0  0  0  0  0  0
  149.6255  137.0804  156.9785 C   0  0  0  0  0  0  0  0  0  0  0  0
  150.2011  136.5990  155.8205 N   0  0  0  0  0  0  0  0  0  0  0  0
  149.8320  135.3492  155.0638 C   0  0  1  0  0  0  0  0  0  0  0  0
  150.0719  134.2404  155.8742 O   0  0  0  0  0  0  0  0  0  0  0  0
  148.9010  133.9704  156.6300 C   0  0  2  0  0  0  0  0  0  0  0  0
  148.9683  132.5812  157.2800 C   0  0  0  0  0  0  0  0  0  0  0  0
  149.9013  131.7702  156.5785 O   0  0  0  0  0  0  0  0  0  0  0  0
  151.2145  131.7925  156.8967 C   0  0  0  0  0  0  0  0  0  0  0  0
  151.6886  132.4851  157.7995 O   0  0  0  0  0  0  0  0  0  0  0  0
  152.0314  130.8757  156.0514 C   0  0  0  0  0  0  0  0  0  0  0  0
  151.3921  130.0919  155.0628 C   0  0  0  0  0  0  0  0  0  0  0  0
  152.1390  129.2299  154.2370 C   0  0  0  0  0  0  0  0  0  0  0  0
  153.5348  129.1416  154.3895 C   0  0  0  0  0  0  0  0  0  0  0  0
  154.1829  129.9168  155.3688 C   0  0  0  0  0  0  0  0  0  0  0  0
  153.4374  130.7792  156.1958 C   0  0  0  0  0  0  0  0  0  0  0  0
  147.8375  134.1088  155.5469 C   0  0  1  0  0  0  0  0  0  0  0  0
  146.6236  134.3044  156.0628 F   0  0  0  0  0  0  0  0  0  0  0  0
  148.3171  135.3220  154.7576 C   0  0  2  0  0  0  0  0  0  0  0  0
  148.0462  135.1628  153.3806 O   0  0  0  0  0  0  0  0  0  0  0  0
  152.4534  141.8489  159.4306 C   0  0  0  0  0  0  0  0  0  0  0  0
  152.6404  141.7904  160.8301 C   0  0  0  0  0  0  0  0  0  0  0  0
  152.5069  142.9511  161.6170 C   0  0  0  0  0  0  0  0  0  0  0  0
  152.1931  144.1817  161.0106 C   0  0  0  0  0  0  0  0  0  0  0  0
  152.0173  144.2520  159.6160 C   0  0  0  0  0  0  0  0  0  0  0  0
  152.1503  143.0921  158.8280 C   0  0  0  0  0  0  0  0  0  0  0  0
  151.4975  141.4851  157.0513 H   0  0  0  0  0  0  0  0  0  0  0  0
  153.3918  138.7874  153.5301 H   0  0  0  0  0  0  0  0  0  0  0  0
  148.8272  136.5638  157.4916 H   0  0  0  0  0  0  0  0  0  0  0  0
  150.4807  135.3608  154.1872 H   0  0  0  0  0  0  0  0  0  0  0  0
  148.7613  134.7408  157.3915 H   0  0  0  0  0  0  0  0  0  0  0  0
  149.3316  132.6804  158.3028 H   0  0  0  0  0  0  0  0  0  0  0  0
  147.9817  132.1196  157.3423 H   0  0  0  0  0  0  0  0  0  0  0  0
  150.3216  130.1454  154.9256 H   0  0  0  0  0  0  0  0  0  0  0  0
  151.6398  128.6365  153.4853 H   0  0  0  0  0  0  0  0  0  0  0  0
  154.1079  128.4813  153.7554 H   0  0  0  0  0  0  0  0  0  0  0  0
  155.2547  129.8518  155.4853 H   0  0  0  0  0  0  0  0  0  0  0  0
  153.9667  131.3646  156.9334 H   0  0  0  0  0  0  0  0  0  0  0  0
  147.8066  133.2118  154.9258 H   0  0  0  0  0  0  0  0  0  0  0  0
  147.8302  136.2253  155.1256 H   0  0  0  0  0  0  0  0  0  0  0  0
  148.6327  135.7218  152.8935 H   0  0  0  0  0  0  0  0  0  0  0  0
  152.8830  140.8538  161.3113 H   0  0  0  0  0  0  0  0  0  0  0  0
  152.6463  142.8968  162.6867 H   0  0  0  0  0  0  0  0  0  0  0  0
  152.0910  145.0716  161.6141 H   0  0  0  0  0  0  0  0  0  0  0  0
  151.7821  145.1972  159.1494 H   0  0  0  0  0  0  0  0  0  0  0  0
  152.0197  143.1716  157.7585 H   0  0  0  0  0  0  0  0  0  0  0  0
  1  2  2  0  0  0  0
  2  3  1  0  0  0  0
  2 30  1  0  0  0  0
  3  4  1  0  0  0  0
  3 36  1  0  0  0  0
  4  9  1  0  0  0  0
  4  5  2  0  0  0  0
  5  6  1  0  0  0  0
  6  7  2  0  0  0  0
  6 37  1  0  0  0  0
  7  8  1  0  0  0  0
  8 12  1  0  0  0  0
  8  9  2  0  0  0  0
  9 10  1  0  0  0  0
 10 11  2  0  0  0  0
 11 12  1  0  0  0  0
 11 38  1  0  0  0  0
 12 13  1  0  0  0  0
 13 28  1  0  0  0  0
 13 14  1  0  0  0  0
 13 39  1  0  0  0  0
 14 15  1  0  0  0  0
 15 16  1  0  0  0  0
 15 26  1  0  0  0  0
 15 40  1  0  0  0  0
 16 17  1  0  0  0  0
 16 41  1  0  0  0  0
 16 42  1  0  0  0  0
 17 18  1  0  0  0  0
 18 19  2  0  0  0  0
 18 20  1  0  0  0  0
 20 25  1  0  0  0  0
 20 21  2  0  0  0  0
 21 22  1  0  0  0  0
 21 43  1  0  0  0  0
 22 23  2  0  0  0  0
 22 44  1  0  0  0  0
 23 24  1  0  0  0  0
 23 45  1  0  0  0  0
 24 25  2  0  0  0  0
 24 46  1  0  0  0  0
 25 47  1  0  0  0  0
 26 27  1  0  0  0  0
 26 28  1  0  0  0  0
 26 48  1  0  0  0  0
 28 29  1  0  0  0  0
 28 49  1  0  0  0  0
 29 50  1  0  0  0  0
 30 35  1  0  0  0  0
 30 31  2  0  0  0  0
 31 32  1  0  0  0  0
 31 51  1  0  0  0  0
 32 33  2  0  0  0  0
 32 52  1  0  0  0  0
 33 34  1  0  0  0  0
 33 53  1  0  0  0  0
 34 35  2  0  0  0  0
 34 54  1  0  0  0  0
 35 55  1  0  0  0  0
M  END
> <s_m_source_file>
AV-unprocessed.smi

> <i_m_source_file_index>
34

> <i_lp_mmshare_version>
43012

> <i_f3d_flags>
0

> <s_epik_input>
W2NIXTFbY0hdW2NIXVtjSF1bY0hdYzFDKD1PKVtOSF1jKG5bY0hdbjIpYyhjMjMpbltjSF1uM1tDQEBIXTRPW0NASF0oW0NAQEhdKEYpW0NASF00W09IXSlbQ0gyXU9DKD1PKWM1W2NIXVtjSF1bY0hdW2NIXVtjSF01

> <s_epik_cmdline>
J2VwaWtfcHl0aG9uJywgJy1waCcsICc3LjAnLCAnLXRuJywgJzgnLCAnLW1hJywgJzIwMCcsICctbWV0YWxfYmluZGluZycsICctaW1hZScsICc8aW5maWxlLm1hZT4nLCAnLW9tYWUnLCAnPG91dGZpbGUubWFlPic=

> <r_lp_tautomer_probability>
1

> <r_epik_Ionization_Penalty>
0.00257489

> <r_epik_Ionization_Penalty_Charging>
0

> <r_epik_Ionization_Penalty_Neutral>
0.00257489

> <r_epik_State_Penalty>
0.00519398

> <r_epik_Charging_Adjusted_Penalty>
0.00519398

> <i_epik_Tot_Q>
0

> <i_epik_Tot_abs_Q>
0

> <r_epik_Metal_State_Penalty>
0.335891

> <b_epik_Metal_Only>
0

> <s_epik_Chemistry_Notes>
This compound has an ester and may undergo hydrolysis at high or low pH. This compound contains an acetal/aminal-like group ( X-CH(R)-Y where X, Y are N, S, or O) that may be acid/base labile, releasing an aldehyde.

> <s_lp_Force_Field>
OPLS_2005

> <r_lp_Energy>
40.9193

> <b_lp_Chiralities_Consistent>
1

> <s_lp_Variant>
AV-unprocessed.smi:34-12

> <Gold.Version>
5.8.1

> <Gold.Id.Protein>
6NUR|6NUR_protein|mol2

> <Gold.PLP.Fitness>
63.4277

> <Gold.PLP.PLP>
-55.1133

> <Gold.PLP.part.hbond>
-5.2284

> <Gold.PLP.part.metal>
0.0000

> <Gold.PLP.part.buried>
-7.2749

> <Gold.PLP.part.nonpolar>
-43.3677

> <Gold.PLP.part.repulsive>
0.2302

> <Gold.PLP.ligand.clash>
0.0000

> <Gold.PLP.ligand.torsion>
1.5612

> <Gold.PLP.Chemscore.Hbond>
3.7475

> <Gold.PLP.Chemscore.CHOScore>
0.0000

> <Gold.PLP.Chemscore.Metal>
0.0000

> <Gold.Chemscore.Hbonds>
donor molecule, donor type, donor heavy atom, donor atom, acceptor molecule, acceptor atom, score
      L1  H    29    50       P1  7948  0.11
      P1  H  6896  6908       L1    19  0.72
      P1  H  7997  8009       L1     5  1.00
      P1  H 10752 10765       L1     7  0.54

> <Gold.PLP.Chemscore.Internal.Correction>
0.1945

> <Gold.Rescore>
     Score         DG    S(hbond)    S(metal)    S(lipo)     H(rot)  DE(clash)    DE(int)     intcor
     20.25     -23.20       3.31        0.00     116.60       2.72       0.05       2.90       ----

> <Gold.Chemscore.Fitness>
20.2468

> <Gold.Chemscore.DG>
-23.1953

> <Gold.Chemscore.ZeroCoef>
-5.4800

> <Gold.Chemscore.Hbond>
3.3053

> <Gold.Chemscore.Metal>
0.0000

> <Gold.Chemscore.Lipo>
116.6048

> <Gold.Chemscore.Internal_Hbond>
0.0000

> <Gold.Chemscore.DEClash>
0.0473

> <Gold.Chemscore.DEInternal>
2.9013

> <Gold.Chemscore.Rot>
2.7215

> <Gold.Chemscore.Internal.Correction>
   9.000000E+99

> <Gold.Chemscore.Hbonds>
donor molecule, donor type, donor heavy atom, donor atom, acceptor molecule, acceptor atom, score
      L1  H    29    50       P1  7948  0.13
      P1  H  6896  6908       L1    19  0.72
      P1  H  7997  8009       L1     5  0.39
      P1  H 10752 10765       L1     7  0.25

> <Gold.Chemscore.Hbond.Weighted>
-11.0396

> <Gold.Chemscore.Metal.Weighted>
-0.0000

> <Gold.Chemscore.Lipo.Weighted>
-13.6428

> <Gold.Chemscore.Internal_Hbond.Weighted>
0.0000

> <Gold.Chemscore.DEClash.Weighted>
0.0473

> <Gold.Chemscore.DEInternal.Weighted>
2.9013

> <Gold.Chemscore.Rot.Weighted>
6.9670

> <Gold.Chemscore.Internal.Correction.Weighted>
   9.000000E+99

> <Gold.Protein.RotatedTorsions>
[ 6907 6896 6895 6894 ] final   37.36 input  -60.11 | X-H torsion
[ 7974 7965 7964 7962 ] final  -60.27 input  175.53 | X-H torsion
[ 8008 7997 7996 7995 ] final -142.49 input   59.86 | X-H torsion
[ 10167 10162 10161 10158 ] final  -86.55 input  -65.29 | X-H torsion
[ 10718 10713 10712 10709 ] final   28.14 input   66.30 | X-H torsion
[ 10763 10752 10751 10750 ] final  165.42 input  -60.55 | X-H torsion
[ 11005 11000 10999 10996 ] final   18.56 input  -57.11 | X-H torsion

> <Gold.Protein.ActiveResidues>
 VAL166  LYS551  ARG553  GLY616  TRP617  ASP618  TYR619  PRO620  LYS621  CYS622 
 ASP623  PHE694  ASN695  SER759  ASP760  ASP761  ALA762  ILE779  LEU786  VAL792 
 PHE793  MET794  SER795  GLU796  ALA797  LYS798  CYS799  TRP800  GLU811  SER814 

> <Gold.Protein.RotatedAtoms>
  152.1421  134.9054  160.0552 H   0  0  0  0  0  0  0  0  0  0  0  0  # atno 6907 bound_to 6896
  152.0118  133.3859  159.4231 H   0  0  0  0  0  0  0  0  0  0  0  0  # atno 6908 bound_to 6896
  150.6866  134.3644  159.5008 H   0  0  0  0  0  0  0  0  0  0  0  0  # atno 6909 bound_to 6896
  145.8176  140.8560  143.0149 H   0  0  0  0  0  0  0  0  0  0  0  0  # atno 7974 bound_to 7965
  155.4951  140.0571  157.2948 H   0  0  0  0  0  0  0  0  0  0  0  0  # atno 8008 bound_to 7997
  154.4608  140.1995  156.0201 H   0  0  0  0  0  0  0  0  0  0  0  0  # atno 8009 bound_to 7997
  156.0886  140.3236  155.7790 H   0  0  0  0  0  0  0  0  0  0  0  0  # atno 8010 bound_to 7997
  140.3930  143.2696  151.9240 H   0  0  0  0  0  0  0  0  0  0  0  0  # atno 10167 bound_to 10162
  157.2295  130.7017  149.6307 H   0  0  0  0  0  0  0  0  0  0  0  0  # atno 10718 bound_to 10713
  154.3237  135.2755  155.2507 H   0  0  0  0  0  0  0  0  0  0  0  0  # atno 10763 bound_to 10752
  154.4849  135.5849  153.6420 H   0  0  0  0  0  0  0  0  0  0  0  0  # atno 10764 bound_to 10752
  152.9874  135.6120  154.3423 H   0  0  0  0  0  0  0  0  0  0  0  0  # atno 10765 bound_to 10752
  140.4235  134.1494  155.7674 H   0  0  0  0  0  0  0  0  0  0  0  0  # atno 11005 bound_to 11000
  144.6751  140.0486  143.7479 LP  0  0  0  0  0  0  0  0  0  0  0  0  # atno 17320 bound_to 7965
  145.9710  139.2870  143.1099 LP  0  0  0  0  0  0  0  0  0  0  0  0  # atno 17321 bound_to 7965
  139.4788  144.5708  151.8090 LP  0  0  0  0  0  0  0  0  0  0  0  0  # atno 17342 bound_to 10162
  140.4819  144.1436  150.5934 LP  0  0  0  0  0  0  0  0  0  0  0  0  # atno 17343 bound_to 10162
  155.9676  130.4493  150.5654 LP  0  0  0  0  0  0  0  0  0  0  0  0  # atno 17370 bound_to 10713
  157.3492  131.0730  151.1726 LP  0  0  0  0  0  0  0  0  0  0  0  0  # atno 17371 bound_to 10713
  141.1774  133.8484  157.1373 LP  0  0  0  0  0  0  0  0  0  0  0  0  # atno 17394 bound_to 11000
  140.0184  134.9957  157.0540 LP  0  0  0  0  0  0  0  0  0  0  0  0  # atno 17395 bound_to 11000

$$$$
