AV-unprocessed.smi:3032|AV-procd|sdf|11569|dock3
  -GOLD-   2272016533D 1   1.00000     0.00000
 Structure written by MMmdl.
 36 37  0  0  0  0  0  0  0  0  2 V2000
  153.1487  142.9496  162.7053 C   0  0  0  0  0  0  0  0  0  0  0  0
  152.4685  143.0828  161.3355 C   0  0  2  0  0  0  0  0  0  0  0  0
  153.2994  142.4107  160.2268 C   0  0  0  0  0  0  0  0  0  0  0  0
  152.6139  142.5280  158.8570 C   0  0  0  0  0  0  0  0  0  0  0  0
  152.3066  143.9954  158.5002 C   0  0  0  0  0  0  0  0  0  0  0  0
  151.5344  144.7576  159.6041 C   0  0  1  0  0  0  0  0  0  0  0  0
  150.0310  144.4251  159.6438 C   0  0  0  0  0  0  0  0  0  0  0  0
  149.5471  143.5738  158.8973 O   0  0  0  0  0  0  0  0  0  0  0  0
  149.2996  145.1109  160.5350 N   0  0  0  0  0  0  0  0  0  0  0  0
  147.8814  144.8948  160.8019 C   0  0  0  0  0  0  0  0  0  0  0  0
  147.6204  143.6047  161.6027 C   0  0  0  0  0  0  0  0  0  0  0  0
  146.1477  143.2744  161.7482 C   0  0  0  0  0  0  0  0  0  0  0  0
  145.5563  142.1309  161.3452 N   0  5  0  0  0  0  0  0  0  0  0  0
  144.2603  142.1815  161.5839 N   0  0  0  0  0  0  0  0  0  0  0  0
  144.0757  143.3867  162.1356 C   0  0  0  0  0  0  0  0  0  0  0  0
  145.2128  144.0815  162.2448 N   0  0  0  0  0  0  0  0  0  0  0  0
  152.2070  144.5618  160.9822 C   0  0  0  0  0  0  0  0  0  0  0  0
  154.1203  143.4443  162.7165 H   0  0  0  0  0  0  0  0  0  0  0  0
  153.3042  141.9022  162.9658 H   0  0  0  0  0  0  0  0  0  0  0  0
  152.5378  143.3965  163.4904 H   0  0  0  0  0  0  0  0  0  0  0  0
  151.5104  142.5663  161.4023 H   0  0  0  0  0  0  0  0  0  0  0  0
  154.2883  142.8686  160.1782 H   0  0  0  0  0  0  0  0  0  0  0  0
  153.4582  141.3584  160.4647 H   0  0  0  0  0  0  0  0  0  0  0  0
  153.2529  142.0915  158.0889 H   0  0  0  0  0  0  0  0  0  0  0  0
  151.6995  141.9358  158.8545 H   0  0  0  0  0  0  0  0  0  0  0  0
  153.2487  144.5129  158.3158 H   0  0  0  0  0  0  0  0  0  0  0  0
  151.7582  144.0363  157.5580 H   0  0  0  0  0  0  0  0  0  0  0  0
  151.6057  145.8190  159.3594 H   0  0  0  0  0  0  0  0  0  0  0  0
  149.7732  145.7846  161.1194 H   0  0  0  0  0  0  0  0  0  0  0  0
  147.5220  145.7516  161.3720 H   0  0  0  0  0  0  0  0  0  0  0  0
  147.3155  144.8858  159.8693 H   0  0  0  0  0  0  0  0  0  0  0  0
  148.1224  142.7640  161.1233 H   0  0  0  0  0  0  0  0  0  0  0  0
  148.0536  143.6920  162.5999 H   0  0  0  0  0  0  0  0  0  0  0  0
  143.1107  143.7597  162.4554 H   0  0  0  0  0  0  0  0  0  0  0  0
  151.5979  145.0238  161.7610 H   0  0  0  0  0  0  0  0  0  0  0  0
  153.1534  145.1041  160.9894 H   0  0  0  0  0  0  0  0  0  0  0  0
  1  2  1  0  0  0  0
  1 18  1  0  0  0  0
  1 19  1  0  0  0  0
  1 20  1  0  0  0  0
  2 17  1  0  0  0  0
  2  3  1  0  0  0  0
  2 21  1  0  0  0  0
  3  4  1  0  0  0  0
  3 22  1  0  0  0  0
  3 23  1  0  0  0  0
  4  5  1  0  0  0  0
  4 24  1  0  0  0  0
  4 25  1  0  0  0  0
  5  6  1  0  0  0  0
  5 26  1  0  0  0  0
  5 27  1  0  0  0  0
  6  7  1  0  0  0  0
  6 17  1  0  0  0  0
  6 28  1  0  0  0  0
  7  8  2  0  0  0  0
  7  9  1  0  0  0  0
  9 10  1  0  0  0  0
  9 29  1  0  0  0  0
 10 11  1  0  0  0  0
 10 30  1  0  0  0  0
 10 31  1  0  0  0  0
 11 32  1  0  0  0  0
 11 33  1  0  0  0  0
 11 12  1  0  0  0  0
 12 16  2  0  0  0  0
 12 13  1  0  0  0  0
 13 14  1  0  0  0  0
 14 15  2  0  0  0  0
 15 16  1  0  0  0  0
 15 34  1  0  0  0  0
 17 35  1  0  0  0  0
 17 36  1  0  0  0  0
M  CHG  1  13  -1
M  END
> <s_m_source_file>
AV-unprocessed.smi

> <i_m_source_file_index>
3032

> <i_lp_mmshare_version>
43012

> <i_f3d_flags>
0

> <s_epik_input>
W0NIM11bQ0BASF0xW0NIMl1bQ0gyXVtDSDJdW0NASF0oW0NIMl0xKUMoPU8pW05IXVtDSDJdW0NIMl1jMm5uW2NIXVtuSF0y

> <s_epik_cmdline>
J2VwaWtfcHl0aG9uJywgJy1waCcsICc3LjAnLCAnLXRuJywgJzgnLCAnLW1hJywgJzIwMCcsICctbWV0YWxfYmluZGluZycsICctaW1hZScsICc8aW5maWxlLm1hZT4nLCAnLW9tYWUnLCAnPG91dGZpbGUubWFlPic=

> <r_lp_tautomer_probability>
0.948284

> <r_epik_Ionization_Penalty>
12.042

> <r_epik_Ionization_Penalty_Charging>
12.042

> <r_epik_Ionization_Penalty_Neutral>
4.36781e-08

> <r_epik_State_Penalty>
4.67286

> <r_epik_Charging_Adjusted_Penalty>
16.7149

> <i_epik_Tot_Q>
-1

> <i_epik_Tot_abs_Q>
1

> <r_epik_Metal_State_Penalty>
0.981637

> <b_epik_Metal_Only>
1

> <s_lp_Force_Field>
OPLS_2005

> <r_lp_Energy>
8.77891

> <b_lp_Chiralities_Consistent>
1

> <s_lp_Variant>
AV-unprocessed.smi:3032-13

> <Gold.Version>
5.8.1

> <Gold.Id.Protein>
6NUR|6NUR_protein|mol2

> <Gold.PLP.Fitness>
48.9753

> <Gold.PLP.PLP>
-44.0904

> <Gold.PLP.part.hbond>
-2.1351

> <Gold.PLP.part.metal>
0.0000

> <Gold.PLP.part.buried>
-4.9541

> <Gold.PLP.part.nonpolar>
-36.8520

> <Gold.PLP.part.repulsive>
0.8360

> <Gold.PLP.ligand.clash>
0.0000

> <Gold.PLP.ligand.torsion>
0.1297

> <Gold.PLP.Chemscore.Hbond>
1.6960

> <Gold.PLP.Chemscore.CHOScore>
0.0000

> <Gold.PLP.Chemscore.Metal>
0.0000

> <Gold.Chemscore.Hbonds>
donor molecule, donor type, donor heavy atom, donor atom, acceptor molecule, acceptor atom, score
      P1  H  6934  6946       L1    13  1.70

> <Gold.PLP.Chemscore.Internal.Correction>
0.0563

> <Gold.Rescore>
     Score         DG    S(hbond)    S(metal)    S(lipo)     H(rot)  DE(clash)    DE(int)     intcor
     12.81     -14.09       0.95        0.00      95.04       2.21       0.99       0.28       ----

> <Gold.Chemscore.Fitness>
12.8129

> <Gold.Chemscore.DG>
-14.0865

> <Gold.Chemscore.ZeroCoef>
-5.4800

> <Gold.Chemscore.Hbond>
0.9454

> <Gold.Chemscore.Metal>
0.0000

> <Gold.Chemscore.Lipo>
95.0356

> <Gold.Chemscore.Internal_Hbond>
0.0000

> <Gold.Chemscore.DEClash>
0.9949

> <Gold.Chemscore.DEInternal>
0.2787

> <Gold.Chemscore.Rot>
2.2149

> <Gold.Chemscore.Internal.Correction>
   9.000000E+99

> <Gold.Chemscore.Hbonds>
donor molecule, donor type, donor heavy atom, donor atom, acceptor molecule, acceptor atom, score
      P1  H  6934  6946       L1    13  0.63

> <Gold.Chemscore.Hbond.Weighted>
-3.1575

> <Gold.Chemscore.Metal.Weighted>
-0.0000

> <Gold.Chemscore.Lipo.Weighted>
-11.1192

> <Gold.Chemscore.Internal_Hbond.Weighted>
0.0000

> <Gold.Chemscore.DEClash.Weighted>
0.9949

> <Gold.Chemscore.DEInternal.Weighted>
0.2787

> <Gold.Chemscore.Rot.Weighted>
5.6702

> <Gold.Chemscore.Internal.Correction.Weighted>
   9.000000E+99

> <Gold.Protein.RotatedTorsions>
[ 6907 6896 6895 6894 ] final  113.14 input  -60.11 | X-H torsion
[ 7974 7965 7964 7962 ] final -154.64 input  175.53 | X-H torsion
[ 8008 7997 7996 7995 ] final  -10.81 input   59.86 | X-H torsion
[ 10167 10162 10161 10158 ] final  -49.98 input  -65.29 | X-H torsion
[ 10718 10713 10712 10709 ] final   54.73 input   66.30 | X-H torsion
[ 10763 10752 10751 10750 ] final   25.44 input  -60.55 | X-H torsion
[ 11005 11000 10999 10996 ] final   53.18 input  -57.11 | X-H torsion

> <Gold.Protein.ActiveResidues>
 VAL166  LYS551  ARG553  GLY616  TRP617  ASP618  TYR619  PRO620  LYS621  CYS622 
 ASP623  PHE694  ASN695  SER759  ASP760  ASP761  ALA762  ILE779  LEU786  VAL792 
 PHE793  MET794  SER795  GLU796  ALA797  LYS798  CYS799  TRP800  GLU811  SER814 

> <Gold.Protein.RotatedAtoms>
  152.4877  133.8417  159.7155 H   0  0  0  0  0  0  0  0  0  0  0  0  # atno 6907 bound_to 6896
  150.8979  133.7148  159.2893 H   0  0  0  0  0  0  0  0  0  0  0  0  # atno 6908 bound_to 6896
  151.4599  135.1041  159.9774 H   0  0  0  0  0  0  0  0  0  0  0  0  # atno 6909 bound_to 6896
  144.7679  140.4361  143.5928 H   0  0  0  0  0  0  0  0  0  0  0  0  # atno 7974 bound_to 7965
  154.5521  140.2319  155.8469 H   0  0  0  0  0  0  0  0  0  0  0  0  # atno 8008 bound_to 7997
  156.1956  140.3066  155.9380 H   0  0  0  0  0  0  0  0  0  0  0  0  # atno 8009 bound_to 7997
  155.3051  140.0433  157.3022 H   0  0  0  0  0  0  0  0  0  0  0  0  # atno 8010 bound_to 7997
  140.6659  143.2676  151.4293 H   0  0  0  0  0  0  0  0  0  0  0  0  # atno 10167 bound_to 10162
  157.5283  130.8612  149.8652 H   0  0  0  0  0  0  0  0  0  0  0  0  # atno 10718 bound_to 10713
  153.0692  135.6583  154.0286 H   0  0  0  0  0  0  0  0  0  0  0  0  # atno 10763 bound_to 10752
  153.9935  135.2944  155.3411 H   0  0  0  0  0  0  0  0  0  0  0  0  # atno 10764 bound_to 10752
  154.7061  135.5225  153.8666 H   0  0  0  0  0  0  0  0  0  0  0  0  # atno 10765 bound_to 10752
  140.0788  134.5367  155.8968 H   0  0  0  0  0  0  0  0  0  0  0  0  # atno 11005 bound_to 11000
  145.6412  139.1550  143.2914 LP  0  0  0  0  0  0  0  0  0  0  0  0  # atno 17320 bound_to 7965
  146.1803  140.6508  142.9192 LP  0  0  0  0  0  0  0  0  0  0  0  0  # atno 17321 bound_to 7965
  139.5908  144.1503  152.2086 LP  0  0  0  0  0  0  0  0  0  0  0  0  # atno 17342 bound_to 10162
  140.0857  144.5663  150.7090 LP  0  0  0  0  0  0  0  0  0  0  0  0  # atno 17343 bound_to 10162
  156.0403  130.3740  150.1452 LP  0  0  0  0  0  0  0  0  0  0  0  0  # atno 17370 bound_to 10713
  156.9638  130.9813  151.3473 LP  0  0  0  0  0  0  0  0  0  0  0  0  # atno 17371 bound_to 10713
  141.2039  133.6635  156.6091 LP  0  0  0  0  0  0  0  0  0  0  0  0  # atno 17394 bound_to 11000
  140.3518  134.7762  157.4472 LP  0  0  0  0  0  0  0  0  0  0  0  0  # atno 17395 bound_to 11000

$$$$
