AV-unprocessed.smi:715|AV-procd|sdf|3485|dock8
  -GOLD-   22720 0483D 1   1.00000     0.00000
 Structure written by MMmdl.
 39 40  0  0  0  0  0  0  0  0  1 V2000
  150.2168  141.1481  155.5370 C   0  0  0  0  0  0  0  0  0  0  0  0
  149.1109  140.9412  154.6270 N   0  0  0  0  0  0  0  0  0  0  0  0
  148.7171  139.7784  154.0006 C   0  0  0  0  0  0  0  0  0  0  0  0
  147.6210  140.0726  153.2378 C   0  0  0  0  0  0  0  0  0  0  0  0
  146.7980  139.1643  152.3628 C   0  0  1  0  0  0  0  0  0  0  0  0
  147.6199  138.4461  151.4644 O   0  0  0  0  0  0  0  0  0  0  0  0
  146.0166  138.1514  153.2177 C   0  0  0  0  0  0  0  0  0  0  0  0
  145.1812  137.2963  152.3842 N   0  0  0  0  0  0  0  0  0  0  0  0
  145.1496  135.9586  152.4623 C   0  0  0  0  0  0  0  0  0  0  0  0
  145.8255  135.3152  153.2653 O   0  0  0  0  0  0  0  0  0  0  0  0
  144.2063  135.2425  151.4892 C   0  0  0  0  0  0  0  0  0  0  0  0
  144.9233  134.2502  150.5499 C   0  0  0  0  0  0  0  0  0  0  0  0
  143.9903  133.3728  149.7064 C   0  0  0  0  0  0  0  0  0  0  0  0
  144.8375  132.1639  149.2915 C   0  0  0  0  0  0  0  0  0  0  0  0
  146.0114  132.0973  150.2805 C   0  0  0  0  0  0  0  0  0  0  0  0
  145.7821  133.2242  151.2923 C   0  0  0  0  0  0  0  0  0  0  0  0
  147.4209  141.4627  153.4747 C   0  0  0  0  0  0  0  0  0  0  0  0
  148.3140  141.9796  154.3028 N   0  0  0  0  0  0  0  0  0  0  0  0
  150.7231  140.2021  155.7322 H   0  0  0  0  0  0  0  0  0  0  0  0
  149.8486  141.5538  156.4799 H   0  0  0  0  0  0  0  0  0  0  0  0
  150.9290  141.8480  155.0987 H   0  0  0  0  0  0  0  0  0  0  0  0
  149.2417  138.8456  154.1476 H   0  0  0  0  0  0  0  0  0  0  0  0
  146.0965  139.7546  151.7713 H   0  0  0  0  0  0  0  0  0  0  0  0
  148.0563  137.7576  151.9427 H   0  0  0  0  0  0  0  0  0  0  0  0
  146.6903  137.5511  153.8319 H   0  0  0  0  0  0  0  0  0  0  0  0
  145.3586  138.6895  153.9023 H   0  0  0  0  0  0  0  0  0  0  0  0
  144.6005  137.7522  151.6955 H   0  0  0  0  0  0  0  0  0  0  0  0
  143.4590  134.7108  152.0790 H   0  0  0  0  0  0  0  0  0  0  0  0
  143.6627  135.9813  150.8981 H   0  0  0  0  0  0  0  0  0  0  0  0
  145.5788  134.8022  149.8736 H   0  0  0  0  0  0  0  0  0  0  0  0
  143.1508  133.0334  150.3151 H   0  0  0  0  0  0  0  0  0  0  0  0
  143.5791  133.9030  148.8466 H   0  0  0  0  0  0  0  0  0  0  0  0
  144.2457  131.2480  149.3017 H   0  0  0  0  0  0  0  0  0  0  0  0
  145.2155  132.2960  148.2768 H   0  0  0  0  0  0  0  0  0  0  0  0
  146.0811  131.1258  150.7706 H   0  0  0  0  0  0  0  0  0  0  0  0
  146.9488  132.2617  149.7475 H   0  0  0  0  0  0  0  0  0  0  0  0
  146.7164  133.6488  151.6610 H   0  0  0  0  0  0  0  0  0  0  0  0
  145.2357  132.8330  152.1518 H   0  0  0  0  0  0  0  0  0  0  0  0
  146.6549  142.1079  153.0705 H   0  0  0  0  0  0  0  0  0  0  0  0
  1  2  1  0  0  0  0
  1 19  1  0  0  0  0
  1 20  1  0  0  0  0
  1 21  1  0  0  0  0
  2 18  1  0  0  0  0
  2  3  1  0  0  0  0
  3  4  2  0  0  0  0
  3 22  1  0  0  0  0
  4  5  1  0  0  0  0
  4 17  1  0  0  0  0
  5  6  1  0  0  0  0
  5  7  1  0  0  0  0
  5 23  1  0  0  0  0
  6 24  1  0  0  0  0
  7  8  1  0  0  0  0
  7 25  1  0  0  0  0
  7 26  1  0  0  0  0
  8  9  1  0  0  0  0
  8 27  1  0  0  0  0
  9 10  2  0  0  0  0
  9 11  1  0  0  0  0
 11 12  1  0  0  0  0
 11 28  1  0  0  0  0
 11 29  1  0  0  0  0
 12 16  1  0  0  0  0
 12 13  1  0  0  0  0
 12 30  1  0  0  0  0
 13 14  1  0  0  0  0
 13 31  1  0  0  0  0
 13 32  1  0  0  0  0
 14 15  1  0  0  0  0
 14 33  1  0  0  0  0
 14 34  1  0  0  0  0
 15 16  1  0  0  0  0
 15 35  1  0  0  0  0
 15 36  1  0  0  0  0
 16 37  1  0  0  0  0
 16 38  1  0  0  0  0
 17 18  2  0  0  0  0
 17 39  1  0  0  0  0
M  END
> <s_m_source_file>
AV-unprocessed.smi

> <i_m_source_file_index>
715

> <i_lp_mmshare_version>
43012

> <i_f3d_flags>
0

> <s_epik_input>
W0NIM11uMVtjSF1jKFtjSF1uMSlbQ0BIXShbT0hdKVtDSDJdW05IXUMoPU8pW0NIMl1bQ0hdMltDSDJdW0NIMl1bQ0gyXVtDSDJdMg==

> <s_epik_cmdline>
J2VwaWtfcHl0aG9uJywgJy1waCcsICc3LjAnLCAnLXRuJywgJzgnLCAnLW1hJywgJzIwMCcsICctbWV0YWxfYmluZGluZycsICctaW1hZScsICc8aW5maWxlLm1hZT4nLCAnLW9tYWUnLCAnPG91dGZpbGUubWFlPic=

> <r_lp_tautomer_probability>
1

> <r_epik_Ionization_Penalty>
4.45533e-05

> <r_epik_Ionization_Penalty_Charging>
0

> <r_epik_Ionization_Penalty_Neutral>
4.45533e-05

> <r_epik_State_Penalty>
-0

> <r_epik_Charging_Adjusted_Penalty>
0

> <i_epik_Tot_Q>
0

> <i_epik_Tot_abs_Q>
0

> <r_epik_Metal_State_Penalty>
-0

> <b_epik_Metal_Only>
0

> <s_lp_Force_Field>
OPLS_2005

> <r_lp_Energy>
19.2831

> <b_lp_Chiralities_Consistent>
1

> <s_lp_Variant>
AV-unprocessed.smi:715-2

> <Gold.Version>
5.8.1

> <Gold.Id.Protein>
6NUR|6NUR_protein|mol2

> <Gold.PLP.Fitness>
42.5488

> <Gold.PLP.PLP>
-34.6095

> <Gold.PLP.part.hbond>
-4.6082

> <Gold.PLP.part.metal>
0.0000

> <Gold.PLP.part.buried>
1.6306

> <Gold.PLP.part.nonpolar>
-31.2650

> <Gold.PLP.part.repulsive>
0.3894

> <Gold.PLP.ligand.clash>
0.0000

> <Gold.PLP.ligand.torsion>
0.2263

> <Gold.PLP.Chemscore.Hbond>
2.7840

> <Gold.PLP.Chemscore.CHOScore>
0.0000

> <Gold.PLP.Chemscore.Metal>
0.0000

> <Gold.Chemscore.Hbonds>
donor molecule, donor type, donor heavy atom, donor atom, acceptor molecule, acceptor atom, score
      L1  H     6    24       P1  7948  0.91
      L1  H     8    27       P1 10171  0.62
      P1  H  7954  7966       L1     6  0.70

> <Gold.PLP.Chemscore.Internal.Correction>
0.0398

> <Gold.Rescore>
     Score         DG    S(hbond)    S(metal)    S(lipo)     H(rot)  DE(clash)    DE(int)     intcor
     15.53     -17.91       2.32        0.00      90.00       2.29       0.74       1.63       ----

> <Gold.Chemscore.Fitness>
15.5336

> <Gold.Chemscore.DG>
-17.9058

> <Gold.Chemscore.ZeroCoef>
-5.4800

> <Gold.Chemscore.Hbond>
2.3203

> <Gold.Chemscore.Metal>
0.0000

> <Gold.Chemscore.Lipo>
89.9994

> <Gold.Chemscore.Internal_Hbond>
0.0000

> <Gold.Chemscore.DEClash>
0.7427

> <Gold.Chemscore.DEInternal>
1.6295

> <Gold.Chemscore.Rot>
2.2866

> <Gold.Chemscore.Internal.Correction>
   9.000000E+99

> <Gold.Chemscore.Hbonds>
donor molecule, donor type, donor heavy atom, donor atom, acceptor molecule, acceptor atom, score
      L1  H     6    24       P1  7948  0.88
      L1  H     8    27       P1 10171  0.60
      P1  H  7954  7966       L1     6  0.07

> <Gold.Chemscore.Hbond.Weighted>
-7.7497

> <Gold.Chemscore.Metal.Weighted>
-0.0000

> <Gold.Chemscore.Lipo.Weighted>
-10.5299

> <Gold.Chemscore.Internal_Hbond.Weighted>
0.0000

> <Gold.Chemscore.DEClash.Weighted>
0.7427

> <Gold.Chemscore.DEInternal.Weighted>
1.6295

> <Gold.Chemscore.Rot.Weighted>
5.8538

> <Gold.Chemscore.Internal.Correction.Weighted>
   9.000000E+99

> <Gold.Protein.RotatedTorsions>
[ 6907 6896 6895 6894 ] final  -78.53 input  -60.11 | X-H torsion
[ 7974 7965 7964 7962 ] final   74.32 input  175.53 | X-H torsion
[ 8008 7997 7996 7995 ] final -100.39 input   59.86 | X-H torsion
[ 10167 10162 10161 10158 ] final -120.95 input  -65.29 | X-H torsion
[ 10718 10713 10712 10709 ] final   90.98 input   66.30 | X-H torsion
[ 10763 10752 10751 10750 ] final    4.82 input  -60.55 | X-H torsion
[ 11005 11000 10999 10996 ] final -119.65 input  -57.11 | X-H torsion

> <Gold.Protein.ActiveResidues>
 VAL166  LYS551  ARG553  GLY616  TRP617  ASP618  TYR619  PRO620  LYS621  CYS622 
 ASP623  PHE694  ASN695  SER759  ASP760  ASP761  ALA762  ILE779  LEU786  VAL792 
 PHE793  MET794  SER795  GLU796  ALA797  LYS798  CYS799  TRP800  GLU811  SER814 

> <Gold.Protein.RotatedAtoms>
  150.6971  134.4258  159.5225 H   0  0  0  0  0  0  0  0  0  0  0  0  # atno 6907 bound_to 6896
  152.1993  134.8599  160.0518 H   0  0  0  0  0  0  0  0  0  0  0  0  # atno 6908 bound_to 6896
  151.9525  133.3635  159.4042 H   0  0  0  0  0  0  0  0  0  0  0  0  # atno 6909 bound_to 6896
  145.7298  139.2679  143.1548 H   0  0  0  0  0  0  0  0  0  0  0  0  # atno 7974 bound_to 7965
  154.8280  140.0441  157.1457 H   0  0  0  0  0  0  0  0  0  0  0  0  # atno 8008 bound_to 7997
  154.9185  140.3023  155.5208 H   0  0  0  0  0  0  0  0  0  0  0  0  # atno 8009 bound_to 7997
  156.2985  140.2345  156.4232 H   0  0  0  0  0  0  0  0  0  0  0  0  # atno 8010 bound_to 7997
  140.0303  143.5255  152.2179 H   0  0  0  0  0  0  0  0  0  0  0  0  # atno 10167 bound_to 10162
  157.6960  131.0390  150.3660 H   0  0  0  0  0  0  0  0  0  0  0  0  # atno 10718 bound_to 10713
  153.2667  135.6928  153.7522 H   0  0  0  0  0  0  0  0  0  0  0  0  # atno 10763 bound_to 10752
  153.6561  135.3368  155.3115 H   0  0  0  0  0  0  0  0  0  0  0  0  # atno 10764 bound_to 10752
  154.8449  135.4466  154.1676 H   0  0  0  0  0  0  0  0  0  0  0  0  # atno 10765 bound_to 10752
  141.0200  134.0138  157.3295 H   0  0  0  0  0  0  0  0  0  0  0  0  # atno 11005 bound_to 11000
  146.0548  140.8032  142.9764 LP  0  0  0  0  0  0  0  0  0  0  0  0  # atno 17320 bound_to 7965
  144.6896  140.3108  143.7248 LP  0  0  0  0  0  0  0  0  0  0  0  0  # atno 17321 bound_to 7965
  139.6080  144.7601  151.3016 LP  0  0  0  0  0  0  0  0  0  0  0  0  # atno 17342 bound_to 10162
  140.7305  143.6878  150.7947 LP  0  0  0  0  0  0  0  0  0  0  0  0  # atno 17343 bound_to 10162
  156.4090  130.3930  149.6905 LP  0  0  0  0  0  0  0  0  0  0  0  0  # atno 17370 bound_to 10713
  156.4195  130.7762  151.2778 LP  0  0  0  0  0  0  0  0  0  0  0  0  # atno 17371 bound_to 10713
  139.9140  135.0194  156.7809 LP  0  0  0  0  0  0  0  0  0  0  0  0  # atno 17394 bound_to 11000
  140.6588  133.9664  155.7794 LP  0  0  0  0  0  0  0  0  0  0  0  0  # atno 17395 bound_to 11000

$$$$
