AV-unprocessed.smi:2820|AV-procd|sdf|10854|dock2
  -GOLD-   2272015293D 1   1.00000     0.00000
 Structure written by MMmdl.
 29 30  0  0  0  0  0  0  0  0  1 V2000
  150.5190  145.2302  159.9112 C   0  0  0  0  0  0  0  0  0  0  0  0
  150.1576  144.5385  158.6850 N   0  0  0  0  0  0  0  0  0  0  0  0
  150.7632  143.3222  158.3389 C   0  0  0  0  0  0  0  0  0  0  0  0
  151.7356  142.6823  159.1420 C   0  0  0  0  0  0  0  0  0  0  0  0
  152.2849  141.4608  158.7067 C   0  0  0  0  0  0  0  0  0  0  0  0
  151.8463  140.9162  157.4822 C   0  0  0  0  0  0  0  0  0  0  0  0
  152.3883  139.6990  157.0455 N   0  0  0  0  0  0  0  0  0  0  0  0
  152.2584  138.6240  158.0213 C   0  0  0  0  0  0  0  0  0  0  0  0
  152.9870  137.3658  157.5182 C   0  0  0  0  0  0  0  0  0  0  0  0
  152.4801  136.9991  156.2380 O   0  0  0  0  0  0  0  0  0  0  0  0
  152.6736  138.0276  155.2709 C   0  0  0  0  0  0  0  0  0  0  0  0
  151.9358  139.3015  155.7179 C   0  0  0  0  0  0  0  0  0  0  0  0
  150.9160  141.5222  156.7074 N   0  0  0  0  0  0  0  0  0  0  0  0
  150.3942  142.6924  157.1316 C   0  0  0  0  0  0  0  0  0  0  0  0
  149.9441  146.1521  159.9995 H   0  0  0  0  0  0  0  0  0  0  0  0
  151.5782  145.4894  159.9129 H   0  0  0  0  0  0  0  0  0  0  0  0
  150.3048  144.6118  160.7834 H   0  0  0  0  0  0  0  0  0  0  0  0
  149.4626  144.9482  158.0771 H   0  0  0  0  0  0  0  0  0  0  0  0
  152.0662  143.1063  160.0785 H   0  0  0  0  0  0  0  0  0  0  0  0
  153.0288  140.9535  159.3034 H   0  0  0  0  0  0  0  0  0  0  0  0
  152.6735  138.9407  158.9790 H   0  0  0  0  0  0  0  0  0  0  0  0
  151.2035  138.3991  158.1845 H   0  0  0  0  0  0  0  0  0  0  0  0
  154.0631  137.5367  157.4594 H   0  0  0  0  0  0  0  0  0  0  0  0
  152.8329  136.5391  158.2117 H   0  0  0  0  0  0  0  0  0  0  0  0
  153.7393  138.2211  155.1388 H   0  0  0  0  0  0  0  0  0  0  0  0
  152.2894  137.6880  154.3091 H   0  0  0  0  0  0  0  0  0  0  0  0
  150.8605  139.1184  155.7330 H   0  0  0  0  0  0  0  0  0  0  0  0
  152.1168  140.1092  155.0079 H   0  0  0  0  0  0  0  0  0  0  0  0
  149.6556  143.1401  156.4826 H   0  0  0  0  0  0  0  0  0  0  0  0
  1  2  1  0  0  0  0
  1 15  1  0  0  0  0
  1 16  1  0  0  0  0
  1 17  1  0  0  0  0
  2  3  1  0  0  0  0
  2 18  1  0  0  0  0
  3 14  1  0  0  0  0
  3  4  2  0  0  0  0
  4  5  1  0  0  0  0
  4 19  1  0  0  0  0
  5  6  2  0  0  0  0
  5 20  1  0  0  0  0
  6  7  1  0  0  0  0
  6 13  1  0  0  0  0
  7 12  1  0  0  0  0
  7  8  1  0  0  0  0
  8  9  1  0  0  0  0
  8 21  1  0  0  0  0
  8 22  1  0  0  0  0
  9 10  1  0  0  0  0
  9 23  1  0  0  0  0
  9 24  1  0  0  0  0
 10 11  1  0  0  0  0
 11 12  1  0  0  0  0
 11 25  1  0  0  0  0
 11 26  1  0  0  0  0
 12 27  1  0  0  0  0
 12 28  1  0  0  0  0
 13 14  2  0  0  0  0
 14 29  1  0  0  0  0
M  END
> <s_m_source_file>
AV-unprocessed.smi

> <i_m_source_file_index>
2820

> <i_lp_mmshare_version>
43012

> <i_f3d_flags>
0

> <s_epik_input>
W0NIM11bTkhdYzFbY0hdW2NIXWMobltjSF0xKU4yW0NIMl1bQ0gyXU9bQ0gyXVtDSDJdMg==

> <s_epik_cmdline>
J2VwaWtfcHl0aG9uJywgJy1waCcsICc3LjAnLCAnLXRuJywgJzgnLCAnLW1hJywgJzIwMCcsICctbWV0YWxfYmluZGluZycsICctaW1hZScsICc8aW5maWxlLm1hZT4nLCAnLW9tYWUnLCAnPG91dGZpbGUubWFlPic=

> <r_lp_tautomer_probability>
1

> <r_epik_Ionization_Penalty>
0.0411205

> <r_epik_Ionization_Penalty_Charging>
0

> <r_epik_Ionization_Penalty_Neutral>
0.0411205

> <r_epik_State_Penalty>
0.0346301

> <r_epik_Charging_Adjusted_Penalty>
0.0346301

> <i_epik_Tot_Q>
0

> <i_epik_Tot_abs_Q>
0

> <r_epik_Metal_State_Penalty>
3.56611e-05

> <b_epik_Metal_Only>
0

> <s_lp_Force_Field>
OPLS_2005

> <r_lp_Energy>
22.0638

> <b_lp_Chiralities_Consistent>
1

> <s_lp_Variant>
AV-unprocessed.smi:2820-1

> <Gold.Version>
5.8.1

> <Gold.Id.Protein>
6NUR|6NUR_protein|mol2

> <Gold.PLP.Fitness>
32.9186

> <Gold.PLP.PLP>
-21.4709

> <Gold.PLP.part.hbond>
-3.2811

> <Gold.PLP.part.metal>
0.0000

> <Gold.PLP.part.buried>
-1.2923

> <Gold.PLP.part.nonpolar>
-16.7892

> <Gold.PLP.part.repulsive>
0.2010

> <Gold.PLP.ligand.clash>
0.0000

> <Gold.PLP.ligand.torsion>
0.0498

> <Gold.PLP.Chemscore.Hbond>
2.8160

> <Gold.PLP.Chemscore.CHOScore>
1.0000

> <Gold.PLP.Chemscore.Metal>
0.0000

> <Gold.Chemscore.Hbonds>
donor molecule, donor type, donor heavy atom, donor atom, acceptor molecule, acceptor atom, score
      L1  H     2    18       P1  8029  0.95
      P1  H  7997  8008       L1     7  0.41
      P1  H 10752 10764       L1    10  0.77
      L1  C    14    29       P1  8028  0.77

> <Gold.PLP.Chemscore.Internal.Correction>
0.0992

> <Gold.Rescore>
     Score         DG    S(hbond)    S(metal)    S(lipo)     H(rot)  DE(clash)    DE(int)     intcor
     13.73     -13.95       1.05        0.00      64.32       1.00       0.01       0.20       ----

> <Gold.Chemscore.Fitness>
13.7331

> <Gold.Chemscore.DG>
-13.9527

> <Gold.Chemscore.ZeroCoef>
-5.4800

> <Gold.Chemscore.Hbond>
1.0501

> <Gold.Chemscore.Metal>
0.0000

> <Gold.Chemscore.Lipo>
64.3204

> <Gold.Chemscore.Internal_Hbond>
0.0000

> <Gold.Chemscore.DEClash>
0.0149

> <Gold.Chemscore.DEInternal>
0.2047

> <Gold.Chemscore.Rot>
1.0000

> <Gold.Chemscore.Internal.Correction>
   9.000000E+99

> <Gold.Chemscore.Hbonds>
donor molecule, donor type, donor heavy atom, donor atom, acceptor molecule, acceptor atom, score
      L1  H     2    18       P1  8029  0.21
      P1  H  7997  8008       L1     7  0.01
      P1  H 10752 10764       L1    10  0.16

> <Gold.Chemscore.Hbond.Weighted>
-3.5072

> <Gold.Chemscore.Metal.Weighted>
-0.0000

> <Gold.Chemscore.Lipo.Weighted>
-7.5255

> <Gold.Chemscore.Internal_Hbond.Weighted>
0.0000

> <Gold.Chemscore.DEClash.Weighted>
0.0149

> <Gold.Chemscore.DEInternal.Weighted>
0.2047

> <Gold.Chemscore.Rot.Weighted>
2.5600

> <Gold.Chemscore.Internal.Correction.Weighted>
   9.000000E+99

> <Gold.Protein.RotatedTorsions>
[ 6907 6896 6895 6894 ] final  -93.31 input  -60.11 | X-H torsion
[ 7974 7965 7964 7962 ] final  127.91 input  175.53 | X-H torsion
[ 8008 7997 7996 7995 ] final  -39.32 input   59.86 | X-H torsion
[ 10167 10162 10161 10158 ] final -138.90 input  -65.29 | X-H torsion
[ 10718 10713 10712 10709 ] final   38.11 input   66.30 | X-H torsion
[ 10763 10752 10751 10750 ] final  -13.91 input  -60.55 | X-H torsion
[ 11005 11000 10999 10996 ] final  163.44 input  -57.11 | X-H torsion

> <Gold.Protein.ActiveResidues>
 VAL166  LYS551  ARG553  GLY616  TRP617  ASP618  TYR619  PRO620  LYS621  CYS622 
 ASP623  PHE694  ASN695  SER759  ASP760  ASP761  ALA762  ILE779  LEU786  VAL792 
 PHE793  MET794  SER795  GLU796  ALA797  LYS798  CYS799  TRP800  GLU811  SER814 

> <Gold.Protein.RotatedAtoms>
  150.6920  134.1987  159.4313 H   0  0  0  0  0  0  0  0  0  0  0  0  # atno 6907 bound_to 6896
  151.9955  134.9954  160.0572 H   0  0  0  0  0  0  0  0  0  0  0  0  # atno 6908 bound_to 6896
  152.1628  133.4558  159.4906 H   0  0  0  0  0  0  0  0  0  0  0  0  # atno 6909 bound_to 6896
  145.0453  139.3928  143.5081 H   0  0  0  0  0  0  0  0  0  0  0  0  # atno 7974 bound_to 7965
  154.4024  140.1554  156.2845 H   0  0  0  0  0  0  0  0  0  0  0  0  # atno 8008 bound_to 7997
  155.8840  140.3442  155.5886 H   0  0  0  0  0  0  0  0  0  0  0  0  # atno 8009 bound_to 7997
  155.7634  140.0820  157.2134 H   0  0  0  0  0  0  0  0  0  0  0  0  # atno 8010 bound_to 7997
  139.8433  143.7294  152.2662 H   0  0  0  0  0  0  0  0  0  0  0  0  # atno 10167 bound_to 10162
  157.3549  130.7618  149.7005 H   0  0  0  0  0  0  0  0  0  0  0  0  # atno 10718 bound_to 10713
  153.5203  135.7016  153.5735 H   0  0  0  0  0  0  0  0  0  0  0  0  # atno 10763 bound_to 10752
  153.3787  135.3926  155.1841 H   0  0  0  0  0  0  0  0  0  0  0  0  # atno 10764 bound_to 10752
  154.8695  135.3829  154.4691 H   0  0  0  0  0  0  0  0  0  0  0  0  # atno 10765 bound_to 10752
  140.2358  134.8089  157.3362 H   0  0  0  0  0  0  0  0  0  0  0  0  # atno 11005 bound_to 11000
  146.3513  140.0076  142.8670 LP  0  0  0  0  0  0  0  0  0  0  0  0  # atno 17320 bound_to 7965
  145.1595  140.9665  143.4385 LP  0  0  0  0  0  0  0  0  0  0  0  0  # atno 17321 bound_to 7965
  139.7537  144.7527  151.0467 LP  0  0  0  0  0  0  0  0  0  0  0  0  # atno 17342 bound_to 10162
  140.7796  143.4830  150.9993 LP  0  0  0  0  0  0  0  0  0  0  0  0  # atno 17343 bound_to 10162
  155.9727  130.4130  150.4060 LP  0  0  0  0  0  0  0  0  0  0  0  0  # atno 17370 bound_to 10713
  157.2129  131.0464  151.2589 LP  0  0  0  0  0  0  0  0  0  0  0  0  # atno 17371 bound_to 10713
  140.1704  134.4616  155.7835 LP  0  0  0  0  0  0  0  0  0  0  0  0  # atno 17394 bound_to 11000
  141.2214  133.6939  156.7697 LP  0  0  0  0  0  0  0  0  0  0  0  0  # atno 17395 bound_to 11000

$$$$
