AV-unprocessed.smi:1244|AV-procd|sdf|5222|dock2
  -GOLD-   22720 4323D 1   1.00000     0.00000
 Structure written by MMmdl.
 54 56  0  0  0  0  0  0  0  0  1 V2000
  153.9020  133.4856  164.8239 C   0  0  0  0  0  0  0  0  0  0  0  0
  154.7670  134.4576  164.0147 C   0  0  2  0  0  0  0  0  0  0  0  0
  154.2877  135.9161  164.1493 C   0  0  0  0  0  0  0  0  0  0  0  0
  155.0624  136.8265  163.3092 N   0  0  0  0  0  0  0  0  0  0  0  0
  154.6055  138.2115  163.4098 C   0  0  0  0  0  0  0  0  0  0  0  0
  155.4120  139.2209  162.5709 C   0  0  0  0  0  0  0  0  0  0  0  0
  154.7346  139.5426  161.3207 N   0  0  0  0  0  0  0  0  0  0  0  0
  154.1511  140.7165  161.0417 C   0  0  0  0  0  0  0  0  0  0  0  0
  154.1399  141.6735  161.8161 O   0  0  0  0  0  0  0  0  0  0  0  0
  153.5710  140.6962  159.8304 N   0  0  0  0  0  0  0  0  0  0  0  0
  152.8235  141.7341  159.2064 C   0  0  0  0  0  0  0  0  0  0  0  0
  152.9070  143.0800  159.6377 C   0  0  0  0  0  0  0  0  0  0  0  0
  152.1728  144.0662  158.9560 C   0  0  0  0  0  0  0  0  0  0  0  0
  151.3874  143.6729  157.8586 C   0  0  0  0  0  0  0  0  0  0  0  0
  151.3089  142.3978  157.4271 N   0  0  0  0  0  0  0  0  0  0  0  0
  152.0149  141.4388  158.0750 C   0  0  0  0  0  0  0  0  0  0  0  0
  151.8846  140.1086  157.6209 N   0  0  0  0  0  0  0  0  0  0  0  0
  150.5270  139.5808  157.7412 C   0  0  0  0  0  0  0  0  0  0  0  0
  150.2743  138.7341  156.4914 C   0  0  0  0  0  0  0  0  0  0  0  0
  151.2139  139.3471  155.4608 C   0  0  0  0  0  0  0  0  0  0  0  0
  152.4203  139.7372  156.3118 C   0  0  0  0  0  0  0  0  0  0  0  0
  155.0076  136.3577  161.9291 C   0  0  0  0  0  0  0  0  0  0  0  0
  155.4944  134.9023  161.7935 C   0  0  2  0  0  0  0  0  0  0  0  0
  155.3688  134.3787  160.3593 C   0  0  0  0  0  0  0  0  0  0  0  0
  154.7110  134.0707  162.6446 O   0  0  0  0  0  0  0  0  0  0  0  0
  153.9253  133.7309  165.8860 H   0  0  0  0  0  0  0  0  0  0  0  0
  154.2583  132.4613  164.7115 H   0  0  0  0  0  0  0  0  0  0  0  0
  152.8629  133.5145  164.4953 H   0  0  0  0  0  0  0  0  0  0  0  0
  155.7987  134.3798  164.3617 H   0  0  0  0  0  0  0  0  0  0  0  0
  153.2314  135.9776  163.8829 H   0  0  0  0  0  0  0  0  0  0  0  0
  154.3641  136.2110  165.1952 H   0  0  0  0  0  0  0  0  0  0  0  0
  153.5665  138.2577  163.0808 H   0  0  0  0  0  0  0  0  0  0  0  0
  154.6011  138.5236  164.4554 H   0  0  0  0  0  0  0  0  0  0  0  0
  155.5469  140.1559  163.1133 H   0  0  0  0  0  0  0  0  0  0  0  0
  156.4105  138.8323  162.3632 H   0  0  0  0  0  0  0  0  0  0  0  0
  154.6932  138.8128  160.6245 H   0  0  0  0  0  0  0  0  0  0  0  0
  153.5676  139.8090  159.3487 H   0  0  0  0  0  0  0  0  0  0  0  0
  153.5332  143.3711  160.4675 H   0  0  0  0  0  0  0  0  0  0  0  0
  152.2160  145.1005  159.2635 H   0  0  0  0  0  0  0  0  0  0  0  0
  150.8101  144.4018  157.3093 H   0  0  0  0  0  0  0  0  0  0  0  0
  150.4145  138.9887  158.6496 H   0  0  0  0  0  0  0  0  0  0  0  0
  149.8064  140.3997  157.7871 H   0  0  0  0  0  0  0  0  0  0  0  0
  150.5618  137.6990  156.6807 H   0  0  0  0  0  0  0  0  0  0  0  0
  149.2303  138.7428  156.1775 H   0  0  0  0  0  0  0  0  0  0  0  0
  151.4671  138.6632  154.6503 H   0  0  0  0  0  0  0  0  0  0  0  0
  150.7605  140.2393  155.0262 H   0  0  0  0  0  0  0  0  0  0  0  0
  153.0235  140.5081  155.8322 H   0  0  0  0  0  0  0  0  0  0  0  0
  153.0693  138.8726  156.4528 H   0  0  0  0  0  0  0  0  0  0  0  0
  153.9857  136.4357  161.5541 H   0  0  0  0  0  0  0  0  0  0  0  0
  155.6208  137.0017  161.2974 H   0  0  0  0  0  0  0  0  0  0  0  0
  156.5400  134.8366  162.0997 H   0  0  0  0  0  0  0  0  0  0  0  0
  155.9627  134.9787  159.6695 H   0  0  0  0  0  0  0  0  0  0  0  0
  154.3330  134.4029  160.0194 H   0  0  0  0  0  0  0  0  0  0  0  0
  155.7183  133.3483  160.2894 H   0  0  0  0  0  0  0  0  0  0  0  0
  1  2  1  0  0  0  0
  1 26  1  0  0  0  0
  1 27  1  0  0  0  0
  1 28  1  0  0  0  0
  2 25  1  0  0  0  0
  2  3  1  0  0  0  0
  2 29  1  0  0  0  0
  3  4  1  0  0  0  0
  3 30  1  0  0  0  0
  3 31  1  0  0  0  0
  4  5  1  0  0  0  0
  4 22  1  0  0  0  0
  5  6  1  0  0  0  0
  5 32  1  0  0  0  0
  5 33  1  0  0  0  0
  6  7  1  0  0  0  0
  6 34  1  0  0  0  0
  6 35  1  0  0  0  0
  7  8  1  0  0  0  0
  7 36  1  0  0  0  0
  8  9  2  0  0  0  0
  8 10  1  0  0  0  0
 10 11  1  0  0  0  0
 10 37  1  0  0  0  0
 11 16  1  0  0  0  0
 11 12  2  0  0  0  0
 12 13  1  0  0  0  0
 12 38  1  0  0  0  0
 13 14  2  0  0  0  0
 13 39  1  0  0  0  0
 14 15  1  0  0  0  0
 14 40  1  0  0  0  0
 15 16  2  0  0  0  0
 16 17  1  0  0  0  0
 17 21  1  0  0  0  0
 17 18  1  0  0  0  0
 18 19  1  0  0  0  0
 18 41  1  0  0  0  0
 18 42  1  0  0  0  0
 19 20  1  0  0  0  0
 19 43  1  0  0  0  0
 19 44  1  0  0  0  0
 20 21  1  0  0  0  0
 20 45  1  0  0  0  0
 20 46  1  0  0  0  0
 21 47  1  0  0  0  0
 21 48  1  0  0  0  0
 22 23  1  0  0  0  0
 22 49  1  0  0  0  0
 22 50  1  0  0  0  0
 23 24  1  0  0  0  0
 23 25  1  0  0  0  0
 23 51  1  0  0  0  0
 24 52  1  0  0  0  0
 24 53  1  0  0  0  0
 24 54  1  0  0  0  0
M  END
> <s_m_source_file>
AV-unprocessed.smi

> <i_m_source_file_index>
1244

> <i_lp_mmshare_version>
43012

> <i_f3d_flags>
0

> <s_epik_input>
W0NIM11bQ0BASF0xW0NIMl1OKFtDSDJdW0NASF0oTzEpW0NIM10pW0NIMl1bQ0gyXVtOSF1DKD1PKVtOSF1jMltjSF1bY0hdW2NIXW5jMk4zW0NIMl1bQ0gyXVtDSDJdW0NIMl0z

> <s_epik_cmdline>
J2VwaWtfcHl0aG9uJywgJy1waCcsICc3LjAnLCAnLXRuJywgJzgnLCAnLW1hJywgJzIwMCcsICctbWV0YWxfYmluZGluZycsICctaW1hZScsICc8aW5maWxlLm1hZT4nLCAnLW9tYWUnLCAnPG91dGZpbGUubWFlPic=

> <r_lp_tautomer_probability>
1

> <r_epik_Ionization_Penalty>
0.363951

> <r_epik_Ionization_Penalty_Charging>
0

> <r_epik_Ionization_Penalty_Neutral>
0.363951

> <r_epik_State_Penalty>
0.349372

> <r_epik_Charging_Adjusted_Penalty>
0.349372

> <i_epik_Tot_Q>
0

> <i_epik_Tot_abs_Q>
0

> <r_epik_Metal_State_Penalty>
0.333054

> <b_epik_Metal_Only>
0

> <s_lp_Force_Field>
OPLS_2005

> <r_lp_Energy>
48.0273

> <b_lp_Chiralities_Consistent>
1

> <s_lp_Variant>
AV-unprocessed.smi:1244-2

> <Gold.Version>
5.8.1

> <Gold.Id.Protein>
6NUR|6NUR_protein|mol2

> <Gold.PLP.Fitness>
44.3428

> <Gold.PLP.PLP>
-42.1251

> <Gold.PLP.part.hbond>
-1.0000

> <Gold.PLP.part.metal>
0.0000

> <Gold.PLP.part.buried>
-5.2946

> <Gold.PLP.part.nonpolar>
-35.8593

> <Gold.PLP.part.repulsive>
0.1658

> <Gold.PLP.ligand.clash>
0.0000

> <Gold.PLP.ligand.torsion>
0.4601

> <Gold.PLP.Chemscore.Hbond>
0.0000

> <Gold.PLP.Chemscore.CHOScore>
0.9983

> <Gold.PLP.Chemscore.Metal>
0.0000

> <Gold.Chemscore.Hbonds>
donor molecule, donor type, donor heavy atom, donor atom, acceptor molecule, acceptor atom, score
      L1  C    14    40       P1  8028  1.00

> <Gold.PLP.Chemscore.Internal.Correction>
0.1432

> <Gold.Rescore>
     Score         DG    S(hbond)    S(metal)    S(lipo)     H(rot)  DE(clash)    DE(int)     intcor
     12.27     -14.07       0.00        0.00     107.31       1.55       0.03       1.78       ----

> <Gold.Chemscore.Fitness>
12.2694

> <Gold.Chemscore.DG>
-14.0728

> <Gold.Chemscore.ZeroCoef>
-5.4800

> <Gold.Chemscore.Hbond>
0.0000

> <Gold.Chemscore.Metal>
0.0000

> <Gold.Chemscore.Lipo>
107.3118

> <Gold.Chemscore.Internal_Hbond>
0.0000

> <Gold.Chemscore.DEClash>
0.0272

> <Gold.Chemscore.DEInternal>
1.7762

> <Gold.Chemscore.Rot>
1.5479

> <Gold.Chemscore.Internal.Correction>
   9.000000E+99

> <Gold.Chemscore.Hbond.Weighted>
-0.0000

> <Gold.Chemscore.Metal.Weighted>
-0.0000

> <Gold.Chemscore.Lipo.Weighted>
-12.5555

> <Gold.Chemscore.Internal_Hbond.Weighted>
0.0000

> <Gold.Chemscore.DEClash.Weighted>
0.0272

> <Gold.Chemscore.DEInternal.Weighted>
1.7762

> <Gold.Chemscore.Rot.Weighted>
3.9627

> <Gold.Chemscore.Internal.Correction.Weighted>
   9.000000E+99

> <Gold.Protein.RotatedTorsions>
[ 6907 6896 6895 6894 ] final  171.39 input  -60.11 | X-H torsion
[ 7974 7965 7964 7962 ] final -102.05 input  175.53 | X-H torsion
[ 8008 7997 7996 7995 ] final  -64.89 input   59.86 | X-H torsion
[ 10167 10162 10161 10158 ] final   -0.87 input  -65.29 | X-H torsion
[ 10718 10713 10712 10709 ] final   -6.36 input   66.30 | X-H torsion
[ 10763 10752 10751 10750 ] final -102.04 input  -60.55 | X-H torsion
[ 11005 11000 10999 10996 ] final  172.75 input  -57.11 | X-H torsion

> <Gold.Protein.ActiveResidues>
 VAL166  LYS551  ARG553  GLY616  TRP617  ASP618  TYR619  PRO620  LYS621  CYS622 
 ASP623  PHE694  ASN695  SER759  ASP760  ASP761  ALA762  ILE779  LEU786  VAL792 
 PHE793  MET794  SER795  GLU796  ALA797  LYS798  CYS799  TRP800  GLU811  SER814 

> <Gold.Protein.RotatedAtoms>
  151.8010  133.3370  159.3526 H   0  0  0  0  0  0  0  0  0  0  0  0  # atno 6907 bound_to 6896
  150.7358  134.5754  159.5921 H   0  0  0  0  0  0  0  0  0  0  0  0  # atno 6908 bound_to 6896
  152.3143  134.7460  160.0380 H   0  0  0  0  0  0  0  0  0  0  0  0  # atno 6909 bound_to 6896
  145.2737  140.9306  143.2972 H   0  0  0  0  0  0  0  0  0  0  0  0  # atno 7974 bound_to 7965
  154.4639  140.0944  156.6967 H   0  0  0  0  0  0  0  0  0  0  0  0  # atno 8008 bound_to 7997
  155.4915  140.3471  155.4337 H   0  0  0  0  0  0  0  0  0  0  0  0  # atno 8009 bound_to 7997
  156.0920  140.1400  156.9568 H   0  0  0  0  0  0  0  0  0  0  0  0  # atno 8010 bound_to 7997
  140.6786  143.6843  150.8079 H   0  0  0  0  0  0  0  0  0  0  0  0  # atno 10167 bound_to 10162
  156.7330  130.5186  149.5841 H   0  0  0  0  0  0  0  0  0  0  0  0  # atno 10718 bound_to 10713
  154.7703  135.4875  153.9636 H   0  0  0  0  0  0  0  0  0  0  0  0  # atno 10763 bound_to 10752
  153.1360  135.6763  153.9110 H   0  0  0  0  0  0  0  0  0  0  0  0  # atno 10764 bound_to 10752
  153.8799  135.3133  155.3423 H   0  0  0  0  0  0  0  0  0  0  0  0  # atno 10765 bound_to 10752
  140.3331  134.7340  157.4149 H   0  0  0  0  0  0  0  0  0  0  0  0  # atno 11005 bound_to 11000
  144.9313  139.4295  143.6494 LP  0  0  0  0  0  0  0  0  0  0  0  0  # atno 17320 bound_to 7965
  146.3238  139.8225  142.8924 LP  0  0  0  0  0  0  0  0  0  0  0  0  # atno 17321 bound_to 7965
  140.0540  143.5221  152.2660 LP  0  0  0  0  0  0  0  0  0  0  0  0  # atno 17342 bound_to 10162
  139.6093  144.7604  151.2988 LP  0  0  0  0  0  0  0  0  0  0  0  0  # atno 17343 bound_to 10162
  156.1516  130.6313  151.0603 LP  0  0  0  0  0  0  0  0  0  0  0  0  # atno 17370 bound_to 10713
  157.6851  131.0827  150.7266 LP  0  0  0  0  0  0  0  0  0  0  0  0  # atno 17371 bound_to 10713
  140.0844  134.5687  155.8507 LP  0  0  0  0  0  0  0  0  0  0  0  0  # atno 17394 bound_to 11000
  141.2058  133.6650  156.6204 LP  0  0  0  0  0  0  0  0  0  0  0  0  # atno 17395 bound_to 11000

$$$$
