AV-unprocessed.smi:709|AV-procd|sdf|3460|dock8
  -GOLD-   22720 0453D 1   1.00000     0.00000
 Structure written by MMmdl.
 48 50  0  0  0  0  0  0  0  0  1 V2000
  152.4811  137.8234  158.5572 C   0  0  0  0  0  0  0  0  0  0  0  0
  152.8606  137.9004  157.0770 C   0  0  0  0  0  0  0  0  0  0  0  0
  152.6177  136.6399  156.4763 O   0  0  0  0  0  0  0  0  0  0  0  0
  151.2833  136.1930  156.6569 C   0  0  2  0  0  0  0  0  0  0  0  0
  150.9487  134.8689  155.9616 C   0  0  0  0  0  0  0  0  0  0  0  0
  149.5785  135.4921  155.6859 C   0  0  2  0  0  0  0  0  0  0  0  0
  149.0300  135.1040  154.3908 N   0  0  0  0  0  0  0  0  0  0  0  0
  148.1266  134.1298  154.2163 C   0  0  0  0  0  0  0  0  0  0  0  0
  147.6699  133.4644  155.1453 O   0  0  0  0  0  0  0  0  0  0  0  0
  147.7975  134.0053  152.9171 N   0  0  0  0  0  0  0  0  0  0  0  0
  146.9185  133.0991  152.2960 C   0  0  0  0  0  0  0  0  0  0  0  0
  145.9986  133.4311  151.3547 C   0  0  0  0  0  0  0  0  0  0  0  0
  145.1294  132.4320  150.7808 C   0  0  0  0  0  0  0  0  0  0  0  0
  145.2445  131.1666  151.2061 C   0  0  0  0  0  0  0  0  0  0  0  0
  146.1834  130.8010  152.1852 N   0  0  0  0  0  0  0  0  0  0  0  0
  146.2300  129.3928  152.5867 C   0  0  0  0  0  0  0  0  0  0  0  0
  147.0349  131.7023  152.7597 C   0  0  0  0  0  0  0  0  0  0  0  0
  147.8495  131.3519  153.6172 O   0  0  0  0  0  0  0  0  0  0  0  0
  150.2630  136.8832  155.7172 C   0  0  0  0  0  0  0  0  0  0  0  0
  150.8041  137.4871  154.4142 C   0  0  0  0  0  0  0  0  0  0  0  0
  151.1246  138.9531  154.7114 C   0  0  0  0  0  0  0  0  0  0  0  0
  150.2208  139.3406  155.8864 C   0  0  0  0  0  0  0  0  0  0  0  0
  149.4823  138.0602  156.2923 C   0  0  0  0  0  0  0  0  0  0  0  0
  152.6527  138.7787  159.0537 H   0  0  0  0  0  0  0  0  0  0  0  0
  153.0719  137.0665  159.0734 H   0  0  0  0  0  0  0  0  0  0  0  0
  151.4281  137.5676  158.6778 H   0  0  0  0  0  0  0  0  0  0  0  0
  152.2748  138.6760  156.5818 H   0  0  0  0  0  0  0  0  0  0  0  0
  153.9137  138.1676  156.9781 H   0  0  0  0  0  0  0  0  0  0  0  0
  150.9626  136.2136  157.7014 H   0  0  0  0  0  0  0  0  0  0  0  0
  151.5449  134.6916  155.0644 H   0  0  0  0  0  0  0  0  0  0  0  0
  150.9334  133.9993  156.6189 H   0  0  0  0  0  0  0  0  0  0  0  0
  148.8928  135.3432  156.5240 H   0  0  0  0  0  0  0  0  0  0  0  0
  149.3552  135.6122  153.5813 H   0  0  0  0  0  0  0  0  0  0  0  0
  148.2250  134.6671  152.2854 H   0  0  0  0  0  0  0  0  0  0  0  0
  145.8695  134.4438  151.0106 H   0  0  0  0  0  0  0  0  0  0  0  0
  144.4031  132.6985  150.0272 H   0  0  0  0  0  0  0  0  0  0  0  0
  144.6300  130.3631  150.8270 H   0  0  0  0  0  0  0  0  0  0  0  0
  147.2141  128.9689  152.3825 H   0  0  0  0  0  0  0  0  0  0  0  0
  145.4963  128.7802  152.0616 H   0  0  0  0  0  0  0  0  0  0  0  0
  146.0312  129.2921  153.6547 H   0  0  0  0  0  0  0  0  0  0  0  0
  151.6760  136.9582  154.0279 H   0  0  0  0  0  0  0  0  0  0  0  0
  150.0447  137.4516  153.6327 H   0  0  0  0  0  0  0  0  0  0  0  0
  152.1705  139.0543  155.0034 H   0  0  0  0  0  0  0  0  0  0  0  0
  150.9638  139.5873  153.8390 H   0  0  0  0  0  0  0  0  0  0  0  0
  150.8258  139.7118  156.7144 H   0  0  0  0  0  0  0  0  0  0  0  0
  149.5184  140.1290  155.6142 H   0  0  0  0  0  0  0  0  0  0  0  0
  148.4760  138.0766  155.8727 H   0  0  0  0  0  0  0  0  0  0  0  0
  149.3683  137.9949  157.3747 H   0  0  0  0  0  0  0  0  0  0  0  0
  1  2  1  0  0  0  0
  1 24  1  0  0  0  0
  1 25  1  0  0  0  0
  1 26  1  0  0  0  0
  2  3  1  0  0  0  0
  2 27  1  0  0  0  0
  2 28  1  0  0  0  0
  3  4  1  0  0  0  0
  4 19  1  0  0  0  0
  4  5  1  0  0  0  0
  4 29  1  0  0  0  0
  5  6  1  0  0  0  0
  5 30  1  0  0  0  0
  5 31  1  0  0  0  0
  6  7  1  0  0  0  0
  6 19  1  0  0  0  0
  6 32  1  0  0  0  0
  7  8  1  0  0  0  0
  7 33  1  0  0  0  0
  8  9  2  0  0  0  0
  8 10  1  0  0  0  0
 10 11  1  0  0  0  0
 10 34  1  0  0  0  0
 11 17  1  0  0  0  0
 11 12  2  0  0  0  0
 12 13  1  0  0  0  0
 12 35  1  0  0  0  0
 13 14  2  0  0  0  0
 13 36  1  0  0  0  0
 14 15  1  0  0  0  0
 14 37  1  0  0  0  0
 15 16  1  0  0  0  0
 15 17  1  0  0  0  0
 16 38  1  0  0  0  0
 16 39  1  0  0  0  0
 16 40  1  0  0  0  0
 17 18  2  0  0  0  0
 19 23  1  0  0  0  0
 19 20  1  0  0  0  0
 20 21  1  0  0  0  0
 20 41  1  0  0  0  0
 20 42  1  0  0  0  0
 21 22  1  0  0  0  0
 21 43  1  0  0  0  0
 21 44  1  0  0  0  0
 22 23  1  0  0  0  0
 22 45  1  0  0  0  0
 22 46  1  0  0  0  0
 23 47  1  0  0  0  0
 23 48  1  0  0  0  0
M  END
> <s_m_source_file>
AV-unprocessed.smi

> <i_m_source_file_index>
709

> <i_lp_mmshare_version>
43012

> <i_f3d_flags>
0

> <s_epik_input>
W0NIMl0xW0NIMl1bQ0gyXVtDSDJdQzEyW0NASF0oT1tDSDJdW0NIM10pW0NIMl1bQ0BIXTJbTkhdQyg9TylbTkhdYzNbY0hdW2NIXVtjSF1uKFtDSDNdKWMzPU8=

> <s_epik_cmdline>
J2VwaWtfcHl0aG9uJywgJy1waCcsICc3LjAnLCAnLXRuJywgJzgnLCAnLW1hJywgJzIwMCcsICctbWV0YWxfYmluZGluZycsICctaW1hZScsICc8aW5maWxlLm1hZT4nLCAnLW9tYWUnLCAnPG91dGZpbGUubWFlPic=

> <r_lp_tautomer_probability>
1

> <r_epik_Ionization_Penalty>
2.50859e-05

> <r_epik_Ionization_Penalty_Charging>
5.10493e-06

> <r_epik_Ionization_Penalty_Neutral>
1.9981e-05

> <r_epik_State_Penalty>
-0

> <r_epik_Charging_Adjusted_Penalty>
5.10493e-06

> <i_epik_Tot_Q>
0

> <i_epik_Tot_abs_Q>
0

> <r_epik_Metal_State_Penalty>
-0

> <b_epik_Metal_Only>
0

> <s_lp_Force_Field>
OPLS_2005

> <r_lp_Energy>
49.811

> <b_lp_Chiralities_Consistent>
1

> <s_lp_Variant>
AV-unprocessed.smi:709-3

> <Gold.Version>
5.8.1

> <Gold.Id.Protein>
6NUR|6NUR_protein|mol2

> <Gold.PLP.Fitness>
42.0534

> <Gold.PLP.PLP>
-34.2499

> <Gold.PLP.part.hbond>
-3.0000

> <Gold.PLP.part.metal>
0.0000

> <Gold.PLP.part.buried>
-4.4344

> <Gold.PLP.part.nonpolar>
-26.4947

> <Gold.PLP.part.repulsive>
0.1146

> <Gold.PLP.ligand.clash>
0.0000

> <Gold.PLP.ligand.torsion>
0.7196

> <Gold.PLP.Chemscore.Hbond>
2.9760

> <Gold.PLP.Chemscore.CHOScore>
0.0000

> <Gold.PLP.Chemscore.Metal>
0.0000

> <Gold.Chemscore.Hbonds>
donor molecule, donor type, donor heavy atom, donor atom, acceptor molecule, acceptor atom, score
      L1  H     7    33       P1  7948  0.94
      L1  H    10    34       P1  7948  0.95
      P1  H 10752 10763       L1     3  1.00

> <Gold.PLP.Chemscore.Internal.Correction>
0.3146

> <Gold.Rescore>
     Score         DG    S(hbond)    S(metal)    S(lipo)     H(rot)  DE(clash)    DE(int)     intcor
     15.45     -20.43       2.70        0.00      80.54       1.36       0.00       4.98       ----

> <Gold.Chemscore.Fitness>
15.4469

> <Gold.Chemscore.DG>
-20.4273

> <Gold.Chemscore.ZeroCoef>
-5.4800

> <Gold.Chemscore.Hbond>
2.6963

> <Gold.Chemscore.Metal>
0.0000

> <Gold.Chemscore.Lipo>
80.5395

> <Gold.Chemscore.Internal_Hbond>
0.0000

> <Gold.Chemscore.DEClash>
0.0000

> <Gold.Chemscore.DEInternal>
4.9805

> <Gold.Chemscore.Rot>
1.3599

> <Gold.Chemscore.Internal.Correction>
   9.000000E+99

> <Gold.Chemscore.Hbonds>
donor molecule, donor type, donor heavy atom, donor atom, acceptor molecule, acceptor atom, score
      L1  H     7    33       P1  7948  0.37
      L1  H    10    34       P1  7948  0.21
      P1  H 10752 10763       L1     3  0.34

> <Gold.Chemscore.Hbond.Weighted>
-9.0055

> <Gold.Chemscore.Metal.Weighted>
-0.0000

> <Gold.Chemscore.Lipo.Weighted>
-9.4231

> <Gold.Chemscore.Internal_Hbond.Weighted>
0.0000

> <Gold.Chemscore.DEClash.Weighted>
0.0000

> <Gold.Chemscore.DEInternal.Weighted>
4.9805

> <Gold.Chemscore.Rot.Weighted>
3.4813

> <Gold.Chemscore.Internal.Correction.Weighted>
   9.000000E+99

> <Gold.Protein.RotatedTorsions>
[ 6907 6896 6895 6894 ] final   -2.56 input  -60.11 | X-H torsion
[ 7974 7965 7964 7962 ] final   43.13 input  175.53 | X-H torsion
[ 8008 7997 7996 7995 ] final  123.34 input   59.86 | X-H torsion
[ 10167 10162 10161 10158 ] final  175.35 input  -65.29 | X-H torsion
[ 10718 10713 10712 10709 ] final  134.81 input   66.30 | X-H torsion
[ 10763 10752 10751 10750 ] final   97.74 input  -60.55 | X-H torsion
[ 11005 11000 10999 10996 ] final  -52.23 input  -57.11 | X-H torsion

> <Gold.Protein.ActiveResidues>
 VAL166  LYS551  ARG553  GLY616  TRP617  ASP618  TYR619  PRO620  LYS621  CYS622 
 ASP623  PHE694  ASN695  SER759  ASP760  ASP761  ALA762  ILE779  LEU786  VAL792 
 PHE793  MET794  SER795  GLU796  ALA797  LYS798  CYS799  TRP800  GLU811  SER814 

> <Gold.Protein.RotatedAtoms>
  151.5280  135.1068  159.9895 H   0  0  0  0  0  0  0  0  0  0  0  0  # atno 6907 bound_to 6896
  152.4591  133.7781  159.6846 H   0  0  0  0  0  0  0  0  0  0  0  0  # atno 6908 bound_to 6896
  150.8546  133.7670  159.3038 H   0  0  0  0  0  0  0  0  0  0  0  0  # atno 6909 bound_to 6896
  146.0681  139.5221  142.9615 H   0  0  0  0  0  0  0  0  0  0  0  0  # atno 7974 bound_to 7965
  156.2762  140.2765  156.1611 H   0  0  0  0  0  0  0  0  0  0  0  0  # atno 8008 bound_to 7997
  155.0752  140.0387  157.2639 H   0  0  0  0  0  0  0  0  0  0  0  0  # atno 8009 bound_to 7997
  154.7008  140.2648  155.6727 H   0  0  0  0  0  0  0  0  0  0  0  0  # atno 8010 bound_to 7997
  139.5174  144.3042  152.0351 H   0  0  0  0  0  0  0  0  0  0  0  0  # atno 10167 bound_to 10162
  157.4635  131.1075  150.9891 H   0  0  0  0  0  0  0  0  0  0  0  0  # atno 10718 bound_to 10713
  153.2805  135.4173  155.1074 H   0  0  0  0  0  0  0  0  0  0  0  0  # atno 10763 bound_to 10752
  154.8488  135.3494  154.6118 H   0  0  0  0  0  0  0  0  0  0  0  0  # atno 10764 bound_to 10752
  153.6539  135.7051  153.5257 H   0  0  0  0  0  0  0  0  0  0  0  0  # atno 10765 bound_to 10752
  141.0913  133.6632  156.3994 H   0  0  0  0  0  0  0  0  0  0  0  0  # atno 11005 bound_to 11000
  145.6440  141.0278  143.1796 LP  0  0  0  0  0  0  0  0  0  0  0  0  # atno 17320 bound_to 7965
  144.7215  139.8015  143.7380 LP  0  0  0  0  0  0  0  0  0  0  0  0  # atno 17321 bound_to 7965
  140.2488  144.4191  150.6230 LP  0  0  0  0  0  0  0  0  0  0  0  0  # atno 17342 bound_to 10162
  140.6239  143.2179  151.6637 LP  0  0  0  0  0  0  0  0  0  0  0  0  # atno 17343 bound_to 10162
  157.0680  130.5852  149.5397 LP  0  0  0  0  0  0  0  0  0  0  0  0  # atno 17370 bound_to 10713
  156.0039  130.5123  150.7762 LP  0  0  0  0  0  0  0  0  0  0  0  0  # atno 17371 bound_to 10713
  140.5244  134.6273  157.5329 LP  0  0  0  0  0  0  0  0  0  0  0  0  # atno 17394 bound_to 11000
  139.9740  134.7246  155.9986 LP  0  0  0  0  0  0  0  0  0  0  0  0  # atno 17395 bound_to 11000

$$$$
