#       Name:                AV-unprocessed.smi:3303
#       Creating user name   scv26
#       Creation time:       Fri Mar 27 19:02:43 2020


#       File generated by GOLD software.
#

@<TRIPOS>MOLECULE
AV-unprocessed.smi:3303
    46    47     1
SMALL
NO_CHARGES


@<TRIPOS>ATOM
      1 ****        -0.1617  -1.9465   1.6078 C.3            1 S1                 0.0000
      2 ****        -0.9307  -0.7806   0.9514 C.3            1 S1                 0.0000
      3 ****        -2.4544  -0.9593   1.1126 C.3            1 S1                 0.0000
      4 ****        -2.9732  -2.0482   0.2444 N.4            1 S1                 1.0000
      5 ****        -4.3829  -2.3928   0.5363 C.3            1 S1                 0.0000
      6 ****        -2.6801  -1.8482  -1.2042 C.3            1 S1                 0.0000
      7 ****        -3.4997  -0.7103  -1.8506 C.3            1 S1                 0.0000
      8 ****        -1.1633  -1.6719  -1.4191 C.3            1 S1                 0.0000
      9 ****        -0.5818  -0.5466  -0.5425 C.3            1 S1                 0.0000
     10 ****         0.8537  -0.4567  -0.7889 N.3            1 S1                 0.0000
     11 ****         1.4211   0.7869  -0.2874 C.3            1 S1                 0.0000
     12 ****         2.9139   0.8488  -0.6370 C.3            1 S1                 0.0000
     13 ****         3.5662   2.1173  -0.1211 C.ar           1 S1                 0.0000
     14 ****         4.3250   2.1040   1.0690 C.ar           1 S1                 0.0000
     15 ****         4.9013   3.3105   1.5107 C.ar           1 S1                 0.0000
     16 ****         4.6967   4.4781   0.7506 C.ar           1 S1                 0.0000
     17 ****         3.9216   4.3867  -0.4228 C.ar           1 S1                 0.0000
     18 ****         3.3640   3.2349  -0.8552 N.ar           1 S1                 0.0000
     19 ****        -0.3717  -2.9000   1.1242 H              1 S1                 0.0000
     20 ****        -0.4325  -2.0469   2.6590 H              1 S1                 0.0000
     21 ****         0.9162  -1.7868   1.5715 H              1 S1                 0.0000
     22 ****        -0.6670   0.1185   1.5083 H              1 S1                 0.0000
     23 ****        -2.6881  -1.1818   2.1547 H              1 S1                 0.0000
     24 ****        -2.9690  -0.0265   0.8809 H              1 S1                 0.0000
     25 ****        -5.0422  -1.5360   0.3946 H              1 S1                 0.0000
     26 ****        -4.4841  -2.7253   1.5697 H              1 S1                 0.0000
     27 ****        -4.7256  -3.2040  -0.1068 H              1 S1                 0.0000
     28 ****        -2.9650  -2.7697  -1.7139 H              1 S1                 0.0000
     29 ****        -3.2430  -0.6043  -2.9050 H              1 S1                 0.0000
     30 ****        -3.3198   0.2542  -1.3770 H              1 S1                 0.0000
     31 ****        -4.5707  -0.9078  -1.8073 H              1 S1                 0.0000
     32 ****        -0.6592  -2.6130  -1.1955 H              1 S1                 0.0000
     33 ****        -0.9609  -1.4709  -2.4721 H              1 S1                 0.0000
     34 ****        -1.0335   0.3924  -0.8656 H              1 S1                 0.0000
     35 ****         1.0252  -0.5120  -1.7831 H              1 S1                 0.0000
     36 ****         0.8988   1.6358  -0.7308 H              1 S1                 0.0000
     37 ****         1.2983   0.8516   0.7935 H              1 S1                 0.0000
     38 ****         3.4327  -0.0149  -0.2182 H              1 S1                 0.0000
     39 ****         3.0514   0.7953  -1.7182 H              1 S1                 0.0000
     40 ****         4.4615   1.1927   1.6326 H              1 S1                 0.0000
     41 ****         5.4884   3.3397   2.4167 H              1 S1                 0.0000
     42 ****         5.1229   5.4211   1.0592 H              1 S1                 0.0000
     43 ****         3.7435   5.2621  -1.0297 H              1 S1                 0.0000
     44 ****        -2.4431  -2.8675   0.5056 H              1 S1                 0.0000
     45 ****         1.2900  -1.2153  -0.3050 LP             1 S1                 0.0000
     46 ****         2.8182   3.2093  -1.6928 LP             1 S1                 0.0000
@<TRIPOS>BOND
    1    1    2 1     
    2    1   19 1     
    3    1   20 1     
    4    1   21 1     
    5    2    9 1     
    6    2    3 1     
    7    2   22 1     
    8    3    4 1     
    9    3   23 1     
   10    3   24 1     
   11    4    5 1     
   12    4    6 1     
   13    4   44 1     
   14    5   25 1     
   15    5   26 1     
   16    5   27 1     
   17    6    7 1     
   18    6    8 1     
   19    6   28 1     
   20    7   29 1     
   21    7   30 1     
   22    7   31 1     
   23    8    9 1     
   24    8   32 1     
   25    8   33 1     
   26    9   10 1     
   27    9   34 1     
   28   10   11 1     
   29   10   35 1     
   30   11   12 1     
   31   11   36 1     
   32   11   37 1     
   33   12   13 1     
   34   12   38 1     
   35   12   39 1     
   36   13   18 ar    
   37   13   14 ar    
   38   14   15 ar    
   39   14   40 1     
   40   15   16 ar    
   41   15   41 1     
   42   16   17 ar    
   43   16   42 1     
   44   17   18 ar    
   45   17   43 1     
   46   10   45 1     
   47   18   46 1     
@<TRIPOS>SUBSTRUCTURE
      1 S1             1
@<TRIPOS>SET
LONE_PAIRS      STATIC     ATOMS    <user>   **** ""
2 45 46
DONOR_HYDROGENS      STATIC     ATOMS    <user>   **** ""
2 44 35
ATOM$BLUE        STATIC     ATOMS    COLORGROUP SYSTEM
2 45 46
ATOM$RED        STATIC     ATOMS    COLORGROUP SYSTEM
2 44 35
