#       Name:                AV-unprocessed.smi:1506
#       Creating user name   scv26
#       Creation time:       Fri Mar 27 06:20:02 2020


#       File generated by GOLD software.
#

@<TRIPOS>MOLECULE
AV-unprocessed.smi:1506
    44    46     1
SMALL
NO_CHARGES


@<TRIPOS>ATOM
      1 ****        -5.2783   3.3824   1.4296 C.3            1 S1                 0.0000
      2 ****        -4.7425   1.9899   1.1669 C.ar           1 S1                 0.0000
      3 ****        -5.6262   0.9214   0.9175 C.ar           1 S1                 0.0000
      4 ****        -5.1178  -0.3679   0.6741 C.ar           1 S1                 0.0000
      5 ****        -3.7279  -0.5939   0.6767 C.ar           1 S1                 0.0000
      6 ****        -2.8283   0.4742   0.9225 C.ar           1 S1                 0.0000
      7 ****        -1.4561   0.3442   0.9394 O.3            1 S1                 0.0000
      8 ****        -0.8982  -0.9357   0.6723 C.3            1 S1                 0.0000
      9 ****         0.6334  -0.8285   0.6960 C.3            1 S1                 0.0000
     10 ****         1.1721  -2.1346   0.6395 O.3            1 S1                 0.0000
     11 ****         1.1806   0.0153  -0.4721 C.3            1 S1                 0.0000
     12 ****         2.6290   0.1177  -0.4549 N.pl3          1 S1                 0.0000
     13 ****         3.3705   0.9899   0.2544 C.2            1 S1                 0.0000
     14 ****         4.6920   0.9131   0.1246 N.2            1 S1                 0.0000
     15 ****         4.8244  -0.1300  -0.7759 C.ar           1 S1                 0.0000
     16 ****         5.9814  -0.7179  -1.3358 C.ar           1 S1                 0.0000
     17 ****         5.8692  -1.7883  -2.2476 C.ar           1 S1                 0.0000
     18 ****         4.6018  -2.2879  -2.6114 C.ar           1 S1                 0.0000
     19 ****         3.4348  -1.7188  -2.0664 C.ar           1 S1                 0.0000
     20 ****         3.5509  -0.6497  -1.1587 C.ar           1 S1                 0.0000
     21 ****        -3.3515   1.7609   1.1667 C.ar           1 S1                 0.0000
     22 ****        -6.3530   3.3658   1.6134 H              1 S1                 0.0000
     23 ****        -5.0872   4.0268   0.5711 H              1 S1                 0.0000
     24 ****        -4.7924   3.8194   2.3024 H              1 S1                 0.0000
     25 ****        -6.6940   1.0851   0.9112 H              1 S1                 0.0000
     26 ****        -5.7955  -1.1871   0.4842 H              1 S1                 0.0000
     27 ****        -3.3776  -1.5967   0.4863 H              1 S1                 0.0000
     28 ****        -1.2299  -1.6397   1.4377 H              1 S1                 0.0000
     29 ****        -1.2299  -1.3094  -0.2979 H              1 S1                 0.0000
     30 ****         0.9449  -0.3869   1.6435 H              1 S1                 0.0000
     31 ****         2.1143  -2.0711   0.6801 H              1 S1                 0.0000
     32 ****         0.8720  -0.4087  -1.4286 H              1 S1                 0.0000
     33 ****         0.7684   1.0244  -0.4340 H              1 S1                 0.0000
     34 ****         2.9134   1.7218   0.9043 H              1 S1                 0.0000
     35 ****         6.9574  -0.3447  -1.0634 H              1 S1                 0.0000
     36 ****         6.7604  -2.2290  -2.6700 H              1 S1                 0.0000
     37 ****         4.5263  -3.1087  -3.3098 H              1 S1                 0.0000
     38 ****         2.4624  -2.0996  -2.3414 H              1 S1                 0.0000
     39 ****        -2.6751   2.5819   1.3552 H              1 S1                 0.0000
     40 ****        -1.1435   0.6198   1.8484 LP             1 S1                 0.0000
     41 ****        -1.0902   0.9755   0.2555 LP             1 S1                 0.0000
     42 ****         0.9000  -2.5754  -0.2159 LP             1 S1                 0.0000
     43 ****         0.8363  -2.6721   1.4130 LP             1 S1                 0.0000
     44 ****         5.4028   1.4638   0.5622 LP             1 S1                 0.0000
@<TRIPOS>BOND
    1    1    2 1     
    2    1   22 1     
    3    1   23 1     
    4    1   24 1     
    5    2   21 ar    
    6    2    3 ar    
    7    3    4 ar    
    8    3   25 1     
    9    4    5 ar    
   10    4   26 1     
   11    5    6 ar    
   12    5   27 1     
   13    6    7 1     
   14    6   21 ar    
   15    7    8 1     
   16    8    9 1     
   17    8   28 1     
   18    8   29 1     
   19    9   10 1     
   20    9   11 1     
   21    9   30 1     
   22   10   31 1     
   23   11   12 1     
   24   11   32 1     
   25   11   33 1     
   26   12   20 1     
   27   12   13 1     
   28   13   14 2     
   29   13   34 1     
   30   14   15 1     
   31   15   20 ar    
   32   15   16 ar    
   33   16   17 ar    
   34   16   35 1     
   35   17   18 ar    
   36   17   36 1     
   37   18   19 ar    
   38   18   37 1     
   39   19   20 ar    
   40   19   38 1     
   41   21   39 1     
   42    7   40 1     
   43    7   41 1     
   44   10   42 1     
   45   10   43 1     
   46   14   44 1     
@<TRIPOS>SUBSTRUCTURE
      1 S1             1
@<TRIPOS>SET
LONE_PAIRS      STATIC     ATOMS    <user>   **** ""
5 40 41 42 43 44
DONOR_HYDROGENS      STATIC     ATOMS    <user>   **** ""
1 31
ATOM$BLUE        STATIC     ATOMS    COLORGROUP SYSTEM
5 40 41 42 43 44
ATOM$RED        STATIC     ATOMS    COLORGROUP SYSTEM
1 31
