#       Name:                AV-unprocessed.smi:1570
#       Creating user name   scv26
#       Creation time:       Fri Mar 27 06:52:00 2020


#       File generated by GOLD software.
#

@<TRIPOS>MOLECULE
AV-unprocessed.smi:1570
    58    60     1
SMALL
NO_CHARGES


@<TRIPOS>ATOM
      1 ****        -2.1020   4.2182  -4.1629 C.3            1 S1                 0.0000
      2 ****        -0.9454   4.4045  -3.1732 C.3            1 S1                 0.0000
      3 ****        -1.0376   3.4550  -2.0667 N.am           1 S1                 0.0000
      4 ****        -0.4722   2.2261  -2.0085 C.2            1 S1                 0.0000
      5 ****         0.2283   1.7099  -2.8792 O.2            1 S1                 0.0000
      6 ****        -0.8090   1.6640  -0.8238 N.am           1 S1                 0.0000
      7 ****        -0.4004   0.3474  -0.3376 C.3            1 S1                 0.0000
      8 ****         0.9651   0.4041   0.3829 C.3            1 S1                 0.0000
      9 ****         0.7786   0.5446   1.7774 O.3            1 S1                 0.0000
     10 ****         1.8994  -0.8015   0.1219 C.3            1 S1                 0.0000
     11 ****         1.6102  -2.0526   0.8346 N.3            1 S1                 0.0000
     12 ****         2.7485  -2.9610   0.7522 C.3            1 S1                 0.0000
     13 ****         2.5097  -4.2661   1.5315 C.3            1 S1                 0.0000
     14 ****         3.6743  -5.2502   1.3789 C.3            1 S1                 0.0000
     15 ****         1.3291  -4.8973   1.0412 O.3            1 S1                 0.0000
     16 ****         0.1572  -4.0817   1.0517 C.3            1 S1                 0.0000
     17 ****        -0.4024  -3.9058   2.4738 C.3            1 S1                 0.0000
     18 ****         0.4242  -2.7438   0.3326 C.3            1 S1                 0.0000
     19 ****        -1.6091   2.5603  -0.1010 C.ar           1 S1                 0.0000
     20 ****        -2.2005   2.4557   1.1701 C.ar           1 S1                 0.0000
     21 ****        -2.9667   3.5568   1.6193 C.ar           1 S1                 0.0000
     22 ****        -3.1232   4.7121   0.8103 C.ar           1 S1                 0.0000
     23 ****        -2.5146   4.7922  -0.4642 C.ar           1 S1                 0.0000
     24 ****        -1.7570   3.6854  -0.8853 C.ar           1 S1                 0.0000
     25 ****        -2.0266   4.9309  -4.9841 H              1 S1                 0.0000
     26 ****        -3.0661   4.3713  -3.6773 H              1 S1                 0.0000
     27 ****        -2.0969   3.2155  -4.5916 H              1 S1                 0.0000
     28 ****         0.0072   4.2804  -3.6905 H              1 S1                 0.0000
     29 ****        -0.9461   5.4230  -2.7842 H              1 S1                 0.0000
     30 ****        -1.1771  -0.0681   0.3046 H              1 S1                 0.0000
     31 ****        -0.3379  -0.3209  -1.1980 H              1 S1                 0.0000
     32 ****         1.5023   1.2901   0.0410 H              1 S1                 0.0000
     33 ****         0.4161  -0.2623   2.1106 H              1 S1                 0.0000
     34 ****         1.9673  -0.9905  -0.9505 H              1 S1                 0.0000
     35 ****         2.8979  -0.4737   0.4155 H              1 S1                 0.0000
     36 ****         2.9599  -3.1929  -0.2930 H              1 S1                 0.0000
     37 ****         3.6394  -2.4717   1.1480 H              1 S1                 0.0000
     38 ****         2.3886  -4.0412   2.5916 H              1 S1                 0.0000
     39 ****         4.6040  -4.8189   1.7509 H              1 S1                 0.0000
     40 ****         3.8259  -5.5236   0.3343 H              1 S1                 0.0000
     41 ****         3.4852  -6.1660   1.9395 H              1 S1                 0.0000
     42 ****        -0.5965  -4.6234   0.4796 H              1 S1                 0.0000
     43 ****        -1.3543  -3.3750   2.4530 H              1 S1                 0.0000
     44 ****         0.2724  -3.3366   3.1127 H              1 S1                 0.0000
     45 ****        -0.5742  -4.8731   2.9462 H              1 S1                 0.0000
     46 ****        -0.4594  -2.1210   0.4430 H              1 S1                 0.0000
     47 ****         0.5404  -2.9328  -0.7357 H              1 S1                 0.0000
     48 ****        -2.0770   1.5748   1.7824 H              1 S1                 0.0000
     49 ****        -3.4383   3.5174   2.5902 H              1 S1                 0.0000
     50 ****        -3.7133   5.5411   1.1721 H              1 S1                 0.0000
     51 ****        -2.6297   5.6690  -1.0839 H              1 S1                 0.0000
     52 ****         0.4240   2.2080  -3.7240 LP             1 S1                 0.0000
     53 ****         0.6018   0.7925  -2.7418 LP             1 S1                 0.0000
     54 ****         0.1486   1.2994   1.9600 LP             1 S1                 0.0000
     55 ****         1.6566   0.7290   2.2192 LP             1 S1                 0.0000
     56 ****         1.4325  -1.7913   1.7833 LP             1 S1                 0.0000
     57 ****         1.1510  -5.7028   1.6063 LP             1 S1                 0.0000
     58 ****         1.4994  -5.1828   0.0980 LP             1 S1                 0.0000
@<TRIPOS>BOND
    1    1    2 1     
    2    1   25 1     
    3    1   26 1     
    4    1   27 1     
    5    2    3 1     
    6    2   28 1     
    7    2   29 1     
    8    3   24 1     
    9    3    4 am    
   10    4    5 2     
   11    4    6 am    
   12    6    7 1     
   13    6   19 1     
   14    7    8 1     
   15    7   30 1     
   16    7   31 1     
   17    8    9 1     
   18    8   10 1     
   19    8   32 1     
   20    9   33 1     
   21   10   11 1     
   22   10   34 1     
   23   10   35 1     
   24   11   18 1     
   25   11   12 1     
   26   12   13 1     
   27   12   36 1     
   28   12   37 1     
   29   13   14 1     
   30   13   15 1     
   31   13   38 1     
   32   14   39 1     
   33   14   40 1     
   34   14   41 1     
   35   15   16 1     
   36   16   17 1     
   37   16   18 1     
   38   16   42 1     
   39   17   43 1     
   40   17   44 1     
   41   17   45 1     
   42   18   46 1     
   43   18   47 1     
   44   19   24 ar    
   45   19   20 ar    
   46   20   21 ar    
   47   20   48 1     
   48   21   22 ar    
   49   21   49 1     
   50   22   23 ar    
   51   22   50 1     
   52   23   24 ar    
   53   23   51 1     
   54    5   52 1     
   55    5   53 1     
   56    9   54 1     
   57    9   55 1     
   58   11   56 1     
   59   15   57 1     
   60   15   58 1     
@<TRIPOS>SUBSTRUCTURE
      1 S1             1
@<TRIPOS>SET
LONE_PAIRS      STATIC     ATOMS    <user>   **** ""
7 52 53 54 55 56 57 58
DONOR_HYDROGENS      STATIC     ATOMS    <user>   **** ""
1 33
ATOM$BLUE        STATIC     ATOMS    COLORGROUP SYSTEM
7 52 53 54 55 56 57 58
ATOM$RED        STATIC     ATOMS    COLORGROUP SYSTEM
1 33
