AV-unprocessed.smi:3300|AV-procd|sdf|12651|dock3
  -GOLD-   2272018583D 1   1.00000     0.00000
 Structure written by MMmdl.
 36 37  0  0  0  0  0  0  0  0  1 V2000
  143.8426  132.7979  148.6282 C   0  0  0  0  0  0  0  0  0  0  0  0
  143.5047  132.2622  150.0243 C   0  0  0  0  0  0  0  0  0  0  0  0
  144.5991  132.5553  151.0336 C   0  0  0  0  0  0  0  0  0  0  0  0
  145.7107  131.7892  150.9635 N   0  0  0  0  0  0  0  0  0  0  0  0
  146.6775  132.0495  151.8465 C   0  0  0  0  0  0  0  0  0  0  0  0
  146.6627  132.9916  152.7924 N   0  0  0  0  0  0  0  0  0  0  0  0
  145.5613  133.7788  152.8687 C   0  0  0  0  0  0  0  0  0  0  0  0
  145.4961  134.7729  153.8633 N   0  0  0  0  0  0  0  0  0  0  0  0
  145.8007  134.1779  155.1606 C   0  0  0  0  0  0  0  0  0  0  0  0
  145.5911  135.1966  156.2875 C   0  0  0  0  0  0  0  0  0  0  0  0
  146.3961  136.3374  156.0280 O   0  0  0  0  0  0  0  0  0  0  0  0
  146.0170  136.9824  154.8184 C   0  0  0  0  0  0  0  0  0  0  0  0
  146.2019  136.0374  153.6055 C   0  0  2  0  0  0  0  0  0  0  0  0
  145.7145  136.7210  152.3008 C   0  0  0  0  0  0  0  0  0  0  0  0
  146.1922  138.1732  152.1396 C   0  0  0  0  0  0  0  0  0  0  0  0
  147.4080  138.1996  151.4232 O   0  0  0  0  0  0  0  0  0  0  0  0
  144.4711  133.5861  151.9899 C   0  0  0  0  0  0  0  0  0  0  0  0
  143.3597  134.3595  152.0572 F   0  0  0  0  0  0  0  0  0  0  0  0
  143.0418  132.5757  147.9227 H   0  0  0  0  0  0  0  0  0  0  0  0
  144.7587  132.3486  148.2440 H   0  0  0  0  0  0  0  0  0  0  0  0
  143.9814  133.8793  148.6461 H   0  0  0  0  0  0  0  0  0  0  0  0
  142.5642  132.6934  150.3685 H   0  0  0  0  0  0  0  0  0  0  0  0
  143.3452  131.1843  149.9764 H   0  0  0  0  0  0  0  0  0  0  0  0
  147.5625  131.4330  151.7914 H   0  0  0  0  0  0  0  0  0  0  0  0
  145.1671  133.3070  155.3352 H   0  0  0  0  0  0  0  0  0  0  0  0
  146.8345  133.8287  155.1645 H   0  0  0  0  0  0  0  0  0  0  0  0
  144.5409  135.4813  156.3715 H   0  0  0  0  0  0  0  0  0  0  0  0
  145.8838  134.7646  157.2446 H   0  0  0  0  0  0  0  0  0  0  0  0
  144.9840  137.3268  154.8927 H   0  0  0  0  0  0  0  0  0  0  0  0
  146.6391  137.8706  154.7142 H   0  0  0  0  0  0  0  0  0  0  0  0
  147.2657  135.8143  153.5105 H   0  0  0  0  0  0  0  0  0  0  0  0
  146.0649  136.1679  151.4295 H   0  0  0  0  0  0  0  0  0  0  0  0
  144.6250  136.6850  152.2558 H   0  0  0  0  0  0  0  0  0  0  0  0
  145.4635  138.7769  151.5995 H   0  0  0  0  0  0  0  0  0  0  0  0
  146.3468  138.6367  153.1145 H   0  0  0  0  0  0  0  0  0  0  0  0
  148.0342  137.6520  151.8717 H   0  0  0  0  0  0  0  0  0  0  0  0
  1  2  1  0  0  0  0
  1 19  1  0  0  0  0
  1 20  1  0  0  0  0
  1 21  1  0  0  0  0
  2  3  1  0  0  0  0
  2 22  1  0  0  0  0
  2 23  1  0  0  0  0
  3 17  1  0  0  0  0
  3  4  2  0  0  0  0
  4  5  1  0  0  0  0
  5  6  2  0  0  0  0
  5 24  1  0  0  0  0
  6  7  1  0  0  0  0
  7  8  1  0  0  0  0
  7 17  2  0  0  0  0
  8 13  1  0  0  0  0
  8  9  1  0  0  0  0
  9 10  1  0  0  0  0
  9 25  1  0  0  0  0
  9 26  1  0  0  0  0
 10 11  1  0  0  0  0
 10 27  1  0  0  0  0
 10 28  1  0  0  0  0
 11 12  1  0  0  0  0
 12 13  1  0  0  0  0
 12 29  1  0  0  0  0
 12 30  1  0  0  0  0
 13 14  1  0  0  0  0
 13 31  1  0  0  0  0
 14 15  1  0  0  0  0
 14 32  1  0  0  0  0
 14 33  1  0  0  0  0
 15 16  1  0  0  0  0
 15 34  1  0  0  0  0
 15 35  1  0  0  0  0
 16 36  1  0  0  0  0
 17 18  1  0  0  0  0
M  END
> <s_m_source_file>
AV-unprocessed.smi

> <i_m_source_file_index>
3300

> <i_lp_mmshare_version>
43012

> <i_f3d_flags>
0

> <s_epik_input>
W0NIM11bQ0gyXWMxbltjSF1uYyhjMUYpTjJbQ0gyXVtDSDJdT1tDSDJdW0NASF0yW0NIMl1bQ0gyXVtPSF0=

> <s_epik_cmdline>
J2VwaWtfcHl0aG9uJywgJy1waCcsICc3LjAnLCAnLXRuJywgJzgnLCAnLW1hJywgJzIwMCcsICctbWV0YWxfYmluZGluZycsICctaW1hZScsICc8aW5maWxlLm1hZT4nLCAnLW9tYWUnLCAnPG91dGZpbGUubWFlPic=

> <r_lp_tautomer_probability>
1

> <r_epik_Ionization_Penalty>
2.51351e-05

> <r_epik_Ionization_Penalty_Charging>
0

> <r_epik_Ionization_Penalty_Neutral>
2.51351e-05

> <r_epik_State_Penalty>
-0

> <r_epik_Charging_Adjusted_Penalty>
0

> <i_epik_Tot_Q>
0

> <i_epik_Tot_abs_Q>
0

> <r_epik_Metal_State_Penalty>
-0

> <b_epik_Metal_Only>
0

> <s_lp_Force_Field>
OPLS_2005

> <r_lp_Energy>
16.3992

> <b_lp_Chiralities_Consistent>
1

> <s_lp_Variant>
AV-unprocessed.smi:3300-2

> <Gold.Version>
5.8.1

> <Gold.Id.Protein>
6NUR|6NUR_protein|mol2

> <Gold.PLP.Fitness>
31.6873

> <Gold.PLP.PLP>
-25.4465

> <Gold.PLP.part.hbond>
-2.7367

> <Gold.PLP.part.metal>
0.0000

> <Gold.PLP.part.buried>
-3.6862

> <Gold.PLP.part.nonpolar>
-20.9950

> <Gold.PLP.part.repulsive>
0.2989

> <Gold.PLP.ligand.clash>
0.0000

> <Gold.PLP.ligand.torsion>
0.8465

> <Gold.PLP.Chemscore.Hbond>
1.5960

> <Gold.PLP.Chemscore.CHOScore>
1.0000

> <Gold.PLP.Chemscore.Metal>
0.0000

> <Gold.Chemscore.Hbonds>
donor molecule, donor type, donor heavy atom, donor atom, acceptor molecule, acceptor atom, score
      L1  H    16    36       P1  7948  0.93
      P1  H  7954  7966       L1    16  0.55
      L1  C     5    24       P1 10747  1.00

> <Gold.PLP.Chemscore.Internal.Correction>
0.1458

> <Gold.Rescore>
     Score         DG    S(hbond)    S(metal)    S(lipo)     H(rot)  DE(clash)    DE(int)     intcor
      8.35      -9.32       1.00        0.00      55.69       2.35       0.01       0.96       ----

> <Gold.Chemscore.Fitness>
8.3539

> <Gold.Chemscore.DG>
-9.3215

> <Gold.Chemscore.ZeroCoef>
-5.4800

> <Gold.Chemscore.Hbond>
0.9974

> <Gold.Chemscore.Metal>
0.0000

> <Gold.Chemscore.Lipo>
55.6855

> <Gold.Chemscore.Internal_Hbond>
0.0000

> <Gold.Chemscore.DEClash>
0.0077

> <Gold.Chemscore.DEInternal>
0.9599

> <Gold.Chemscore.Rot>
2.3458

> <Gold.Chemscore.Internal.Correction>
   9.000000E+99

> <Gold.Chemscore.Hbonds>
donor molecule, donor type, donor heavy atom, donor atom, acceptor molecule, acceptor atom, score
      L1  H    16    36       P1  7948  0.89
      P1  H  7954  7966       L1    16  0.03

> <Gold.Chemscore.Hbond.Weighted>
-3.3314

> <Gold.Chemscore.Metal.Weighted>
-0.0000

> <Gold.Chemscore.Lipo.Weighted>
-6.5152

> <Gold.Chemscore.Internal_Hbond.Weighted>
0.0000

> <Gold.Chemscore.DEClash.Weighted>
0.0077

> <Gold.Chemscore.DEInternal.Weighted>
0.9599

> <Gold.Chemscore.Rot.Weighted>
6.0051

> <Gold.Chemscore.Internal.Correction.Weighted>
   9.000000E+99

> <Gold.Protein.RotatedTorsions>
[ 6907 6896 6895 6894 ] final  -44.39 input  -60.11 | X-H torsion
[ 7974 7965 7964 7962 ] final -148.68 input  175.53 | X-H torsion
[ 8008 7997 7996 7995 ] final -130.81 input   59.86 | X-H torsion
[ 10167 10162 10161 10158 ] final  -83.35 input  -65.29 | X-H torsion
[ 10718 10713 10712 10709 ] final -173.93 input   66.30 | X-H torsion
[ 10763 10752 10751 10750 ] final   -3.96 input  -60.55 | X-H torsion
[ 11005 11000 10999 10996 ] final  104.94 input  -57.11 | X-H torsion

> <Gold.Protein.ActiveResidues>
 VAL166  LYS551  ARG553  GLY616  TRP617  ASP618  TYR619  PRO620  LYS621  CYS622 
 ASP623  PHE694  ASN695  SER759  ASP760  ASP761  ALA762  ILE779  LEU786  VAL792 
 PHE793  MET794  SER795  GLU796  ALA797  LYS798  CYS799  TRP800  GLU811  SER814 

> <Gold.Protein.RotatedAtoms>
  150.9334  134.8747  159.7565 H   0  0  0  0  0  0  0  0  0  0  0  0  # atno 6907 bound_to 6896
  152.5048  134.4046  159.9438 H   0  0  0  0  0  0  0  0  0  0  0  0  # atno 6908 bound_to 6896
  151.4072  133.3699  159.2774 H   0  0  0  0  0  0  0  0  0  0  0  0  # atno 6909 bound_to 6896
  144.8014  140.5165  143.5704 H   0  0  0  0  0  0  0  0  0  0  0  0  # atno 7974 bound_to 7965
  155.3019  140.0453  157.3030 H   0  0  0  0  0  0  0  0  0  0  0  0  # atno 8008 bound_to 7997
  154.5482  140.2309  155.8495 H   0  0  0  0  0  0  0  0  0  0  0  0  # atno 8009 bound_to 7997
  156.1943  140.3042  155.9402 H   0  0  0  0  0  0  0  0  0  0  0  0  # atno 8010 bound_to 7997
  140.4234  143.2575  151.8858 H   0  0  0  0  0  0  0  0  0  0  0  0  # atno 10167 bound_to 10162
  156.7776  130.9471  151.3120 H   0  0  0  0  0  0  0  0  0  0  0  0  # atno 10718 bound_to 10713
  153.3783  135.6997  153.6584 H   0  0  0  0  0  0  0  0  0  0  0  0  # atno 10763 bound_to 10752
  153.5206  135.3613  155.2630 H   0  0  0  0  0  0  0  0  0  0  0  0  # atno 10764 bound_to 10752
  154.8689  135.4157  154.3076 H   0  0  0  0  0  0  0  0  0  0  0  0  # atno 10765 bound_to 10752
  139.8797  134.9318  156.5437 H   0  0  0  0  0  0  0  0  0  0  0  0  # atno 11005 bound_to 11000
  145.5543  139.1477  143.3377 LP  0  0  0  0  0  0  0  0  0  0  0  0  # atno 17320 bound_to 7965
  146.2297  140.5680  142.8981 LP  0  0  0  0  0  0  0  0  0  0  0  0  # atno 17321 bound_to 7965
  139.4783  144.5412  151.8525 LP  0  0  0  0  0  0  0  0  0  0  0  0  # atno 17342 bound_to 10162
  140.4508  144.1858  150.5897 LP  0  0  0  0  0  0  0  0  0  0  0  0  # atno 17343 bound_to 10162
  157.6662  130.9009  149.9937 LP  0  0  0  0  0  0  0  0  0  0  0  0  # atno 17370 bound_to 10713
  156.1238  130.3645  149.9843 LP  0  0  0  0  0  0  0  0  0  0  0  0  # atno 17371 bound_to 10713
  140.8291  133.8293  155.8967 LP  0  0  0  0  0  0  0  0  0  0  0  0  # atno 17394 bound_to 11000
  140.9346  134.1979  157.4840 LP  0  0  0  0  0  0  0  0  0  0  0  0  # atno 17395 bound_to 11000

$$$$
