AV-unprocessed.smi:869|AV-procd|sdf|4004|dock9
  -GOLD-   22720 1493D 1   1.00000     0.00000
 Structure written by MMmdl.
 46 48  0  0  0  0  0  0  0  0  1 V2000
  152.3188  138.7074  154.7903 C   0  0  0  0  0  0  0  0  0  0  0  0
  152.4816  139.7067  155.7809 O   0  0  0  0  0  0  0  0  0  0  0  0
  151.2417  140.2169  156.2455 C   0  0  0  0  0  0  0  0  0  0  0  0
  151.5342  141.1353  157.3978 C   0  0  0  0  0  0  0  0  0  0  0  0
  151.3198  142.4506  157.3195 N   0  0  0  0  0  0  0  0  0  0  0  0
  151.7101  142.9012  158.5645 C   0  0  0  0  0  0  0  0  0  0  0  0
  151.7174  144.2053  159.1090 C   0  0  0  0  0  0  0  0  0  0  0  0
  152.1683  144.4259  160.4269 C   0  0  0  0  0  0  0  0  0  0  0  0
  152.6179  143.3481  161.2171 C   0  0  0  0  0  0  0  0  0  0  0  0
  152.6200  142.0412  160.6929 C   0  0  0  0  0  0  0  0  0  0  0  0
  152.1685  141.8267  159.3767 C   0  0  0  0  0  0  0  0  0  0  0  0
  152.0456  140.6946  158.5771 N   0  0  0  0  0  0  0  0  0  0  0  0
  152.4046  139.3382  158.9700 C   0  0  0  0  0  0  0  0  0  0  0  0
  153.9213  139.0752  158.8646 C   0  0  1  0  0  0  0  0  0  0  0  0
  154.6817  140.1152  159.4467 O   0  0  0  0  0  0  0  0  0  0  0  0
  154.3588  137.7324  159.4718 C   0  0  0  0  0  0  0  0  0  0  0  0
  153.6097  137.4689  160.6521 O   0  0  0  0  0  0  0  0  0  0  0  0
  154.1898  137.7457  161.8713 C   0  0  0  0  0  0  0  0  0  0  0  0
  153.7885  136.9515  162.9650 C   0  0  0  0  0  0  0  0  0  0  0  0
  154.3291  137.1638  164.2477 C   0  0  0  0  0  0  0  0  0  0  0  0
  155.2837  138.1787  164.4532 C   0  0  0  0  0  0  0  0  0  0  0  0
  155.8601  138.4060  165.8354 C   0  0  0  0  0  0  0  0  0  0  0  0
  155.6920  138.9794  163.3677 C   0  0  0  0  0  0  0  0  0  0  0  0
  155.1507  138.7661  162.0847 C   0  0  0  0  0  0  0  0  0  0  0  0
  153.2969  138.3575  154.4601 H   0  0  0  0  0  0  0  0  0  0  0  0
  151.7890  139.0960  153.9194 H   0  0  0  0  0  0  0  0  0  0  0  0
  151.7689  137.8507  155.1822 H   0  0  0  0  0  0  0  0  0  0  0  0
  150.7407  140.7425  155.4336 H   0  0  0  0  0  0  0  0  0  0  0  0
  150.5911  139.4105  156.5871 H   0  0  0  0  0  0  0  0  0  0  0  0
  151.3743  145.0368  158.5114 H   0  0  0  0  0  0  0  0  0  0  0  0
  152.1686  145.4268  160.8334 H   0  0  0  0  0  0  0  0  0  0  0  0
  152.9610  143.5254  162.2259 H   0  0  0  0  0  0  0  0  0  0  0  0
  152.9636  141.2133  161.2954 H   0  0  0  0  0  0  0  0  0  0  0  0
  152.0318  139.1393  159.9742 H   0  0  0  0  0  0  0  0  0  0  0  0
  151.8698  138.6462  158.3184 H   0  0  0  0  0  0  0  0  0  0  0  0
  154.1943  139.0631  157.8086 H   0  0  0  0  0  0  0  0  0  0  0  0
  154.1528  140.5406  160.1042 H   0  0  0  0  0  0  0  0  0  0  0  0
  154.1682  136.9405  158.7455 H   0  0  0  0  0  0  0  0  0  0  0  0
  155.4304  137.7422  159.6792 H   0  0  0  0  0  0  0  0  0  0  0  0
  153.0571  136.1701  162.8192 H   0  0  0  0  0  0  0  0  0  0  0  0
  154.0085  136.5454  165.0734 H   0  0  0  0  0  0  0  0  0  0  0  0
  156.7132  139.0843  165.8035 H   0  0  0  0  0  0  0  0  0  0  0  0
  156.1938  137.4626  166.2685 H   0  0  0  0  0  0  0  0  0  0  0  0
  155.1040  138.8375  166.4917 H   0  0  0  0  0  0  0  0  0  0  0  0
  156.4221  139.7620  163.5138 H   0  0  0  0  0  0  0  0  0  0  0  0
  155.4895  139.4010  161.2802 H   0  0  0  0  0  0  0  0  0  0  0  0
  1  2  1  0  0  0  0
  1 25  1  0  0  0  0
  1 26  1  0  0  0  0
  1 27  1  0  0  0  0
  2  3  1  0  0  0  0
  3  4  1  0  0  0  0
  3 28  1  0  0  0  0
  3 29  1  0  0  0  0
  4 12  1  0  0  0  0
  4  5  2  0  0  0  0
  5  6  1  0  0  0  0
  6 11  2  0  0  0  0
  6  7  1  0  0  0  0
  7  8  2  0  0  0  0
  7 30  1  0  0  0  0
  8  9  1  0  0  0  0
  8 31  1  0  0  0  0
  9 10  2  0  0  0  0
  9 32  1  0  0  0  0
 10 11  1  0  0  0  0
 10 33  1  0  0  0  0
 11 12  1  0  0  0  0
 12 13  1  0  0  0  0
 13 14  1  0  0  0  0
 13 34  1  0  0  0  0
 13 35  1  0  0  0  0
 14 15  1  0  0  0  0
 14 16  1  0  0  0  0
 14 36  1  0  0  0  0
 15 37  1  0  0  0  0
 16 17  1  0  0  0  0
 16 38  1  0  0  0  0
 16 39  1  0  0  0  0
 17 18  1  0  0  0  0
 18 24  1  0  0  0  0
 18 19  2  0  0  0  0
 19 20  1  0  0  0  0
 19 40  1  0  0  0  0
 20 21  2  0  0  0  0
 20 41  1  0  0  0  0
 21 22  1  0  0  0  0
 21 23  1  0  0  0  0
 22 42  1  0  0  0  0
 22 43  1  0  0  0  0
 22 44  1  0  0  0  0
 23 24  2  0  0  0  0
 23 45  1  0  0  0  0
 24 46  1  0  0  0  0
M  END
> <s_m_source_file>
AV-unprocessed.smi

> <i_m_source_file_index>
869

> <i_lp_mmshare_version>
43012

> <i_f3d_flags>
0

> <s_epik_input>
W2NIXTFbY0hdW2NIXVtjSF1jKGMxMiluKGMobjIpW0NIMl1PW0NIM10pW0NIMl1bQ0BIXShbT0hdKVtDSDJdT2MzW2NIXVtjSF1jKFtDSDNdKVtjSF1bY0hdMw==

> <s_epik_cmdline>
J2VwaWtfcHl0aG9uJywgJy1waCcsICc3LjAnLCAnLXRuJywgJzgnLCAnLW1hJywgJzIwMCcsICctbWV0YWxfYmluZGluZycsICctaW1hZScsICc8aW5maWxlLm1hZT4nLCAnLW9tYWUnLCAnPG91dGZpbGUubWFlPic=

> <r_lp_tautomer_probability>
1

> <r_epik_Ionization_Penalty>
0.0446698

> <r_epik_Ionization_Penalty_Charging>
0

> <r_epik_Ionization_Penalty_Neutral>
0.0446698

> <r_epik_State_Penalty>
0.0378721

> <r_epik_Charging_Adjusted_Penalty>
0.0378721

> <i_epik_Tot_Q>
0

> <i_epik_Tot_abs_Q>
0

> <r_epik_Metal_State_Penalty>
3.91074e-05

> <b_epik_Metal_Only>
0

> <s_lp_Force_Field>
OPLS_2005

> <r_lp_Energy>
18.5204

> <b_lp_Chiralities_Consistent>
1

> <s_lp_Variant>
AV-unprocessed.smi:869-2

> <Gold.Version>
5.8.1

> <Gold.Id.Protein>
6NUR|6NUR_protein|mol2

> <Gold.PLP.Fitness>
51.9685

> <Gold.PLP.PLP>
-51.5557

> <Gold.PLP.part.hbond>
-1.8633

> <Gold.PLP.part.metal>
0.0000

> <Gold.PLP.part.buried>
-5.7627

> <Gold.PLP.part.nonpolar>
-43.9327

> <Gold.PLP.part.repulsive>
0.0709

> <Gold.PLP.ligand.clash>
0.0051

> <Gold.PLP.ligand.torsion>
1.3220

> <Gold.PLP.Chemscore.Hbond>
1.0000

> <Gold.PLP.Chemscore.CHOScore>
0.0000

> <Gold.PLP.Chemscore.Metal>
0.0000

> <Gold.Chemscore.Hbonds>
donor molecule, donor type, donor heavy atom, donor atom, acceptor molecule, acceptor atom, score
      P1  H  7997  8010       L1     2  1.00

> <Gold.PLP.Chemscore.Internal.Correction>
0.0620

> <Gold.Rescore>
     Score         DG    S(hbond)    S(metal)    S(lipo)     H(rot)  DE(clash)    DE(int)     intcor
     17.90     -19.44       0.98        0.00     143.01       2.36       0.13       1.40       ----

> <Gold.Chemscore.Fitness>
17.9033

> <Gold.Chemscore.DG>
-19.4383

> <Gold.Chemscore.ZeroCoef>
-5.4800

> <Gold.Chemscore.Hbond>
0.9771

> <Gold.Chemscore.Metal>
0.0000

> <Gold.Chemscore.Lipo>
143.0132

> <Gold.Chemscore.Internal_Hbond>
0.0000

> <Gold.Chemscore.DEClash>
0.1310

> <Gold.Chemscore.DEInternal>
1.4040

> <Gold.Chemscore.Rot>
2.3585

> <Gold.Chemscore.Internal.Correction>
   9.000000E+99

> <Gold.Chemscore.Hbonds>
donor molecule, donor type, donor heavy atom, donor atom, acceptor molecule, acceptor atom, score
      P1  H  7997  8010       L1     2  0.80

> <Gold.Chemscore.Hbond.Weighted>
-3.2636

> <Gold.Chemscore.Metal.Weighted>
-0.0000

> <Gold.Chemscore.Lipo.Weighted>
-16.7325

> <Gold.Chemscore.Internal_Hbond.Weighted>
0.0000

> <Gold.Chemscore.DEClash.Weighted>
0.1310

> <Gold.Chemscore.DEInternal.Weighted>
1.4040

> <Gold.Chemscore.Rot.Weighted>
6.0378

> <Gold.Chemscore.Internal.Correction.Weighted>
   9.000000E+99

> <Gold.Protein.RotatedTorsions>
[ 6907 6896 6895 6894 ] final  -51.28 input  -60.11 | X-H torsion
[ 7974 7965 7964 7962 ] final  115.98 input  175.53 | X-H torsion
[ 8008 7997 7996 7995 ] final   95.55 input   59.86 | X-H torsion
[ 10167 10162 10161 10158 ] final  127.08 input  -65.29 | X-H torsion
[ 10718 10713 10712 10709 ] final   24.12 input   66.30 | X-H torsion
[ 10763 10752 10751 10750 ] final -101.90 input  -60.55 | X-H torsion
[ 11005 11000 10999 10996 ] final  -84.06 input  -57.11 | X-H torsion

> <Gold.Protein.ActiveResidues>
 VAL166  LYS551  ARG553  GLY616  TRP617  ASP618  TYR619  PRO620  LYS621  CYS622 
 ASP623  PHE694  ASN695  SER759  ASP760  ASP761  ALA762  ILE779  LEU786  VAL792 
 PHE793  MET794  SER795  GLU796  ALA797  LYS798  CYS799  TRP800  GLU811  SER814 

> <Gold.Protein.RotatedAtoms>
  150.8626  134.7982  159.7094 H   0  0  0  0  0  0  0  0  0  0  0  0  # atno 6907 bound_to 6896
  152.4658  134.5075  159.9753 H   0  0  0  0  0  0  0  0  0  0  0  0  # atno 6908 bound_to 6896
  151.5176  133.3434  159.2931 H   0  0  0  0  0  0  0  0  0  0  0  0  # atno 6909 bound_to 6896
  145.1853  139.3028  143.4397 H   0  0  0  0  0  0  0  0  0  0  0  0  # atno 7974 bound_to 7965
  156.0701  140.3285  155.7565 H   0  0  0  0  0  0  0  0  0  0  0  0  # atno 8008 bound_to 7997
  155.5319  140.0594  157.2904 H   0  0  0  0  0  0  0  0  0  0  0  0  # atno 8009 bound_to 7997
  154.4525  140.1926  156.0493 H   0  0  0  0  0  0  0  0  0  0  0  0  # atno 8010 bound_to 7997
  139.5597  144.6873  151.4078 H   0  0  0  0  0  0  0  0  0  0  0  0  # atno 10167 bound_to 10162
  157.1755  130.6779  149.6093 H   0  0  0  0  0  0  0  0  0  0  0  0  # atno 10718 bound_to 10713
  154.7693  135.4881  153.9616 H   0  0  0  0  0  0  0  0  0  0  0  0  # atno 10763 bound_to 10752
  153.1347  135.6760  153.9129 H   0  0  0  0  0  0  0  0  0  0  0  0  # atno 10764 bound_to 10752
  153.8822  135.3131  155.3424 H   0  0  0  0  0  0  0  0  0  0  0  0  # atno 10765 bound_to 10752
  141.1653  133.7326  156.8812 H   0  0  0  0  0  0  0  0  0  0  0  0  # atno 11005 bound_to 11000
  146.3446  140.2046  142.8589 LP  0  0  0  0  0  0  0  0  0  0  0  0  # atno 17320 bound_to 7965
  145.0095  140.8702  143.5232 LP  0  0  0  0  0  0  0  0  0  0  0  0  # atno 17321 bound_to 7965
  140.6875  143.7939  150.7207 LP  0  0  0  0  0  0  0  0  0  0  0  0  # atno 17342 bound_to 10162
  140.1411  143.4440  152.2193 LP  0  0  0  0  0  0  0  0  0  0  0  0  # atno 17343 bound_to 10162
  155.9732  130.4664  150.6290 LP  0  0  0  0  0  0  0  0  0  0  0  0  # atno 17370 bound_to 10713
  157.4003  131.0809  151.1315 LP  0  0  0  0  0  0  0  0  0  0  0  0  # atno 17371 bound_to 10713
  140.1713  134.9098  157.2837 LP  0  0  0  0  0  0  0  0  0  0  0  0  # atno 17394 bound_to 11000
  140.2498  134.3696  155.7446 LP  0  0  0  0  0  0  0  0  0  0  0  0  # atno 17395 bound_to 11000

$$$$
