AV-unprocessed.smi:1643|AV-procd|sdf|6578|dock4
  -GOLD-   22720 7263D 1   1.00000     0.00000
 Structure written by MMmdl.
 55 57  0  0  0  0  0  0  0  0  3 V2000
  150.0564  141.6058  156.2220 C   0  0  0  0  0  0  0  0  0  0  0  0
  149.7754  140.3672  155.3669 C   0  0  0  0  0  0  0  0  0  0  0  0
  150.3457  139.3179  155.6646 O   0  0  0  0  0  0  0  0  0  0  0  0
  148.9093  140.4598  154.3275 N   0  0  0  0  0  0  0  0  0  0  0  0
  148.3209  141.7491  153.9355 C   0  0  0  0  0  0  0  0  0  0  0  0
  146.8773  141.9217  154.4608 C   0  0  0  0  0  0  0  0  0  0  0  0
  146.1967  140.6404  154.9945 C   0  0  0  0  0  0  0  0  0  0  0  0
  145.9755  139.5663  153.9817 N   0  3  2  0  0  0  0  0  0  0  0  0
  145.5920  138.2663  154.5972 C   0  0  0  0  0  0  0  0  0  0  0  0
  144.8157  137.3381  153.6396 C   0  0  2  0  0  0  0  0  0  0  0  0
  143.4811  137.7996  153.5924 O   0  0  0  0  0  0  0  0  0  0  0  0
  144.8417  135.8617  154.0903 C   0  0  0  0  0  0  0  0  0  0  0  0
  144.3223  134.9368  153.0720 N   0  0  0  0  0  0  0  0  0  0  0  0
  143.2556  135.0731  152.2371 C   0  0  0  0  0  0  0  0  0  0  0  0
  143.1886  133.9513  151.4681 N   0  3  0  0  0  0  0  0  0  0  0  0
  144.2271  133.0851  151.8155 C   0  0  0  0  0  0  0  0  0  0  0  0
  144.5704  131.8326  151.3205 C   0  0  0  0  0  0  0  0  0  0  0  0
  145.6944  131.1980  151.8953 C   0  0  0  0  0  0  0  0  0  0  0  0
  146.0935  129.8250  151.3815 C   0  0  0  0  0  0  0  0  0  0  0  0
  146.4357  131.8237  152.9309 C   0  0  0  0  0  0  0  0  0  0  0  0
  147.6410  131.1307  153.5439 C   0  0  0  0  0  0  0  0  0  0  0  0
  146.0721  133.0994  153.4184 C   0  0  0  0  0  0  0  0  0  0  0  0
  144.9600  133.7106  152.8431 C   0  0  0  0  0  0  0  0  0  0  0  0
  147.0432  139.4075  152.9518 C   0  0  0  0  0  0  0  0  0  0  0  0
  148.4868  139.3070  153.5102 C   0  0  0  0  0  0  0  0  0  0  0  0
  149.1289  142.0877  156.5330 H   0  0  0  0  0  0  0  0  0  0  0  0
  150.6629  142.3248  155.6707 H   0  0  0  0  0  0  0  0  0  0  0  0
  150.6038  141.3312  157.1246 H   0  0  0  0  0  0  0  0  0  0  0  0
  148.9306  142.5936  154.2618 H   0  0  0  0  0  0  0  0  0  0  0  0
  148.3386  141.8289  152.8483 H   0  0  0  0  0  0  0  0  0  0  0  0
  146.9009  142.6446  155.2770 H   0  0  0  0  0  0  0  0  0  0  0  0
  146.2594  142.3780  153.6866 H   0  0  0  0  0  0  0  0  0  0  0  0
  146.7662  140.2460  155.8375 H   0  0  0  0  0  0  0  0  0  0  0  0
  145.2278  140.9240  155.4047 H   0  0  0  0  0  0  0  0  0  0  0  0
  146.4859  137.7358  154.9283 H   0  0  0  0  0  0  0  0  0  0  0  0
  145.0061  138.4599  155.4974 H   0  0  0  0  0  0  0  0  0  0  0  0
  145.2085  137.4204  152.6265 H   0  0  0  0  0  0  0  0  0  0  0  0
  143.4417  138.5535  153.0234 H   0  0  0  0  0  0  0  0  0  0  0  0
  145.8671  135.5549  154.2998 H   0  0  0  0  0  0  0  0  0  0  0  0
  144.2879  135.7199  155.0187 H   0  0  0  0  0  0  0  0  0  0  0  0
  142.5847  135.9189  152.1889 H   0  0  0  0  0  0  0  0  0  0  0  0
  144.0015  131.3625  150.5315 H   0  0  0  0  0  0  0  0  0  0  0  0
  147.0958  129.8525  150.9534 H   0  0  0  0  0  0  0  0  0  0  0  0
  145.4099  129.4748  150.6075 H   0  0  0  0  0  0  0  0  0  0  0  0
  146.0819  129.0945  152.1906 H   0  0  0  0  0  0  0  0  0  0  0  0
  148.1203  131.7560  154.2978 H   0  0  0  0  0  0  0  0  0  0  0  0
  148.3843  130.9043  152.7793 H   0  0  0  0  0  0  0  0  0  0  0  0
  147.3422  130.1989  154.0248 H   0  0  0  0  0  0  0  0  0  0  0  0
  146.6351  133.5704  154.2106 H   0  0  0  0  0  0  0  0  0  0  0  0
  146.8364  138.5249  152.3455 H   0  0  0  0  0  0  0  0  0  0  0  0
  146.9575  140.2292  152.2418 H   0  0  0  0  0  0  0  0  0  0  0  0
  149.1888  139.2028  152.6819 H   0  0  0  0  0  0  0  0  0  0  0  0
  148.5458  138.3781  154.0771 H   0  0  0  0  0  0  0  0  0  0  0  0
  145.1674  139.8564  153.4499 H   0  0  0  0  0  0  0  0  0  0  0  0
  142.4860  133.7914  150.7570 H   0  0  0  0  0  0  0  0  0  0  0  0
  1  2  1  0  0  0  0
  1 26  1  0  0  0  0
  1 27  1  0  0  0  0
  1 28  1  0  0  0  0
  2  3  2  0  0  0  0
  2  4  1  0  0  0  0
  4 25  1  0  0  0  0
  4  5  1  0  0  0  0
  5  6  1  0  0  0  0
  5 29  1  0  0  0  0
  5 30  1  0  0  0  0
  6  7  1  0  0  0  0
  6 31  1  0  0  0  0
  6 32  1  0  0  0  0
  7  8  1  0  0  0  0
  7 33  1  0  0  0  0
  7 34  1  0  0  0  0
  8  9  1  0  0  0  0
  8 24  1  0  0  0  0
  8 54  1  0  0  0  0
  9 10  1  0  0  0  0
  9 35  1  0  0  0  0
  9 36  1  0  0  0  0
 10 11  1  0  0  0  0
 10 12  1  0  0  0  0
 10 37  1  0  0  0  0
 11 38  1  0  0  0  0
 12 13  1  0  0  0  0
 12 39  1  0  0  0  0
 12 40  1  0  0  0  0
 13 23  1  0  0  0  0
 13 14  1  0  0  0  0
 14 15  2  0  0  0  0
 14 41  1  0  0  0  0
 15 16  1  0  0  0  0
 15 55  1  0  0  0  0
 16 23  2  0  0  0  0
 16 17  1  0  0  0  0
 17 18  2  0  0  0  0
 17 42  1  0  0  0  0
 18 19  1  0  0  0  0
 18 20  1  0  0  0  0
 19 43  1  0  0  0  0
 19 44  1  0  0  0  0
 19 45  1  0  0  0  0
 20 21  1  0  0  0  0
 20 22  2  0  0  0  0
 21 46  1  0  0  0  0
 21 47  1  0  0  0  0
 21 48  1  0  0  0  0
 22 23  1  0  0  0  0
 22 49  1  0  0  0  0
 24 25  1  0  0  0  0
 24 50  1  0  0  0  0
 24 51  1  0  0  0  0
 25 52  1  0  0  0  0
 25 53  1  0  0  0  0
M  CHG  1   8   1
M  CHG  1  15   1
M  END
> <s_m_source_file>
AV-unprocessed.smi

> <i_m_source_file_index>
1643

> <i_lp_mmshare_version>
43012

> <i_f3d_flags>
0

> <s_epik_input>
W0NIM11DKD1PKU4xW0NIMl1bQ0gyXVtDSDJdTihbQ0gyXVtDSDJdMSlbQ0gyXVtDQEhdKFtPSF0pW0NIMl1uKFtjSF1uMiljKGMyMylbY0hdYyhbQ0gzXSljKFtjSF0zKVtDSDNd

> <s_epik_cmdline>
J2VwaWtfcHl0aG9uJywgJy1waCcsICc3LjAnLCAnLXRuJywgJzgnLCAnLW1hJywgJzIwMCcsICctbWV0YWxfYmluZGluZycsICctaW1hZScsICc8aW5maWxlLm1hZT4nLCAnLW9tYWUnLCAnPG91dGZpbGUubWFlPic=

> <r_epik_Ionization_Penalty>
1.2865

> <r_epik_Ionization_Penalty_Charging>
1.2865

> <r_epik_Ionization_Penalty_Neutral>
2.89706e-06

> <r_epik_State_Penalty>
1.3566

> <r_epik_Charging_Adjusted_Penalty>
2.6431

> <i_epik_Tot_Q>
2

> <i_epik_Tot_abs_Q>
2

> <r_epik_Metal_State_Penalty>
5.37339

> <b_epik_Metal_Only>
0

> <s_lp_Force_Field>
OPLS_2005

> <r_lp_Energy>
60.0404

> <b_lp_Chiralities_Consistent>
1

> <s_lp_Variant>
AV-unprocessed.smi:1643-7

> <Gold.Version>
5.8.1

> <Gold.Id.Protein>
6NUR|6NUR_protein|mol2

> <Gold.PLP.Fitness>
51.4927

> <Gold.PLP.PLP>
-37.6869

> <Gold.PLP.part.hbond>
-3.0000

> <Gold.PLP.part.metal>
0.0000

> <Gold.PLP.part.buried>
-1.7968

> <Gold.PLP.part.nonpolar>
-32.5581

> <Gold.PLP.part.repulsive>
0.0111

> <Gold.PLP.ligand.clash>
0.0000

> <Gold.PLP.ligand.torsion>
0.6592

> <Gold.PLP.Chemscore.Hbond>
5.0000

> <Gold.PLP.Chemscore.CHOScore>
0.0000

> <Gold.PLP.Chemscore.Metal>
0.0000

> <Gold.Chemscore.Hbonds>
donor molecule, donor type, donor heavy atom, donor atom, acceptor molecule, acceptor atom, score
      L1  H     8    54       P1 10175  2.00
      L1  H    11    38       P1 10175  1.00
      L1  H    15    55       P1 10186  2.00

> <Gold.PLP.Chemscore.Internal.Correction>
0.1242

> <Gold.Rescore>
     Score         DG    S(hbond)    S(metal)    S(lipo)     H(rot)  DE(clash)    DE(int)     intcor
     18.28     -20.02       2.85        0.00      90.57       2.17       0.21       1.54       ----

> <Gold.Chemscore.Fitness>
18.2754

> <Gold.Chemscore.DG>
-20.0237

> <Gold.Chemscore.ZeroCoef>
-5.4800

> <Gold.Chemscore.Hbond>
2.8483

> <Gold.Chemscore.Metal>
0.0000

> <Gold.Chemscore.Lipo>
90.5717

> <Gold.Chemscore.Internal_Hbond>
0.0000

> <Gold.Chemscore.DEClash>
0.2051

> <Gold.Chemscore.DEInternal>
1.5432

> <Gold.Chemscore.Rot>
2.1744

> <Gold.Chemscore.Internal.Correction>
   9.000000E+99

> <Gold.Chemscore.Hbonds>
donor molecule, donor type, donor heavy atom, donor atom, acceptor molecule, acceptor atom, score
      L1  H     8    54       P1 10175  1.00
      L1  H    11    38       P1 10175  0.97
      L1  H    15    55       P1 10186  0.76

> <Gold.Chemscore.Hbond.Weighted>
-9.5134

> <Gold.Chemscore.Metal.Weighted>
-0.0000

> <Gold.Chemscore.Lipo.Weighted>
-10.5969

> <Gold.Chemscore.Internal_Hbond.Weighted>
0.0000

> <Gold.Chemscore.DEClash.Weighted>
0.2051

> <Gold.Chemscore.DEInternal.Weighted>
1.5432

> <Gold.Chemscore.Rot.Weighted>
5.5666

> <Gold.Chemscore.Internal.Correction.Weighted>
   9.000000E+99

> <Gold.Protein.RotatedTorsions>
[ 6907 6896 6895 6894 ] final   55.46 input  -60.11 | X-H torsion
[ 7974 7965 7964 7962 ] final    4.16 input  175.53 | X-H torsion
[ 8008 7997 7996 7995 ] final   40.74 input   59.86 | X-H torsion
[ 10167 10162 10161 10158 ] final   63.34 input  -65.29 | X-H torsion
[ 10718 10713 10712 10709 ] final  139.13 input   66.30 | X-H torsion
[ 10763 10752 10751 10750 ] final  104.43 input  -60.55 | X-H torsion
[ 11005 11000 10999 10996 ] final  -10.98 input  -57.11 | X-H torsion

> <Gold.Protein.ActiveResidues>
 VAL166  LYS551  ARG553  GLY616  TRP617  ASP618  TYR619  PRO620  LYS621  CYS622 
 ASP623  PHE694  ASN695  SER759  ASP760  ASP761  ALA762  ILE779  LEU786  VAL792 
 PHE793  MET794  SER795  GLU796  ALA797  LYS798  CYS799  TRP800  GLU811  SER814 

> <Gold.Protein.RotatedAtoms>
  152.3541  134.6965  160.0227 H   0  0  0  0  0  0  0  0  0  0  0  0  # atno 6907 bound_to 6896
  151.7309  133.3312  159.3348 H   0  0  0  0  0  0  0  0  0  0  0  0  # atno 6908 bound_to 6896
  150.7560  134.6298  159.6225 H   0  0  0  0  0  0  0  0  0  0  0  0  # atno 6909 bound_to 6896
  146.2444  140.0577  142.8370 H   0  0  0  0  0  0  0  0  0  0  0  0  # atno 7974 bound_to 7965
  155.2582  140.3357  155.4275 H   0  0  0  0  0  0  0  0  0  0  0  0  # atno 8008 bound_to 7997
  156.2186  140.1799  156.7573 H   0  0  0  0  0  0  0  0  0  0  0  0  # atno 8009 bound_to 7997
  154.5791  140.0656  156.9062 H   0  0  0  0  0  0  0  0  0  0  0  0  # atno 8010 bound_to 7997
  140.1341  144.4615  150.6848 H   0  0  0  0  0  0  0  0  0  0  0  0  # atno 10167 bound_to 10162
  157.4178  131.1035  151.0386 H   0  0  0  0  0  0  0  0  0  0  0  0  # atno 10718 bound_to 10713
  153.3659  135.3943  155.1752 H   0  0  0  0  0  0  0  0  0  0  0  0  # atno 10763 bound_to 10752
  154.8686  135.3690  154.5040 H   0  0  0  0  0  0  0  0  0  0  0  0  # atno 10764 bound_to 10752
  153.5504  135.7083  153.5655 H   0  0  0  0  0  0  0  0  0  0  0  0  # atno 10765 bound_to 10752
  140.7504  133.8596  155.9040 H   0  0  0  0  0  0  0  0  0  0  0  0  # atno 11005 bound_to 11000
  145.0928  140.9295  143.4759 LP  0  0  0  0  0  0  0  0  0  0  0  0  # atno 17320 bound_to 7965
  145.0753  139.3000  143.5811 LP  0  0  0  0  0  0  0  0  0  0  0  0  # atno 17321 bound_to 7965
  140.6800  143.2322  151.5410 LP  0  0  0  0  0  0  0  0  0  0  0  0  # atno 17342 bound_to 10162
  139.5505  144.2409  152.1521 LP  0  0  0  0  0  0  0  0  0  0  0  0  # atno 17343 bound_to 10162
  157.1327  130.6109  149.5534 LP  0  0  0  0  0  0  0  0  0  0  0  0  # atno 17370 bound_to 10713
  155.9871  130.4908  150.7108 LP  0  0  0  0  0  0  0  0  0  0  0  0  # atno 17371 bound_to 10713
  140.9755  134.1474  157.4539 LP  0  0  0  0  0  0  0  0  0  0  0  0  # atno 17394 bound_to 11000
  139.8788  134.9993  156.5948 LP  0  0  0  0  0  0  0  0  0  0  0  0  # atno 17395 bound_to 11000

$$$$
