AV-unprocessed.smi:876|AV-procd|sdf|4021|dock10
  -GOLD-   22720 1513D 1   1.00000     0.00000
 Structure written by MMmdl.
 41 42  0  0  0  0  0  0  0  0  2 V2000
  151.7859  139.6553  155.5755 C   0  0  0  0  0  0  0  0  0  0  0  0
  150.6693  140.5899  155.6314 N   0  0  0  0  0  0  0  0  0  0  0  0
  150.8326  141.8931  156.2658 C   0  0  0  0  0  0  0  0  0  0  0  0
  149.4562  140.2729  154.9825 C   0  0  0  0  0  0  0  0  0  0  0  0
  148.5903  141.2513  154.4348 C   0  0  0  0  0  0  0  0  0  0  0  0
  147.3942  140.8581  153.7996 C   0  0  0  0  0  0  0  0  0  0  0  0
  147.0722  139.4819  153.7061 C   0  0  0  0  0  0  0  0  0  0  0  0
  145.8882  138.9779  153.1030 N   0  0  0  0  0  0  0  0  0  0  0  0
  145.5725  137.7038  152.8132 C   0  0  0  0  0  0  0  0  0  0  0  0
  146.2790  136.7239  153.0492 O   0  0  0  0  0  0  0  0  0  0  0  0
  144.3625  137.6217  152.2426 N   0  0  0  0  0  0  0  0  0  0  0  0
  143.7199  136.3806  151.8255 C   0  0  2  0  0  0  0  0  0  0  0  0
  143.6816  135.3976  152.9632 C   0  0  0  0  0  0  0  0  0  0  0  0
  144.2993  134.2542  152.6759 C   0  0  0  0  0  0  0  0  0  0  0  0
  144.9001  134.2436  151.2934 C   0  0  1  0  0  0  0  0  0  0  0  0
  144.3940  133.0731  150.4326 C   0  0  0  0  0  0  0  0  0  0  0  0
  142.9974  132.9172  150.5756 O   0  0  0  0  0  0  0  0  0  0  0  0
  144.5144  135.6324  150.7223 C   0  0  0  0  0  0  0  0  0  0  0  0
  147.9601  138.5501  154.2796 C   0  0  0  0  0  0  0  0  0  0  0  0
  149.0949  138.9707  154.8786 N   0  3  0  0  0  0  0  0  0  0  0  0
  142.6954  136.5746  151.5027 H   0  0  0  0  0  0  0  0  0  0  0  0
  145.9845  134.1819  151.3964 H   0  0  0  0  0  0  0  0  0  0  0  0
  152.0738  139.4621  154.5416 H   0  0  0  0  0  0  0  0  0  0  0  0
  151.5171  138.7089  156.0461 H   0  0  0  0  0  0  0  0  0  0  0  0
  152.6591  140.0490  156.0961 H   0  0  0  0  0  0  0  0  0  0  0  0
  150.0615  142.0535  157.0201 H   0  0  0  0  0  0  0  0  0  0  0  0
  150.7654  142.6905  155.5249 H   0  0  0  0  0  0  0  0  0  0  0  0
  151.8010  141.9754  156.7596 H   0  0  0  0  0  0  0  0  0  0  0  0
  148.8211  142.3046  154.4943 H   0  0  0  0  0  0  0  0  0  0  0  0
  146.7428  141.6242  153.4088 H   0  0  0  0  0  0  0  0  0  0  0  0
  145.1693  139.6630  152.9211 H   0  0  0  0  0  0  0  0  0  0  0  0
  143.8444  138.4749  152.0907 H   0  0  0  0  0  0  0  0  0  0  0  0
  143.1872  135.6175  153.8980 H   0  0  0  0  0  0  0  0  0  0  0  0
  144.3892  133.4128  153.3473 H   0  0  0  0  0  0  0  0  0  0  0  0
  144.6321  133.2323  149.3801 H   0  0  0  0  0  0  0  0  0  0  0  0
  144.8773  132.1441  150.7365 H   0  0  0  0  0  0  0  0  0  0  0  0
  142.5704  133.6659  150.1876 H   0  0  0  0  0  0  0  0  0  0  0  0
  143.9008  135.5356  149.8255 H   0  0  0  0  0  0  0  0  0  0  0  0
  145.4114  136.1783  150.4260 H   0  0  0  0  0  0  0  0  0  0  0  0
  147.8028  137.4811  154.2729 H   0  0  0  0  0  0  0  0  0  0  0  0
  149.7161  138.2660  155.2763 H   0  0  0  0  0  0  0  0  0  0  0  0
  1  2  1  0  0  0  0
  1 23  1  0  0  0  0
  1 24  1  0  0  0  0
  1 25  1  0  0  0  0
  2  3  1  0  0  0  0
  2  4  1  0  0  0  0
  3 26  1  0  0  0  0
  3 27  1  0  0  0  0
  3 28  1  0  0  0  0
  4 20  1  0  0  0  0
  4  5  2  0  0  0  0
  5  6  1  0  0  0  0
  5 29  1  0  0  0  0
  6  7  2  0  0  0  0
  6 30  1  0  0  0  0
  7  8  1  0  0  0  0
  7 19  1  0  0  0  0
  8  9  1  0  0  0  0
  8 31  1  0  0  0  0
  9 10  2  0  0  0  0
  9 11  1  0  0  0  0
 11 12  1  0  0  0  0
 11 32  1  0  0  0  0
 12 21  1  0  0  0  0
 12 18  1  0  0  0  0
 12 13  1  0  0  0  0
 13 14  2  0  0  0  0
 13 33  1  0  0  0  0
 14 15  1  0  0  0  0
 14 34  1  0  0  0  0
 15 22  1  0  0  0  0
 15 16  1  0  0  0  0
 15 18  1  0  0  0  0
 16 17  1  0  0  0  0
 16 35  1  0  0  0  0
 16 36  1  0  0  0  0
 17 37  1  0  0  0  0
 18 38  1  0  0  0  0
 18 39  1  0  0  0  0
 19 20  2  0  0  0  0
 19 40  1  0  0  0  0
 20 41  1  0  0  0  0
M  CHG  1  20   1
M  END
> <s_m_source_file>
AV-unprocessed.smi

> <i_m_source_file_index>
876

> <i_lp_mmshare_version>
43012

> <i_f3d_flags>
0

> <s_epik_input>
W0NIM11OKFtDSDNdKWMxW2NIXVtjSF1jKFtjSF1uMSlbTkhdQyg9TylbTkhdW0NAQEhdMltDSF09W0NIXVtDQEBIXShbQ0gyXTIpW0NIMl1bT0hd

> <s_epik_cmdline>
J2VwaWtfcHl0aG9uJywgJy1waCcsICc3LjAnLCAnLXRuJywgJzgnLCAnLW1hJywgJzIwMCcsICctbWV0YWxfYmluZGluZycsICctaW1hZScsICc8aW5maWxlLm1hZT4nLCAnLW9tYWUnLCAnPG91dGZpbGUubWFlPic=

> <r_lp_tautomer_probability>
0.999994

> <r_epik_Ionization_Penalty>
0.257994

> <r_epik_Ionization_Penalty_Charging>
0.257974

> <r_epik_Ionization_Penalty_Neutral>
1.95938e-05

> <r_epik_State_Penalty>
0.249586

> <r_epik_Charging_Adjusted_Penalty>
0.50756

> <i_epik_Tot_Q>
1

> <i_epik_Tot_abs_Q>
1

> <r_epik_Metal_State_Penalty>
0.538508

> <b_epik_Metal_Only>
0

> <s_lp_Force_Field>
OPLS_2005

> <r_lp_Energy>
26.2592

> <b_lp_Chiralities_Consistent>
1

> <s_lp_Variant>
AV-unprocessed.smi:876-3

> <Gold.Version>
5.8.1

> <Gold.Id.Protein>
6NUR|6NUR_protein|mol2

> <Gold.PLP.Fitness>
44.1075

> <Gold.PLP.PLP>
-36.1063

> <Gold.PLP.part.hbond>
-4.0000

> <Gold.PLP.part.metal>
0.0000

> <Gold.PLP.part.buried>
-5.0957

> <Gold.PLP.part.nonpolar>
-28.0143

> <Gold.PLP.part.repulsive>
1.1205

> <Gold.PLP.ligand.clash>
0.0000

> <Gold.PLP.ligand.torsion>
0.4988

> <Gold.PLP.Chemscore.Hbond>
2.9920

> <Gold.PLP.Chemscore.CHOScore>
0.0000

> <Gold.PLP.Chemscore.Metal>
0.0000

> <Gold.Chemscore.Hbonds>
donor molecule, donor type, donor heavy atom, donor atom, acceptor molecule, acceptor atom, score
      L1  H     8    31       P1 10175  1.00
      L1  H    11    32       P1 10175  0.98
      L1  H    17    37       P1 10186  0.96

> <Gold.PLP.Chemscore.Internal.Correction>
0.0228

> <Gold.Rescore>
     Score         DG    S(hbond)    S(metal)    S(lipo)     H(rot)  DE(clash)    DE(int)     intcor
     14.94     -18.32       2.83        0.00      68.73       1.82       0.26       3.12       ----

> <Gold.Chemscore.Fitness>
14.9395

> <Gold.Chemscore.DG>
-18.3164

> <Gold.Chemscore.ZeroCoef>
-5.4800

> <Gold.Chemscore.Hbond>
2.8302

> <Gold.Chemscore.Metal>
0.0000

> <Gold.Chemscore.Lipo>
68.7347

> <Gold.Chemscore.Internal_Hbond>
0.0000

> <Gold.Chemscore.DEClash>
0.2604

> <Gold.Chemscore.DEInternal>
3.1165

> <Gold.Chemscore.Rot>
1.8197

> <Gold.Chemscore.Internal.Correction>
   9.000000E+99

> <Gold.Chemscore.Hbonds>
donor molecule, donor type, donor heavy atom, donor atom, acceptor molecule, acceptor atom, score
      L1  H     8    31       P1 10175  1.00
      L1  H    11    32       P1 10175  0.90
      L1  H    17    37       P1 10186  0.92

> <Gold.Chemscore.Hbond.Weighted>
-9.4529

> <Gold.Chemscore.Metal.Weighted>
-0.0000

> <Gold.Chemscore.Lipo.Weighted>
-8.0420

> <Gold.Chemscore.Internal_Hbond.Weighted>
0.0000

> <Gold.Chemscore.DEClash.Weighted>
0.2604

> <Gold.Chemscore.DEInternal.Weighted>
3.1165

> <Gold.Chemscore.Rot.Weighted>
4.6585

> <Gold.Chemscore.Internal.Correction.Weighted>
   9.000000E+99

> <Gold.Protein.RotatedTorsions>
[ 6907 6896 6895 6894 ] final  -26.22 input  -60.11 | X-H torsion
[ 7974 7965 7964 7962 ] final    0.52 input  175.53 | X-H torsion
[ 8008 7997 7996 7995 ] final  102.75 input   59.86 | X-H torsion
[ 10167 10162 10161 10158 ] final -146.17 input  -65.29 | X-H torsion
[ 10718 10713 10712 10709 ] final  -86.46 input   66.30 | X-H torsion
[ 10763 10752 10751 10750 ] final -138.31 input  -60.55 | X-H torsion
[ 11005 11000 10999 10996 ] final -170.72 input  -57.11 | X-H torsion

> <Gold.Protein.ActiveResidues>
 VAL166  LYS551  ARG553  GLY616  TRP617  ASP618  TYR619  PRO620  LYS621  CYS622 
 ASP623  PHE694  ASN695  SER759  ASP760  ASP761  ALA762  ILE779  LEU786  VAL792 
 PHE793  MET794  SER795  GLU796  ALA797  LYS798  CYS799  TRP800  GLU811  SER814 

> <Gold.Protein.RotatedAtoms>
  151.1641  135.0287  159.8722 H   0  0  0  0  0  0  0  0  0  0  0  0  # atno 6907 bound_to 6896
  152.5451  134.1245  159.8423 H   0  0  0  0  0  0  0  0  0  0  0  0  # atno 6908 bound_to 6896
  151.1344  133.4968  159.2631 H   0  0  0  0  0  0  0  0  0  0  0  0  # atno 6909 bound_to 6896
  146.2435  140.1126  142.8343 H   0  0  0  0  0  0  0  0  0  0  0  0  # atno 7974 bound_to 7965
  156.1422  140.3176  155.8513 H   0  0  0  0  0  0  0  0  0  0  0  0  # atno 8008 bound_to 7997
  155.4133  140.0507  157.3047 H   0  0  0  0  0  0  0  0  0  0  0  0  # atno 8009 bound_to 7997
  154.4986  140.2120  155.9407 H   0  0  0  0  0  0  0  0  0  0  0  0  # atno 8010 bound_to 7997
  139.7738  143.8199  152.2628 H   0  0  0  0  0  0  0  0  0  0  0  0  # atno 10167 bound_to 10162
  155.9990  130.4766  150.4718 H   0  0  0  0  0  0  0  0  0  0  0  0  # atno 10718 bound_to 10713
  154.8640  135.3616  154.5365 H   0  0  0  0  0  0  0  0  0  0  0  0  # atno 10763 bound_to 10752
  153.5988  135.7013  153.5397 H   0  0  0  0  0  0  0  0  0  0  0  0  # atno 10764 bound_to 10752
  153.3309  135.4125  155.1456 H   0  0  0  0  0  0  0  0  0  0  0  0  # atno 10765 bound_to 10752
  140.5163  134.5753  157.5034 H   0  0  0  0  0  0  0  0  0  0  0  0  # atno 11005 bound_to 11000
  145.0474  140.8992  143.5016 LP  0  0  0  0  0  0  0  0  0  0  0  0  # atno 17320 bound_to 7965
  145.1217  139.2689  143.5585 LP  0  0  0  0  0  0  0  0  0  0  0  0  # atno 17321 bound_to 7965
  139.8242  144.7282  150.9534 LP  0  0  0  0  0  0  0  0  0  0  0  0  # atno 17342 bound_to 10162
  140.7815  143.4131  151.0961 LP  0  0  0  0  0  0  0  0  0  0  0  0  # atno 17343 bound_to 10162
  157.2732  131.0591  151.2246 LP  0  0  0  0  0  0  0  0  0  0  0  0  # atno 17370 bound_to 10713
  157.3319  130.6989  149.6329 LP  0  0  0  0  0  0  0  0  0  0  0  0  # atno 17371 bound_to 10713
  139.9631  134.7419  156.0196 LP  0  0  0  0  0  0  0  0  0  0  0  0  # atno 17394 bound_to 11000
  141.1358  133.6575  156.3591 LP  0  0  0  0  0  0  0  0  0  0  0  0  # atno 17395 bound_to 11000

$$$$
