#       Name:                AV-unprocessed.smi:3053
#       Creating user name   scv26
#       Creation time:       Fri Mar 27 17:03:13 2020


#       File generated by GOLD software.
#

@<TRIPOS>MOLECULE
AV-unprocessed.smi:3053
    36    37     1
SMALL
NO_CHARGES


@<TRIPOS>ATOM
      1 ****        -2.4792   1.9424  -3.1331 C.3            1 S1                 0.0000
      2 ****        -2.4018   0.9050  -2.0662 C.2            1 S1                 0.0000
      3 ****        -1.8187  -0.2847  -2.2331 N.2            1 S1                 0.0000
      4 ****        -1.8686  -1.0747  -1.0805 C.2            1 S1                 0.0000
      5 ****        -1.2233  -2.4299  -1.0739 C.3            1 S1                 0.0000
      6 ****         0.3122  -2.3809  -0.9476 C.3            1 S1                 0.0000
      7 ****         0.7477  -1.7301   0.2863 N.am           1 S1                 0.0000
      8 ****         1.0919  -0.4383   0.4082 C.2            1 S1                 0.0000
      9 ****         1.1102   0.3501  -0.5383 O.2            1 S1                 0.0000
     10 ****         1.4790   0.0293   1.8178 C.3            1 S1                 0.0000
     11 ****         2.9716   0.3703   1.9567 C.3            1 S1                 0.0000
     12 ****         2.9513   1.7907   2.2480 N.am           1 S1                 0.0000
     13 ****         1.7185   2.2910   2.3515 C.2            1 S1                 0.0000
     14 ****         1.4322   3.4573   2.6088 O.2            1 S1                 0.0000
     15 ****         0.8498   1.3024   2.1264 N.am           1 S1                 0.0000
     16 ****        -2.5204  -0.4675  -0.0358 C.2            1 S1                 0.0000
     17 ****        -3.0721   1.1302  -0.4554 S.3            1 S1                 0.0000
     18 ****        -1.8348   1.6791  -3.9728 H              1 S1                 0.0000
     19 ****        -2.1605   2.9071  -2.7383 H              1 S1                 0.0000
     20 ****        -3.5044   2.0314  -3.4921 H              1 S1                 0.0000
     21 ****        -1.6288  -3.0268  -0.2559 H              1 S1                 0.0000
     22 ****        -1.4864  -2.9670  -1.9857 H              1 S1                 0.0000
     23 ****         0.7090  -3.3962  -0.9482 H              1 S1                 0.0000
     24 ****         0.7459  -1.8866  -1.8184 H              1 S1                 0.0000
     25 ****         0.7704  -2.3038   1.1170 H              1 S1                 0.0000
     26 ****         1.1773  -0.7066   2.5649 H              1 S1                 0.0000
     27 ****         3.4338  -0.1747   2.7804 H              1 S1                 0.0000
     28 ****         3.5483   0.1794   1.0502 H              1 S1                 0.0000
     29 ****         3.7937   2.3337   2.3710 H              1 S1                 0.0000
     30 ****        -0.1525   1.4228   2.1323 H              1 S1                 0.0000
     31 ****        -2.6928  -0.8556   0.9569 H              1 S1                 0.0000
     32 ****        -1.3928  -0.5785  -3.0889 LP             1 S1                 0.0000
     33 ****         0.8603   0.0372  -1.4546 LP             1 S1                 0.0000
     34 ****         1.3751   1.3030  -0.3903 LP             1 S1                 0.0000
     35 ****         2.1578   4.1281   2.7623 LP             1 S1                 0.0000
     36 ****         0.4735   3.7362   2.6648 LP             1 S1                 0.0000
@<TRIPOS>BOND
    1    1    2 1     
    2    1   18 1     
    3    1   19 1     
    4    1   20 1     
    5    2   17 1     
    6    2    3 2     
    7    3    4 1     
    8    4    5 1     
    9    4   16 2     
   10    5    6 1     
   11    5   21 1     
   12    5   22 1     
   13    6    7 1     
   14    6   23 1     
   15    6   24 1     
   16    7    8 am    
   17    7   25 1     
   18    8    9 2     
   19    8   10 1     
   20   10   15 1     
   21   10   11 1     
   22   10   26 1     
   23   11   12 1     
   24   11   27 1     
   25   11   28 1     
   26   12   13 am    
   27   12   29 1     
   28   13   14 2     
   29   13   15 am    
   30   15   30 1     
   31   16   17 1     
   32   16   31 1     
   33    3   32 1     
   34    9   33 1     
   35    9   34 1     
   36   14   35 1     
   37   14   36 1     
@<TRIPOS>SUBSTRUCTURE
      1 S1             1
@<TRIPOS>SET
LONE_PAIRS      STATIC     ATOMS    <user>   **** ""
5 32 33 34 35 36
DONOR_HYDROGENS      STATIC     ATOMS    <user>   **** ""
3 25 29 30
ATOM$BLUE        STATIC     ATOMS    COLORGROUP SYSTEM
5 32 33 34 35 36
ATOM$RED        STATIC     ATOMS    COLORGROUP SYSTEM
3 25 29 30
