#       Name:                AV-unprocessed.smi:1047
#       Creating user name   scv26
#       Creation time:       Fri Mar 27 03:07:45 2020


#       File generated by GOLD software.
#

@<TRIPOS>MOLECULE
AV-unprocessed.smi:1047
    62    64     1
SMALL
NO_CHARGES


@<TRIPOS>ATOM
      1 ****        -4.2641   4.3642  -0.7019 C.3            1 S1                 0.0000
      2 ****        -4.2992   2.8292  -0.6849 C.3            1 S1                 0.0000
      3 ****        -3.0600   2.1898  -0.2469 N.3            1 S1                 0.0000
      4 ****        -2.7664   2.4409   1.1624 C.3            1 S1                 0.0000
      5 ****        -1.4799   1.7298   1.6164 C.3            1 S1                 0.0000
      6 ****        -1.5905   0.3360   1.3500 O.3            1 S1                 0.0000
      7 ****        -1.8042   0.0537  -0.0311 C.3            1 S1                 0.0000
      8 ****        -1.8701  -1.4687  -0.2132 C.3            1 S1                 0.0000
      9 ****        -0.5493  -2.0508  -0.0238 N.3            1 S1                 0.0000
     10 ****        -0.4617  -3.4827  -0.2885 C.3            1 S1                 0.0000
     11 ****         0.9770  -4.0055  -0.0868 C.3            1 S1                 0.0000
     12 ****         0.9156  -5.4125   0.0139 O.3            1 S1                 0.0000
     13 ****         1.9703  -3.6745  -1.2279 C.3            1 S1                 0.0000
     14 ****         2.0393  -2.2593  -1.5512 N.pl3          1 S1                 0.0000
     15 ****         1.6392  -1.6693  -2.6945 C.2            1 S1                 0.0000
     16 ****         1.7599  -0.3474  -2.7738 N.2            1 S1                 0.0000
     17 ****         2.3075  -0.0436  -1.5394 C.ar           1 S1                 0.0000
     18 ****         2.6662   1.2015  -0.9786 C.ar           1 S1                 0.0000
     19 ****         3.2120   1.2799   0.3224 C.ar           1 S1                 0.0000
     20 ****         3.5779   2.6404   0.8891 C.3            1 S1                 0.0000
     21 ****         3.4128   0.0988   1.0810 C.ar           1 S1                 0.0000
     22 ****         3.9994   0.1583   2.4802 C.3            1 S1                 0.0000
     23 ****         3.0607  -1.1534   0.5352 C.ar           1 S1                 0.0000
     24 ****         2.5100  -1.2181  -0.7569 C.ar           1 S1                 0.0000
     25 ****        -3.1063   0.7488  -0.4728 C.3            1 S1                 0.0000
     26 ****        -5.1800   4.7623  -1.1388 H              1 S1                 0.0000
     27 ****        -3.4269   4.7319  -1.2961 H              1 S1                 0.0000
     28 ****        -4.1767   4.7816   0.3011 H              1 S1                 0.0000
     29 ****        -5.1313   2.4901  -0.0659 H              1 S1                 0.0000
     30 ****        -4.5260   2.4976  -1.6993 H              1 S1                 0.0000
     31 ****        -2.6558   3.5098   1.3422 H              1 S1                 0.0000
     32 ****        -3.6006   2.1032   1.7796 H              1 S1                 0.0000
     33 ****        -0.6082   2.1382   1.1023 H              1 S1                 0.0000
     34 ****        -1.3203   1.8779   2.6844 H              1 S1                 0.0000
     35 ****        -0.9717   0.4503  -0.6170 H              1 S1                 0.0000
     36 ****        -2.5875  -1.9051   0.4827 H              1 S1                 0.0000
     37 ****        -2.2253  -1.6958  -1.2191 H              1 S1                 0.0000
     38 ****        -0.2162  -1.8484   0.9139 H              1 S1                 0.0000
     39 ****        -1.1350  -4.0074   0.3910 H              1 S1                 0.0000
     40 ****        -0.8031  -3.7072  -1.2998 H              1 S1                 0.0000
     41 ****         1.3664  -3.6341   0.8616 H              1 S1                 0.0000
     42 ****         0.5680  -5.7559  -0.7949 H              1 S1                 0.0000
     43 ****         2.9735  -4.0114  -0.9634 H              1 S1                 0.0000
     44 ****         1.6904  -4.2149  -2.1337 H              1 S1                 0.0000
     45 ****         1.2197  -2.2408  -3.5096 H              1 S1                 0.0000
     46 ****         2.5140   2.1006  -1.5573 H              1 S1                 0.0000
     47 ****         4.6507   2.6988   1.0742 H              1 S1                 0.0000
     48 ****         3.0533   2.8183   1.8284 H              1 S1                 0.0000
     49 ****         3.3113   3.4438   0.2015 H              1 S1                 0.0000
     50 ****         4.1085  -0.8386   2.9084 H              1 S1                 0.0000
     51 ****         3.3537   0.7374   3.1409 H              1 S1                 0.0000
     52 ****         4.9849   0.6241   2.4620 H              1 S1                 0.0000
     53 ****         3.2028  -2.0596   1.1048 H              1 S1                 0.0000
     54 ****        -3.9505   0.3164   0.0672 H              1 S1                 0.0000
     55 ****        -3.2783   0.5490  -1.5312 H              1 S1                 0.0000
     56 ****        -2.3297   2.5968  -0.7956 LP             1 S1                 0.0000
     57 ****        -2.3599  -0.0295   1.8738 LP             1 S1                 0.0000
     58 ****        -0.7458  -0.1131   1.6411 LP             1 S1                 0.0000
     59 ****         0.0348  -1.6206  -0.7121 LP             1 S1                 0.0000
     60 ****         0.3192  -5.6706   0.7740 LP             1 S1                 0.0000
     61 ****         1.8325  -5.7799   0.1700 LP             1 S1                 0.0000
     62 ****         1.5188   0.2654  -3.5264 LP             1 S1                 0.0000
@<TRIPOS>BOND
    1    1    2 1     
    2    1   26 1     
    3    1   27 1     
    4    1   28 1     
    5    2    3 1     
    6    2   29 1     
    7    2   30 1     
    8    3   25 1     
    9    3    4 1     
   10    4    5 1     
   11    4   31 1     
   12    4   32 1     
   13    5    6 1     
   14    5   33 1     
   15    5   34 1     
   16    6    7 1     
   17    7    8 1     
   18    7   25 1     
   19    7   35 1     
   20    8    9 1     
   21    8   36 1     
   22    8   37 1     
   23    9   10 1     
   24    9   38 1     
   25   10   11 1     
   26   10   39 1     
   27   10   40 1     
   28   11   12 1     
   29   11   13 1     
   30   11   41 1     
   31   12   42 1     
   32   13   14 1     
   33   13   43 1     
   34   13   44 1     
   35   14   24 1     
   36   14   15 1     
   37   15   16 2     
   38   15   45 1     
   39   16   17 1     
   40   17   24 ar    
   41   17   18 ar    
   42   18   19 ar    
   43   18   46 1     
   44   19   20 1     
   45   19   21 ar    
   46   20   47 1     
   47   20   48 1     
   48   20   49 1     
   49   21   22 1     
   50   21   23 ar    
   51   22   50 1     
   52   22   51 1     
   53   22   52 1     
   54   23   24 ar    
   55   23   53 1     
   56   25   54 1     
   57   25   55 1     
   58    3   56 1     
   59    6   57 1     
   60    6   58 1     
   61    9   59 1     
   62   12   60 1     
   63   12   61 1     
   64   16   62 1     
@<TRIPOS>SUBSTRUCTURE
      1 S1             1
@<TRIPOS>SET
LONE_PAIRS      STATIC     ATOMS    <user>   **** ""
7 56 57 58 59 60 61 62
DONOR_HYDROGENS      STATIC     ATOMS    <user>   **** ""
2 38 42
ATOM$BLUE        STATIC     ATOMS    COLORGROUP SYSTEM
7 56 57 58 59 60 61 62
ATOM$RED        STATIC     ATOMS    COLORGROUP SYSTEM
2 38 42
