#       Name:                AV-unprocessed.smi:631
#       Creating user name   scv26
#       Creation time:       Fri Mar 27 00:04:53 2020


#       File generated by GOLD software.
#

@<TRIPOS>MOLECULE
AV-unprocessed.smi:631
    44    45     1
SMALL
NO_CHARGES


@<TRIPOS>ATOM
      1 ****        -2.6726   2.3163  -1.5883 C.3            1 S1                 0.0000
      2 ****        -2.2028   0.8984  -1.4052 C.2            1 S1                 0.0000
      3 ****        -0.9247   0.7088  -1.3816 N.2            1 S1                 0.0000
      4 ****        -0.3848  -0.5525  -1.2094 N.am           1 S1                 0.0000
      5 ****         1.0868  -0.5796  -1.1873 C.3            1 S1                 0.0000
      6 ****         1.7182  -0.5311   0.2350 C.3            1 S1                 0.0000
      7 ****         1.7008  -1.8503   0.7494 O.3            1 S1                 0.0000
      8 ****         3.2083  -0.1243   0.1210 C.3            1 S1                 0.0000
      9 ****         3.9088   0.0129   1.4851 C.3            1 S1                 0.0000
     10 ****         3.1539   0.9835   2.4029 C.3            1 S1                 0.0000
     11 ****         1.6931   0.5466   2.5779 C.3            1 S1                 0.0000
     12 ****         0.9783   0.4099   1.2215 C.3            1 S1                 0.0000
     13 ****        -1.1166  -1.6982  -1.0989 C.2            1 S1                 0.0000
     14 ****        -0.5992  -2.8114  -1.0002 O.2            1 S1                 0.0000
     15 ****        -2.5640  -1.4745  -1.1142 C.2            1 S1                 0.0000
     16 ****        -3.3671  -2.6458  -0.9718 C.1            1 S1                 0.0000
     17 ****        -4.0370  -3.5830  -0.8568 N.1            1 S1                 0.0000
     18 ****        -3.1045  -0.2387  -1.2563 C.2            1 S1                 0.0000
     19 ****        -4.6003   0.0448  -1.2841 C.3            1 S1                 0.0000
     20 ****        -3.3162   2.4016  -2.4639 H              1 S1                 0.0000
     21 ****        -1.8389   3.0067  -1.7254 H              1 S1                 0.0000
     22 ****        -3.2374   2.6513  -0.7183 H              1 S1                 0.0000
     23 ****         1.4673  -1.4363  -1.7473 H              1 S1                 0.0000
     24 ****         1.4383   0.2852  -1.7537 H              1 S1                 0.0000
     25 ****         2.1146  -1.8459   1.5989 H              1 S1                 0.0000
     26 ****         3.7498  -0.8411  -0.4981 H              1 S1                 0.0000
     27 ****         3.2806   0.8332  -0.3965 H              1 S1                 0.0000
     28 ****         3.9852  -0.9632   1.9654 H              1 S1                 0.0000
     29 ****         4.9315   0.3620   1.3404 H              1 S1                 0.0000
     30 ****         3.6462   1.0363   3.3743 H              1 S1                 0.0000
     31 ****         3.1889   1.9892   1.9821 H              1 S1                 0.0000
     32 ****         1.6566  -0.4036   3.1120 H              1 S1                 0.0000
     33 ****         1.1644   1.2676   3.2018 H              1 S1                 0.0000
     34 ****         0.8903   1.4002   0.7731 H              1 S1                 0.0000
     35 ****        -0.0406   0.0615   1.3939 H              1 S1                 0.0000
     36 ****        -5.1936  -0.8526  -1.1129 H              1 S1                 0.0000
     37 ****        -4.8932   0.4527  -2.2519 H              1 S1                 0.0000
     38 ****        -4.8697   0.7649  -0.5110 H              1 S1                 0.0000
     39 ****        -0.3123   1.4918  -1.4904 LP             1 S1                 0.0000
     40 ****         2.2009  -2.4592   0.1336 LP             1 S1                 0.0000
     41 ****         0.7560  -2.1663   0.8359 LP             1 S1                 0.0000
     42 ****         0.3968  -2.9016  -0.9990 LP             1 S1                 0.0000
     43 ****        -1.1750  -3.6252  -0.9214 LP             1 S1                 0.0000
     44 ****        -4.6156  -4.3926  -0.7575 LP             1 S1                 0.0000
@<TRIPOS>BOND
    1    1    2 1     
    2    1   20 1     
    3    1   21 1     
    4    1   22 1     
    5    2   18 1     
    6    2    3 2     
    7    3    4 1     
    8    4    5 1     
    9    4   13 am    
   10    5    6 1     
   11    5   23 1     
   12    5   24 1     
   13    6   12 1     
   14    6    7 1     
   15    6    8 1     
   16    7   25 1     
   17    8    9 1     
   18    8   26 1     
   19    8   27 1     
   20    9   10 1     
   21    9   28 1     
   22    9   29 1     
   23   10   11 1     
   24   10   30 1     
   25   10   31 1     
   26   11   12 1     
   27   11   32 1     
   28   11   33 1     
   29   12   34 1     
   30   12   35 1     
   31   13   14 2     
   32   13   15 1     
   33   15   16 1     
   34   15   18 2     
   35   16   17 3     
   36   18   19 1     
   37   19   36 1     
   38   19   37 1     
   39   19   38 1     
   40    3   39 1     
   41    7   40 1     
   42    7   41 1     
   43   14   42 1     
   44   14   43 1     
   45   17   44 1     
@<TRIPOS>SUBSTRUCTURE
      1 S1             1
@<TRIPOS>SET
LONE_PAIRS      STATIC     ATOMS    <user>   **** ""
6 39 40 41 42 43 44
DONOR_HYDROGENS      STATIC     ATOMS    <user>   **** ""
1 25
ATOM$BLUE        STATIC     ATOMS    COLORGROUP SYSTEM
6 39 40 41 42 43 44
ATOM$RED        STATIC     ATOMS    COLORGROUP SYSTEM
1 25
