AV-unprocessed.smi:148|AV-procd|sdf|1220|dock1
  -GOLD-   2262018403D 1   1.00000     0.00000
 Structure written by MMmdl.
 63 67  0  0  0  0  0  0  0  0  1 V2000
  147.9074  141.5540  152.5236 O   0  0  0  0  0  0  0  0  0  0  0  0
  147.0519  142.1764  153.4594 C   0  0  0  0  0  0  0  0  0  0  0  0
  147.5559  141.9721  154.9088 C   0  0  2  0  0  0  0  0  0  0  0  0
  148.2729  140.6072  155.0810 C   0  0  0  0  0  0  0  0  0  0  0  0
  149.1619  140.5750  156.2289 N   0  0  0  0  0  0  0  0  0  0  0  0
  148.8406  140.9156  157.5235 C   0  0  0  0  0  0  0  0  0  0  0  0
  149.8114  140.7967  158.3878 N   0  0  0  0  0  0  0  0  0  0  0  0
  150.8819  140.3405  157.6294 C   0  0  0  0  0  0  0  0  0  0  0  0
  152.2305  140.0108  157.9264 C   0  0  0  0  0  0  0  0  0  0  0  0
  152.7236  140.0875  159.1859 N   0  0  0  0  0  0  0  0  0  0  0  0
  153.6483  138.9707  159.3934 C   0  0  0  0  0  0  0  0  0  0  0  0
  154.0897  138.8581  160.8572 C   0  0  0  0  0  0  0  0  0  0  0  0
  154.6854  140.1856  161.3317 C   0  0  0  0  0  0  0  0  0  0  0  0
  153.6574  141.3055  161.1334 C   0  0  0  0  0  0  0  0  0  0  0  0
  153.1875  141.4081  159.6573 C   0  0  2  0  0  0  0  0  0  0  0  0
  152.1407  142.5502  159.4343 C   0  0  2  0  0  0  0  0  0  0  0  0
  152.2787  143.2977  158.0939 C   0  0  0  0  0  0  0  0  0  0  0  0
  151.7426  144.7198  158.3281 C   0  0  0  0  0  0  0  0  0  0  0  0
  151.2748  144.7683  159.7854 C   0  0  0  0  0  0  0  0  0  0  0  0
  152.0815  143.6744  160.4837 C   0  0  1  0  0  0  0  0  0  0  0  0
  151.4535  143.2762  161.6843 O   0  0  0  0  0  0  0  0  0  0  0  0
  153.0146  139.5686  156.9068 N   0  0  0  0  0  0  0  0  0  0  0  0
  152.5151  139.4789  155.6703 C   0  0  0  0  0  0  0  0  0  0  0  0
  151.2820  139.7630  155.2446 N   0  0  0  0  0  0  0  0  0  0  0  0
  150.4908  140.1910  156.2701 C   0  0  0  0  0  0  0  0  0  0  0  0
  146.4239  142.2133  155.9470 C   0  0  1  0  0  0  0  0  0  0  0  0
  145.6641  143.5361  155.8464 C   0  0  0  0  0  0  0  0  0  0  0  0
  144.2104  143.1560  156.1433 C   0  0  0  0  0  0  0  0  0  0  0  0
  144.2748  141.8439  156.6827 O   0  0  0  0  0  0  0  0  0  0  0  0
  145.3086  141.1649  155.9909 C   0  0  0  0  0  0  0  0  0  0  0  0
  147.4727  140.7872  152.1827 H   0  0  0  0  0  0  0  0  0  0  0  0
  146.9675  143.2374  153.2229 H   0  0  0  0  0  0  0  0  0  0  0  0
  146.0631  141.7413  153.3191 H   0  0  0  0  0  0  0  0  0  0  0  0
  148.3083  142.7414  155.0905 H   0  0  0  0  0  0  0  0  0  0  0  0
  147.5565  139.7988  155.2147 H   0  0  0  0  0  0  0  0  0  0  0  0
  148.8542  140.3569  154.1941 H   0  0  0  0  0  0  0  0  0  0  0  0
  147.8558  141.2571  157.8082 H   0  0  0  0  0  0  0  0  0  0  0  0
  153.1804  138.0331  159.0894 H   0  0  0  0  0  0  0  0  0  0  0  0
  154.5236  139.1077  158.7564 H   0  0  0  0  0  0  0  0  0  0  0  0
  153.2352  138.5908  161.4803 H   0  0  0  0  0  0  0  0  0  0  0  0
  154.8201  138.0561  160.9673 H   0  0  0  0  0  0  0  0  0  0  0  0
  154.9693  140.1160  162.3821 H   0  0  0  0  0  0  0  0  0  0  0  0
  155.5947  140.4100  160.7727 H   0  0  0  0  0  0  0  0  0  0  0  0
  152.8115  141.0998  161.7884 H   0  0  0  0  0  0  0  0  0  0  0  0
  154.0915  142.2433  161.4756 H   0  0  0  0  0  0  0  0  0  0  0  0
  154.0661  141.6572  159.0601 H   0  0  0  0  0  0  0  0  0  0  0  0
  151.1420  142.1157  159.3930 H   0  0  0  0  0  0  0  0  0  0  0  0
  153.3126  143.3571  157.7582 H   0  0  0  0  0  0  0  0  0  0  0  0
  151.7237  142.7864  157.3065 H   0  0  0  0  0  0  0  0  0  0  0  0
  152.5433  145.4437  158.1706 H   0  0  0  0  0  0  0  0  0  0  0  0
  150.9353  144.9727  157.6402 H   0  0  0  0  0  0  0  0  0  0  0  0
  151.4149  145.7497  160.2395 H   0  0  0  0  0  0  0  0  0  0  0  0
  150.2099  144.5329  159.8280 H   0  0  0  0  0  0  0  0  0  0  0  0
  153.0729  144.0655  160.7076 H   0  0  0  0  0  0  0  0  0  0  0  0
  151.1558  144.0491  162.1389 H   0  0  0  0  0  0  0  0  0  0  0  0
  153.2019  139.1278  154.9142 H   0  0  0  0  0  0  0  0  0  0  0  0
  146.8709  142.1895  156.9418 H   0  0  0  0  0  0  0  0  0  0  0  0
  146.0440  144.2456  156.5824 H   0  0  0  0  0  0  0  0  0  0  0  0
  145.7404  144.0109  154.8695 H   0  0  0  0  0  0  0  0  0  0  0  0
  143.7283  143.8465  156.8356 H   0  0  0  0  0  0  0  0  0  0  0  0
  143.6262  143.1342  155.2222 H   0  0  0  0  0  0  0  0  0  0  0  0
  144.9429  140.8879  155.0031 H   0  0  0  0  0  0  0  0  0  0  0  0
  145.6086  140.2555  156.5119 H   0  0  0  0  0  0  0  0  0  0  0  0
  1  2  1  0  0  0  0
  1 31  1  0  0  0  0
  2  3  1  0  0  0  0
  2 32  1  0  0  0  0
  2 33  1  0  0  0  0
  3  4  1  0  0  0  0
  3 26  1  0  0  0  0
  3 34  1  0  0  0  0
  4  5  1  0  0  0  0
  4 35  1  0  0  0  0
  4 36  1  0  0  0  0
  5 25  1  0  0  0  0
  5  6  1  0  0  0  0
  6  7  2  0  0  0  0
  6 37  1  0  0  0  0
  7  8  1  0  0  0  0
  8 25  2  0  0  0  0
  8  9  1  0  0  0  0
  9 10  1  0  0  0  0
  9 22  2  0  0  0  0
 10 15  1  0  0  0  0
 10 11  1  0  0  0  0
 11 12  1  0  0  0  0
 11 38  1  0  0  0  0
 11 39  1  0  0  0  0
 12 13  1  0  0  0  0
 12 40  1  0  0  0  0
 12 41  1  0  0  0  0
 13 14  1  0  0  0  0
 13 42  1  0  0  0  0
 13 43  1  0  0  0  0
 14 15  1  0  0  0  0
 14 44  1  0  0  0  0
 14 45  1  0  0  0  0
 15 16  1  0  0  0  0
 15 46  1  0  0  0  0
 16 20  1  0  0  0  0
 16 17  1  0  0  0  0
 16 47  1  0  0  0  0
 17 18  1  0  0  0  0
 17 48  1  0  0  0  0
 17 49  1  0  0  0  0
 18 19  1  0  0  0  0
 18 50  1  0  0  0  0
 18 51  1  0  0  0  0
 19 20  1  0  0  0  0
 19 52  1  0  0  0  0
 19 53  1  0  0  0  0
 20 21  1  0  0  0  0
 20 54  1  0  0  0  0
 21 55  1  0  0  0  0
 22 23  1  0  0  0  0
 23 24  2  0  0  0  0
 23 56  1  0  0  0  0
 24 25  1  0  0  0  0
 26 30  1  0  0  0  0
 26 27  1  0  0  0  0
 26 57  1  0  0  0  0
 27 28  1  0  0  0  0
 27 58  1  0  0  0  0
 27 59  1  0  0  0  0
 28 29  1  0  0  0  0
 28 60  1  0  0  0  0
 28 61  1  0  0  0  0
 29 30  1  0  0  0  0
 30 62  1  0  0  0  0
 30 63  1  0  0  0  0
M  END
> <s_m_source_file>
AV-unprocessed.smi

> <i_m_source_file_index>
148

> <i_lp_mmshare_version>
43012

> <i_f3d_flags>
0

> <s_epik_input>
W0NIMl0xT1tDSDJdW0NIMl1bQ0BIXTFbQ0BIXShbQ0gyXVtPSF0pW0NIMl1uKFtjSF1uMiljKGMyMyluW2NIXW5jM040W0NIMl1bQ0gyXVtDSDJdW0NIMl1bQ0BIXTRbQ0BASF01W0NIMl1bQ0gyXVtDSDJdW0NASF01W09IXQ==

> <s_epik_cmdline>
J2VwaWtfcHl0aG9uJywgJy1waCcsICc3LjAnLCAnLXRuJywgJzgnLCAnLW1hJywgJzIwMCcsICctbWV0YWxfYmluZGluZycsICctaW1hZScsICc8aW5maWxlLm1hZT4nLCAnLW9tYWUnLCAnPG91dGZpbGUubWFlPic=

> <r_lp_tautomer_probability>
1

> <r_epik_Ionization_Penalty>
0.00556303

> <r_epik_Ionization_Penalty_Charging>
0

> <r_epik_Ionization_Penalty_Neutral>
0.00556303

> <r_epik_State_Penalty>
0.00401767

> <r_epik_Charging_Adjusted_Penalty>
0.00401767

> <i_epik_Tot_Q>
0

> <i_epik_Tot_abs_Q>
0

> <r_epik_Metal_State_Penalty>
-0

> <b_epik_Metal_Only>
0

> <s_lp_Force_Field>
OPLS_2005

> <r_lp_Energy>
68.7494

> <b_lp_Chiralities_Consistent>
1

> <s_lp_Variant>
AV-unprocessed.smi:148-19

> <Gold.Version>
5.8.1

> <Gold.Id.Protein>
6NUR|6NUR_protein|mol2

> <Gold.PLP.Fitness>
52.2171

> <Gold.PLP.PLP>
-46.9733

> <Gold.PLP.part.hbond>
-5.6821

> <Gold.PLP.part.metal>
0.0000

> <Gold.PLP.part.buried>
0.1087

> <Gold.PLP.part.nonpolar>
-40.1191

> <Gold.PLP.part.repulsive>
0.0567

> <Gold.PLP.ligand.clash>
0.0000

> <Gold.PLP.ligand.torsion>
2.1143

> <Gold.PLP.Chemscore.Hbond>
2.8656

> <Gold.PLP.Chemscore.CHOScore>
0.0000

> <Gold.PLP.Chemscore.Metal>
0.0000

> <Gold.Chemscore.Hbonds>
donor molecule, donor type, donor heavy atom, donor atom, acceptor molecule, acceptor atom, score
      P1  H  6933  6945       L1    21  0.41
      P1  H  7989  7998       L1    24  0.84
      P1  H  7997  8009       L1    22  1.00
      P1  H  8011  8017       L1     1  0.53

> <Gold.PLP.Chemscore.Internal.Correction>
0.8755

> <Gold.Rescore>
     Score         DG    S(hbond)    S(metal)    S(lipo)     H(rot)  DE(clash)    DE(int)     intcor
     11.13     -17.20       1.49        0.00     130.19       3.32       3.16       2.91       ----

> <Gold.Chemscore.Fitness>
11.1258

> <Gold.Chemscore.DG>
-17.1950

> <Gold.Chemscore.ZeroCoef>
-5.4800

> <Gold.Chemscore.Hbond>
1.4920

> <Gold.Chemscore.Metal>
0.0000

> <Gold.Chemscore.Lipo>
130.1858

> <Gold.Chemscore.Internal_Hbond>
0.0000

> <Gold.Chemscore.DEClash>
3.1586

> <Gold.Chemscore.DEInternal>
2.9106

> <Gold.Chemscore.Rot>
3.3203

> <Gold.Chemscore.Internal.Correction>
   9.000000E+99

> <Gold.Chemscore.Hbonds>
donor molecule, donor type, donor heavy atom, donor atom, acceptor molecule, acceptor atom, score
      P1  H  6933  6945       L1    21  0.18
      P1  H  7989  7998       L1    24  0.28
      P1  H  7997  8009       L1    22  0.67
      P1  H  8011  8017       L1     1  0.47

> <Gold.Chemscore.Hbond.Weighted>
-4.9833

> <Gold.Chemscore.Metal.Weighted>
-0.0000

> <Gold.Chemscore.Lipo.Weighted>
-15.2317

> <Gold.Chemscore.Internal_Hbond.Weighted>
0.0000

> <Gold.Chemscore.DEClash.Weighted>
3.1586

> <Gold.Chemscore.DEInternal.Weighted>
2.9106

> <Gold.Chemscore.Rot.Weighted>
8.5000

> <Gold.Chemscore.Internal.Correction.Weighted>
   9.000000E+99

> <Gold.Protein.RotatedTorsions>
[ 6907 6896 6895 6894 ] final -172.63 input  -60.11 | X-H torsion
[ 7974 7965 7964 7962 ] final  -82.64 input  175.53 | X-H torsion
[ 8008 7997 7996 7995 ] final  162.66 input   59.86 | X-H torsion
[ 10167 10162 10161 10158 ] final  -39.02 input  -65.29 | X-H torsion
[ 10718 10713 10712 10709 ] final  -90.69 input   66.30 | X-H torsion
[ 10763 10752 10751 10750 ] final   73.36 input  -60.55 | X-H torsion
[ 11005 11000 10999 10996 ] final  134.27 input  -57.11 | X-H torsion

> <Gold.Protein.ActiveResidues>
 VAL166  LYS551  ARG553  GLY616  TRP617  ASP618  TYR619  PRO620  LYS621  CYS622 
 ASP623  PHE694  ASN695  SER759  ASP760  ASP761  ALA762  ILE779  LEU786  VAL792 
 PHE793  MET794  SER795  GLU796  ALA797  LYS798  CYS799  TRP800  GLU811  SER814 

> <Gold.Protein.RotatedAtoms>
  151.5431  133.3429  159.2938 H   0  0  0  0  0  0  0  0  0  0  0  0  # atno 6907 bound_to 6896
  150.8523  134.7854  159.7030 H   0  0  0  0  0  0  0  0  0  0  0  0  # atno 6908 bound_to 6896
  152.4566  134.5286  159.9856 H   0  0  0  0  0  0  0  0  0  0  0  0  # atno 6909 bound_to 6896
  145.5306  140.9521  143.1605 H   0  0  0  0  0  0  0  0  0  0  0  0  # atno 7974 bound_to 7965
  156.2015  140.1744  156.7889 H   0  0  0  0  0  0  0  0  0  0  0  0  # atno 8008 bound_to 7997
  154.5598  140.0702  156.8831 H   0  0  0  0  0  0  0  0  0  0  0  0  # atno 8009 bound_to 7997
  155.2870  140.3353  155.4257 H   0  0  0  0  0  0  0  0  0  0  0  0  # atno 8010 bound_to 7997
  140.7076  143.3240  151.2724 H   0  0  0  0  0  0  0  0  0  0  0  0  # atno 10167 bound_to 10162
  155.9989  130.4919  150.5361 H   0  0  0  0  0  0  0  0  0  0  0  0  # atno 10718 bound_to 10713
  153.0516  135.5066  154.7881 H   0  0  0  0  0  0  0  0  0  0  0  0  # atno 10763 bound_to 10752
  154.6739  135.2957  154.9707 H   0  0  0  0  0  0  0  0  0  0  0  0  # atno 10764 bound_to 10752
  154.0516  135.6703  153.4854 H   0  0  0  0  0  0  0  0  0  0  0  0  # atno 10765 bound_to 10752
  139.9904  134.9517  156.9842 H   0  0  0  0  0  0  0  0  0  0  0  0  # atno 11005 bound_to 11000
  144.7628  139.6917  143.7227 LP  0  0  0  0  0  0  0  0  0  0  0  0  # atno 17320 bound_to 7965
  146.2046  139.5363  142.9721 LP  0  0  0  0  0  0  0  0  0  0  0  0  # atno 17321 bound_to 7965
  139.6703  144.0032  152.2748 LP  0  0  0  0  0  0  0  0  0  0  0  0  # atno 17342 bound_to 10162
  139.9628  144.6546  150.8063 LP  0  0  0  0  0  0  0  0  0  0  0  0  # atno 17343 bound_to 10162
  157.3304  131.0698  151.1865 LP  0  0  0  0  0  0  0  0  0  0  0  0  # atno 17370 bound_to 10713
  157.2748  130.6721  149.6037 LP  0  0  0  0  0  0  0  0  0  0  0  0  # atno 17371 bound_to 10713
  140.4920  134.1184  155.7234 LP  0  0  0  0  0  0  0  0  0  0  0  0  # atno 17394 bound_to 11000
  141.1561  133.8880  157.1974 LP  0  0  0  0  0  0  0  0  0  0  0  0  # atno 17395 bound_to 11000

$$$$
