AV-unprocessed.smi:356|AV-procd|sdf|2408|dock1
  -GOLD-   2262022343D 1   1.00000     0.00000
 Structure written by MMmdl.
 41 43  0  0  0  0  0  0  0  0  1 V2000
  154.9893  140.4937  161.2394 C   0  0  0  0  0  0  0  0  0  0  0  0
  153.8963  141.4524  160.8863 C   0  0  0  0  0  0  0  0  0  0  0  0
  153.6059  142.5102  161.6439 N   0  0  0  0  0  0  0  0  0  0  0  0
  152.5581  143.0943  160.9583 C   0  0  0  0  0  0  0  0  0  0  0  0
  151.8050  144.2546  161.2483 C   0  0  0  0  0  0  0  0  0  0  0  0
  150.7657  144.6644  160.3877 C   0  0  0  0  0  0  0  0  0  0  0  0
  150.4646  143.9217  159.2276 C   0  0  0  0  0  0  0  0  0  0  0  0
  151.2017  142.7619  158.9205 C   0  0  0  0  0  0  0  0  0  0  0  0
  152.2387  142.3568  159.7824 C   0  0  0  0  0  0  0  0  0  0  0  0
  153.1378  141.2944  159.7740 N   0  0  0  0  0  0  0  0  0  0  0  0
  153.2308  140.2405  158.7734 C   0  0  0  0  0  0  0  0  0  0  0  0
  152.0104  139.2966  158.7904 C   0  0  2  0  0  0  0  0  0  0  0  0
  152.2721  138.2066  159.6511 O   0  0  0  0  0  0  0  0  0  0  0  0
  151.6780  138.7282  157.3963 C   0  0  0  0  0  0  0  0  0  0  0  0
  150.3201  138.9901  156.9167 N   0  0  0  0  0  0  0  0  0  0  0  0
  150.0257  138.3133  155.6551 C   0  0  0  0  0  0  0  0  0  0  0  0
  148.6046  138.6250  155.1539 C   0  0  0  0  0  0  0  0  0  0  0  0
  148.4380  140.0331  155.0270 O   0  0  0  0  0  0  0  0  0  0  0  0
  148.6694  140.7248  156.2495 C   0  0  0  0  0  0  0  0  0  0  0  0
  150.0922  140.4217  156.7503 C   0  0  0  0  0  0  0  0  0  0  0  0
  155.4974  140.8117  162.1502 H   0  0  0  0  0  0  0  0  0  0  0  0
  155.7253  140.4434  160.4374 H   0  0  0  0  0  0  0  0  0  0  0  0
  154.5794  139.4975  161.4062 H   0  0  0  0  0  0  0  0  0  0  0  0
  152.0283  144.8303  162.1343 H   0  0  0  0  0  0  0  0  0  0  0  0
  150.1975  145.5537  160.6190 H   0  0  0  0  0  0  0  0  0  0  0  0
  149.6677  144.2433  158.5732 H   0  0  0  0  0  0  0  0  0  0  0  0
  150.9744  142.1923  158.0319 H   0  0  0  0  0  0  0  0  0  0  0  0
  153.3403  140.7044  157.7930 H   0  0  0  0  0  0  0  0  0  0  0  0
  154.1500  139.6780  158.9411 H   0  0  0  0  0  0  0  0  0  0  0  0
  151.1448  139.8139  159.2016 H   0  0  0  0  0  0  0  0  0  0  0  0
  152.5785  137.4798  159.1310 H   0  0  0  0  0  0  0  0  0  0  0  0
  152.3912  139.1477  156.6851 H   0  0  0  0  0  0  0  0  0  0  0  0
  151.8563  137.6515  157.3943 H   0  0  0  0  0  0  0  0  0  0  0  0
  150.7503  138.6126  154.8963 H   0  0  0  0  0  0  0  0  0  0  0  0
  150.1201  137.2348  155.7706 H   0  0  0  0  0  0  0  0  0  0  0  0
  148.4326  138.1569  154.1847 H   0  0  0  0  0  0  0  0  0  0  0  0
  147.8574  138.2237  155.8402 H   0  0  0  0  0  0  0  0  0  0  0  0
  148.5455  141.7947  156.0827 H   0  0  0  0  0  0  0  0  0  0  0  0
  147.9266  140.4271  156.9911 H   0  0  0  0  0  0  0  0  0  0  0  0
  150.2557  140.9351  157.6983 H   0  0  0  0  0  0  0  0  0  0  0  0
  150.8164  140.8321  156.0445 H   0  0  0  0  0  0  0  0  0  0  0  0
  1  2  1  0  0  0  0
  1 21  1  0  0  0  0
  1 22  1  0  0  0  0
  1 23  1  0  0  0  0
  2 10  1  0  0  0  0
  2  3  2  0  0  0  0
  3  4  1  0  0  0  0
  4  9  2  0  0  0  0
  4  5  1  0  0  0  0
  5  6  2  0  0  0  0
  5 24  1  0  0  0  0
  6  7  1  0  0  0  0
  6 25  1  0  0  0  0
  7  8  2  0  0  0  0
  7 26  1  0  0  0  0
  8  9  1  0  0  0  0
  8 27  1  0  0  0  0
  9 10  1  0  0  0  0
 10 11  1  0  0  0  0
 11 12  1  0  0  0  0
 11 28  1  0  0  0  0
 11 29  1  0  0  0  0
 12 13  1  0  0  0  0
 12 14  1  0  0  0  0
 12 30  1  0  0  0  0
 13 31  1  0  0  0  0
 14 15  1  0  0  0  0
 14 32  1  0  0  0  0
 14 33  1  0  0  0  0
 15 20  1  0  0  0  0
 15 16  1  0  0  0  0
 16 17  1  0  0  0  0
 16 34  1  0  0  0  0
 16 35  1  0  0  0  0
 17 18  1  0  0  0  0
 17 36  1  0  0  0  0
 17 37  1  0  0  0  0
 18 19  1  0  0  0  0
 19 20  1  0  0  0  0
 19 38  1  0  0  0  0
 19 39  1  0  0  0  0
 20 40  1  0  0  0  0
 20 41  1  0  0  0  0
M  END
> <s_m_source_file>
AV-unprocessed.smi

> <i_m_source_file_index>
356

> <i_lp_mmshare_version>
43012

> <i_f3d_flags>
0

> <s_epik_input>
W2NIXTFbY0hdW2NIXVtjSF1jKGMxMiluKGMobjIpW0NIM10pW0NIMl1bQ0BIXShbT0hdKVtDSDJdTjNbQ0gyXVtDSDJdT1tDSDJdW0NIMl0z

> <s_epik_cmdline>
J2VwaWtfcHl0aG9uJywgJy1waCcsICc3LjAnLCAnLXRuJywgJzgnLCAnLW1hJywgJzIwMCcsICctbWV0YWxfYmluZGluZycsICctaW1hZScsICc8aW5maWxlLm1hZT4nLCAnLW9tYWUnLCAnPG91dGZpbGUubWFlPic=

> <r_epik_Ionization_Penalty>
0.355661

> <r_epik_Ionization_Penalty_Charging>
0

> <r_epik_Ionization_Penalty_Neutral>
0.355661

> <r_epik_State_Penalty>
0.325123

> <r_epik_Charging_Adjusted_Penalty>
0.325123

> <i_epik_Tot_Q>
0

> <i_epik_Tot_abs_Q>
0

> <r_epik_Metal_State_Penalty>
0.239925

> <b_epik_Metal_Only>
0

> <s_lp_Force_Field>
OPLS_2005

> <r_lp_Energy>
27.9323

> <b_lp_Chiralities_Consistent>
1

> <s_lp_Variant>
AV-unprocessed.smi:356-1

> <Gold.Version>
5.8.1

> <Gold.Id.Protein>
6NUR|6NUR_protein|mol2

> <Gold.PLP.Fitness>
45.7564

> <Gold.PLP.PLP>
-44.8868

> <Gold.PLP.part.hbond>
-2.0000

> <Gold.PLP.part.metal>
0.0000

> <Gold.PLP.part.buried>
-1.2657

> <Gold.PLP.part.nonpolar>
-41.9689

> <Gold.PLP.part.repulsive>
1.4917

> <Gold.PLP.ligand.clash>
0.0000

> <Gold.PLP.ligand.torsion>
1.2253

> <Gold.PLP.Chemscore.Hbond>
1.0888

> <Gold.PLP.Chemscore.CHOScore>
0.0000

> <Gold.PLP.Chemscore.Metal>
0.0000

> <Gold.PLP.Chemscore.Internal.Correction>
0.0538

> <Gold.Rescore>
     Score         DG    S(hbond)    S(metal)    S(lipo)     H(rot)  DE(clash)    DE(int)     intcor
     14.57     -16.75       0.71        0.00     119.61       1.99       0.94       1.24       ----

> <Gold.Chemscore.Fitness>
14.5744

> <Gold.Chemscore.DG>
-16.7512

> <Gold.Chemscore.ZeroCoef>
-5.4800

> <Gold.Chemscore.Hbond>
0.7071

> <Gold.Chemscore.Metal>
0.0000

> <Gold.Chemscore.Lipo>
119.6110

> <Gold.Chemscore.Internal_Hbond>
0.0000

> <Gold.Chemscore.DEClash>
0.9398

> <Gold.Chemscore.DEInternal>
1.2371

> <Gold.Chemscore.Rot>
1.9863

> <Gold.Chemscore.Internal.Correction>
   9.000000E+99

> <Gold.Chemscore.Hbond.Weighted>
-2.3617

> <Gold.Chemscore.Metal.Weighted>
-0.0000

> <Gold.Chemscore.Lipo.Weighted>
-13.9945

> <Gold.Chemscore.Internal_Hbond.Weighted>
0.0000

> <Gold.Chemscore.DEClash.Weighted>
0.9398

> <Gold.Chemscore.DEInternal.Weighted>
1.2371

> <Gold.Chemscore.Rot.Weighted>
5.0850

> <Gold.Chemscore.Internal.Correction.Weighted>
   9.000000E+99

> <Gold.Protein.RotatedTorsions>
[ 6907 6896 6895 6894 ] final   48.87 input  -60.11 | X-H torsion
[ 7974 7965 7964 7962 ] final  153.83 input  175.53 | X-H torsion
[ 8008 7997 7996 7995 ] final   28.63 input   59.86 | X-H torsion
[ 10167 10162 10161 10158 ] final   10.73 input  -65.29 | X-H torsion
[ 10718 10713 10712 10709 ] final -172.52 input   66.30 | X-H torsion
[ 10763 10752 10751 10750 ] final   71.67 input  -60.55 | X-H torsion
[ 11005 11000 10999 10996 ] final   -5.97 input  -57.11 | X-H torsion

> <Gold.Protein.ActiveResidues>
 VAL166  LYS551  ARG553  GLY616  TRP617  ASP618  TYR619  PRO620  LYS621  CYS622 
 ASP623  PHE694  ASN695  SER759  ASP760  ASP761  ALA762  ILE779  LEU786  VAL792 
 PHE793  MET794  SER795  GLU796  ALA797  LYS798  CYS799  TRP800  GLU811  SER814 

> <Gold.Protein.RotatedAtoms>
  152.2844  134.7792  160.0390 H   0  0  0  0  0  0  0  0  0  0  0  0  # atno 6907 bound_to 6896
  151.8360  133.3411  159.3636 H   0  0  0  0  0  0  0  0  0  0  0  0  # atno 6908 bound_to 6896
  150.7203  134.5365  159.5770 H   0  0  0  0  0  0  0  0  0  0  0  0  # atno 6909 bound_to 6896
  144.8129  139.6852  143.6134 H   0  0  0  0  0  0  0  0  0  0  0  0  # atno 7974 bound_to 7965
  155.0616  140.3191  155.4658 H   0  0  0  0  0  0  0  0  0  0  0  0  # atno 8008 bound_to 7997
  156.2811  140.2128  156.5688 H   0  0  0  0  0  0  0  0  0  0  0  0  # atno 8009 bound_to 7997
  154.7127  140.0496  157.0553 H   0  0  0  0  0  0  0  0  0  0  0  0  # atno 8010 bound_to 7997
  140.6176  143.8274  150.7137 H   0  0  0  0  0  0  0  0  0  0  0  0  # atno 10167 bound_to 10162
  156.7568  130.9398  151.3116 H   0  0  0  0  0  0  0  0  0  0  0  0  # atno 10718 bound_to 10713
  153.0412  135.5128  154.7627 H   0  0  0  0  0  0  0  0  0  0  0  0  # atno 10763 bound_to 10752
  154.6563  135.2932  154.9925 H   0  0  0  0  0  0  0  0  0  0  0  0  # atno 10764 bound_to 10752
  154.0792  135.6666  153.4888 H   0  0  0  0  0  0  0  0  0  0  0  0  # atno 10765 bound_to 10752
  140.6969  133.9023  155.8656 H   0  0  0  0  0  0  0  0  0  0  0  0  # atno 11005 bound_to 11000
  146.2429  139.6038  142.9479 LP  0  0  0  0  0  0  0  0  0  0  0  0  # atno 17320 bound_to 7965
  145.5283  141.0428  143.2397 LP  0  0  0  0  0  0  0  0  0  0  0  0  # atno 17321 bound_to 7965
  140.1857  143.4078  152.1901 LP  0  0  0  0  0  0  0  0  0  0  0  0  # atno 17342 bound_to 10162
  139.5412  144.7257  151.4729 LP  0  0  0  0  0  0  0  0  0  0  0  0  # atno 17343 bound_to 10162
  157.6752  130.9088  150.0134 LP  0  0  0  0  0  0  0  0  0  0  0  0  # atno 17370 bound_to 10713
  156.1365  130.3642  149.9649 LP  0  0  0  0  0  0  0  0  0  0  0  0  # atno 17371 bound_to 10713
  141.0195  134.0908  157.4135 LP  0  0  0  0  0  0  0  0  0  0  0  0  # atno 17394 bound_to 11000
  139.8907  135.0114  156.6753 LP  0  0  0  0  0  0  0  0  0  0  0  0  # atno 17395 bound_to 11000

$$$$
