#       Name:                AV-unprocessed.smi:315
#       Creating user name   scv26
#       Creation time:       Thu Mar 26 22:22:16 2020


#       File generated by GOLD software.
#

@<TRIPOS>MOLECULE
AV-unprocessed.smi:315
    52    54     1
SMALL
NO_CHARGES


@<TRIPOS>ATOM
      1 ****        -1.8383   2.9434  -0.1125 C.3            1 S1                 0.0000
      2 ****        -0.3894   3.4358  -0.1565 C.3            1 S1                 0.0000
      3 ****         0.4546   2.3203  -0.4180 O.3            1 S1                 0.0000
      4 ****         1.8187   2.5208  -0.5091 C.ar           1 S1                 0.0000
      5 ****         2.3024   3.7782  -0.3558 N.ar           1 S1                 0.0000
      6 ****         3.6357   3.9662  -0.4465 C.ar           1 S1                 0.0000
      7 ****         4.5472   2.9232  -0.6979 C.ar           1 S1                 0.0000
      8 ****         4.0465   1.6175  -0.8558 C.ar           1 S1                 0.0000
      9 ****         2.6521   1.4049  -0.7491 C.ar           1 S1                 0.0000
     10 ****         2.0378   0.1363  -0.9089 N.am           1 S1                 0.0000
     11 ****         2.5198  -1.0707  -0.5600 C.2            1 S1                 0.0000
     12 ****         3.6797  -1.2890  -0.2186 O.2            1 S1                 0.0000
     13 ****         1.6025  -2.0548  -0.5958 N.am           1 S1                 0.0000
     14 ****         1.7857  -3.4755  -0.2790 C.3            1 S1                 0.0000
     15 ****         0.4660  -4.2609  -0.2666 C.3            1 S1                 0.0000
     16 ****         0.8314  -5.6792  -0.7407 C.3            1 S1                 0.0000
     17 ****         2.2876  -5.6625  -0.9986 N.4            1 S1                 1.0000
     18 ****         2.8059  -6.6735  -1.9553 C.3            1 S1                 0.0000
     19 ****         2.5574  -6.2859  -3.4225 C.3            1 S1                 0.0000
     20 ****         3.0963  -4.8810  -3.7112 C.3            1 S1                 0.0000
     21 ****         2.4410  -3.8737  -2.7609 C.3            1 S1                 0.0000
     22 ****         2.6617  -4.2589  -1.2762 C.3            1 S1                 0.0000
     23 ****        -2.5242   3.7684   0.0807 H              1 S1                 0.0000
     24 ****        -1.9764   2.2020   0.6746 H              1 S1                 0.0000
     25 ****        -2.1244   2.4849  -1.0593 H              1 S1                 0.0000
     26 ****        -0.2808   4.1889  -0.9386 H              1 S1                 0.0000
     27 ****        -0.1283   3.8964   0.7975 H              1 S1                 0.0000
     28 ****         3.9859   4.9798  -0.3203 H              1 S1                 0.0000
     29 ****         5.6062   3.1210  -0.7724 H              1 S1                 0.0000
     30 ****         4.7312   0.8104  -1.0675 H              1 S1                 0.0000
     31 ****         1.0548   0.1648  -1.1352 H              1 S1                 0.0000
     32 ****         0.6669  -1.7817  -0.8606 H              1 S1                 0.0000
     33 ****         2.2299  -3.5595   0.7149 H              1 S1                 0.0000
     34 ****         0.0119  -4.2645   0.7250 H              1 S1                 0.0000
     35 ****        -0.2573  -3.8216  -0.9555 H              1 S1                 0.0000
     36 ****         0.5910  -6.4358   0.0063 H              1 S1                 0.0000
     37 ****         0.2785  -5.9206  -1.6492 H              1 S1                 0.0000
     38 ****         3.8795  -6.7692  -1.7884 H              1 S1                 0.0000
     39 ****         2.3709  -7.6488  -1.7343 H              1 S1                 0.0000
     40 ****         3.0368  -7.0102  -4.0818 H              1 S1                 0.0000
     41 ****         1.4914  -6.3259  -3.6481 H              1 S1                 0.0000
     42 ****         4.1796  -4.8614  -3.5864 H              1 S1                 0.0000
     43 ****         2.8944  -4.6061  -4.7471 H              1 S1                 0.0000
     44 ****         2.8453  -2.8802  -2.9560 H              1 S1                 0.0000
     45 ****         1.3743  -3.8184  -2.9824 H              1 S1                 0.0000
     46 ****         3.7182  -4.1370  -1.0376 H              1 S1                 0.0000
     47 ****         2.7075  -5.8801  -0.1061 H              1 S1                 0.0000
     48 ****         0.1576   1.9251  -1.2873 LP             1 S1                 0.0000
     49 ****         0.3038   1.6596   0.3173 LP             1 S1                 0.0000
     50 ****         1.6870   4.5465  -0.1801 LP             1 S1                 0.0000
     51 ****         4.3409  -0.5394  -0.1861 LP             1 S1                 0.0000
     52 ****         3.9626  -2.2162   0.0267 LP             1 S1                 0.0000
@<TRIPOS>BOND
    1    1    2 1     
    2    1   23 1     
    3    1   24 1     
    4    1   25 1     
    5    2    3 1     
    6    2   26 1     
    7    2   27 1     
    8    3    4 1     
    9    4    9 ar    
   10    4    5 ar    
   11    5    6 ar    
   12    6    7 ar    
   13    6   28 1     
   14    7    8 ar    
   15    7   29 1     
   16    8    9 ar    
   17    8   30 1     
   18    9   10 1     
   19   10   11 am    
   20   10   31 1     
   21   11   12 2     
   22   11   13 am    
   23   13   14 1     
   24   13   32 1     
   25   14   22 1     
   26   14   15 1     
   27   14   33 1     
   28   15   16 1     
   29   15   34 1     
   30   15   35 1     
   31   16   17 1     
   32   16   36 1     
   33   16   37 1     
   34   17   22 1     
   35   17   18 1     
   36   17   47 1     
   37   18   19 1     
   38   18   38 1     
   39   18   39 1     
   40   19   20 1     
   41   19   40 1     
   42   19   41 1     
   43   20   21 1     
   44   20   42 1     
   45   20   43 1     
   46   21   22 1     
   47   21   44 1     
   48   21   45 1     
   49   22   46 1     
   50    3   48 1     
   51    3   49 1     
   52    5   50 1     
   53   12   51 1     
   54   12   52 1     
@<TRIPOS>SUBSTRUCTURE
      1 S1             1
@<TRIPOS>SET
LONE_PAIRS      STATIC     ATOMS    <user>   **** ""
5 48 49 50 51 52
DONOR_HYDROGENS      STATIC     ATOMS    <user>   **** ""
3 31 32 47
ATOM$BLUE        STATIC     ATOMS    COLORGROUP SYSTEM
5 48 49 50 51 52
ATOM$RED        STATIC     ATOMS    COLORGROUP SYSTEM
3 31 32 47
