AV-unprocessed.smi:55|AV-procd|sdf|567|dock4
  -GOLD-   2262016473D 1   1.00000     0.00000
 Structure written by MMmdl.
 31 32  0  0  0  0  0  0  0  0  1 V2000
  150.3164  142.8398  158.7792 C   0  0  0  0  0  0  0  0  0  0  0  0
  150.6852  141.8836  157.6570 C   0  0  0  0  0  0  0  0  0  0  0  0
  149.9495  141.7760  156.5212 C   0  0  0  0  0  0  0  0  0  0  0  0
  150.2635  140.9168  155.4773 N   0  0  0  0  0  0  0  0  0  0  0  0
  149.4054  140.8511  154.2344 C   0  0  2  0  0  0  0  0  0  0  0  0
  148.2364  141.8331  154.3300 C   0  0  0  0  0  0  0  0  0  0  0  0
  147.1188  141.0389  153.6871 C   0  0  2  0  0  0  0  0  0  0  0  0
  145.8610  141.4767  154.1587 O   0  0  0  0  0  0  0  0  0  0  0  0
  147.4494  139.6104  154.1311 C   0  0  1  0  0  0  0  0  0  0  0  0
  146.8932  138.5071  153.2176 C   0  0  0  0  0  0  0  0  0  0  0  0
  147.4339  138.6191  151.9184 O   0  0  0  0  0  0  0  0  0  0  0  0
  148.8749  139.5629  154.1151 O   0  0  0  0  0  0  0  0  0  0  0  0
  151.4207  140.1153  155.5667 C   0  0  0  0  0  0  0  0  0  0  0  0
  151.7817  139.3535  154.6708 O   0  0  0  0  0  0  0  0  0  0  0  0
  152.1739  140.2214  156.7346 N   0  0  0  0  0  0  0  0  0  0  0  0
  151.8865  141.0594  157.8149 C   0  0  0  0  0  0  0  0  0  0  0  0
  152.6281  141.0612  158.7959 O   0  0  0  0  0  0  0  0  0  0  0  0
  150.0462  141.0223  153.3681 H   0  0  0  0  0  0  0  0  0  0  0  0
  147.1702  141.1301  152.6013 H   0  0  0  0  0  0  0  0  0  0  0  0
  147.1251  139.4504  155.1608 H   0  0  0  0  0  0  0  0  0  0  0  0
  153.0014  139.6471  156.8041 H   0  0  0  0  0  0  0  0  0  0  0  0
  149.3993  143.3869  158.5594 H   0  0  0  0  0  0  0  0  0  0  0  0
  151.1121  143.5693  158.9340 H   0  0  0  0  0  0  0  0  0  0  0  0
  150.1648  142.2948  159.7116 H   0  0  0  0  0  0  0  0  0  0  0  0
  149.0750  142.4013  156.4252 H   0  0  0  0  0  0  0  0  0  0  0  0
  148.0132  142.0388  155.3787 H   0  0  0  0  0  0  0  0  0  0  0  0
  148.4633  142.7715  153.8232 H   0  0  0  0  0  0  0  0  0  0  0  0
  145.2072  141.2601  153.5111 H   0  0  0  0  0  0  0  0  0  0  0  0
  147.1087  137.5173  153.6213 H   0  0  0  0  0  0  0  0  0  0  0  0
  145.8092  138.5952  153.1432 H   0  0  0  0  0  0  0  0  0  0  0  0
  148.0884  137.9465  151.8065 H   0  0  0  0  0  0  0  0  0  0  0  0
  1  2  1  0  0  0  0
  1 22  1  0  0  0  0
  1 23  1  0  0  0  0
  1 24  1  0  0  0  0
  2 16  1  0  0  0  0
  2  3  2  0  0  0  0
  3  4  1  0  0  0  0
  3 25  1  0  0  0  0
  4  5  1  0  0  0  0
  4 13  1  0  0  0  0
  5 18  1  0  0  0  0
  5 12  1  0  0  0  0
  5  6  1  0  0  0  0
  6  7  1  0  0  0  0
  6 26  1  0  0  0  0
  6 27  1  0  0  0  0
  7 19  1  0  0  0  0
  7  8  1  0  0  0  0
  7  9  1  0  0  0  0
  8 28  1  0  0  0  0
  9 20  1  0  0  0  0
  9 10  1  0  0  0  0
  9 12  1  0  0  0  0
 10 11  1  0  0  0  0
 10 29  1  0  0  0  0
 10 30  1  0  0  0  0
 11 31  1  0  0  0  0
 13 14  2  0  0  0  0
 13 15  1  0  0  0  0
 15 21  1  0  0  0  0
 15 16  1  0  0  0  0
 16 17  2  0  0  0  0
M  END
> <s_m_source_file>
AV-unprocessed.smi

> <i_m_source_file_index>
55

> <i_lp_mmshare_version>
43012

> <i_f3d_flags>
0

> <s_epik_input>
Tz1jMVtuSF1jKD1PKW4oW2NIXWMxW0NIM10pW0NAQEhdMltDSDJdW0NAQEhdKFtPSF0pW0NAQEhdKE8yKVtDSDJdW09IXQ==

> <s_epik_cmdline>
J2VwaWtfcHl0aG9uJywgJy1waCcsICc3LjAnLCAnLXRuJywgJzgnLCAnLW1hJywgJzIwMCcsICctbWV0YWxfYmluZGluZycsICctaW1hZScsICc8aW5maWxlLm1hZT4nLCAnLW9tYWUnLCAnPG91dGZpbGUubWFlPic=

> <r_lp_tautomer_probability>
0.999537

> <r_epik_Ionization_Penalty>
0.00121888

> <r_epik_Ionization_Penalty_Charging>
0.00121876

> <r_epik_Ionization_Penalty_Neutral>
1.19946e-07

> <r_epik_State_Penalty>
0.000805124

> <r_epik_Charging_Adjusted_Penalty>
0.00202389

> <i_epik_Tot_Q>
0

> <i_epik_Tot_abs_Q>
0

> <r_epik_Metal_State_Penalty>
0.662472

> <b_epik_Metal_Only>
0

> <s_epik_Chemistry_Notes>
This compound contains an acetal/aminal-like group ( X-CH(R)-Y where X, Y are N, S, or O) that may be acid/base labile, releasing an aldehyde.

> <s_lp_Force_Field>
OPLS_2005

> <r_lp_Energy>
24.0727

> <b_lp_Chiralities_Consistent>
1

> <s_lp_Variant>
AV-unprocessed.smi:55-7

> <Gold.Version>
5.8.1

> <Gold.Id.Protein>
6NUR|6NUR_protein|mol2

> <Gold.PLP.Fitness>
38.9108

> <Gold.PLP.PLP>
-28.8878

> <Gold.PLP.part.hbond>
-4.4291

> <Gold.PLP.part.metal>
0.0000

> <Gold.PLP.part.buried>
-1.6163

> <Gold.PLP.part.nonpolar>
-23.2460

> <Gold.PLP.part.repulsive>
0.5825

> <Gold.PLP.ligand.clash>
0.0000

> <Gold.PLP.ligand.torsion>
0.0174

> <Gold.PLP.Chemscore.Hbond>
2.3500

> <Gold.PLP.Chemscore.CHOScore>
1.0000

> <Gold.PLP.Chemscore.Metal>
0.0000

> <Gold.Chemscore.Hbonds>
donor molecule, donor type, donor heavy atom, donor atom, acceptor molecule, acceptor atom, score
      L1  H     8    28       P1 10175  1.00
      L1  H    11    31       P1  7948  1.00
      P1  H  7989  7998       L1    14  0.35
      L1  C     3    25       P1  8028  1.00

> <Gold.PLP.Chemscore.Internal.Correction>
0.0077

> <Gold.Rescore>
     Score         DG    S(hbond)    S(metal)    S(lipo)     H(rot)  DE(clash)    DE(int)     intcor
      8.37      -9.68       1.90        0.00      41.30       2.73       0.15       1.16       ----

> <Gold.Chemscore.Fitness>
8.3686

> <Gold.Chemscore.DG>
-9.6824

> <Gold.Chemscore.ZeroCoef>
-5.4800

> <Gold.Chemscore.Hbond>
1.9003

> <Gold.Chemscore.Metal>
0.0000

> <Gold.Chemscore.Lipo>
41.3017

> <Gold.Chemscore.Internal_Hbond>
0.0000

> <Gold.Chemscore.DEClash>
0.1500

> <Gold.Chemscore.DEInternal>
1.1638

> <Gold.Chemscore.Rot>
2.7253

> <Gold.Chemscore.Internal.Correction>
   9.000000E+99

> <Gold.Chemscore.Hbonds>
donor molecule, donor type, donor heavy atom, donor atom, acceptor molecule, acceptor atom, score
      L1  H     8    28       P1 10175  0.29
      L1  H    11    31       P1  7948  1.00
      P1  H  7989  7998       L1    14  0.01

> <Gold.Chemscore.Hbond.Weighted>
-6.3469

> <Gold.Chemscore.Metal.Weighted>
-0.0000

> <Gold.Chemscore.Lipo.Weighted>
-4.8323

> <Gold.Chemscore.Internal_Hbond.Weighted>
0.0000

> <Gold.Chemscore.DEClash.Weighted>
0.1500

> <Gold.Chemscore.DEInternal.Weighted>
1.1638

> <Gold.Chemscore.Rot.Weighted>
6.9769

> <Gold.Chemscore.Internal.Correction.Weighted>
   9.000000E+99

> <Gold.Protein.RotatedTorsions>
[ 6907 6896 6895 6894 ] final    8.86 input  -60.11 | X-H torsion
[ 7974 7965 7964 7962 ] final -169.73 input  175.53 | X-H torsion
[ 8008 7997 7996 7995 ] final -107.69 input   59.86 | X-H torsion
[ 10167 10162 10161 10158 ] final  162.08 input  -65.29 | X-H torsion
[ 10718 10713 10712 10709 ] final   -5.96 input   66.30 | X-H torsion
[ 10763 10752 10751 10750 ] final  169.03 input  -60.55 | X-H torsion
[ 11005 11000 10999 10996 ] final  167.55 input  -57.11 | X-H torsion

> <Gold.Protein.ActiveResidues>
 VAL166  LYS551  ARG553  GLY616  TRP617  ASP618  TYR619  PRO620  LYS621  CYS622 
 ASP623  PHE694  ASN695  SER759  ASP760  ASP761  ALA762  ILE779  LEU786  VAL792 
 PHE793  MET794  SER795  GLU796  ALA797  LYS798  CYS799  TRP800  GLU811  SER814 

> <Gold.Protein.RotatedAtoms>
  151.7128  135.0909  160.0270 H   0  0  0  0  0  0  0  0  0  0  0  0  # atno 6907 bound_to 6896
  152.3651  133.6342  159.6053 H   0  0  0  0  0  0  0  0  0  0  0  0  # atno 6908 bound_to 6896
  150.7632  133.9277  159.3459 H   0  0  0  0  0  0  0  0  0  0  0  0  # atno 6909 bound_to 6896
  144.7181  140.2177  143.6320 H   0  0  0  0  0  0  0  0  0  0  0  0  # atno 7974 bound_to 7965
  154.9331  140.0404  157.2058 H   0  0  0  0  0  0  0  0  0  0  0  0  # atno 8008 bound_to 7997
  154.8141  140.2873  155.5811 H   0  0  0  0  0  0  0  0  0  0  0  0  # atno 8009 bound_to 7997
  156.2974  140.2531  156.3035 H   0  0  0  0  0  0  0  0  0  0  0  0  # atno 8010 bound_to 7997
  139.4856  144.4473  151.8875 H   0  0  0  0  0  0  0  0  0  0  0  0  # atno 10167 bound_to 10162
  156.7389  130.5203  149.5828 H   0  0  0  0  0  0  0  0  0  0  0  0  # atno 10718 bound_to 10713
  154.3772  135.2753  155.2232 H   0  0  0  0  0  0  0  0  0  0  0  0  # atno 10763 bound_to 10752
  154.4354  135.5967  153.6099 H   0  0  0  0  0  0  0  0  0  0  0  0  # atno 10764 bound_to 10752
  152.9836  135.6006  154.4011 H   0  0  0  0  0  0  0  0  0  0  0  0  # atno 10765 bound_to 10752
  140.2780  134.7773  157.3733 H   0  0  0  0  0  0  0  0  0  0  0  0  # atno 11005 bound_to 11000
  145.8531  139.2185  143.1761 LP  0  0  0  0  0  0  0  0  0  0  0  0  # atno 17320 bound_to 7965
  146.0243  140.8319  142.9908 LP  0  0  0  0  0  0  0  0  0  0  0  0  # atno 17321 bound_to 7965
  140.3928  144.2593  150.5898 LP  0  0  0  0  0  0  0  0  0  0  0  0  # atno 17342 bound_to 10162
  140.5130  143.2285  151.8506 LP  0  0  0  0  0  0  0  0  0  0  0  0  # atno 17343 bound_to 10162
  156.1478  130.6289  151.0555 LP  0  0  0  0  0  0  0  0  0  0  0  0  # atno 17370 bound_to 10713
  157.6827  131.0833  150.7326 LP  0  0  0  0  0  0  0  0  0  0  0  0  # atno 17371 bound_to 10713
  140.1310  134.5095  155.8105 LP  0  0  0  0  0  0  0  0  0  0  0  0  # atno 17394 bound_to 11000
  141.2167  133.6790  156.7039 LP  0  0  0  0  0  0  0  0  0  0  0  0  # atno 17395 bound_to 11000

$$$$
