AV-unprocessed.smi:1945|AV-procd|sdf|7857|dock1
  -GOLD-   2272010 03D 1   1.00000     0.00000
 Structure written by MMmdl.
 47 48  0  0  0  0  0  0  0  0  1 V2000
  145.0266  133.5134  150.5548 C   0  0  0  0  0  0  0  0  0  0  0  0
  144.7733  134.8336  151.2204 C   0  0  0  0  0  0  0  0  0  0  0  0
  145.6114  135.9863  151.2295 C   0  0  0  0  0  0  0  0  0  0  0  0
  144.8884  136.8782  151.9736 C   0  0  0  0  0  0  0  0  0  0  0  0
  145.1948  138.1613  152.3027 N   0  0  0  0  0  0  0  0  0  0  0  0
  146.3436  138.6457  152.8048 C   0  0  0  0  0  0  0  0  0  0  0  0
  147.3122  137.9682  153.1489 O   0  0  0  0  0  0  0  0  0  0  0  0
  146.3073  139.9835  152.8908 N   0  0  0  0  0  0  0  0  0  0  0  0
  147.4124  140.8280  153.3326 C   0  0  0  0  0  0  0  0  0  0  0  0
  147.9708  140.3598  154.6847 C   0  0  0  0  0  0  0  0  0  0  0  0
  149.2446  140.9520  154.8886 O   0  0  0  0  0  0  0  0  0  0  0  0
  149.8829  140.5951  156.1061 C   0  0  2  0  0  0  0  0  0  0  0  0
  149.8083  141.7876  157.0835 C   0  0  0  0  0  0  0  0  0  0  0  0
  150.6148  141.5224  158.3632 C   0  0  0  0  0  0  0  0  0  0  0  0
  152.0738  141.1788  158.0328 C   0  0  0  0  0  0  0  0  0  0  0  0
  152.1535  139.9849  157.0699 C   0  0  0  0  0  0  0  0  0  0  0  0
  151.3504  140.2379  155.7782 C   0  0  1  0  0  0  0  0  0  0  0  0
  151.4440  139.0277  154.8351 C   0  0  0  0  0  0  0  0  0  0  0  0
  143.7091  136.2819  152.3610 N   0  0  0  0  0  0  0  0  0  0  0  0
  142.6199  136.8188  153.1532 C   0  0  0  0  0  0  0  0  0  0  0  0
  143.6453  135.0147  151.8981 N   0  0  0  0  0  0  0  0  0  0  0  0
  145.9379  133.5419  149.9571 H   0  0  0  0  0  0  0  0  0  0  0  0
  144.2046  133.2432  149.8914 H   0  0  0  0  0  0  0  0  0  0  0  0
  145.1377  132.7178  151.2917 H   0  0  0  0  0  0  0  0  0  0  0  0
  146.5743  136.1168  150.7590 H   0  0  0  0  0  0  0  0  0  0  0  0
  144.4697  138.8382  152.1166 H   0  0  0  0  0  0  0  0  0  0  0  0
  145.4657  140.4561  152.5957 H   0  0  0  0  0  0  0  0  0  0  0  0
  148.1953  140.7638  152.5767 H   0  0  0  0  0  0  0  0  0  0  0  0
  147.1117  141.8761  153.3786 H   0  0  0  0  0  0  0  0  0  0  0  0
  147.2745  140.6149  155.4840 H   0  0  0  0  0  0  0  0  0  0  0  0
  148.0805  139.2747  154.6854 H   0  0  0  0  0  0  0  0  0  0  0  0
  149.3987  139.7210  156.5467 H   0  0  0  0  0  0  0  0  0  0  0  0
  150.1921  142.6837  156.5935 H   0  0  0  0  0  0  0  0  0  0  0  0
  148.7741  142.0039  157.3498 H   0  0  0  0  0  0  0  0  0  0  0  0
  150.5764  142.3963  159.0141 H   0  0  0  0  0  0  0  0  0  0  0  0
  150.1608  140.7009  158.9188 H   0  0  0  0  0  0  0  0  0  0  0  0
  152.5618  142.0450  157.5838 H   0  0  0  0  0  0  0  0  0  0  0  0
  152.6209  140.9554  158.9491 H   0  0  0  0  0  0  0  0  0  0  0  0
  153.1974  139.7846  156.8262 H   0  0  0  0  0  0  0  0  0  0  0  0
  151.7770  139.0910  157.5690 H   0  0  0  0  0  0  0  0  0  0  0  0
  151.8002  141.0910  155.2675 H   0  0  0  0  0  0  0  0  0  0  0  0
  150.9970  138.1401  155.2840 H   0  0  0  0  0  0  0  0  0  0  0  0
  152.4825  138.7945  154.5985 H   0  0  0  0  0  0  0  0  0  0  0  0
  150.9303  139.2181  153.8924 H   0  0  0  0  0  0  0  0  0  0  0  0
  142.3957  137.8367  152.8330 H   0  0  0  0  0  0  0  0  0  0  0  0
  142.9060  136.8298  154.2050 H   0  0  0  0  0  0  0  0  0  0  0  0
  141.7233  136.2091  153.0334 H   0  0  0  0  0  0  0  0  0  0  0  0
  1  2  1  0  0  0  0
  1 22  1  0  0  0  0
  1 23  1  0  0  0  0
  1 24  1  0  0  0  0
  2 21  2  0  0  0  0
  2  3  1  0  0  0  0
  3  4  2  0  0  0  0
  3 25  1  0  0  0  0
  4  5  1  0  0  0  0
  4 19  1  0  0  0  0
  5  6  1  0  0  0  0
  5 26  1  0  0  0  0
  6  7  2  0  0  0  0
  6  8  1  0  0  0  0
  8  9  1  0  0  0  0
  8 27  1  0  0  0  0
  9 10  1  0  0  0  0
  9 28  1  0  0  0  0
  9 29  1  0  0  0  0
 10 11  1  0  0  0  0
 10 30  1  0  0  0  0
 10 31  1  0  0  0  0
 11 12  1  0  0  0  0
 12 17  1  0  0  0  0
 12 13  1  0  0  0  0
 12 32  1  0  0  0  0
 13 14  1  0  0  0  0
 13 33  1  0  0  0  0
 13 34  1  0  0  0  0
 14 15  1  0  0  0  0
 14 35  1  0  0  0  0
 14 36  1  0  0  0  0
 15 16  1  0  0  0  0
 15 37  1  0  0  0  0
 15 38  1  0  0  0  0
 16 17  1  0  0  0  0
 16 39  1  0  0  0  0
 16 40  1  0  0  0  0
 17 18  1  0  0  0  0
 17 41  1  0  0  0  0
 18 42  1  0  0  0  0
 18 43  1  0  0  0  0
 18 44  1  0  0  0  0
 19 20  1  0  0  0  0
 19 21  1  0  0  0  0
 20 45  1  0  0  0  0
 20 46  1  0  0  0  0
 20 47  1  0  0  0  0
M  END
> <s_m_source_file>
AV-unprocessed.smi

> <i_m_source_file_index>
1945

> <i_lp_mmshare_version>
43012

> <i_f3d_flags>
0

> <s_epik_input>
W0NIM11jMVtjSF1jKG4objEpW0NIM10pW05IXUMoPU8pW05IXVtDSDJdW0NIMl1PW0NAQEhdMltDSDJdW0NIMl1bQ0gyXVtDSDJdW0NASF0yW0NIM10=

> <s_epik_cmdline>
J2VwaWtfcHl0aG9uJywgJy1waCcsICc3LjAnLCAnLXRuJywgJzgnLCAnLW1hJywgJzIwMCcsICctbWV0YWxfYmluZGluZycsICctaW1hZScsICc8aW5maWxlLm1hZT4nLCAnLW9tYWUnLCAnPG91dGZpbGUubWFlPic=

> <r_lp_tautomer_probability>
1

> <r_epik_Ionization_Penalty>
9.47735e-05

> <r_epik_Ionization_Penalty_Charging>
0

> <r_epik_Ionization_Penalty_Neutral>
9.47735e-05

> <r_epik_State_Penalty>
-0

> <r_epik_Charging_Adjusted_Penalty>
0

> <i_epik_Tot_Q>
0

> <i_epik_Tot_abs_Q>
0

> <r_epik_Metal_State_Penalty>
-0

> <b_epik_Metal_Only>
0

> <s_lp_Force_Field>
OPLS_2005

> <r_lp_Energy>
11.707

> <b_lp_Chiralities_Consistent>
1

> <s_lp_Variant>
AV-unprocessed.smi:1945-1

> <Gold.Version>
5.8.1

> <Gold.Id.Protein>
6NUR|6NUR_protein|mol2

> <Gold.PLP.Fitness>
37.5879

> <Gold.PLP.PLP>
-33.8006

> <Gold.PLP.part.hbond>
-3.0000

> <Gold.PLP.part.metal>
0.0000

> <Gold.PLP.part.buried>
-2.8808

> <Gold.PLP.part.nonpolar>
-30.8325

> <Gold.PLP.part.repulsive>
3.3341

> <Gold.PLP.ligand.clash>
0.0000

> <Gold.PLP.ligand.torsion>
1.1593

> <Gold.PLP.Chemscore.Hbond>
2.0000

> <Gold.PLP.Chemscore.CHOScore>
0.0000

> <Gold.PLP.Chemscore.Metal>
0.0000

> <Gold.Chemscore.Hbonds>
donor molecule, donor type, donor heavy atom, donor atom, acceptor molecule, acceptor atom, score
      L1  H     5    26       P1 10175  1.00
      L1  H     8    27       P1 10175  1.00

> <Gold.PLP.Chemscore.Internal.Correction>
0.1058

> <Gold.Rescore>
     Score         DG    S(hbond)    S(metal)    S(lipo)     H(rot)  DE(clash)    DE(int)     intcor
     13.50     -15.92       1.93        0.00      69.83       1.63       0.06       2.36       ----

> <Gold.Chemscore.Fitness>
13.4986

> <Gold.Chemscore.DG>
-15.9157

> <Gold.Chemscore.ZeroCoef>
-5.4800

> <Gold.Chemscore.Hbond>
1.9290

> <Gold.Chemscore.Metal>
0.0000

> <Gold.Chemscore.Lipo>
69.8260

> <Gold.Chemscore.Internal_Hbond>
0.0000

> <Gold.Chemscore.DEClash>
0.0586

> <Gold.Chemscore.DEInternal>
2.3585

> <Gold.Chemscore.Rot>
1.6316

> <Gold.Chemscore.Internal.Correction>
   9.000000E+99

> <Gold.Chemscore.Hbonds>
donor molecule, donor type, donor heavy atom, donor atom, acceptor molecule, acceptor atom, score
      L1  H     5    26       P1 10175  0.95
      L1  H     8    27       P1 10175  0.62

> <Gold.Chemscore.Hbond.Weighted>
-6.4429

> <Gold.Chemscore.Metal.Weighted>
-0.0000

> <Gold.Chemscore.Lipo.Weighted>
-8.1696

> <Gold.Chemscore.Internal_Hbond.Weighted>
0.0000

> <Gold.Chemscore.DEClash.Weighted>
0.0586

> <Gold.Chemscore.DEInternal.Weighted>
2.3585

> <Gold.Chemscore.Rot.Weighted>
4.1768

> <Gold.Chemscore.Internal.Correction.Weighted>
   9.000000E+99

> <Gold.Protein.RotatedTorsions>
[ 6907 6896 6895 6894 ] final -111.89 input  -60.11 | X-H torsion
[ 7974 7965 7964 7962 ] final   -8.09 input  175.53 | X-H torsion
[ 8008 7997 7996 7995 ] final   19.90 input   59.86 | X-H torsion
[ 10167 10162 10161 10158 ] final  -16.50 input  -65.29 | X-H torsion
[ 10718 10713 10712 10709 ] final  -76.85 input   66.30 | X-H torsion
[ 10763 10752 10751 10750 ] final  -46.67 input  -60.55 | X-H torsion
[ 11005 11000 10999 10996 ] final  175.61 input  -57.11 | X-H torsion

> <Gold.Protein.ActiveResidues>
 VAL166  LYS551  ARG553  GLY616  TRP617  ASP618  TYR619  PRO620  LYS621  CYS622 
 ASP623  PHE694  ASN695  SER759  ASP760  ASP761  ALA762  ILE779  LEU786  VAL792 
 PHE793  MET794  SER795  GLU796  ALA797  LYS798  CYS799  TRP800  GLU811  SER814 

> <Gold.Protein.RotatedAtoms>
  150.7720  133.9170  159.3386 H   0  0  0  0  0  0  0  0  0  0  0  0  # atno 6907 bound_to 6896
  151.7054  135.0920  160.0268 H   0  0  0  0  0  0  0  0  0  0  0  0  # atno 6908 bound_to 6896
  152.3742  133.6421  159.6146 H   0  0  0  0  0  0  0  0  0  0  0  0  # atno 6909 bound_to 6896
  146.2290  140.2416  142.8343 H   0  0  0  0  0  0  0  0  0  0  0  0  # atno 7974 bound_to 7965
  154.9276  140.3036  155.5184 H   0  0  0  0  0  0  0  0  0  0  0  0  # atno 8008 bound_to 7997
  156.3006  140.2360  156.4269 H   0  0  0  0  0  0  0  0  0  0  0  0  # atno 8009 bound_to 7997
  154.8269  140.0420  157.1439 H   0  0  0  0  0  0  0  0  0  0  0  0  # atno 8010 bound_to 7997
  140.7234  143.5110  150.9750 H   0  0  0  0  0  0  0  0  0  0  0  0  # atno 10167 bound_to 10162
  156.0162  130.4476  150.3256 H   0  0  0  0  0  0  0  0  0  0  0  0  # atno 10718 bound_to 10713
  154.0488  135.6634  153.4798 H   0  0  0  0  0  0  0  0  0  0  0  0  # atno 10763 bound_to 10752
  153.0472  135.5107  154.7771 H   0  0  0  0  0  0  0  0  0  0  0  0  # atno 10764 bound_to 10752
  154.6770  135.3039  154.9631 H   0  0  0  0  0  0  0  0  0  0  0  0  # atno 10765 bound_to 10752
  140.3641  134.7087  157.4350 H   0  0  0  0  0  0  0  0  0  0  0  0  # atno 11005 bound_to 11000
  144.9480  140.8148  143.5589 LP  0  0  0  0  0  0  0  0  0  0  0  0  # atno 17320 bound_to 7965
  145.2374  139.2087  143.5010 LP  0  0  0  0  0  0  0  0  0  0  0  0  # atno 17321 bound_to 7965
  139.8824  143.7056  152.3155 LP  0  0  0  0  0  0  0  0  0  0  0  0  # atno 17342 bound_to 10162
  139.7342  144.7575  151.0753 LP  0  0  0  0  0  0  0  0  0  0  0  0  # atno 17343 bound_to 10162
  157.1355  131.0283  151.2950 LP  0  0  0  0  0  0  0  0  0  0  0  0  # atno 17370 bound_to 10713
  157.4515  130.7601  149.7155 LP  0  0  0  0  0  0  0  0  0  0  0  0  # atno 17371 bound_to 10713
  140.0603  134.6004  155.8756 LP  0  0  0  0  0  0  0  0  0  0  0  0  # atno 17394 bound_to 11000
  141.1975  133.6597  156.5745 LP  0  0  0  0  0  0  0  0  0  0  0  0  # atno 17395 bound_to 11000

$$$$
