AV-unprocessed.smi:713|AV-procd|sdf|3474|dock10
  -GOLD-   22720 0463D 1   1.00000     0.00000
 Structure written by MMmdl.
 41 42  0  0  0  0  0  0  0  0  1 V2000
  151.8522  144.9986  159.0716 C   0  0  0  0  0  0  0  0  0  0  0  0
  152.4925  143.5961  159.0257 C   0  0  2  0  0  0  0  0  0  0  0  0
  151.6532  142.5735  158.2391 C   0  0  0  0  0  0  0  0  0  0  0  0
  150.5529  142.8806  157.7782 O   0  0  0  0  0  0  0  0  0  0  0  0
  152.1965  141.3553  158.0806 N   0  0  0  0  0  0  0  0  0  0  0  0
  151.5733  140.2381  157.3795 C   0  0  2  0  0  0  0  0  0  0  0  0
  151.3104  140.6327  155.9152 C   0  0  0  0  0  0  0  0  0  0  0  0
  150.6128  139.5039  155.1400 C   0  0  0  0  0  0  0  0  0  0  0  0
  149.3228  139.0443  155.8440 C   0  0  0  0  0  0  0  0  0  0  0  0
  149.5190  138.6971  157.3377 C   0  0  1  0  0  0  0  0  0  0  0  0
  150.3589  137.0604  157.6185 S   0  0  0  0  0  0  0  0  0  0  0  0
  152.0020  137.3166  156.8292 C   0  0  0  0  0  0  0  0  0  0  0  0
  150.5853  136.8503  159.0559 O   0  0  0  0  0  0  0  0  0  0  0  0
  149.6354  136.0387  156.8471 O   0  0  0  0  0  0  0  0  0  0  0  0
  150.2563  139.8335  158.0735 C   0  0  0  0  0  0  0  0  0  0  0  0
  152.7991  143.0982  160.3626 N   0  0  0  0  0  0  0  0  0  0  0  0
  152.4787  143.6726  161.5762 C   0  0  0  0  0  0  0  0  0  0  0  0
  152.9946  142.8752  162.5571 C   0  0  0  0  0  0  0  0  0  0  0  0
  153.6299  141.8243  161.8388 C   0  0  0  0  0  0  0  0  0  0  0  0
  153.5169  141.9624  160.5283 N   0  0  0  0  0  0  0  0  0  0  0  0
  151.7034  145.3971  158.0676 H   0  0  0  0  0  0  0  0  0  0  0  0
  152.4917  145.6998  159.6081 H   0  0  0  0  0  0  0  0  0  0  0  0
  150.8824  144.9883  159.5709 H   0  0  0  0  0  0  0  0  0  0  0  0
  153.4408  143.6929  158.4948 H   0  0  0  0  0  0  0  0  0  0  0  0
  153.1044  141.1861  158.4887 H   0  0  0  0  0  0  0  0  0  0  0  0
  152.2655  139.3953  157.3874 H   0  0  0  0  0  0  0  0  0  0  0  0
  150.6893  141.5291  155.8807 H   0  0  0  0  0  0  0  0  0  0  0  0
  152.2491  140.8886  155.4222 H   0  0  0  0  0  0  0  0  0  0  0  0
  150.3749  139.8472  154.1329 H   0  0  0  0  0  0  0  0  0  0  0  0
  151.2982  138.6685  155.0099 H   0  0  0  0  0  0  0  0  0  0  0  0
  148.5927  139.8517  155.7745 H   0  0  0  0  0  0  0  0  0  0  0  0
  148.8831  138.2061  155.3054 H   0  0  0  0  0  0  0  0  0  0  0  0
  148.5343  138.5931  157.7939 H   0  0  0  0  0  0  0  0  0  0  0  0
  152.5517  136.3756  156.8336 H   0  0  0  0  0  0  0  0  0  0  0  0
  152.5716  138.0613  157.3837 H   0  0  0  0  0  0  0  0  0  0  0  0
  151.8662  137.6483  155.8002 H   0  0  0  0  0  0  0  0  0  0  0  0
  150.4461  139.5429  159.1073 H   0  0  0  0  0  0  0  0  0  0  0  0
  149.5987  140.7026  158.1238 H   0  0  0  0  0  0  0  0  0  0  0  0
  151.9160  144.5923  161.6400 H   0  0  0  0  0  0  0  0  0  0  0  0
  152.9304  143.0216  163.6250 H   0  0  0  0  0  0  0  0  0  0  0  0
  154.1684  140.9726  162.2277 H   0  0  0  0  0  0  0  0  0  0  0  0
  1  2  1  0  0  0  0
  1 21  1  0  0  0  0
  1 22  1  0  0  0  0
  1 23  1  0  0  0  0
  2  3  1  0  0  0  0
  2 16  1  0  0  0  0
  2 24  1  0  0  0  0
  3  4  2  0  0  0  0
  3  5  1  0  0  0  0
  5  6  1  0  0  0  0
  5 25  1  0  0  0  0
  6 15  1  0  0  0  0
  6  7  1  0  0  0  0
  6 26  1  0  0  0  0
  7  8  1  0  0  0  0
  7 27  1  0  0  0  0
  7 28  1  0  0  0  0
  8  9  1  0  0  0  0
  8 29  1  0  0  0  0
  8 30  1  0  0  0  0
  9 10  1  0  0  0  0
  9 31  1  0  0  0  0
  9 32  1  0  0  0  0
 10 11  1  0  0  0  0
 10 15  1  0  0  0  0
 10 33  1  0  0  0  0
 11 12  1  0  0  0  0
 11 13  2  0  0  0  0
 11 14  2  0  0  0  0
 12 34  1  0  0  0  0
 12 35  1  0  0  0  0
 12 36  1  0  0  0  0
 15 37  1  0  0  0  0
 15 38  1  0  0  0  0
 16 20  1  0  0  0  0
 16 17  1  0  0  0  0
 17 18  2  0  0  0  0
 17 39  1  0  0  0  0
 18 19  1  0  0  0  0
 18 40  1  0  0  0  0
 19 20  2  0  0  0  0
 19 41  1  0  0  0  0
M  END
> <s_m_source_file>
AV-unprocessed.smi

> <i_m_source_file_index>
713

> <i_lp_mmshare_version>
43012

> <i_f3d_flags>
0

> <s_epik_input>
bjFbY0hdW2NIXVtjSF1uMVtDQEhdKFtDSDNdKUMoPU8pW05IXVtDQEBIXTJbQ0gyXVtDSDJdW0NIMl1bQ0BIXShbQ0gyXTIpUyg9TykoPU8pW0NIM10=

> <s_epik_cmdline>
J2VwaWtfcHl0aG9uJywgJy1waCcsICc3LjAnLCAnLXRuJywgJzgnLCAnLW1hJywgJzIwMCcsICctbWV0YWxfYmluZGluZycsICctaW1hZScsICc8aW5maWxlLm1hZT4nLCAnLW9tYWUnLCAnPG91dGZpbGUubWFlPic=

> <r_lp_tautomer_probability>
1

> <r_epik_Ionization_Penalty>
4.07816e-05

> <r_epik_Ionization_Penalty_Charging>
0

> <r_epik_Ionization_Penalty_Neutral>
4.07816e-05

> <r_epik_State_Penalty>
-0

> <r_epik_Charging_Adjusted_Penalty>
0

> <i_epik_Tot_Q>
0

> <i_epik_Tot_abs_Q>
0

> <r_epik_Metal_State_Penalty>
-0

> <b_epik_Metal_Only>
0

> <s_lp_Force_Field>
OPLS_2005

> <r_lp_Energy>
4.10812

> <b_lp_Chiralities_Consistent>
1

> <s_lp_Variant>
AV-unprocessed.smi:713-1

> <Gold.Version>
5.8.1

> <Gold.Id.Protein>
6NUR|6NUR_protein|mol2

> <Gold.PLP.Fitness>
43.6285

> <Gold.PLP.PLP>
-40.6815

> <Gold.PLP.part.hbond>
-1.0000

> <Gold.PLP.part.metal>
0.0000

> <Gold.PLP.part.buried>
-5.7668

> <Gold.PLP.part.nonpolar>
-32.7880

> <Gold.PLP.part.repulsive>
0.2243

> <Gold.PLP.ligand.clash>
0.0000

> <Gold.PLP.ligand.torsion>
0.1712

> <Gold.PLP.Chemscore.Hbond>
1.0000

> <Gold.PLP.Chemscore.CHOScore>
0.0000

> <Gold.PLP.Chemscore.Metal>
0.0000

> <Gold.Chemscore.Hbonds>
donor molecule, donor type, donor heavy atom, donor atom, acceptor molecule, acceptor atom, score
      P1  H  6896  6907       L1    13  1.00

> <Gold.PLP.Chemscore.Internal.Correction>
0.2894

> <Gold.Rescore>
     Score         DG    S(hbond)    S(metal)    S(lipo)     H(rot)  DE(clash)    DE(int)     intcor
     11.63     -15.43       0.98        0.00      94.89       1.72       0.07       3.73       ----

> <Gold.Chemscore.Fitness>
11.6305

> <Gold.Chemscore.DG>
-15.4329

> <Gold.Chemscore.ZeroCoef>
-5.4800

> <Gold.Chemscore.Hbond>
0.9781

> <Gold.Chemscore.Metal>
0.0000

> <Gold.Chemscore.Lipo>
94.8862

> <Gold.Chemscore.Internal_Hbond>
0.0000

> <Gold.Chemscore.DEClash>
0.0727

> <Gold.Chemscore.DEInternal>
3.7297

> <Gold.Chemscore.Rot>
1.7249

> <Gold.Chemscore.Internal.Correction>
   9.000000E+99

> <Gold.Chemscore.Hbonds>
donor molecule, donor type, donor heavy atom, donor atom, acceptor molecule, acceptor atom, score
      P1  H  6896  6907       L1    13  0.91

> <Gold.Chemscore.Hbond.Weighted>
-3.2670

> <Gold.Chemscore.Metal.Weighted>
-0.0000

> <Gold.Chemscore.Lipo.Weighted>
-11.1017

> <Gold.Chemscore.Internal_Hbond.Weighted>
0.0000

> <Gold.Chemscore.DEClash.Weighted>
0.0727

> <Gold.Chemscore.DEInternal.Weighted>
3.7297

> <Gold.Chemscore.Rot.Weighted>
4.4157

> <Gold.Chemscore.Internal.Correction.Weighted>
   9.000000E+99

> <Gold.Protein.RotatedTorsions>
[ 6907 6896 6895 6894 ] final  -37.24 input  -60.11 | X-H torsion
[ 7974 7965 7964 7962 ] final  -62.72 input  175.53 | X-H torsion
[ 8008 7997 7996 7995 ] final  -29.36 input   59.86 | X-H torsion
[ 10167 10162 10161 10158 ] final  -45.04 input  -65.29 | X-H torsion
[ 10718 10713 10712 10709 ] final   27.96 input   66.30 | X-H torsion
[ 10763 10752 10751 10750 ] final -116.36 input  -60.55 | X-H torsion
[ 11005 11000 10999 10996 ] final    1.42 input  -57.11 | X-H torsion

> <Gold.Protein.ActiveResidues>
 VAL166  LYS551  ARG553  GLY616  TRP617  ASP618  TYR619  PRO620  LYS621  CYS622 
 ASP623  PHE694  ASN695  SER759  ASP760  ASP761  ALA762  ILE779  LEU786  VAL792 
 PHE793  MET794  SER795  GLU796  ALA797  LYS798  CYS799  TRP800  GLU811  SER814 

> <Gold.Protein.RotatedAtoms>
  151.0171  134.9441  159.8038 H   0  0  0  0  0  0  0  0  0  0  0  0  # atno 6907 bound_to 6896
  152.5316  134.2952  159.9068 H   0  0  0  0  0  0  0  0  0  0  0  0  # atno 6908 bound_to 6896
  151.2959  133.4102  159.2670 H   0  0  0  0  0  0  0  0  0  0  0  0  # atno 6909 bound_to 6896
  145.7878  140.8726  143.0296 H   0  0  0  0  0  0  0  0  0  0  0  0  # atno 7974 bound_to 7965
  154.4293  140.1820  156.1235 H   0  0  0  0  0  0  0  0  0  0  0  0  # atno 8008 bound_to 7997
  156.0124  140.3349  155.6929 H   0  0  0  0  0  0  0  0  0  0  0  0  # atno 8009 bound_to 7997
  155.6092  140.0648  157.2702 H   0  0  0  0  0  0  0  0  0  0  0  0  # atno 8010 bound_to 7997
  140.6874  143.2899  151.3581 H   0  0  0  0  0  0  0  0  0  0  0  0  # atno 10167 bound_to 10162
  157.2271  130.7006  149.6296 H   0  0  0  0  0  0  0  0  0  0  0  0  # atno 10718 bound_to 10713
  154.8516  135.4348  154.1809 H   0  0  0  0  0  0  0  0  0  0  0  0  # atno 10763 bound_to 10752
  153.2900  135.6960  153.7308 H   0  0  0  0  0  0  0  0  0  0  0  0  # atno 10764 bound_to 10752
  153.6479  135.3456  155.3066 H   0  0  0  0  0  0  0  0  0  0  0  0  # atno 10765 bound_to 10752
  140.6156  133.9708  155.8199 H   0  0  0  0  0  0  0  0  0  0  0  0  # atno 11005 bound_to 11000
  144.6786  140.0080  143.7484 LP  0  0  0  0  0  0  0  0  0  0  0  0  # atno 17320 bound_to 7965
  146.0008  139.3089  143.0929 LP  0  0  0  0  0  0  0  0  0  0  0  0  # atno 17321 bound_to 7965
  139.6244  144.0844  152.2420 LP  0  0  0  0  0  0  0  0  0  0  0  0  # atno 17342 bound_to 10162
  140.0298  144.6089  150.7497 LP  0  0  0  0  0  0  0  0  0  0  0  0  # atno 17343 bound_to 10162
  155.9678  130.4501  150.5683 LP  0  0  0  0  0  0  0  0  0  0  0  0  # atno 17370 bound_to 10713
  157.3516  131.0734  151.1708 LP  0  0  0  0  0  0  0  0  0  0  0  0  # atno 17371 bound_to 10713
  141.0778  134.0108  157.3432 LP  0  0  0  0  0  0  0  0  0  0  0  0  # atno 17394 bound_to 11000
  139.9174  135.0198  156.7935 LP  0  0  0  0  0  0  0  0  0  0  0  0  # atno 17395 bound_to 11000

$$$$
