AV-unprocessed.smi:1313|AV-procd|sdf|5452|dock6
  -GOLD-   22720 5 23D 1   1.00000     0.00000
 Structure written by MMmdl.
 36 37  0  0  0  0  0  0  0  0  2 V2000
  148.6962  141.5001  153.7362 C   0  0  0  0  0  0  0  0  0  0  0  0
  149.5529  140.8680  154.8122 C   0  0  0  0  0  0  0  0  0  0  0  0
  150.5204  140.1040  154.4741 N   0  0  0  0  0  0  0  0  0  0  0  0
  151.3184  139.5158  155.4701 C   0  0  0  0  0  0  0  0  0  0  0  0
  152.4445  138.6250  154.9739 C   0  0  0  0  0  0  0  0  0  0  0  0
  151.0806  139.7470  156.7935 C   0  0  0  0  0  0  0  0  0  0  0  0
  151.9176  139.1312  157.9142 C   0  0  0  0  0  0  0  0  0  0  0  0
  152.8587  140.0998  158.6320 C   0  0  0  0  0  0  0  0  0  0  0  0
  153.9725  139.7222  158.9952 O   0  0  0  0  0  0  0  0  0  0  0  0
  152.3985  141.3438  158.8359 N   0  0  0  0  0  0  0  0  0  0  0  0
  153.1231  142.4045  159.5298 C   0  0  0  0  0  0  0  0  0  0  0  0
  153.2331  142.0978  161.0354 C   0  0  0  0  0  0  0  0  0  0  0  0
  152.8582  143.3929  161.7570 C   0  0  0  0  0  0  0  0  0  0  0  0
  151.8605  144.0670  160.8209 C   0  0  0  0  0  0  0  0  0  0  0  0
  152.3939  143.7592  159.4207 C   0  0  0  0  0  0  0  0  0  0  0  0
  149.9576  140.6369  157.1406 C   0  0  0  0  0  0  0  0  0  0  0  0
  149.7041  140.8885  158.3181 O   0  0  0  0  0  0  0  0  0  0  0  0
  149.2266  141.1627  156.1167 N   0  5  0  0  0  0  0  0  0  0  0  0
  149.0867  141.2800  152.7417 H   0  0  0  0  0  0  0  0  0  0  0  0
  148.6700  142.5833  153.8600 H   0  0  0  0  0  0  0  0  0  0  0  0
  147.6760  141.1202  153.7958 H   0  0  0  0  0  0  0  0  0  0  0  0
  152.3583  137.6220  155.3921 H   0  0  0  0  0  0  0  0  0  0  0  0
  153.4121  139.0399  155.2566 H   0  0  0  0  0  0  0  0  0  0  0  0
  152.4250  138.5346  153.8873 H   0  0  0  0  0  0  0  0  0  0  0  0
  151.2787  138.6622  158.6629 H   0  0  0  0  0  0  0  0  0  0  0  0
  152.4970  138.3057  157.4995 H   0  0  0  0  0  0  0  0  0  0  0  0
  151.4715  141.5655  158.5030 H   0  0  0  0  0  0  0  0  0  0  0  0
  154.1254  142.4974  159.1069 H   0  0  0  0  0  0  0  0  0  0  0  0
  152.5252  141.3178  161.3214 H   0  0  0  0  0  0  0  0  0  0  0  0
  154.2273  141.7471  161.3140 H   0  0  0  0  0  0  0  0  0  0  0  0
  152.4498  143.2169  162.7525 H   0  0  0  0  0  0  0  0  0  0  0  0
  153.7423  144.0229  161.8655 H   0  0  0  0  0  0  0  0  0  0  0  0
  150.8759  143.6148  160.9478 H   0  0  0  0  0  0  0  0  0  0  0  0
  151.7639  145.1369  161.0081 H   0  0  0  0  0  0  0  0  0  0  0  0
  153.1114  144.5284  159.1319 H   0  0  0  0  0  0  0  0  0  0  0  0
  151.6002  143.7680  158.6722 H   0  0  0  0  0  0  0  0  0  0  0  0
  1  2  1  0  0  0  0
  1 19  1  0  0  0  0
  1 20  1  0  0  0  0
  1 21  1  0  0  0  0
  2 18  1  0  0  0  0
  2  3  2  0  0  0  0
  3  4  1  0  0  0  0
  4  5  1  0  0  0  0
  4  6  2  0  0  0  0
  5 22  1  0  0  0  0
  5 23  1  0  0  0  0
  5 24  1  0  0  0  0
  6  7  1  0  0  0  0
  6 16  1  0  0  0  0
  7  8  1  0  0  0  0
  7 25  1  0  0  0  0
  7 26  1  0  0  0  0
  8  9  2  0  0  0  0
  8 10  1  0  0  0  0
 10 11  1  0  0  0  0
 10 27  1  0  0  0  0
 11 15  1  0  0  0  0
 11 12  1  0  0  0  0
 11 28  1  0  0  0  0
 12 13  1  0  0  0  0
 12 29  1  0  0  0  0
 12 30  1  0  0  0  0
 13 14  1  0  0  0  0
 13 31  1  0  0  0  0
 13 32  1  0  0  0  0
 14 15  1  0  0  0  0
 14 33  1  0  0  0  0
 14 34  1  0  0  0  0
 15 35  1  0  0  0  0
 15 36  1  0  0  0  0
 16 17  2  0  0  0  0
 16 18  1  0  0  0  0
M  CHG  1  18  -1
M  END
> <s_m_source_file>
AV-unprocessed.smi

> <i_m_source_file_index>
1313

> <i_lp_mmshare_version>
43012

> <i_f3d_flags>
0

> <s_epik_input>
W0NIM11jMW5jKFtDSDNdKWMoYyg9TylbbkhdMSlbQ0gyXUMoPU8pW05IXVtDSF0yW0NIMl1bQ0gyXVtDSDJdW0NIMl0y

> <s_epik_cmdline>
J2VwaWtfcHl0aG9uJywgJy1waCcsICc3LjAnLCAnLXRuJywgJzgnLCAnLW1hJywgJzIwMCcsICctbWV0YWxfYmluZGluZycsICctaW1hZScsICc8aW5maWxlLm1hZT4nLCAnLW9tYWUnLCAnPG91dGZpbGUubWFlPic=

> <r_lp_tautomer_probability>
0.839158

> <r_epik_Ionization_Penalty>
6.62586

> <r_epik_Ionization_Penalty_Charging>
7.38068e-08

> <r_epik_Ionization_Penalty_Neutral>
6.62586

> <r_epik_State_Penalty>
4.443

> <r_epik_Charging_Adjusted_Penalty>
4.443

> <i_epik_Tot_Q>
-1

> <i_epik_Tot_abs_Q>
1

> <r_epik_Metal_State_Penalty>
0.804085

> <b_epik_Metal_Only>
1

> <s_lp_Force_Field>
OPLS_2005

> <r_lp_Energy>
23.3314

> <b_lp_Chiralities_Consistent>
1

> <s_lp_Variant>
AV-unprocessed.smi:1313-3

> <Gold.Version>
5.8.1

> <Gold.Id.Protein>
6NUR|6NUR_protein|mol2

> <Gold.PLP.Fitness>
43.5790

> <Gold.PLP.PLP>
-38.6595

> <Gold.PLP.part.hbond>
-2.0000

> <Gold.PLP.part.metal>
0.0000

> <Gold.PLP.part.buried>
-2.5629

> <Gold.PLP.part.nonpolar>
-34.3203

> <Gold.PLP.part.repulsive>
0.2786

> <Gold.PLP.ligand.clash>
0.0000

> <Gold.PLP.ligand.torsion>
0.5418

> <Gold.PLP.Chemscore.Hbond>
2.0000

> <Gold.PLP.Chemscore.CHOScore>
0.0000

> <Gold.PLP.Chemscore.Metal>
0.0000

> <Gold.Chemscore.Hbonds>
donor molecule, donor type, donor heavy atom, donor atom, acceptor molecule, acceptor atom, score
      P1  H  7989  7998       L1     3  1.00
      P1  H  7997  8008       L1     9  1.00

> <Gold.PLP.Chemscore.Internal.Correction>
0.0031

> <Gold.Rescore>
     Score         DG    S(hbond)    S(metal)    S(lipo)     H(rot)  DE(clash)    DE(int)     intcor
     13.33     -15.38       0.83        0.00      93.23       1.48       0.31       1.74       ----

> <Gold.Chemscore.Fitness>
13.3264

> <Gold.Chemscore.DG>
-15.3764

> <Gold.Chemscore.ZeroCoef>
-5.4800

> <Gold.Chemscore.Hbond>
0.8298

> <Gold.Chemscore.Metal>
0.0000

> <Gold.Chemscore.Lipo>
93.2280

> <Gold.Chemscore.Internal_Hbond>
0.0000

> <Gold.Chemscore.DEClash>
0.3135

> <Gold.Chemscore.DEInternal>
1.7364

> <Gold.Chemscore.Rot>
1.4776

> <Gold.Chemscore.Internal.Correction>
   9.000000E+99

> <Gold.Chemscore.Hbonds>
donor molecule, donor type, donor heavy atom, donor atom, acceptor molecule, acceptor atom, score
      P1  H  7989  7998       L1     3  0.37
      P1  H  7997  8008       L1     9  0.24

> <Gold.Chemscore.Hbond.Weighted>
-2.7714

> <Gold.Chemscore.Metal.Weighted>
-0.0000

> <Gold.Chemscore.Lipo.Weighted>
-10.9077

> <Gold.Chemscore.Internal_Hbond.Weighted>
0.0000

> <Gold.Chemscore.DEClash.Weighted>
0.3135

> <Gold.Chemscore.DEInternal.Weighted>
1.7364

> <Gold.Chemscore.Rot.Weighted>
3.7827

> <Gold.Chemscore.Internal.Correction.Weighted>
   9.000000E+99

> <Gold.Protein.RotatedTorsions>
[ 6907 6896 6895 6894 ] final  179.66 input  -60.11 | X-H torsion
[ 7974 7965 7964 7962 ] final   -0.56 input  175.53 | X-H torsion
[ 8008 7997 7996 7995 ] final -116.05 input   59.86 | X-H torsion
[ 10167 10162 10161 10158 ] final -129.30 input  -65.29 | X-H torsion
[ 10718 10713 10712 10709 ] final  -41.41 input   66.30 | X-H torsion
[ 10763 10752 10751 10750 ] final   22.82 input  -60.55 | X-H torsion
[ 11005 11000 10999 10996 ] final  139.84 input  -57.11 | X-H torsion

> <Gold.Protein.ActiveResidues>
 VAL166  LYS551  ARG553  GLY616  TRP617  ASP618  TYR619  PRO620  LYS621  CYS622 
 ASP623  PHE694  ASN695  SER759  ASP760  ASP761  ALA762  ILE779  LEU786  VAL792 
 PHE793  MET794  SER795  GLU796  ALA797  LYS798  CYS799  TRP800  GLU811  SER814 

> <Gold.Protein.RotatedAtoms>
  151.6681  133.3315  159.3189 H   0  0  0  0  0  0  0  0  0  0  0  0  # atno 6907 bound_to 6896
  150.7881  134.6886  159.6493 H   0  0  0  0  0  0  0  0  0  0  0  0  # atno 6908 bound_to 6896
  152.3955  134.6376  160.0143 H   0  0  0  0  0  0  0  0  0  0  0  0  # atno 6909 bound_to 6896
  146.2426  140.1289  142.8338 H   0  0  0  0  0  0  0  0  0  0  0  0  # atno 7974 bound_to 7965
  155.0616  140.0393  157.2579 H   0  0  0  0  0  0  0  0  0  0  0  0  # atno 8008 bound_to 7997
  154.7054  140.2682  155.6655 H   0  0  0  0  0  0  0  0  0  0  0  0  # atno 8009 bound_to 7997
  156.2773  140.2732  156.1679 H   0  0  0  0  0  0  0  0  0  0  0  0  # atno 8010 bound_to 7997
  139.9412  143.6161  152.2503 H   0  0  0  0  0  0  0  0  0  0  0  0  # atno 10167 bound_to 10162
  156.2707  130.4206  149.8441 H   0  0  0  0  0  0  0  0  0  0  0  0  # atno 10718 bound_to 10713
  153.0886  135.6640  153.9900 H   0  0  0  0  0  0  0  0  0  0  0  0  # atno 10763 bound_to 10752
  153.9503  135.2984  155.3440 H   0  0  0  0  0  0  0  0  0  0  0  0  # atno 10764 bound_to 10752
  154.7297  135.5128  153.9017 H   0  0  0  0  0  0  0  0  0  0  0  0  # atno 10765 bound_to 10752
  140.0284  134.9364  157.0614 H   0  0  0  0  0  0  0  0  0  0  0  0  # atno 11005 bound_to 11000
  145.0343  140.8896  143.5090 LP  0  0  0  0  0  0  0  0  0  0  0  0  # atno 17320 bound_to 7965
  145.1358  139.2603  143.5516 LP  0  0  0  0  0  0  0  0  0  0  0  0  # atno 17321 bound_to 7965
  139.6703  144.7661  151.1796 LP  0  0  0  0  0  0  0  0  0  0  0  0  # atno 17342 bound_to 10162
  140.7610  143.5875  150.8830 LP  0  0  0  0  0  0  0  0  0  0  0  0  # atno 17343 bound_to 10162
  156.5924  130.8512  151.3411 LP  0  0  0  0  0  0  0  0  0  0  0  0  # atno 17370 bound_to 10713
  157.7283  130.9654  150.1735 LP  0  0  0  0  0  0  0  0  0  0  0  0  # atno 17371 bound_to 10713
  140.4267  134.1823  155.7166 LP  0  0  0  0  0  0  0  0  0  0  0  0  # atno 17394 bound_to 11000
  141.1816  133.8401  157.1236 LP  0  0  0  0  0  0  0  0  0  0  0  0  # atno 17395 bound_to 11000

$$$$
