AV-unprocessed.smi:576|AV-procd|sdf|2978|dock9
  -GOLD-   2262023483D 1   1.00000     0.00000
 Structure written by MMmdl.
 35 36  0  0  0  0  0  0  0  0  1 V2000
  150.2942  138.4024  154.3757 C   0  0  0  0  0  0  0  0  0  0  0  0
  149.8347  139.6732  155.1087 C   0  0  2  0  0  0  0  0  0  0  0  0
  150.1457  139.5645  156.5306 N   0  0  0  0  0  0  0  0  0  0  0  0
  151.3784  139.5290  157.0600 C   0  0  0  0  0  0  0  0  0  0  0  0
  152.4061  139.5964  156.3843 O   0  0  0  0  0  0  0  0  0  0  0  0
  151.4506  139.4180  158.5896 C   0  0  0  0  0  0  0  0  0  0  0  0
  152.0736  140.5904  159.2265 N   0  0  0  0  0  0  0  0  0  0  0  0
  151.5156  141.8513  158.9371 C   0  0  0  0  0  0  0  0  0  0  0  0
  151.9868  142.9991  159.4612 C   0  0  0  0  0  0  0  0  0  0  0  0
  151.4022  144.3509  159.0820 C   0  0  0  0  0  0  0  0  0  0  0  0
  151.5607  144.5622  157.7761 F   0  0  0  0  0  0  0  0  0  0  0  0
  150.0987  144.4047  159.3565 F   0  0  0  0  0  0  0  0  0  0  0  0
  152.0098  145.3400  159.7386 F   0  0  0  0  0  0  0  0  0  0  0  0
  153.1396  142.8847  160.3329 C   0  0  0  0  0  0  0  0  0  0  0  0
  153.6932  141.6880  160.6097 C   0  0  0  0  0  0  0  0  0  0  0  0
  153.1589  140.4468  160.0448 C   0  0  0  0  0  0  0  0  0  0  0  0
  153.6560  139.3474  160.2906 O   0  0  0  0  0  0  0  0  0  0  0  0
  148.3623  139.9381  154.8568 C   0  0  0  0  0  0  0  0  0  0  0  0
  147.9011  140.6482  153.6065 C   0  0  0  0  0  0  0  0  0  0  0  0
  147.7921  141.3328  154.9507 C   0  0  0  0  0  0  0  0  0  0  0  0
  150.1007  138.4766  153.3054 H   0  0  0  0  0  0  0  0  0  0  0  0
  149.7723  137.5198  154.7472 H   0  0  0  0  0  0  0  0  0  0  0  0
  151.3642  138.2341  154.5021 H   0  0  0  0  0  0  0  0  0  0  0  0
  150.3897  140.5188  154.6975 H   0  0  0  0  0  0  0  0  0  0  0  0
  149.3599  139.5086  157.1624 H   0  0  0  0  0  0  0  0  0  0  0  0
  150.4376  139.2700  158.9663 H   0  0  0  0  0  0  0  0  0  0  0  0
  151.9916  138.5106  158.8651 H   0  0  0  0  0  0  0  0  0  0  0  0
  150.6824  141.8263  158.2497 H   0  0  0  0  0  0  0  0  0  0  0  0
  153.5658  143.7735  160.7745 H   0  0  0  0  0  0  0  0  0  0  0  0
  154.5508  141.6405  161.2649 H   0  0  0  0  0  0  0  0  0  0  0  0
  147.7121  139.1374  155.2052 H   0  0  0  0  0  0  0  0  0  0  0  0
  148.6614  141.0127  152.9187 H   0  0  0  0  0  0  0  0  0  0  0  0
  146.9808  140.2995  153.1424 H   0  0  0  0  0  0  0  0  0  0  0  0
  146.7991  141.4407  155.3823 H   0  0  0  0  0  0  0  0  0  0  0  0
  148.4813  142.1495  155.1563 H   0  0  0  0  0  0  0  0  0  0  0  0
  1  2  1  0  0  0  0
  1 21  1  0  0  0  0
  1 22  1  0  0  0  0
  1 23  1  0  0  0  0
  2  3  1  0  0  0  0
  2 18  1  0  0  0  0
  2 24  1  0  0  0  0
  3  4  1  0  0  0  0
  3 25  1  0  0  0  0
  4  5  2  0  0  0  0
  4  6  1  0  0  0  0
  6  7  1  0  0  0  0
  6 26  1  0  0  0  0
  6 27  1  0  0  0  0
  7 16  1  0  0  0  0
  7  8  1  0  0  0  0
  8  9  2  0  0  0  0
  8 28  1  0  0  0  0
  9 10  1  0  0  0  0
  9 14  1  0  0  0  0
 10 11  1  0  0  0  0
 10 12  1  0  0  0  0
 10 13  1  0  0  0  0
 14 15  2  0  0  0  0
 14 29  1  0  0  0  0
 15 16  1  0  0  0  0
 15 30  1  0  0  0  0
 16 17  2  0  0  0  0
 18 20  1  0  0  0  0
 18 19  1  0  0  0  0
 18 31  1  0  0  0  0
 19 20  1  0  0  0  0
 19 32  1  0  0  0  0
 19 33  1  0  0  0  0
 20 34  1  0  0  0  0
 20 35  1  0  0  0  0
M  END
> <s_m_source_file>
AV-unprocessed.smi

> <i_m_source_file_index>
576

> <i_lp_mmshare_version>
43012

> <i_f3d_flags>
0

> <s_epik_input>
W0NIMl0xW0NIMl1bQ0hdMVtDQEhdKFtDSDNdKVtOSF1DKD1PKVtDSDJdbjJbY0hdYyhDKEYpKEYpRilbY0hdW2NIXWMyPU8=

> <s_epik_cmdline>
J2VwaWtfcHl0aG9uJywgJy1waCcsICc3LjAnLCAnLXRuJywgJzgnLCAnLW1hJywgJzIwMCcsICctbWV0YWxfYmluZGluZycsICctaW1hZScsICc8aW5maWxlLm1hZT4nLCAnLW9tYWUnLCAnPG91dGZpbGUubWFlPic=

> <r_lp_tautomer_probability>
1

> <r_epik_Ionization_Penalty>
3.84201e-08

> <r_epik_Ionization_Penalty_Charging>
1.91184e-08

> <r_epik_Ionization_Penalty_Neutral>
1.93017e-08

> <r_epik_State_Penalty>
-0

> <r_epik_Charging_Adjusted_Penalty>
1.91184e-08

> <i_epik_Tot_Q>
0

> <i_epik_Tot_abs_Q>
0

> <r_epik_Metal_State_Penalty>
-0

> <b_epik_Metal_Only>
0

> <s_lp_Force_Field>
OPLS_2005

> <r_lp_Energy>
24.7521

> <b_lp_Chiralities_Consistent>
1

> <s_lp_Variant>
AV-unprocessed.smi:576-1

> <Gold.Version>
5.8.1

> <Gold.Id.Protein>
6NUR|6NUR_protein|mol2

> <Gold.PLP.Fitness>
50.7466

> <Gold.PLP.PLP>
-48.0011

> <Gold.PLP.part.hbond>
-1.0000

> <Gold.PLP.part.metal>
0.0000

> <Gold.PLP.part.buried>
-4.4839

> <Gold.PLP.part.nonpolar>
-41.0542

> <Gold.PLP.part.repulsive>
0.0357

> <Gold.PLP.ligand.clash>
0.0000

> <Gold.PLP.ligand.torsion>
0.6816

> <Gold.PLP.Chemscore.Hbond>
1.0000

> <Gold.PLP.Chemscore.CHOScore>
0.0000

> <Gold.PLP.Chemscore.Metal>
0.0000

> <Gold.Chemscore.Hbonds>
donor molecule, donor type, donor heavy atom, donor atom, acceptor molecule, acceptor atom, score
      P1  H  7997  8008       L1     5  1.00

> <Gold.PLP.Chemscore.Internal.Correction>
1.1087

> <Gold.Rescore>
     Score         DG    S(hbond)    S(metal)    S(lipo)     H(rot)  DE(clash)    DE(int)     intcor
     14.35     -15.07       1.00        0.00      92.11       1.77       0.10       0.62       ----

> <Gold.Chemscore.Fitness>
14.3534

> <Gold.Chemscore.DG>
-15.0740

> <Gold.Chemscore.ZeroCoef>
-5.4800

> <Gold.Chemscore.Hbond>
0.9991

> <Gold.Chemscore.Metal>
0.0000

> <Gold.Chemscore.Lipo>
92.1052

> <Gold.Chemscore.Internal_Hbond>
0.0000

> <Gold.Chemscore.DEClash>
0.1005

> <Gold.Chemscore.DEInternal>
0.6202

> <Gold.Chemscore.Rot>
1.7653

> <Gold.Chemscore.Internal.Correction>
   9.000000E+99

> <Gold.Chemscore.Hbonds>
donor molecule, donor type, donor heavy atom, donor atom, acceptor molecule, acceptor atom, score
      P1  H  7997  8008       L1     5  0.96

> <Gold.Chemscore.Hbond.Weighted>
-3.3369

> <Gold.Chemscore.Metal.Weighted>
-0.0000

> <Gold.Chemscore.Lipo.Weighted>
-10.7763

> <Gold.Chemscore.Internal_Hbond.Weighted>
0.0000

> <Gold.Chemscore.DEClash.Weighted>
0.1005

> <Gold.Chemscore.DEInternal.Weighted>
0.6202

> <Gold.Chemscore.Rot.Weighted>
4.5191

> <Gold.Chemscore.Internal.Correction.Weighted>
   9.000000E+99

> <Gold.Protein.RotatedTorsions>
[ 6907 6896 6895 6894 ] final -132.70 input  -60.11 | X-H torsion
[ 7974 7965 7964 7962 ] final   60.60 input  175.53 | X-H torsion
[ 8008 7997 7996 7995 ] final  -40.74 input   59.86 | X-H torsion
[ 10167 10162 10161 10158 ] final   88.82 input  -65.29 | X-H torsion
[ 10718 10713 10712 10709 ] final   90.21 input   66.30 | X-H torsion
[ 10763 10752 10751 10750 ] final -174.19 input  -60.55 | X-H torsion
[ 11005 11000 10999 10996 ] final  134.37 input  -57.11 | X-H torsion

> <Gold.Protein.ActiveResidues>
 VAL166  LYS551  ARG553  GLY616  TRP617  ASP618  TYR619  PRO620  LYS621  CYS622 
 ASP623  PHE694  ASN695  SER759  ASP760  ASP761  ALA762  ILE779  LEU786  VAL792 
 PHE793  MET794  SER795  GLU796  ALA797  LYS798  CYS799  TRP800  GLU811  SER814 

> <Gold.Protein.RotatedAtoms>
  150.9655  133.6400  159.2746 H   0  0  0  0  0  0  0  0  0  0  0  0  # atno 6907 bound_to 6896
  151.3707  135.0921  159.9474 H   0  0  0  0  0  0  0  0  0  0  0  0  # atno 6908 bound_to 6896
  152.5164  133.9210  159.7589 H   0  0  0  0  0  0  0  0  0  0  0  0  # atno 6909 bound_to 6896
  145.8941  139.3533  143.0631 H   0  0  0  0  0  0  0  0  0  0  0  0  # atno 7974 bound_to 7965
  154.4009  140.1517  156.3077 H   0  0  0  0  0  0  0  0  0  0  0  0  # atno 8008 bound_to 7997
  155.8643  140.3452  155.5756 H   0  0  0  0  0  0  0  0  0  0  0  0  # atno 8009 bound_to 7997
  155.7845  140.0848  157.2032 H   0  0  0  0  0  0  0  0  0  0  0  0  # atno 8010 bound_to 7997
  139.8634  144.6532  150.9032 H   0  0  0  0  0  0  0  0  0  0  0  0  # atno 10167 bound_to 10162
  157.6958  131.0362  150.3543 H   0  0  0  0  0  0  0  0  0  0  0  0  # atno 10718 bound_to 10713
  154.5991  135.2852  155.0555 H   0  0  0  0  0  0  0  0  0  0  0  0  # atno 10763 bound_to 10752
  154.1826  135.6454  153.5042 H   0  0  0  0  0  0  0  0  0  0  0  0  # atno 10764 bound_to 10752
  153.0150  135.5427  154.6703 H   0  0  0  0  0  0  0  0  0  0  0  0  # atno 10765 bound_to 10752
  139.9910  134.9515  156.9856 H   0  0  0  0  0  0  0  0  0  0  0  0  # atno 11005 bound_to 11000
  145.8872  140.9326  143.0571 LP  0  0  0  0  0  0  0  0  0  0  0  0  # atno 17320 bound_to 7965
  144.6732  140.0857  143.7467 LP  0  0  0  0  0  0  0  0  0  0  0  0  # atno 17321 bound_to 7965
  140.7772  143.3725  151.1624 LP  0  0  0  0  0  0  0  0  0  0  0  0  # atno 17342 bound_to 10162
  139.7352  143.9010  152.3032 LP  0  0  0  0  0  0  0  0  0  0  0  0  # atno 17343 bound_to 10162
  156.3987  130.3911  149.6975 LP  0  0  0  0  0  0  0  0  0  0  0  0  # atno 17370 bound_to 10713
  156.4300  130.7810  151.2830 LP  0  0  0  0  0  0  0  0  0  0  0  0  # atno 17371 bound_to 10713
  140.4908  134.1195  155.7232 LP  0  0  0  0  0  0  0  0  0  0  0  0  # atno 17394 bound_to 11000
  141.1566  133.8871  157.1961 LP  0  0  0  0  0  0  0  0  0  0  0  0  # atno 17395 bound_to 11000

$$$$
