AV-unprocessed.smi:232|AV-procd|sdf|1769|dock1
  -GOLD-   2262020303D 1   1.00000     0.00000
 Structure written by MMmdl.
 52 55  0  0  0  0  0  0  0  0  1 V2000
  151.4388  144.7962  159.4692 C   0  0  0  0  0  0  0  0  0  0  0  0
  152.0551  143.6209  158.7007 C   0  0  0  0  0  0  0  0  0  0  0  0
  152.2817  142.3754  159.5819 C   0  0  2  0  0  0  0  0  0  0  0  0
  153.1920  142.6247  160.7913 C   0  0  0  0  0  0  0  0  0  0  0  0
  153.8846  141.2800  161.0399 C   0  0  0  0  0  0  0  0  0  0  0  0
  153.3940  140.3703  159.9057 C   0  0  2  0  0  0  0  0  0  0  0  0
  154.4609  139.3734  159.4220 C   0  0  0  0  0  0  0  0  0  0  0  0
  152.9297  141.2810  158.8655 N   0  0  0  0  0  0  0  0  0  0  0  0
  152.2166  140.6851  157.8795 C   0  0  0  0  0  0  0  0  0  0  0  0
  152.8374  139.9193  156.9429 N   0  0  0  0  0  0  0  0  0  0  0  0
  152.1255  139.3501  155.9654 C   0  0  0  0  0  0  0  0  0  0  0  0
  150.8116  139.4201  155.7393 N   0  0  0  0  0  0  0  0  0  0  0  0
  150.1893  140.1915  156.6767 C   0  0  0  0  0  0  0  0  0  0  0  0
  150.8110  140.8530  157.7716 C   0  0  0  0  0  0  0  0  0  0  0  0
  149.8618  141.5448  158.5135 N   0  0  0  0  0  0  0  0  0  0  0  0
  148.7401  141.3098  157.8880 C   0  0  0  0  0  0  0  0  0  0  0  0
  148.8468  140.5089  156.7731 N   0  0  0  0  0  0  0  0  0  0  0  0
  147.7717  140.0954  155.8893 C   0  0  0  0  0  0  0  0  0  0  0  0
  146.4577  140.8463  156.1794 C   0  0  2  0  0  0  0  0  0  0  0  0
  145.6354  140.0926  157.0508 O   0  0  0  0  0  0  0  0  0  0  0  0
  145.6906  141.2271  154.8970 C   0  0  2  0  0  0  0  0  0  0  0  0
  146.4952  141.9388  153.8058 C   0  0  0  0  0  0  0  0  0  0  0  0
  145.3952  142.6408  153.0415 C   0  0  0  0  0  0  0  0  0  0  0  0
  144.4585  143.0690  154.1688 C   0  0  0  0  0  0  0  0  0  0  0  0
  144.5664  142.0606  155.1700 O   0  0  0  0  0  0  0  0  0  0  0  0
  151.2666  145.6445  158.8066 H   0  0  0  0  0  0  0  0  0  0  0  0
  152.0923  145.1341  160.2738 H   0  0  0  0  0  0  0  0  0  0  0  0
  150.4806  144.5179  159.9087 H   0  0  0  0  0  0  0  0  0  0  0  0
  151.3911  143.3706  157.8727 H   0  0  0  0  0  0  0  0  0  0  0  0
  152.9976  143.9331  158.2494 H   0  0  0  0  0  0  0  0  0  0  0  0
  151.3177  142.0262  159.9559 H   0  0  0  0  0  0  0  0  0  0  0  0
  153.9430  143.3817  160.5610 H   0  0  0  0  0  0  0  0  0  0  0  0
  152.6286  142.9694  161.6588 H   0  0  0  0  0  0  0  0  0  0  0  0
  154.9669  141.4120  161.0019 H   0  0  0  0  0  0  0  0  0  0  0  0
  153.6362  140.8627  162.0161 H   0  0  0  0  0  0  0  0  0  0  0  0
  152.5329  139.8070  160.2703 H   0  0  0  0  0  0  0  0  0  0  0  0
  154.8157  138.7555  160.2470 H   0  0  0  0  0  0  0  0  0  0  0  0
  155.3224  139.8900  158.9976 H   0  0  0  0  0  0  0  0  0  0  0  0
  154.0660  138.7019  158.6595 H   0  0  0  0  0  0  0  0  0  0  0  0
  152.6903  138.7571  155.2613 H   0  0  0  0  0  0  0  0  0  0  0  0
  147.7981  141.7211  158.2210 H   0  0  0  0  0  0  0  0  0  0  0  0
  148.0898  140.2713  154.8611 H   0  0  0  0  0  0  0  0  0  0  0  0
  147.6297  139.0188  155.9928 H   0  0  0  0  0  0  0  0  0  0  0  0
  146.6983  141.7704  156.7065 H   0  0  0  0  0  0  0  0  0  0  0  0
  145.2491  139.3840  156.5594 H   0  0  0  0  0  0  0  0  0  0  0  0
  145.2822  140.3135  154.4620 H   0  0  0  0  0  0  0  0  0  0  0  0
  147.1775  142.6797  154.2238 H   0  0  0  0  0  0  0  0  0  0  0  0
  147.0745  141.2518  153.1883 H   0  0  0  0  0  0  0  0  0  0  0  0
  145.7533  143.4786  152.4424 H   0  0  0  0  0  0  0  0  0  0  0  0
  144.8901  141.9364  152.3791 H   0  0  0  0  0  0  0  0  0  0  0  0
  144.7894  144.0161  154.5967 H   0  0  0  0  0  0  0  0  0  0  0  0
  143.4286  143.1907  153.8328 H   0  0  0  0  0  0  0  0  0  0  0  0
  1  2  1  0  0  0  0
  1 26  1  0  0  0  0
  1 27  1  0  0  0  0
  1 28  1  0  0  0  0
  2  3  1  0  0  0  0
  2 29  1  0  0  0  0
  2 30  1  0  0  0  0
  3  8  1  0  0  0  0
  3  4  1  0  0  0  0
  3 31  1  0  0  0  0
  4  5  1  0  0  0  0
  4 32  1  0  0  0  0
  4 33  1  0  0  0  0
  5  6  1  0  0  0  0
  5 34  1  0  0  0  0
  5 35  1  0  0  0  0
  6  7  1  0  0  0  0
  6  8  1  0  0  0  0
  6 36  1  0  0  0  0
  7 37  1  0  0  0  0
  7 38  1  0  0  0  0
  7 39  1  0  0  0  0
  8  9  1  0  0  0  0
  9 14  1  0  0  0  0
  9 10  2  0  0  0  0
 10 11  1  0  0  0  0
 11 12  2  0  0  0  0
 11 40  1  0  0  0  0
 12 13  1  0  0  0  0
 13 17  1  0  0  0  0
 13 14  2  0  0  0  0
 14 15  1  0  0  0  0
 15 16  2  0  0  0  0
 16 17  1  0  0  0  0
 16 41  1  0  0  0  0
 17 18  1  0  0  0  0
 18 19  1  0  0  0  0
 18 42  1  0  0  0  0
 18 43  1  0  0  0  0
 19 20  1  0  0  0  0
 19 21  1  0  0  0  0
 19 44  1  0  0  0  0
 20 45  1  0  0  0  0
 21 25  1  0  0  0  0
 21 22  1  0  0  0  0
 21 46  1  0  0  0  0
 22 23  1  0  0  0  0
 22 47  1  0  0  0  0
 22 48  1  0  0  0  0
 23 24  1  0  0  0  0
 23 49  1  0  0  0  0
 23 50  1  0  0  0  0
 24 25  1  0  0  0  0
 24 51  1  0  0  0  0
 24 52  1  0  0  0  0
M  END
> <s_m_source_file>
AV-unprocessed.smi

> <i_m_source_file_index>
232

> <i_lp_mmshare_version>
43012

> <i_f3d_flags>
0

> <s_epik_input>
W0NIM11bQ0gyXVtDQEBIXTFbQ0gyXVtDSDJdW0NAQEhdKFtDSDNdKU4xYyhuW2NIXW4yKWMoYzIzKW5bY0hdbjNbQ0gyXVtDQEhdKFtPSF0pW0NAQEhdNFtDSDJdW0NIMl1bQ0gyXU80

> <s_epik_cmdline>
J2VwaWtfcHl0aG9uJywgJy1waCcsICc3LjAnLCAnLXRuJywgJzgnLCAnLW1hJywgJzIwMCcsICctbWV0YWxfYmluZGluZycsICctaW1hZScsICc8aW5maWxlLm1hZT4nLCAnLW9tYWUnLCAnPG91dGZpbGUubWFlPic=

> <r_lp_tautomer_probability>
1

> <r_epik_Ionization_Penalty>
0.00258048

> <r_epik_Ionization_Penalty_Charging>
0

> <r_epik_Ionization_Penalty_Neutral>
0.00258048

> <r_epik_State_Penalty>
0.00168551

> <r_epik_Charging_Adjusted_Penalty>
0.00168551

> <i_epik_Tot_Q>
0

> <i_epik_Tot_abs_Q>
0

> <r_epik_Metal_State_Penalty>
-0

> <b_epik_Metal_Only>
0

> <s_lp_Force_Field>
OPLS_2005

> <r_lp_Energy>
54.2743

> <b_lp_Chiralities_Consistent>
1

> <s_lp_Variant>
AV-unprocessed.smi:232-3

> <Gold.Version>
5.8.1

> <Gold.Id.Protein>
6NUR|6NUR_protein|mol2

> <Gold.PLP.Fitness>
48.0444

> <Gold.PLP.PLP>
-46.7533

> <Gold.PLP.part.hbond>
-1.3091

> <Gold.PLP.part.metal>
0.0000

> <Gold.PLP.part.buried>
-7.5527

> <Gold.PLP.part.nonpolar>
-38.4641

> <Gold.PLP.part.repulsive>
0.2371

> <Gold.PLP.ligand.clash>
0.0000

> <Gold.PLP.ligand.torsion>
1.0302

> <Gold.PLP.Chemscore.Hbond>
1.0000

> <Gold.PLP.Chemscore.CHOScore>
0.0000

> <Gold.PLP.Chemscore.Metal>
0.0000

> <Gold.Chemscore.Hbonds>
donor molecule, donor type, donor heavy atom, donor atom, acceptor molecule, acceptor atom, score
      P1  H  7997  8010       L1    10  1.00

> <Gold.PLP.Chemscore.Internal.Correction>
0.3516

> <Gold.Rescore>
     Score         DG    S(hbond)    S(metal)    S(lipo)     H(rot)  DE(clash)    DE(int)     intcor
     12.10     -14.93       0.90        0.00     108.25       2.43       0.02       2.81       ----

> <Gold.Chemscore.Fitness>
12.1005

> <Gold.Chemscore.DG>
-14.9268

> <Gold.Chemscore.ZeroCoef>
-5.4800

> <Gold.Chemscore.Hbond>
0.8960

> <Gold.Chemscore.Metal>
0.0000

> <Gold.Chemscore.Lipo>
108.2455

> <Gold.Chemscore.Internal_Hbond>
0.0000

> <Gold.Chemscore.DEClash>
0.0177

> <Gold.Chemscore.DEInternal>
2.8085

> <Gold.Chemscore.Rot>
2.4260

> <Gold.Chemscore.Internal.Correction>
   9.000000E+99

> <Gold.Chemscore.Hbonds>
donor molecule, donor type, donor heavy atom, donor atom, acceptor molecule, acceptor atom, score
      P1  H  7997  8010       L1    10  0.72

> <Gold.Chemscore.Hbond.Weighted>
-2.9927

> <Gold.Chemscore.Metal.Weighted>
-0.0000

> <Gold.Chemscore.Lipo.Weighted>
-12.6647

> <Gold.Chemscore.Internal_Hbond.Weighted>
0.0000

> <Gold.Chemscore.DEClash.Weighted>
0.0177

> <Gold.Chemscore.DEInternal.Weighted>
2.8085

> <Gold.Chemscore.Rot.Weighted>
6.2107

> <Gold.Chemscore.Internal.Correction.Weighted>
   9.000000E+99

> <Gold.Protein.RotatedTorsions>
[ 6907 6896 6895 6894 ] final  -28.59 input  -60.11 | X-H torsion
[ 7974 7965 7964 7962 ] final  158.57 input  175.53 | X-H torsion
[ 8008 7997 7996 7995 ] final   71.20 input   59.86 | X-H torsion
[ 10167 10162 10161 10158 ] final  -47.43 input  -65.29 | X-H torsion
[ 10718 10713 10712 10709 ] final   83.09 input   66.30 | X-H torsion
[ 10763 10752 10751 10750 ] final  -94.49 input  -60.55 | X-H torsion
[ 11005 11000 10999 10996 ] final -130.55 input  -57.11 | X-H torsion

> <Gold.Protein.ActiveResidues>
 VAL166  LYS551  ARG553  GLY616  TRP617  ASP618  TYR619  PRO620  LYS621  CYS622 
 ASP623  PHE694  ASN695  SER759  ASP760  ASP761  ALA762  ILE779  LEU786  VAL792 
 PHE793  MET794  SER795  GLU796  ALA797  LYS798  CYS799  TRP800  GLU811  SER814 

> <Gold.Protein.RotatedAtoms>
  151.1309  135.0129  159.8581 H   0  0  0  0  0  0  0  0  0  0  0  0  # atno 6907 bound_to 6896
  152.5451  134.1612  159.8568 H   0  0  0  0  0  0  0  0  0  0  0  0  # atno 6908 bound_to 6896
  151.1678  133.4758  159.2627 H   0  0  0  0  0  0  0  0  0  0  0  0  # atno 6909 bound_to 6896
  144.7838  139.7497  143.6249 H   0  0  0  0  0  0  0  0  0  0  0  0  # atno 7974 bound_to 7965
  155.7503  140.3488  155.5147 H   0  0  0  0  0  0  0  0  0  0  0  0  # atno 8008 bound_to 7997
  155.9011  140.1034  157.1370 H   0  0  0  0  0  0  0  0  0  0  0  0  # atno 8009 bound_to 7997
  154.4044  140.1286  156.4424 H   0  0  0  0  0  0  0  0  0  0  0  0  # atno 8010 bound_to 7997
  140.6775  143.2785  151.3925 H   0  0  0  0  0  0  0  0  0  0  0  0  # atno 10167 bound_to 10162
  157.6871  131.0076  150.2471 H   0  0  0  0  0  0  0  0  0  0  0  0  # atno 10718 bound_to 10713
  154.7060  135.5155  153.8596 H   0  0  0  0  0  0  0  0  0  0  0  0  # atno 10763 bound_to 10752
  153.0742  135.6611  154.0191 H   0  0  0  0  0  0  0  0  0  0  0  0  # atno 10764 bound_to 10752
  154.0042  135.3008  155.3379 H   0  0  0  0  0  0  0  0  0  0  0  0  # atno 10765 bound_to 10752
  140.9336  134.1287  157.4213 H   0  0  0  0  0  0  0  0  0  0  0  0  # atno 11005 bound_to 11000
  146.2060  139.5384  142.9712 LP  0  0  0  0  0  0  0  0  0  0  0  0  # atno 17320 bound_to 7965
  145.5977  141.0360  143.2035 LP  0  0  0  0  0  0  0  0  0  0  0  0  # atno 17321 bound_to 7965
  139.6077  144.1164  152.2266 LP  0  0  0  0  0  0  0  0  0  0  0  0  # atno 17342 bound_to 10162
  140.0568  144.5889  150.7294 LP  0  0  0  0  0  0  0  0  0  0  0  0  # atno 17343 bound_to 10162
  156.3075  130.3767  149.7693 LP  0  0  0  0  0  0  0  0  0  0  0  0  # atno 17370 bound_to 10713
  156.5303  130.8255  151.3235 LP  0  0  0  0  0  0  0  0  0  0  0  0  # atno 17371 bound_to 10713
  139.8802  135.0013  156.6061 LP  0  0  0  0  0  0  0  0  0  0  0  0  # atno 17394 bound_to 11000
  140.7829  133.8645  155.8583 LP  0  0  0  0  0  0  0  0  0  0  0  0  # atno 17395 bound_to 11000

$$$$
