#       Name:                AV-unprocessed.smi:784
#       Creating user name   scv26
#       Creation time:       Fri Mar 27 01:14:28 2020


#       File generated by GOLD software.
#

@<TRIPOS>MOLECULE
AV-unprocessed.smi:784
    41    42     1
SMALL
NO_CHARGES


@<TRIPOS>ATOM
      1 ****        -4.2818   3.2312  -0.3766 C.3            1 S1                 0.0000
      2 ****        -3.9996   1.8655  -0.9294 C.2            1 S1                 0.0000
      3 ****        -3.2854   0.7975  -0.3218 C.2            1 S1                 0.0000
      4 ****        -3.3240  -0.1935  -1.2616 C.2            1 S1                 0.0000
      5 ****        -2.7785  -1.5835  -1.2988 C.3            1 S1                 0.0000
      6 ****        -0.9565  -1.5545  -1.5925 S.o2           1 S1                 0.0000
      7 ****        -0.5979  -2.9177  -2.0161 O.2            1 S1                 0.0000
      8 ****        -0.7046  -0.4654  -2.5512 O.2            1 S1                 0.0000
      9 ****        -0.4141  -1.2203  -0.0995 N.pl3          1 S1                -1.0000
     10 ****         1.0103  -1.0113   0.1209 C.3            1 S1                 0.0000
     11 ****         1.3784  -1.5943   1.5068 C.3            1 S1                 0.0000
     12 ****         2.8792  -1.6197   1.8734 C.3            1 S1                 0.0000
     13 ****         3.5870  -0.2498   1.9357 C.3            1 S1                 0.0000
     14 ****         3.9412   0.2930   0.5414 C.3            1 S1                 0.0000
     15 ****         2.7786   0.9216  -0.2630 C.3            1 S1                 0.0000
     16 ****         1.3216   0.5052   0.0595 C.3            1 S1                 0.0000
     17 ****        -4.0120   0.2263  -2.3552 O.3            1 S1                 0.0000
     18 ****        -4.4388   1.5407  -2.1340 N.2            1 S1                 0.0000
     19 ****        -4.1332   3.2561   0.7030 H              1 S1                 0.0000
     20 ****        -5.3098   3.5353  -0.5757 H              1 S1                 0.0000
     21 ****        -3.6204   3.9755  -0.8203 H              1 S1                 0.0000
     22 ****        -2.8094   0.7634   0.6469 H              1 S1                 0.0000
     23 ****        -2.9812  -2.1182  -0.3715 H              1 S1                 0.0000
     24 ****        -3.2369  -2.1440  -2.1134 H              1 S1                 0.0000
     25 ****         1.6034  -1.5245  -0.6373 H              1 S1                 0.0000
     26 ****         0.8363  -1.0542   2.2844 H              1 S1                 0.0000
     27 ****         1.0154  -2.6219   1.5606 H              1 S1                 0.0000
     28 ****         2.9615  -2.0788   2.8591 H              1 S1                 0.0000
     29 ****         3.4227  -2.2898   1.2046 H              1 S1                 0.0000
     30 ****         3.0001   0.4735   2.5030 H              1 S1                 0.0000
     31 ****         4.5171  -0.3801   2.4897 H              1 S1                 0.0000
     32 ****         4.7300   1.0395   0.6403 H              1 S1                 0.0000
     33 ****         4.3862  -0.5118  -0.0452 H              1 S1                 0.0000
     34 ****         2.8319   2.0031  -0.1331 H              1 S1                 0.0000
     35 ****         2.9725   0.7606  -1.3248 H              1 S1                 0.0000
     36 ****         0.6963   0.9735  -0.7022 H              1 S1                 0.0000
     37 ****         1.0128   0.9729   0.9954 H              1 S1                 0.0000
     38 ****        -1.0551  -1.1582   0.6655 LP             1 S1                 0.0000
     39 ****        -4.8045  -0.3654  -2.5027 LP             1 S1                 0.0000
     40 ****        -3.4185   0.1952  -3.1595 LP             1 S1                 0.0000
     41 ****        -4.9671   2.1160  -2.7584 LP             1 S1                 0.0000
@<TRIPOS>BOND
    1    1    2 1     
    2    1   19 1     
    3    1   20 1     
    4    1   21 1     
    5    2   18 2     
    6    2    3 1     
    7    3    4 2     
    8    3   22 1     
    9    4    5 1     
   10    4   17 1     
   11    5    6 1     
   12    5   23 1     
   13    5   24 1     
   14    6    7 2     
   15    6    8 2     
   16    6    9 1     
   17    9   10 1     
   18   10   16 1     
   19   10   11 1     
   20   10   25 1     
   21   11   12 1     
   22   11   26 1     
   23   11   27 1     
   24   12   13 1     
   25   12   28 1     
   26   12   29 1     
   27   13   14 1     
   28   13   30 1     
   29   13   31 1     
   30   14   15 1     
   31   14   32 1     
   32   14   33 1     
   33   15   16 1     
   34   15   34 1     
   35   15   35 1     
   36   16   36 1     
   37   16   37 1     
   38   17   18 1     
   39    9   38 1     
   40   17   39 1     
   41   17   40 1     
   42   18   41 1     
@<TRIPOS>SUBSTRUCTURE
      1 S1             1
@<TRIPOS>SET
LONE_PAIRS      STATIC     ATOMS    <user>   **** ""
6 7 8 38 39 40 41
ATOM$BLUE        STATIC     ATOMS    COLORGROUP SYSTEM
6 7 8 38 39 40 41
