#       Name:                AV-unprocessed.smi:610
#       Creating user name   scv26
#       Creation time:       Thu Mar 26 23:58:09 2020


#       File generated by GOLD software.
#

@<TRIPOS>MOLECULE
AV-unprocessed.smi:610
    41    42     1
SMALL
NO_CHARGES


@<TRIPOS>ATOM
      1 ****        -2.8621  -2.4083   0.6603 C.3            1 S1                 0.0000
      2 ****        -2.2038  -1.0962   0.2140 C.3            1 S1                 0.0000
      3 ****        -2.5794  -0.7489  -1.2432 C.3            1 S1                 0.0000
      4 ****        -2.0860   0.5660  -1.6664 N.pl3          1 S1                 0.0000
      5 ****        -1.0262   0.8297  -2.4964 C.2            1 S1                 0.0000
      6 ****        -0.9302   2.1943  -2.5858 C.2            1 S1                 0.0000
      7 ****        -1.9391   2.7052  -1.8139 N.pl3          1 S1                 1.0000
      8 ****        -2.6440   1.7136  -1.2599 C.2            1 S1                 0.0000
      9 ****        -0.7547  -1.2177   0.3670 N.am           1 S1                 0.0000
     10 ****         0.0839  -0.2435   0.7648 C.2            1 S1                 0.0000
     11 ****        -0.3142   0.8835   1.0642 O.2            1 S1                 0.0000
     12 ****         1.6005  -0.5578   0.8178 C.3            1 S1                 0.0000
     13 ****         1.8816  -1.9522   0.5001 N.3            1 S1                 0.0000
     14 ****         2.3939   0.3525  -0.1590 C.3            1 S1                 0.0000
     15 ****         3.3850   1.1623   0.6857 C.3            1 S1                 0.0000
     16 ****         2.8139   1.1446   2.0992 C.3            1 S1                 0.0000
     17 ****         2.1789  -0.2402   2.2173 C.3            1 S1                 0.0000
     18 ****        -3.9485  -2.3456   0.5905 H              1 S1                 0.0000
     19 ****        -2.6132  -2.6400   1.6966 H              1 S1                 0.0000
     20 ****        -2.5370  -3.2472   0.0438 H              1 S1                 0.0000
     21 ****        -2.5783  -0.3106   0.8727 H              1 S1                 0.0000
     22 ****        -2.1861  -1.4967  -1.9334 H              1 S1                 0.0000
     23 ****        -3.6634  -0.7450  -1.3664 H              1 S1                 0.0000
     24 ****        -0.4289   0.0475  -2.9421 H              1 S1                 0.0000
     25 ****        -0.2378   2.8233  -3.1259 H              1 S1                 0.0000
     26 ****        -3.4890   1.8194  -0.6030 H              1 S1                 0.0000
     27 ****        -0.3475  -2.1169   0.1518 H              1 S1                 0.0000
     28 ****         1.7494  -2.1027  -0.4896 H              1 S1                 0.0000
     29 ****         2.8553  -2.1450   0.6865 H              1 S1                 0.0000
     30 ****         2.9226  -0.2096  -0.9306 H              1 S1                 0.0000
     31 ****         1.7344   1.0409  -0.6908 H              1 S1                 0.0000
     32 ****         4.3564   0.6659   0.6822 H              1 S1                 0.0000
     33 ****         3.5306   2.1739   0.3058 H              1 S1                 0.0000
     34 ****         3.5727   1.3247   2.8610 H              1 S1                 0.0000
     35 ****         2.0497   1.9161   2.2004 H              1 S1                 0.0000
     36 ****         1.4321  -0.2709   3.0125 H              1 S1                 0.0000
     37 ****         2.9540  -0.9584   2.4914 H              1 S1                 0.0000
     38 ****        -2.1257   3.6910  -1.6783 H              1 S1                 0.0000
     39 ****        -1.2896   1.0985   1.0156 LP             1 S1                 0.0000
     40 ****         0.3381   1.5831   1.3557 LP             1 S1                 0.0000
     41 ****         1.2776  -2.5340   1.0449 LP             1 S1                 0.0000
@<TRIPOS>BOND
    1    1    2 1     
    2    1   18 1     
    3    1   19 1     
    4    1   20 1     
    5    2    3 1     
    6    2    9 1     
    7    2   21 1     
    8    3    4 1     
    9    3   22 1     
   10    3   23 1     
   11    4    8 1     
   12    4    5 1     
   13    5    6 2     
   14    5   24 1     
   15    6    7 1     
   16    6   25 1     
   17    7    8 2     
   18    7   38 1     
   19    8   26 1     
   20    9   10 am    
   21    9   27 1     
   22   10   11 2     
   23   10   12 1     
   24   12   17 1     
   25   12   13 1     
   26   12   14 1     
   27   13   28 1     
   28   13   29 1     
   29   14   15 1     
   30   14   30 1     
   31   14   31 1     
   32   15   16 1     
   33   15   32 1     
   34   15   33 1     
   35   16   17 1     
   36   16   34 1     
   37   16   35 1     
   38   17   36 1     
   39   17   37 1     
   40   11   39 1     
   41   11   40 1     
   42   13   41 1     
@<TRIPOS>SUBSTRUCTURE
      1 S1             1
@<TRIPOS>SET
LONE_PAIRS      STATIC     ATOMS    <user>   **** ""
3 39 40 41
DONOR_HYDROGENS      STATIC     ATOMS    <user>   **** ""
4 38 27 28 29
ATOM$BLUE        STATIC     ATOMS    COLORGROUP SYSTEM
3 39 40 41
ATOM$RED        STATIC     ATOMS    COLORGROUP SYSTEM
4 38 27 28 29
