AV-unprocessed.smi:3265|AV-procd|sdf|12497|dock5
  -GOLD-   2272018403D 1   1.00000     0.00000
 Structure written by MMmdl.
 41 42  0  0  0  0  0  0  0  0  2 V2000
  149.6552  135.7234  155.0941 C   0  0  0  0  0  0  0  0  0  0  0  0
  149.2535  137.0260  155.8081 C   0  0  1  0  0  0  0  0  0  0  0  0
  150.4184  138.0262  155.9244 C   0  0  0  0  0  0  0  0  0  0  0  0
  150.7214  138.6863  154.5720 C   0  0  0  0  0  0  0  0  0  0  0  0
  149.4543  139.3106  153.9666 C   0  0  0  0  0  0  0  0  0  0  0  0
  148.3679  138.3053  153.8373 N   0  3  2  0  0  0  0  0  0  0  0  0
  147.1884  138.8485  153.1176 C   0  0  0  0  0  0  0  0  0  0  0  0
  146.0440  137.8239  153.0000 C   0  0  0  0  0  0  0  0  0  0  0  0
  146.4433  136.6697  152.2049 N   0  0  0  0  0  0  0  0  0  0  0  0
  145.6279  135.6689  151.8313 C   0  0  0  0  0  0  0  0  0  0  0  0
  144.4431  135.6163  152.1596 O   0  0  0  0  0  0  0  0  0  0  0  0
  146.2261  134.5402  150.9802 C   0  0  0  0  0  0  0  0  0  0  0  0
  145.3439  133.3905  150.8493 N   0  0  0  0  0  0  0  0  0  0  0  0
  145.6590  132.0524  150.9653 C   0  0  0  0  0  0  0  0  0  0  0  0
  144.5102  131.3445  150.7570 C   0  0  0  0  0  0  0  0  0  0  0  0
  143.5309  132.3501  150.5232 C   0  0  0  0  0  0  0  0  0  0  0  0
  144.0325  133.5735  150.5797 N   0  0  0  0  0  0  0  0  0  0  0  0
  148.0282  137.6966  155.1528 C   0  0  0  0  0  0  0  0  0  0  0  0
  149.9383  135.8972  154.0558 H   0  0  0  0  0  0  0  0  0  0  0  0
  148.8325  135.0078  155.0939 H   0  0  0  0  0  0  0  0  0  0  0  0
  150.5004  135.2484  155.5929 H   0  0  0  0  0  0  0  0  0  0  0  0
  148.9671  136.7433  156.8220 H   0  0  0  0  0  0  0  0  0  0  0  0
  150.1552  138.8005  156.6462 H   0  0  0  0  0  0  0  0  0  0  0  0
  151.3097  137.5348  156.3156 H   0  0  0  0  0  0  0  0  0  0  0  0
  151.4877  139.4515  154.6980 H   0  0  0  0  0  0  0  0  0  0  0  0
  151.1365  137.9511  153.8818 H   0  0  0  0  0  0  0  0  0  0  0  0
  149.1104  140.1419  154.5844 H   0  0  0  0  0  0  0  0  0  0  0  0
  149.6967  139.7231  152.9865 H   0  0  0  0  0  0  0  0  0  0  0  0
  146.8437  139.7611  153.6064 H   0  0  0  0  0  0  0  0  0  0  0  0
  147.4931  139.1359  152.1103 H   0  0  0  0  0  0  0  0  0  0  0  0
  145.7136  137.5012  153.9891 H   0  0  0  0  0  0  0  0  0  0  0  0
  145.1752  138.2622  152.5109 H   0  0  0  0  0  0  0  0  0  0  0  0
  147.4030  136.6389  151.8914 H   0  0  0  0  0  0  0  0  0  0  0  0
  146.4528  134.9254  149.9856 H   0  0  0  0  0  0  0  0  0  0  0  0
  147.1696  134.2092  151.4170 H   0  0  0  0  0  0  0  0  0  0  0  0
  146.6635  131.7189  151.1814 H   0  0  0  0  0  0  0  0  0  0  0  0
  144.3871  130.2718  150.7712 H   0  0  0  0  0  0  0  0  0  0  0  0
  142.4783  132.2282  150.3149 H   0  0  0  0  0  0  0  0  0  0  0  0
  147.2351  136.9578  155.0448 H   0  0  0  0  0  0  0  0  0  0  0  0
  147.6377  138.4737  155.8119 H   0  0  0  0  0  0  0  0  0  0  0  0
  148.7389  137.5659  153.2576 H   0  0  0  0  0  0  0  0  0  0  0  0
  1  2  1  0  0  0  0
  1 19  1  0  0  0  0
  1 20  1  0  0  0  0
  1 21  1  0  0  0  0
  2 18  1  0  0  0  0
  2  3  1  0  0  0  0
  2 22  1  0  0  0  0
  3  4  1  0  0  0  0
  3 23  1  0  0  0  0
  3 24  1  0  0  0  0
  4  5  1  0  0  0  0
  4 25  1  0  0  0  0
  4 26  1  0  0  0  0
  5  6  1  0  0  0  0
  5 27  1  0  0  0  0
  5 28  1  0  0  0  0
  6  7  1  0  0  0  0
  6 18  1  0  0  0  0
  6 41  1  0  0  0  0
  7  8  1  0  0  0  0
  7 29  1  0  0  0  0
  7 30  1  0  0  0  0
  8  9  1  0  0  0  0
  8 31  1  0  0  0  0
  8 32  1  0  0  0  0
  9 10  1  0  0  0  0
  9 33  1  0  0  0  0
 10 11  2  0  0  0  0
 10 12  1  0  0  0  0
 12 13  1  0  0  0  0
 12 34  1  0  0  0  0
 12 35  1  0  0  0  0
 13 17  1  0  0  0  0
 13 14  1  0  0  0  0
 14 15  2  0  0  0  0
 14 36  1  0  0  0  0
 15 16  1  0  0  0  0
 15 37  1  0  0  0  0
 16 17  2  0  0  0  0
 16 38  1  0  0  0  0
 18 39  1  0  0  0  0
 18 40  1  0  0  0  0
M  CHG  1   6   1
M  END
> <s_m_source_file>
AV-unprocessed.smi

> <i_m_source_file_index>
3265

> <i_lp_mmshare_version>
43012

> <i_f3d_flags>
0

> <s_epik_input>
W0NIM11bQ0BASF0xW0NIMl1bQ0gyXVtDSDJdTihbQ0gyXTEpW0NIMl1bQ0gyXVtOSF1DKD1PKVtDSDJdbjJbY0hdW2NIXVtjSF1uMg==

> <s_epik_cmdline>
J2VwaWtfcHl0aG9uJywgJy1waCcsICc3LjAnLCAnLXRuJywgJzgnLCAnLW1hJywgJzIwMCcsICctbWV0YWxfYmluZGluZycsICctaW1hZScsICc8aW5maWxlLm1hZT4nLCAnLW9tYWUnLCAnPG91dGZpbGUubWFlPic=

> <r_lp_tautomer_probability>
1

> <r_epik_Ionization_Penalty>
0.00231455

> <r_epik_Ionization_Penalty_Charging>
0.00230623

> <r_epik_Ionization_Penalty_Neutral>
8.31727e-06

> <r_epik_State_Penalty>
0.00159065

> <r_epik_Charging_Adjusted_Penalty>
0.00389688

> <i_epik_Tot_Q>
1

> <i_epik_Tot_abs_Q>
1

> <r_epik_Metal_State_Penalty>
-0

> <b_epik_Metal_Only>
0

> <s_lp_Force_Field>
OPLS_2005

> <r_lp_Energy>
19.1739

> <b_lp_Chiralities_Consistent>
1

> <s_lp_Variant>
AV-unprocessed.smi:3265-2

> <Gold.Version>
5.8.1

> <Gold.Id.Protein>
6NUR|6NUR_protein|mol2

> <Gold.PLP.Fitness>
42.5222

> <Gold.PLP.PLP>
-27.9060

> <Gold.PLP.part.hbond>
-2.0000

> <Gold.PLP.part.metal>
0.0000

> <Gold.PLP.part.buried>
-3.1766

> <Gold.PLP.part.nonpolar>
-23.3520

> <Gold.PLP.part.repulsive>
0.3547

> <Gold.PLP.ligand.clash>
0.0000

> <Gold.PLP.ligand.torsion>
0.3365

> <Gold.PLP.Chemscore.Hbond>
3.0000

> <Gold.PLP.Chemscore.CHOScore>
2.0866

> <Gold.PLP.Chemscore.Metal>
0.0000

> <Gold.Chemscore.Hbonds>
donor molecule, donor type, donor heavy atom, donor atom, acceptor molecule, acceptor atom, score
      L1  H     6    41       P1  7948  2.00
      L1  H     9    33       P1  7948  1.00
      L1  C    14    36       P1 10747  0.75
      L1  C    16    38       P1 10186  0.38
      L1  C    16    38       P1 10952  0.81

> <Gold.PLP.Chemscore.Internal.Correction>
0.0296

> <Gold.Rescore>
     Score         DG    S(hbond)    S(metal)    S(lipo)     H(rot)  DE(clash)    DE(int)     intcor
     14.11     -15.76       1.98        0.00      71.53       1.84       0.15       1.49       ----

> <Gold.Chemscore.Fitness>
14.1092

> <Gold.Chemscore.DG>
-15.7550

> <Gold.Chemscore.ZeroCoef>
-5.4800

> <Gold.Chemscore.Hbond>
1.9800

> <Gold.Chemscore.Metal>
0.0000

> <Gold.Chemscore.Lipo>
71.5283

> <Gold.Chemscore.Internal_Hbond>
0.0000

> <Gold.Chemscore.DEClash>
0.1535

> <Gold.Chemscore.DEInternal>
1.4923

> <Gold.Chemscore.Rot>
1.8386

> <Gold.Chemscore.Internal.Correction>
   9.000000E+99

> <Gold.Chemscore.Hbonds>
donor molecule, donor type, donor heavy atom, donor atom, acceptor molecule, acceptor atom, score
      L1  H     6    41       P1  7948  0.99
      L1  H     9    33       P1  7948  0.97

> <Gold.Chemscore.Hbond.Weighted>
-6.6131

> <Gold.Chemscore.Metal.Weighted>
-0.0000

> <Gold.Chemscore.Lipo.Weighted>
-8.3688

> <Gold.Chemscore.Internal_Hbond.Weighted>
0.0000

> <Gold.Chemscore.DEClash.Weighted>
0.1535

> <Gold.Chemscore.DEInternal.Weighted>
1.4923

> <Gold.Chemscore.Rot.Weighted>
4.7069

> <Gold.Chemscore.Internal.Correction.Weighted>
   9.000000E+99

> <Gold.Protein.RotatedTorsions>
[ 6907 6896 6895 6894 ] final   18.63 input  -60.11 | X-H torsion
[ 7974 7965 7964 7962 ] final  -97.24 input  175.53 | X-H torsion
[ 8008 7997 7996 7995 ] final   53.68 input   59.86 | X-H torsion
[ 10167 10162 10161 10158 ] final   67.61 input  -65.29 | X-H torsion
[ 10718 10713 10712 10709 ] final  159.93 input   66.30 | X-H torsion
[ 10763 10752 10751 10750 ] final   -2.97 input  -60.55 | X-H torsion
[ 11005 11000 10999 10996 ] final  -58.30 input  -57.11 | X-H torsion

> <Gold.Protein.ActiveResidues>
 VAL166  LYS551  ARG553  GLY616  TRP617  ASP618  TYR619  PRO620  LYS621  CYS622 
 ASP623  PHE694  ASN695  SER759  ASP760  ASP761  ALA762  ILE779  LEU786  VAL792 
 PHE793  MET794  SER795  GLU796  ALA797  LYS798  CYS799  TRP800  GLU811  SER814 

> <Gold.Protein.RotatedAtoms>
  151.8683  135.0499  160.0476 H   0  0  0  0  0  0  0  0  0  0  0  0  # atno 6907 bound_to 6896
  152.2608  133.5291  159.5389 H   0  0  0  0  0  0  0  0  0  0  0  0  # atno 6908 bound_to 6896
  150.7116  134.0748  159.3919 H   0  0  0  0  0  0  0  0  0  0  0  0  # atno 6909 bound_to 6896
  145.3363  140.9451  143.2633 H   0  0  0  0  0  0  0  0  0  0  0  0  # atno 7974 bound_to 7965
  155.4722  140.3465  155.4327 H   0  0  0  0  0  0  0  0  0  0  0  0  # atno 8008 bound_to 7997
  156.1093  140.1456  156.9390 H   0  0  0  0  0  0  0  0  0  0  0  0  # atno 8009 bound_to 7997
  154.4745  140.0889  156.7207 H   0  0  0  0  0  0  0  0  0  0  0  0  # atno 8010 bound_to 7997
  140.0876  144.5016  150.7120 H   0  0  0  0  0  0  0  0  0  0  0  0  # atno 10167 bound_to 10162
  157.1574  131.0579  151.2250 H   0  0  0  0  0  0  0  0  0  0  0  0  # atno 10718 bound_to 10713
  153.3650  135.6992  153.6682 H   0  0  0  0  0  0  0  0  0  0  0  0  # atno 10763 bound_to 10752
  153.5355  135.3583  155.2695 H   0  0  0  0  0  0  0  0  0  0  0  0  # atno 10764 bound_to 10752
  154.8673  135.4191  154.2916 H   0  0  0  0  0  0  0  0  0  0  0  0  # atno 10765 bound_to 10752
  141.1201  133.6612  156.4900 H   0  0  0  0  0  0  0  0  0  0  0  0  # atno 11005 bound_to 11000
  144.8825  139.4884  143.6716 LP  0  0  0  0  0  0  0  0  0  0  0  0  # atno 17320 bound_to 7965
  146.3025  139.7473  142.9080 LP  0  0  0  0  0  0  0  0  0  0  0  0  # atno 17321 bound_to 7965
  140.7045  143.2458  151.4766 LP  0  0  0  0  0  0  0  0  0  0  0  0  # atno 17342 bound_to 10162
  139.5743  144.1855  152.1881 LP  0  0  0  0  0  0  0  0  0  0  0  0  # atno 17343 bound_to 10162
  157.4165  130.7413  149.6879 LP  0  0  0  0  0  0  0  0  0  0  0  0  # atno 17370 bound_to 10713
  155.9760  130.4082  150.3811 LP  0  0  0  0  0  0  0  0  0  0  0  0  # atno 17371 bound_to 10713
  140.4531  134.6910  157.5049 LP  0  0  0  0  0  0  0  0  0  0  0  0  # atno 17394 bound_to 11000
  140.0152  134.6629  155.9320 LP  0  0  0  0  0  0  0  0  0  0  0  0  # atno 17395 bound_to 11000

$$$$
