#       Name:                AV-unprocessed.smi:158
#       Creating user name   scv26
#       Creation time:       Thu Mar 26 19:02:29 2020


#       File generated by GOLD software.
#

@<TRIPOS>MOLECULE
AV-unprocessed.smi:158
    40    42     1
SMALL
NO_CHARGES


@<TRIPOS>ATOM
      1 ****        -5.2345   0.3595   0.2946 N.pl3          1 S1                 0.0000
      2 ****        -4.0685   0.8171  -0.1824 C.ar           1 S1                 0.0000
      3 ****        -4.0943   1.7149  -1.1952 N.ar           1 S1                 0.0000
      4 ****        -2.9522   2.1988  -1.6999 C.ar           1 S1                 0.0000
      5 ****        -3.1053   3.3366  -2.9865 Cl             1 S1                 0.0000
      6 ****        -1.7053   1.8989  -1.3193 N.ar           1 S1                 0.0000
      7 ****        -1.6779   0.9933  -0.2995 C.ar           1 S1                 0.0000
      8 ****        -2.8109   0.4068   0.3232 C.ar           1 S1                 0.0000
      9 ****        -2.4016  -0.4655   1.3226 N.2            1 S1                 0.0000
     10 ****        -1.0971  -0.3932   1.2887 C.2            1 S1                 0.0000
     11 ****        -0.5784   0.4568   0.3330 N.pl3          1 S1                 0.0000
     12 ****         0.8484   0.7833   0.0205 C.3            1 S1                 0.0000
     13 ****         1.6614   0.1910   0.9898 O.3            1 S1                 0.0000
     14 ****         2.1971  -1.0284   0.4835 C.3            1 S1                 0.0000
     15 ****         3.4203  -1.4830   1.2980 C.3            1 S1                 0.0000
     16 ****         2.9988  -2.1852   2.4477 O.3            1 S1                 0.0000
     17 ****         2.4689  -0.6722  -0.9832 C.3            1 S1                 0.0000
     18 ****         3.6682   0.0738  -1.1051 O.3            1 S1                 0.0000
     19 ****         1.2444   0.1635  -1.3293 C.3            1 S1                 0.0000
     20 ****         1.4877   1.1051  -2.2429 F              1 S1                 0.0000
     21 ****         0.9068   1.8717   0.0605 H              1 S1                 0.0000
     22 ****         1.4236  -1.7986   0.5098 H              1 S1                 0.0000
     23 ****         2.5458  -1.5594  -1.6124 H              1 S1                 0.0000
     24 ****         0.4398  -0.4698  -1.7070 H              1 S1                 0.0000
     25 ****        -5.2393  -0.3104   1.0504 H              1 S1                 0.0000
     26 ****        -6.1048   0.6861  -0.1000 H              1 S1                 0.0000
     27 ****        -0.4795  -0.9647   1.9666 H              1 S1                 0.0000
     28 ****         4.0340  -2.1634   0.7068 H              1 S1                 0.0000
     29 ****         4.0483  -0.6377   1.5812 H              1 S1                 0.0000
     30 ****         3.7635  -2.4510   2.9353 H              1 S1                 0.0000
     31 ****         4.3931  -0.4753  -0.8484 H              1 S1                 0.0000
     32 ****        -4.9710   2.0184  -1.5685 LP             1 S1                 0.0000
     33 ****        -0.8862   2.2938  -1.7353 LP             1 S1                 0.0000
     34 ****        -2.9724  -1.0203   1.9279 LP             1 S1                 0.0000
     35 ****         1.1194   0.0019   1.8086 LP             1 S1                 0.0000
     36 ****         2.4097   0.8125   1.2216 LP             1 S1                 0.0000
     37 ****         2.4747  -2.9925   2.1763 LP             1 S1                 0.0000
     38 ****         2.4272  -1.5918   3.0143 LP             1 S1                 0.0000
     39 ****         3.6271   0.8769  -0.5107 LP             1 S1                 0.0000
     40 ****         3.7873   0.3671  -2.0537 LP             1 S1                 0.0000
@<TRIPOS>BOND
    1    1    2 1     
    2    1   25 1     
    3    1   26 1     
    4    2    8 ar    
    5    2    3 ar    
    6    3    4 ar    
    7    4    5 1     
    8    4    6 ar    
    9    6    7 ar    
   10    7   11 1     
   11    7    8 ar    
   12    8    9 1     
   13    9   10 2     
   14   10   11 1     
   15   10   27 1     
   16   11   12 1     
   17   12   21 1     
   18   12   19 1     
   19   12   13 1     
   20   13   14 1     
   21   14   22 1     
   22   14   15 1     
   23   14   17 1     
   24   15   16 1     
   25   15   28 1     
   26   15   29 1     
   27   16   30 1     
   28   17   23 1     
   29   17   18 1     
   30   17   19 1     
   31   18   31 1     
   32   19   24 1     
   33   19   20 1     
   34    3   32 1     
   35    6   33 1     
   36    9   34 1     
   37   13   35 1     
   38   13   36 1     
   39   16   37 1     
   40   16   38 1     
   41   18   39 1     
   42   18   40 1     
@<TRIPOS>SUBSTRUCTURE
      1 S1             1
@<TRIPOS>SET
LONE_PAIRS      STATIC     ATOMS    <user>   **** ""
9 32 33 34 35 36 37 38 39 40
DONOR_HYDROGENS      STATIC     ATOMS    <user>   **** ""
4 25 26 30 31
ATOM$BLUE        STATIC     ATOMS    COLORGROUP SYSTEM
9 32 33 34 35 36 37 38 39 40
ATOM$RED        STATIC     ATOMS    COLORGROUP SYSTEM
4 25 26 30 31
