AV-unprocessed.smi:2072|AV-procd|sdf|8447|dock2
  -GOLD-   2272011143D 1   1.00000     0.00000
 Structure written by MMmdl.
 40 42  0  0  0  0  0  0  0  0  2 V2000
  152.5600  140.1733  157.3938 O   0  0  0  0  0  0  0  0  0  0  0  0
  151.6098  140.9184  157.6289 C   0  0  0  0  0  0  0  0  0  0  0  0
  151.4405  141.6470  158.7461 N   0  0  0  0  0  0  0  0  0  0  0  0
  152.2689  141.7431  159.8994 C   0  0  0  0  0  0  0  0  0  0  0  0
  152.2035  142.7786  160.8648 C   0  0  0  0  0  0  0  0  0  0  0  0
  153.0926  142.7486  161.9564 C   0  0  0  0  0  0  0  0  0  0  0  0
  154.0163  141.6897  162.0446 C   0  0  0  0  0  0  0  0  0  0  0  0
  154.0939  140.6991  161.1320 N   0  0  0  0  0  0  0  0  0  0  0  0
  153.2381  140.7343  160.0883 C   0  0  0  0  0  0  0  0  0  0  0  0
  150.5983  141.1097  156.7699 N   0  0  0  0  0  0  0  0  0  0  0  0
  150.4726  140.4672  155.4643 C   0  0  1  0  0  0  0  0  0  0  0  0
  150.8701  138.9806  155.4866 C   0  0  0  0  0  0  0  0  0  0  0  0
  149.8965  138.2828  154.5163 C   0  0  0  0  0  0  0  0  0  0  0  0
  149.0709  139.3640  153.9447 N   0  3  1  0  0  0  0  0  0  0  0  0
  147.7319  138.9931  153.4377 C   0  0  0  0  0  0  0  0  0  0  0  0
  147.0681  140.2318  152.8036 C   0  0  0  0  0  0  0  0  0  0  0  0
  147.0486  141.4289  153.7754 C   0  0  0  0  0  0  0  0  0  0  0  0
  148.4535  141.7086  154.3437 C   0  0  0  0  0  0  0  0  0  0  0  0
  149.0255  140.4228  154.9651 C   0  0  2  0  0  0  0  0  0  0  0  0
  150.6134  142.2255  158.7699 H   0  0  0  0  0  0  0  0  0  0  0  0
  151.5037  143.5955  160.7985 H   0  0  0  0  0  0  0  0  0  0  0  0
  153.0679  143.5223  162.7093 H   0  0  0  0  0  0  0  0  0  0  0  0
  154.7120  141.6386  162.8691 H   0  0  0  0  0  0  0  0  0  0  0  0
  153.3315  139.9253  159.3784 H   0  0  0  0  0  0  0  0  0  0  0  0
  149.8579  141.7399  157.0422 H   0  0  0  0  0  0  0  0  0  0  0  0
  151.0961  140.9768  154.7262 H   0  0  0  0  0  0  0  0  0  0  0  0
  151.9103  138.8460  155.1873 H   0  0  0  0  0  0  0  0  0  0  0  0
  150.7597  138.5542  156.4849 H   0  0  0  0  0  0  0  0  0  0  0  0
  150.4148  137.7366  153.7278 H   0  0  0  0  0  0  0  0  0  0  0  0
  149.2675  137.5768  155.0608 H   0  0  0  0  0  0  0  0  0  0  0  0
  147.8273  138.1973  152.6984 H   0  0  0  0  0  0  0  0  0  0  0  0
  147.1190  138.6059  154.2531 H   0  0  0  0  0  0  0  0  0  0  0  0
  147.6137  140.5111  151.9011 H   0  0  0  0  0  0  0  0  0  0  0  0
  146.0531  139.9910  152.4864 H   0  0  0  0  0  0  0  0  0  0  0  0
  146.6635  142.3160  153.2717 H   0  0  0  0  0  0  0  0  0  0  0  0
  146.3617  141.2173  154.5960 H   0  0  0  0  0  0  0  0  0  0  0  0
  149.1114  142.0692  153.5519 H   0  0  0  0  0  0  0  0  0  0  0  0
  148.3975  142.5006  155.0906 H   0  0  0  0  0  0  0  0  0  0  0  0
  148.3757  140.0936  155.7796 H   0  0  0  0  0  0  0  0  0  0  0  0
  149.5927  139.7419  153.1667 H   0  0  0  0  0  0  0  0  0  0  0  0
  1  2  2  0  0  0  0
  2  3  1  0  0  0  0
  2 10  1  0  0  0  0
  3  4  1  0  0  0  0
  3 20  1  0  0  0  0
  4  9  1  0  0  0  0
  4  5  2  0  0  0  0
  5  6  1  0  0  0  0
  5 21  1  0  0  0  0
  6  7  2  0  0  0  0
  6 22  1  0  0  0  0
  7  8  1  0  0  0  0
  7 23  1  0  0  0  0
  8  9  2  0  0  0  0
  9 24  1  0  0  0  0
 10 11  1  0  0  0  0
 10 25  1  0  0  0  0
 11 19  1  0  0  0  0
 11 12  1  0  0  0  0
 11 26  1  0  0  0  0
 12 13  1  0  0  0  0
 12 27  1  0  0  0  0
 12 28  1  0  0  0  0
 13 14  1  0  0  0  0
 13 29  1  0  0  0  0
 13 30  1  0  0  0  0
 14 19  1  0  0  0  0
 14 15  1  0  0  0  0
 14 40  1  0  0  0  0
 15 16  1  0  0  0  0
 15 31  1  0  0  0  0
 15 32  1  0  0  0  0
 16 17  1  0  0  0  0
 16 33  1  0  0  0  0
 16 34  1  0  0  0  0
 17 18  1  0  0  0  0
 17 35  1  0  0  0  0
 17 36  1  0  0  0  0
 18 19  1  0  0  0  0
 18 37  1  0  0  0  0
 18 38  1  0  0  0  0
 19 39  1  0  0  0  0
M  CHG  1  14   1
M  END
> <s_m_source_file>
AV-unprocessed.smi

> <i_m_source_file_index>
2072

> <i_lp_mmshare_version>
43012

> <i_f3d_flags>
0

> <s_epik_input>
W0NIMl0xW0NIMl1bQ0gyXVtDSDJdW0NASF0oTjEyKVtDQEBIXShbQ0gyXVtDSDJdMilbTkhdQyg9TylbTkhdYzNbY0hdW2NIXVtjSF1uW2NIXTM=

> <s_epik_cmdline>
J2VwaWtfcHl0aG9uJywgJy1waCcsICc3LjAnLCAnLXRuJywgJzgnLCAnLW1hJywgJzIwMCcsICctbWV0YWxfYmluZGluZycsICctaW1hZScsICc8aW5maWxlLm1hZT4nLCAnLW9tYWUnLCAnPG91dGZpbGUubWFlPic=

> <r_lp_tautomer_probability>
1

> <r_epik_Ionization_Penalty>
0.00482425

> <r_epik_Ionization_Penalty_Charging>
0.000974069

> <r_epik_Ionization_Penalty_Neutral>
0.00385018

> <r_epik_State_Penalty>
-0

> <r_epik_Charging_Adjusted_Penalty>
0.000974069

> <i_epik_Tot_Q>
1

> <i_epik_Tot_abs_Q>
1

> <r_epik_Metal_State_Penalty>
-0

> <b_epik_Metal_Only>
0

> <s_lp_Force_Field>
OPLS_2005

> <r_lp_Energy>
37.8914

> <b_lp_Chiralities_Consistent>
1

> <s_lp_Variant>
AV-unprocessed.smi:2072-6

> <Gold.Version>
5.8.1

> <Gold.Id.Protein>
6NUR|6NUR_protein|mol2

> <Gold.PLP.Fitness>
43.2966

> <Gold.PLP.PLP>
-38.2650

> <Gold.PLP.part.hbond>
-2.0000

> <Gold.PLP.part.metal>
0.0000

> <Gold.PLP.part.buried>
-1.4540

> <Gold.PLP.part.nonpolar>
-34.8812

> <Gold.PLP.part.repulsive>
0.2571

> <Gold.PLP.ligand.clash>
0.0000

> <Gold.PLP.ligand.torsion>
0.3566

> <Gold.PLP.Chemscore.Hbond>
1.9120

> <Gold.PLP.Chemscore.CHOScore>
0.0000

> <Gold.PLP.Chemscore.Metal>
0.0000

> <Gold.Chemscore.Hbonds>
donor molecule, donor type, donor heavy atom, donor atom, acceptor molecule, acceptor atom, score
      L1  H    14    40       P1  7957  0.91
      P1  H  7997  8008       L1     1  1.00

> <Gold.PLP.Chemscore.Internal.Correction>
0.0088

> <Gold.Rescore>
     Score         DG    S(hbond)    S(metal)    S(lipo)     H(rot)  DE(clash)    DE(int)     intcor
     18.37     -21.75       1.95        0.00     105.34       1.00       0.31       3.07       ----

> <Gold.Chemscore.Fitness>
18.3685

> <Gold.Chemscore.DG>
-21.7474

> <Gold.Chemscore.ZeroCoef>
-5.4800

> <Gold.Chemscore.Hbond>
1.9470

> <Gold.Chemscore.Metal>
0.0000

> <Gold.Chemscore.Lipo>
105.3364

> <Gold.Chemscore.Internal_Hbond>
0.0000

> <Gold.Chemscore.DEClash>
0.3072

> <Gold.Chemscore.DEInternal>
3.0717

> <Gold.Chemscore.Rot>
1.0000

> <Gold.Chemscore.Internal.Correction>
   9.000000E+99

> <Gold.Chemscore.Hbonds>
donor molecule, donor type, donor heavy atom, donor atom, acceptor molecule, acceptor atom, score
      L1  H    14    40       P1  7957  0.82
      P1  H  7997  8008       L1     1  0.95

> <Gold.Chemscore.Hbond.Weighted>
-6.5030

> <Gold.Chemscore.Metal.Weighted>
-0.0000

> <Gold.Chemscore.Lipo.Weighted>
-12.3244

> <Gold.Chemscore.Internal_Hbond.Weighted>
0.0000

> <Gold.Chemscore.DEClash.Weighted>
0.3072

> <Gold.Chemscore.DEInternal.Weighted>
3.0717

> <Gold.Chemscore.Rot.Weighted>
2.5600

> <Gold.Chemscore.Internal.Correction.Weighted>
   9.000000E+99

> <Gold.Protein.RotatedTorsions>
[ 6907 6896 6895 6894 ] final  -96.69 input  -60.11 | X-H torsion
[ 7974 7965 7964 7962 ] final  135.73 input  175.53 | X-H torsion
[ 8008 7997 7996 7995 ] final  -63.58 input   59.86 | X-H torsion
[ 10167 10162 10161 10158 ] final -168.86 input  -65.29 | X-H torsion
[ 10718 10713 10712 10709 ] final  117.92 input   66.30 | X-H torsion
[ 10763 10752 10751 10750 ] final  170.72 input  -60.55 | X-H torsion
[ 11005 11000 10999 10996 ] final  -52.12 input  -57.11 | X-H torsion

> <Gold.Protein.ActiveResidues>
 VAL166  LYS551  ARG553  GLY616  TRP617  ASP618  TYR619  PRO620  LYS621  CYS622 
 ASP623  PHE694  ASN695  SER759  ASP760  ASP761  ALA762  ILE779  LEU786  VAL792 
 PHE793  MET794  SER795  GLU796  ALA797  LYS798  CYS799  TRP800  GLU811  SER814 

> <Gold.Protein.RotatedAtoms>
  150.6995  134.1464  159.4123 H   0  0  0  0  0  0  0  0  0  0  0  0  # atno 6907 bound_to 6896
  151.9447  135.0194  160.0547 H   0  0  0  0  0  0  0  0  0  0  0  0  # atno 6908 bound_to 6896
  152.2063  133.4842  159.5122 H   0  0  0  0  0  0  0  0  0  0  0  0  # atno 6909 bound_to 6896
  144.9634  139.4684  143.5468 H   0  0  0  0  0  0  0  0  0  0  0  0  # atno 7974 bound_to 7965
  154.4562  140.0972  156.6765 H   0  0  0  0  0  0  0  0  0  0  0  0  # atno 8008 bound_to 7997
  155.5130  140.3477  155.4373 H   0  0  0  0  0  0  0  0  0  0  0  0  # atno 8009 bound_to 7997
  156.0783  140.1366  156.9733 H   0  0  0  0  0  0  0  0  0  0  0  0  # atno 8010 bound_to 7997
  139.5958  144.1114  152.1688 H   0  0  0  0  0  0  0  0  0  0  0  0  # atno 10167 bound_to 10162
  157.6065  131.1042  150.7683 H   0  0  0  0  0  0  0  0  0  0  0  0  # atno 10718 bound_to 10713
  154.4016  135.2755  155.2093 H   0  0  0  0  0  0  0  0  0  0  0  0  # atno 10763 bound_to 10752
  154.4116  135.6021  153.5960 H   0  0  0  0  0  0  0  0  0  0  0  0  # atno 10764 bound_to 10752
  152.9831  135.5951  154.4285 H   0  0  0  0  0  0  0  0  0  0  0  0  # atno 10765 bound_to 10752
  141.0908  133.6633  156.3978 H   0  0  0  0  0  0  0  0  0  0  0  0  # atno 11005 bound_to 11000
  146.3360  139.8799  142.8826 LP  0  0  0  0  0  0  0  0  0  0  0  0  # atno 17320 bound_to 7965
  145.2665  141.0094  143.3796 LP  0  0  0  0  0  0  0  0  0  0  0  0  # atno 17321 bound_to 7965
  140.0699  144.5788  150.7199 LP  0  0  0  0  0  0  0  0  0  0  0  0  # atno 17342 bound_to 10162
  140.7211  143.2590  151.4275 LP  0  0  0  0  0  0  0  0  0  0  0  0  # atno 17343 bound_to 10162
  156.8070  130.4940  149.5361 LP  0  0  0  0  0  0  0  0  0  0  0  0  # atno 17370 bound_to 10713
  156.1153  130.6070  151.0110 LP  0  0  0  0  0  0  0  0  0  0  0  0  # atno 17371 bound_to 10713
  140.5257  134.6261  157.5333 LP  0  0  0  0  0  0  0  0  0  0  0  0  # atno 17394 bound_to 11000
  139.9733  134.7257  155.9998 LP  0  0  0  0  0  0  0  0  0  0  0  0  # atno 17395 bound_to 11000

$$$$
