#       Name:                AV-unprocessed.smi:2562
#       Creating user name   scv26
#       Creation time:       Fri Mar 27 14:09:18 2020


#       File generated by GOLD software.
#

@<TRIPOS>MOLECULE
AV-unprocessed.smi:2562
    35    36     1
SMALL
NO_CHARGES


@<TRIPOS>ATOM
      1 ****        -3.1251   4.3576  -1.3821 C.3            1 S1                 0.0000
      2 ****        -2.5219   2.9491  -1.3569 C.3            1 S1                 0.0000
      3 ****        -1.0128   2.9615  -1.0750 C.3            1 S1                 0.0000
      4 ****        -0.4209   1.5904  -1.0543 C.2            1 S1                 0.0000
      5 ****        -0.0509   0.9019  -2.1381 N.2            1 S1                 0.0000
      6 ****         0.4234  -0.3083  -1.6619 N.2            1 S1                 0.0000
      7 ****         0.2903  -0.2465  -0.3327 C.2            1 S1                 0.0000
      8 ****         0.6827  -1.3304   0.6210 C.3            1 S1                 0.0000
      9 ****         2.2072  -1.4050   0.8326 C.3            1 S1                 0.0000
     10 ****         2.5404  -2.5522   1.6995 N.4            1 S1                 1.0000
     11 ****         1.9849  -3.8118   1.1662 C.3            1 S1                 0.0000
     12 ****         0.4703  -3.6669   0.9356 C.3            1 S1                 0.0000
     13 ****         0.2188  -2.5621   0.0734 O.3            1 S1                 0.0000
     14 ****        -0.2292   0.9160   0.0886 N.pl3          1 S1                 0.0000
     15 ****        -0.4304   1.2125   1.0326 H              1 S1                 0.0000
     16 ****        -4.1951   4.3186  -1.5870 H              1 S1                 0.0000
     17 ****        -2.6604   4.9701  -2.1552 H              1 S1                 0.0000
     18 ****        -2.9876   4.8626  -0.4256 H              1 S1                 0.0000
     19 ****        -3.0319   2.3525  -0.5995 H              1 S1                 0.0000
     20 ****        -2.7113   2.4607  -2.3137 H              1 S1                 0.0000
     21 ****        -0.4961   3.5491  -1.8351 H              1 S1                 0.0000
     22 ****        -0.8144   3.4477  -0.1188 H              1 S1                 0.0000
     23 ****         0.1811  -1.1507   1.5740 H              1 S1                 0.0000
     24 ****         2.7210  -1.5216  -0.1229 H              1 S1                 0.0000
     25 ****         2.5790  -0.4871   1.2886 H              1 S1                 0.0000
     26 ****         3.5442  -2.6344   1.7780 H              1 S1                 0.0000
     27 ****         2.4868  -4.0570   0.2292 H              1 S1                 0.0000
     28 ****         2.1914  -4.6233   1.8641 H              1 S1                 0.0000
     29 ****         0.0713  -4.5718   0.4770 H              1 S1                 0.0000
     30 ****        -0.0563  -3.5305   1.8816 H              1 S1                 0.0000
     31 ****         2.1501  -2.3895   2.6168 H              1 S1                 0.0000
     32 ****        -0.1051   1.1982  -3.0916 LP             1 S1                 0.0000
     33 ****         0.7887  -1.0688  -2.1989 LP             1 S1                 0.0000
     34 ****         0.6835  -2.7219  -0.7975 LP             1 S1                 0.0000
     35 ****        -0.7666  -2.4937  -0.0822 LP             1 S1                 0.0000
@<TRIPOS>BOND
    1    1    2 1     
    2    1   16 1     
    3    1   17 1     
    4    1   18 1     
    5    2    3 1     
    6    2   19 1     
    7    2   20 1     
    8    3   21 1     
    9    3   22 1     
   10    3    4 1     
   11    4    5 2     
   12    4   14 1     
   13    5    6 1     
   14    6    7 2     
   15    7   14 1     
   16    7    8 1     
   17    8   13 1     
   18    8    9 1     
   19    8   23 1     
   20    9   10 1     
   21    9   24 1     
   22    9   25 1     
   23   10   11 1     
   24   10   26 1     
   25   10   31 1     
   26   11   12 1     
   27   11   27 1     
   28   11   28 1     
   29   12   13 1     
   30   12   29 1     
   31   12   30 1     
   32   14   15 1     
   33    5   32 1     
   34    6   33 1     
   35   13   34 1     
   36   13   35 1     
@<TRIPOS>SUBSTRUCTURE
      1 S1             1
@<TRIPOS>SET
LONE_PAIRS      STATIC     ATOMS    <user>   **** ""
4 32 33 34 35
DONOR_HYDROGENS      STATIC     ATOMS    <user>   **** ""
3 26 31 15
ATOM$BLUE        STATIC     ATOMS    COLORGROUP SYSTEM
4 32 33 34 35
ATOM$RED        STATIC     ATOMS    COLORGROUP SYSTEM
3 26 31 15
