AV-unprocessed.smi:743|AV-procd|sdf|3564|dock4
  -GOLD-   22720 0563D 1   1.00000     0.00000
 Structure written by MMmdl.
 28 29  0  0  0  0  0  0  0  0  1 V2000
  141.9623  137.4291  153.9718 C   0  0  0  0  0  0  0  0  0  0  0  0
  142.6393  136.3787  153.2421 N   0  0  0  0  0  0  0  0  0  0  0  0
  143.5534  136.4941  152.2179 C   0  0  0  0  0  0  0  0  0  0  0  0
  143.9138  135.2295  151.8377 C   0  0  0  0  0  0  0  0  0  0  0  0
  144.8809  134.7824  150.7581 C   0  0  2  0  0  0  0  0  0  0  0  0
  144.1775  134.0373  149.7101 N   0  0  0  0  0  0  0  0  0  0  0  0
  144.1051  132.6982  149.5875 C   0  0  0  0  0  0  0  0  0  0  0  0
  143.3905  132.1717  148.7379 O   0  0  0  0  0  0  0  0  0  0  0  0
  144.9735  131.8105  150.4959 C   0  0  0  0  0  0  0  0  0  0  0  0
  145.5796  132.5428  151.7063 C   0  0  0  0  0  0  0  0  0  0  0  0
  146.0606  133.9441  151.3094 C   0  0  2  0  0  0  0  0  0  0  0  0
  146.7361  134.5939  152.4183 N   0  0  0  0  0  0  0  0  0  0  0  0
  143.1524  134.4022  152.7137 C   0  0  0  0  0  0  0  0  0  0  0  0
  142.3929  135.0900  153.5502 N   0  0  0  0  0  0  0  0  0  0  0  0
  146.8014  133.8315  150.5164 H   0  0  0  0  0  0  0  0  0  0  0  0
  142.2548  138.4042  153.5812 H   0  0  0  0  0  0  0  0  0  0  0  0
  142.2283  137.3760  155.0279 H   0  0  0  0  0  0  0  0  0  0  0  0
  140.8830  137.3152  153.8667 H   0  0  0  0  0  0  0  0  0  0  0  0
  143.8660  137.4576  151.8429 H   0  0  0  0  0  0  0  0  0  0  0  0
  145.3011  135.6626  150.2704 H   0  0  0  0  0  0  0  0  0  0  0  0
  143.6280  134.5879  149.0663 H   0  0  0  0  0  0  0  0  0  0  0  0
  144.3913  130.9521  150.8321 H   0  0  0  0  0  0  0  0  0  0  0  0
  145.7800  131.4140  149.8784 H   0  0  0  0  0  0  0  0  0  0  0  0
  144.8417  132.6062  152.5074 H   0  0  0  0  0  0  0  0  0  0  0  0
  146.4100  131.9573  152.1028 H   0  0  0  0  0  0  0  0  0  0  0  0
  147.3603  133.9395  152.8682 H   0  0  0  0  0  0  0  0  0  0  0  0
  147.3091  135.3505  152.0729 H   0  0  0  0  0  0  0  0  0  0  0  0
  143.1295  133.3235  152.7629 H   0  0  0  0  0  0  0  0  0  0  0  0
  1  2  1  0  0  0  0
  1 16  1  0  0  0  0
  1 17  1  0  0  0  0
  1 18  1  0  0  0  0
  2 14  1  0  0  0  0
  2  3  1  0  0  0  0
  3  4  2  0  0  0  0
  3 19  1  0  0  0  0
  4  5  1  0  0  0  0
  4 13  1  0  0  0  0
  5 11  1  0  0  0  0
  5  6  1  0  0  0  0
  5 20  1  0  0  0  0
  6  7  1  0  0  0  0
  6 21  1  0  0  0  0
  7  8  2  0  0  0  0
  7  9  1  0  0  0  0
  9 10  1  0  0  0  0
  9 22  1  0  0  0  0
  9 23  1  0  0  0  0
 10 11  1  0  0  0  0
 10 24  1  0  0  0  0
 10 25  1  0  0  0  0
 11 15  1  0  0  0  0
 11 12  1  0  0  0  0
 12 26  1  0  0  0  0
 12 27  1  0  0  0  0
 13 14  2  0  0  0  0
 13 28  1  0  0  0  0
M  END
> <s_m_source_file>
AV-unprocessed.smi

> <i_m_source_file_index>
743

> <i_lp_mmshare_version>
43012

> <i_f3d_flags>
0

> <s_epik_input>
W0NIM11uMVtjSF1jKFtjSF1uMSlbQ0BASF0yW05IXUMoPU8pW0NIMl1bQ0gyXVtDQEBIXTJbTkgyXQ==

> <s_epik_cmdline>
J2VwaWtfcHl0aG9uJywgJy1waCcsICc3LjAnLCAnLXRuJywgJzgnLCAnLW1hJywgJzIwMCcsICctbWV0YWxfYmluZGluZycsICctaW1hZScsICc8aW5maWxlLm1hZT4nLCAnLW9tYWUnLCAnPG91dGZpbGUubWFlPic=

> <r_lp_tautomer_probability>
1

> <r_epik_Ionization_Penalty>
2.50279

> <r_epik_Ionization_Penalty_Charging>
0

> <r_epik_Ionization_Penalty_Neutral>
2.50279

> <r_epik_State_Penalty>
2.66754

> <r_epik_Charging_Adjusted_Penalty>
2.66754

> <i_epik_Tot_Q>
0

> <i_epik_Tot_abs_Q>
0

> <r_epik_Metal_State_Penalty>
2.66721

> <b_epik_Metal_Only>
0

> <s_lp_Force_Field>
OPLS_2005

> <r_lp_Energy>
9.07017

> <b_lp_Chiralities_Consistent>
1

> <s_lp_Variant>
AV-unprocessed.smi:743-5

> <Gold.Version>
5.8.1

> <Gold.Id.Protein>
6NUR|6NUR_protein|mol2

> <Gold.PLP.Fitness>
38.4287

> <Gold.PLP.PLP>
-27.2365

> <Gold.PLP.part.hbond>
-3.4868

> <Gold.PLP.part.metal>
0.0000

> <Gold.PLP.part.buried>
-6.8307

> <Gold.PLP.part.nonpolar>
-18.9756

> <Gold.PLP.part.repulsive>
0.5308

> <Gold.PLP.ligand.clash>
0.0000

> <Gold.PLP.ligand.torsion>
0.0161

> <Gold.PLP.Chemscore.Hbond>
1.8480

> <Gold.PLP.Chemscore.CHOScore>
1.8876

> <Gold.PLP.Chemscore.Metal>
0.0000

> <Gold.Chemscore.Hbonds>
donor molecule, donor type, donor heavy atom, donor atom, acceptor molecule, acceptor atom, score
      L1  H    12    27       P1  7948  1.00
      P1  H 10785 10796       L1     8  0.84
      L1  C     3    19       P1 10171  1.00
      L1  C    13    28       P1 10957  0.87

> <Gold.PLP.Chemscore.Internal.Correction>
0.0177

> <Gold.Rescore>
     Score         DG    S(hbond)    S(metal)    S(lipo)     H(rot)  DE(clash)    DE(int)     intcor
     14.14     -14.15       1.70        0.00      47.59       1.00       0.01       0.01       ----

> <Gold.Chemscore.Fitness>
14.1389

> <Gold.Chemscore.DG>
-14.1544

> <Gold.Chemscore.ZeroCoef>
-5.4800

> <Gold.Chemscore.Hbond>
1.6965

> <Gold.Chemscore.Metal>
0.0000

> <Gold.Chemscore.Lipo>
47.5922

> <Gold.Chemscore.Internal_Hbond>
0.0000

> <Gold.Chemscore.DEClash>
0.0057

> <Gold.Chemscore.DEInternal>
0.0098

> <Gold.Chemscore.Rot>
1.0000

> <Gold.Chemscore.Internal.Correction>
   9.000000E+99

> <Gold.Chemscore.Hbonds>
donor molecule, donor type, donor heavy atom, donor atom, acceptor molecule, acceptor atom, score
      L1  H    12    27       P1  7948  0.96
      P1  H 10785 10796       L1     8  0.74

> <Gold.Chemscore.Hbond.Weighted>
-5.6662

> <Gold.Chemscore.Metal.Weighted>
-0.0000

> <Gold.Chemscore.Lipo.Weighted>
-5.5683

> <Gold.Chemscore.Internal_Hbond.Weighted>
0.0000

> <Gold.Chemscore.DEClash.Weighted>
0.0057

> <Gold.Chemscore.DEInternal.Weighted>
0.0098

> <Gold.Chemscore.Rot.Weighted>
2.5600

> <Gold.Chemscore.Internal.Correction.Weighted>
   9.000000E+99

> <Gold.Protein.RotatedTorsions>
[ 6907 6896 6895 6894 ] final -140.96 input  -60.11 | X-H torsion
[ 7974 7965 7964 7962 ] final -122.52 input  175.53 | X-H torsion
[ 8008 7997 7996 7995 ] final  178.86 input   59.86 | X-H torsion
[ 10167 10162 10161 10158 ] final   64.13 input  -65.29 | X-H torsion
[ 10718 10713 10712 10709 ] final   27.96 input   66.30 | X-H torsion
[ 10763 10752 10751 10750 ] final   -2.54 input  -60.55 | X-H torsion
[ 11005 11000 10999 10996 ] final  115.70 input  -57.11 | X-H torsion

> <Gold.Protein.ActiveResidues>
 VAL166  LYS551  ARG553  GLY616  TRP617  ASP618  TYR619  PRO620  LYS621  CYS622 
 ASP623  PHE694  ASN695  SER759  ASP760  ASP761  ALA762  ILE779  LEU786  VAL792 
 PHE793  MET794  SER795  GLU796  ALA797  LYS798  CYS799  TRP800  GLU811  SER814 

> <Gold.Protein.RotatedAtoms>
  151.0675  133.5493  159.2629 H   0  0  0  0  0  0  0  0  0  0  0  0  # atno 6907 bound_to 6896
  151.2445  135.0600  159.9048 H   0  0  0  0  0  0  0  0  0  0  0  0  # atno 6908 bound_to 6896
  152.5407  134.0445  159.8136 H   0  0  0  0  0  0  0  0  0  0  0  0  # atno 6909 bound_to 6896
  145.0285  140.8048  143.4338 H   0  0  0  0  0  0  0  0  0  0  0  0  # atno 7974 bound_to 7965
  156.0499  140.1323  157.0062 H   0  0  0  0  0  0  0  0  0  0  0  0  # atno 8008 bound_to 7997
  154.4430  140.1013  156.6431 H   0  0  0  0  0  0  0  0  0  0  0  0  # atno 8009 bound_to 7997
  155.5539  140.3463  155.4477 H   0  0  0  0  0  0  0  0  0  0  0  0  # atno 8010 bound_to 7997
  140.1255  144.4691  150.6895 H   0  0  0  0  0  0  0  0  0  0  0  0  # atno 10167 bound_to 10162
  157.2271  130.7006  149.6296 H   0  0  0  0  0  0  0  0  0  0  0  0  # atno 10718 bound_to 10713
  153.3593  135.6989  153.6725 H   0  0  0  0  0  0  0  0  0  0  0  0  # atno 10763 bound_to 10752
  153.5420  135.3571  155.2723 H   0  0  0  0  0  0  0  0  0  0  0  0  # atno 10764 bound_to 10752
  154.8666  135.4206  154.2847 H   0  0  0  0  0  0  0  0  0  0  0  0  # atno 10765 bound_to 10752
  139.9018  134.9588  156.7085 H   0  0  0  0  0  0  0  0  0  0  0  0  # atno 11005 bound_to 11000
  145.1802  139.2356  143.5296 LP  0  0  0  0  0  0  0  0  0  0  0  0  # atno 17320 bound_to 7965
  146.3495  140.1573  142.8591 LP  0  0  0  0  0  0  0  0  0  0  0  0  # atno 17321 bound_to 7965
  140.6847  143.2344  151.5291 LP  0  0  0  0  0  0  0  0  0  0  0  0  # atno 17342 bound_to 10162
  139.5546  144.2308  152.1590 LP  0  0  0  0  0  0  0  0  0  0  0  0  # atno 17343 bound_to 10162
  155.9678  130.4501  150.5684 LP  0  0  0  0  0  0  0  0  0  0  0  0  # atno 17370 bound_to 10713
  157.3516  131.0734  151.1708 LP  0  0  0  0  0  0  0  0  0  0  0  0  # atno 17371 bound_to 10713
  140.7094  133.9236  155.8075 LP  0  0  0  0  0  0  0  0  0  0  0  0  # atno 17394 bound_to 11000
  141.0312  134.0754  157.4012 LP  0  0  0  0  0  0  0  0  0  0  0  0  # atno 17395 bound_to 11000

$$$$
