AV-unprocessed.smi:3308|AV-procd|sdf|12709|dock1
  -GOLD-   2272019 43D 1   1.00000     0.00000
 Structure written by MMmdl.
 41 42  0  0  0  0  0  0  0  0  2 V2000
  149.6871  140.9093  154.5039 C   0  0  0  0  0  0  0  0  0  0  0  0
  149.1574  140.9728  155.9479 C   0  0  1  0  0  0  0  0  0  0  0  0
  149.5356  142.2772  156.5366 N   0  3  0  0  0  0  0  0  0  0  0  0
  150.9903  142.4955  156.6899 C   0  0  0  0  0  0  0  0  0  0  0  0
  151.5775  141.7115  157.8718 C   0  0  0  0  0  0  0  0  0  0  0  0
  151.6828  140.4861  157.7987 O   0  0  0  0  0  0  0  0  0  0  0  0
  151.9641  142.4012  158.9647 N   0  0  0  0  0  0  0  0  0  0  0  0
  152.5534  141.7773  160.1478 C   0  0  0  0  0  0  0  0  0  0  0  0
  153.0753  142.9297  161.0067 C   0  0  0  0  0  0  0  0  0  0  0  0
  152.2085  144.1149  160.6054 C   0  0  0  0  0  0  0  0  0  0  0  0
  151.8671  143.8505  159.1382 C   0  0  0  0  0  0  0  0  0  0  0  0
  147.6222  140.7589  156.0443 C   0  0  2  0  0  0  0  0  0  0  0  0
  147.1781  139.3677  155.5531 C   0  0  0  0  0  0  0  0  0  0  0  0
  146.8770  141.7958  155.3412 N   0  0  0  0  0  0  0  0  0  0  0  0
  146.9166  142.1150  153.9993 C   0  0  0  0  0  0  0  0  0  0  0  0
  146.0554  143.1556  153.8011 C   0  0  0  0  0  0  0  0  0  0  0  0
  145.5283  143.4104  155.0975 C   0  0  0  0  0  0  0  0  0  0  0  0
  146.0219  142.5967  156.0168 N   0  0  0  0  0  0  0  0  0  0  0  0
  149.5246  139.9295  154.0543 H   0  0  0  0  0  0  0  0  0  0  0  0
  150.7605  141.0987  154.4726 H   0  0  0  0  0  0  0  0  0  0  0  0
  149.2003  141.6513  153.8701 H   0  0  0  0  0  0  0  0  0  0  0  0
  149.6548  140.1756  156.5037 H   0  0  0  0  0  0  0  0  0  0  0  0
  149.1744  143.0118  155.9448 H   0  0  0  0  0  0  0  0  0  0  0  0
  151.4980  142.1954  155.7726 H   0  0  0  0  0  0  0  0  0  0  0  0
  151.1733  143.5607  156.8382 H   0  0  0  0  0  0  0  0  0  0  0  0
  151.7785  141.2236  160.6799 H   0  0  0  0  0  0  0  0  0  0  0  0
  153.3531  141.0803  159.8917 H   0  0  0  0  0  0  0  0  0  0  0  0
  153.0312  142.7147  162.0748 H   0  0  0  0  0  0  0  0  0  0  0  0
  154.1153  143.1359  160.7502 H   0  0  0  0  0  0  0  0  0  0  0  0
  151.2939  144.1137  161.1999 H   0  0  0  0  0  0  0  0  0  0  0  0
  152.7047  145.0737  160.7590 H   0  0  0  0  0  0  0  0  0  0  0  0
  152.5932  144.3375  158.4859 H   0  0  0  0  0  0  0  0  0  0  0  0
  150.8757  144.2342  158.8939 H   0  0  0  0  0  0  0  0  0  0  0  0
  147.3408  140.8373  157.0957 H   0  0  0  0  0  0  0  0  0  0  0  0
  147.6016  138.5718  156.1657 H   0  0  0  0  0  0  0  0  0  0  0  0
  147.4828  139.1909  154.5211 H   0  0  0  0  0  0  0  0  0  0  0  0
  146.0935  139.2649  155.6007 H   0  0  0  0  0  0  0  0  0  0  0  0
  147.5471  141.5815  153.3033 H   0  0  0  0  0  0  0  0  0  0  0  0
  145.8360  143.6600  152.8717 H   0  0  0  0  0  0  0  0  0  0  0  0
  144.8074  144.1575  155.3951 H   0  0  0  0  0  0  0  0  0  0  0  0
  149.0997  142.3600  157.4440 H   0  0  0  0  0  0  0  0  0  0  0  0
  1  2  1  0  0  0  0
  1 19  1  0  0  0  0
  1 20  1  0  0  0  0
  1 21  1  0  0  0  0
  2  3  1  0  0  0  0
  2 12  1  0  0  0  0
  2 22  1  0  0  0  0
  3  4  1  0  0  0  0
  3 23  1  0  0  0  0
  3 41  1  0  0  0  0
  4  5  1  0  0  0  0
  4 24  1  0  0  0  0
  4 25  1  0  0  0  0
  5  6  2  0  0  0  0
  5  7  1  0  0  0  0
  7 11  1  0  0  0  0
  7  8  1  0  0  0  0
  8  9  1  0  0  0  0
  8 26  1  0  0  0  0
  8 27  1  0  0  0  0
  9 10  1  0  0  0  0
  9 28  1  0  0  0  0
  9 29  1  0  0  0  0
 10 11  1  0  0  0  0
 10 30  1  0  0  0  0
 10 31  1  0  0  0  0
 11 32  1  0  0  0  0
 11 33  1  0  0  0  0
 12 13  1  0  0  0  0
 12 14  1  0  0  0  0
 12 34  1  0  0  0  0
 13 35  1  0  0  0  0
 13 36  1  0  0  0  0
 13 37  1  0  0  0  0
 14 18  1  0  0  0  0
 14 15  1  0  0  0  0
 15 16  2  0  0  0  0
 15 38  1  0  0  0  0
 16 17  1  0  0  0  0
 16 39  1  0  0  0  0
 17 18  2  0  0  0  0
 17 40  1  0  0  0  0
M  CHG  1   3   1
M  END
> <s_m_source_file>
AV-unprocessed.smi

> <i_m_source_file_index>
3308

> <i_lp_mmshare_version>
43012

> <i_f3d_flags>
0

> <s_epik_input>
bjFbY0hdW2NIXVtjSF1uMVtDQEBIXShbQ0gzXSlbQ0BIXShbQ0gzXSlbTkhdW0NIMl1DKD1PKU4yW0NIMl1bQ0gyXVtDSDJdW0NIMl0y

> <s_epik_cmdline>
J2VwaWtfcHl0aG9uJywgJy1waCcsICc3LjAnLCAnLXRuJywgJzgnLCAnLW1hJywgJzIwMCcsICctbWV0YWxfYmluZGluZycsICctaW1hZScsICc8aW5maWxlLm1hZT4nLCAnLW9tYWUnLCAnPG91dGZpbGUubWFlPic=

> <r_lp_tautomer_probability>
1

> <r_epik_Ionization_Penalty>
0.141739

> <r_epik_Ionization_Penalty_Charging>
0.141731

> <r_epik_Ionization_Penalty_Neutral>
8.82171e-06

> <r_epik_State_Penalty>
0.131043

> <r_epik_Charging_Adjusted_Penalty>
0.272773

> <i_epik_Tot_Q>
1

> <i_epik_Tot_abs_Q>
1

> <r_epik_Metal_State_Penalty>
0.131385

> <b_epik_Metal_Only>
0

> <s_lp_Force_Field>
OPLS_2005

> <r_lp_Energy>
34.0204

> <b_lp_Chiralities_Consistent>
1

> <s_lp_Variant>
AV-unprocessed.smi:3308-2

> <Gold.Version>
5.8.1

> <Gold.Id.Protein>
6NUR|6NUR_protein|mol2

> <Gold.PLP.Fitness>
43.2964

> <Gold.PLP.PLP>
-37.6836

> <Gold.PLP.part.hbond>
-1.0000

> <Gold.PLP.part.metal>
0.0000

> <Gold.PLP.part.buried>
-3.8305

> <Gold.PLP.part.nonpolar>
-32.1974

> <Gold.PLP.part.repulsive>
0.1855

> <Gold.PLP.ligand.clash>
0.0000

> <Gold.PLP.ligand.torsion>
0.2415

> <Gold.PLP.Chemscore.Hbond>
2.0000

> <Gold.PLP.Chemscore.CHOScore>
0.0000

> <Gold.PLP.Chemscore.Metal>
0.0000

> <Gold.Chemscore.Hbonds>
donor molecule, donor type, donor heavy atom, donor atom, acceptor molecule, acceptor atom, score
      L1  H     3    23       P1  8028  1.98

> <Gold.PLP.Chemscore.Internal.Correction>
0.0958

> <Gold.Rescore>
     Score         DG    S(hbond)    S(metal)    S(lipo)     H(rot)  DE(clash)    DE(int)     intcor
     14.10     -14.47       0.96        0.00      88.40       1.78       0.19       0.18       ----

> <Gold.Chemscore.Fitness>
14.0971

> <Gold.Chemscore.DG>
-14.4690

> <Gold.Chemscore.ZeroCoef>
-5.4800

> <Gold.Chemscore.Hbond>
0.9618

> <Gold.Chemscore.Metal>
0.0000

> <Gold.Chemscore.Lipo>
88.3983

> <Gold.Chemscore.Internal_Hbond>
0.0000

> <Gold.Chemscore.DEClash>
0.1909

> <Gold.Chemscore.DEInternal>
0.1810

> <Gold.Chemscore.Rot>
1.7836

> <Gold.Chemscore.Internal.Correction>
   9.000000E+99

> <Gold.Chemscore.Hbonds>
donor molecule, donor type, donor heavy atom, donor atom, acceptor molecule, acceptor atom, score
      L1  H     3    23       P1  8028  0.94

> <Gold.Chemscore.Hbond.Weighted>
-3.2124

> <Gold.Chemscore.Metal.Weighted>
-0.0000

> <Gold.Chemscore.Lipo.Weighted>
-10.3426

> <Gold.Chemscore.Internal_Hbond.Weighted>
0.0000

> <Gold.Chemscore.DEClash.Weighted>
0.1909

> <Gold.Chemscore.DEInternal.Weighted>
0.1810

> <Gold.Chemscore.Rot.Weighted>
4.5660

> <Gold.Chemscore.Internal.Correction.Weighted>
   9.000000E+99

> <Gold.Protein.RotatedTorsions>
[ 6907 6896 6895 6894 ] final  -75.48 input  -60.11 | X-H torsion
[ 7974 7965 7964 7962 ] final   88.13 input  175.53 | X-H torsion
[ 8008 7997 7996 7995 ] final  105.86 input   59.86 | X-H torsion
[ 10167 10162 10161 10158 ] final   61.49 input  -65.29 | X-H torsion
[ 10718 10713 10712 10709 ] final -113.16 input   66.30 | X-H torsion
[ 10763 10752 10751 10750 ] final  154.99 input  -60.55 | X-H torsion
[ 11005 11000 10999 10996 ] final  155.48 input  -57.11 | X-H torsion

> <Gold.Protein.ActiveResidues>
 VAL166  LYS551  ARG553  GLY616  TRP617  ASP618  TYR619  PRO620  LYS621  CYS622 
 ASP623  PHE694  ASN695  SER759  ASP760  ASP761  ALA762  ILE779  LEU786  VAL792 
 PHE793  MET794  SER795  GLU796  ALA797  LYS798  CYS799  TRP800  GLU811  SER814 

> <Gold.Protein.RotatedAtoms>
  150.7058  134.4715  159.5427 H   0  0  0  0  0  0  0  0  0  0  0  0  # atno 6907 bound_to 6896
  152.2370  134.8263  160.0475 H   0  0  0  0  0  0  0  0  0  0  0  0  # atno 6908 bound_to 6896
  151.9058  133.3514  159.3883 H   0  0  0  0  0  0  0  0  0  0  0  0  # atno 6909 bound_to 6896
  145.5497  139.2294  143.2519 H   0  0  0  0  0  0  0  0  0  0  0  0  # atno 7974 bound_to 7965
  156.1694  140.3123  155.8947 H   0  0  0  0  0  0  0  0  0  0  0  0  # atno 8008 bound_to 7997
  155.3618  140.0477  157.3063 H   0  0  0  0  0  0  0  0  0  0  0  0  # atno 8009 bound_to 7997
  154.5226  140.2203  155.8959 H   0  0  0  0  0  0  0  0  0  0  0  0  # atno 8010 bound_to 7997
  140.1542  144.4433  150.6743 H   0  0  0  0  0  0  0  0  0  0  0  0  # atno 10167 bound_to 10162
  156.0749  130.5958  150.8605 H   0  0  0  0  0  0  0  0  0  0  0  0  # atno 10718 bound_to 10713
  154.1612  135.2809  155.3108 H   0  0  0  0  0  0  0  0  0  0  0  0  # atno 10763 bound_to 10752
  154.6145  135.5488  153.7512 H   0  0  0  0  0  0  0  0  0  0  0  0  # atno 10764 bound_to 10752
  153.0192  135.6423  154.1754 H   0  0  0  0  0  0  0  0  0  0  0  0  # atno 10765 bound_to 10752
  140.1586  134.8625  157.2545 H   0  0  0  0  0  0  0  0  0  0  0  0  # atno 11005 bound_to 11000
  146.1925  140.6320  142.9139 LP  0  0  0  0  0  0  0  0  0  0  0  0  # atno 17320 bound_to 7965
  144.7535  140.5250  143.6785 LP  0  0  0  0  0  0  0  0  0  0  0  0  # atno 17321 bound_to 7965
  140.6684  143.2276  151.5687 LP  0  0  0  0  0  0  0  0  0  0  0  0  # atno 17342 bound_to 10162
  139.5411  144.2644  152.1353 LP  0  0  0  0  0  0  0  0  0  0  0  0  # atno 17343 bound_to 10162
  157.5840  131.0946  150.9226 LP  0  0  0  0  0  0  0  0  0  0  0  0  # atno 17370 bound_to 10713
  156.9416  130.5386  149.5280 LP  0  0  0  0  0  0  0  0  0  0  0  0  # atno 17371 bound_to 10713
  140.2518  134.3674  155.7439 LP  0  0  0  0  0  0  0  0  0  0  0  0  # atno 17394 bound_to 11000
  141.2207  133.7321  156.8946 LP  0  0  0  0  0  0  0  0  0  0  0  0  # atno 17395 bound_to 11000

$$$$
