AV-unprocessed.smi:3249|AV-procd|sdf|12418|dock5
  -GOLD-   2272018303D 1   1.00000     0.00000
 Structure written by MMmdl.
 44 45  0  0  0  0  0  0  0  0  2 V2000
  144.5155  144.4140  153.7208 C   0  0  0  0  0  0  0  0  0  0  0  0
  145.3082  143.3115  154.3613 C   0  0  0  0  0  0  0  0  0  0  0  0
  145.2565  142.8680  155.7129 C   0  0  0  0  0  0  0  0  0  0  0  0
  146.0969  141.8769  155.9602 N   0  0  0  0  0  0  0  0  0  0  0  0
  146.7019  141.6383  154.7767 N   0  0  0  0  0  0  0  0  0  0  0  0
  147.7336  140.6101  154.6883 C   0  0  1  0  0  0  0  0  0  0  0  0
  147.3137  139.5377  153.6655 C   0  0  0  0  0  0  0  0  0  0  0  0
  149.1154  141.2470  154.3876 C   0  0  2  0  0  0  0  0  0  0  0  0
  150.2267  140.1961  154.2049 C   0  0  0  0  0  0  0  0  0  0  0  0
  149.4828  142.1826  155.4768 N   0  3  0  0  0  0  0  0  0  0  0  0
  149.9256  141.5497  156.7363 C   0  0  0  0  0  0  0  0  0  0  0  0
  151.1403  142.2857  157.3179 C   0  0  2  0  0  0  0  0  0  0  0  0
  151.7680  141.5178  158.4973 C   0  0  0  0  0  0  0  0  0  0  0  0
  152.9211  142.3207  159.1103 C   0  0  0  0  0  0  0  0  0  0  0  0
  152.4375  143.7304  159.4660 C   0  0  0  0  0  0  0  0  0  0  0  0
  151.7660  144.3879  158.2500 C   0  0  0  0  0  0  0  0  0  0  0  0
  150.7045  143.5639  157.7766 O   0  0  0  0  0  0  0  0  0  0  0  0
  146.2495  142.4989  153.7962 C   0  0  0  0  0  0  0  0  0  0  0  0
  143.7239  144.7780  154.3762 H   0  0  0  0  0  0  0  0  0  0  0  0
  144.0398  144.0839  152.7972 H   0  0  0  0  0  0  0  0  0  0  0  0
  145.1446  145.2688  153.4719 H   0  0  0  0  0  0  0  0  0  0  0  0
  144.6412  143.2399  156.5192 H   0  0  0  0  0  0  0  0  0  0  0  0
  147.7908  140.1181  155.6615 H   0  0  0  0  0  0  0  0  0  0  0  0
  147.9688  138.6679  153.7018 H   0  0  0  0  0  0  0  0  0  0  0  0
  147.3299  139.9258  152.6467 H   0  0  0  0  0  0  0  0  0  0  0  0
  146.3035  139.1803  153.8686 H   0  0  0  0  0  0  0  0  0  0  0  0
  149.0246  141.8195  153.4626 H   0  0  0  0  0  0  0  0  0  0  0  0
  150.0307  139.5472  153.3519 H   0  0  0  0  0  0  0  0  0  0  0  0
  150.3242  139.5650  155.0888 H   0  0  0  0  0  0  0  0  0  0  0  0
  151.1948  140.6619  154.0228 H   0  0  0  0  0  0  0  0  0  0  0  0
  150.2517  142.7458  155.1410 H   0  0  0  0  0  0  0  0  0  0  0  0
  149.1114  141.5331  157.4611 H   0  0  0  0  0  0  0  0  0  0  0  0
  150.1945  140.5130  156.5293 H   0  0  0  0  0  0  0  0  0  0  0  0
  151.8873  142.4159  156.5324 H   0  0  0  0  0  0  0  0  0  0  0  0
  151.0101  141.3288  159.2590 H   0  0  0  0  0  0  0  0  0  0  0  0
  152.1286  140.5430  158.1671 H   0  0  0  0  0  0  0  0  0  0  0  0
  153.3088  141.8162  159.9958 H   0  0  0  0  0  0  0  0  0  0  0  0
  153.7451  142.3832  158.3984 H   0  0  0  0  0  0  0  0  0  0  0  0
  151.7245  143.6766  160.2898 H   0  0  0  0  0  0  0  0  0  0  0  0
  153.2720  144.3402  159.8134 H   0  0  0  0  0  0  0  0  0  0  0  0
  151.3593  145.3604  158.5278 H   0  0  0  0  0  0  0  0  0  0  0  0
  152.4894  144.5620  157.4520 H   0  0  0  0  0  0  0  0  0  0  0  0
  146.6333  142.4659  152.7870 H   0  0  0  0  0  0  0  0  0  0  0  0
  148.7018  142.7953  155.6647 H   0  0  0  0  0  0  0  0  0  0  0  0
  1  2  1  0  0  0  0
  1 19  1  0  0  0  0
  1 20  1  0  0  0  0
  1 21  1  0  0  0  0
  2 18  2  0  0  0  0
  2  3  1  0  0  0  0
  3  4  2  0  0  0  0
  3 22  1  0  0  0  0
  4  5  1  0  0  0  0
  5  6  1  0  0  0  0
  5 18  1  0  0  0  0
  6  7  1  0  0  0  0
  6  8  1  0  0  0  0
  6 23  1  0  0  0  0
  7 24  1  0  0  0  0
  7 25  1  0  0  0  0
  7 26  1  0  0  0  0
  8  9  1  0  0  0  0
  8 10  1  0  0  0  0
  8 27  1  0  0  0  0
  9 28  1  0  0  0  0
  9 29  1  0  0  0  0
  9 30  1  0  0  0  0
 10 11  1  0  0  0  0
 10 31  1  0  0  0  0
 10 44  1  0  0  0  0
 11 12  1  0  0  0  0
 11 32  1  0  0  0  0
 11 33  1  0  0  0  0
 12 17  1  0  0  0  0
 12 13  1  0  0  0  0
 12 34  1  0  0  0  0
 13 14  1  0  0  0  0
 13 35  1  0  0  0  0
 13 36  1  0  0  0  0
 14 15  1  0  0  0  0
 14 37  1  0  0  0  0
 14 38  1  0  0  0  0
 15 16  1  0  0  0  0
 15 39  1  0  0  0  0
 15 40  1  0  0  0  0
 16 17  1  0  0  0  0
 16 41  1  0  0  0  0
 16 42  1  0  0  0  0
 18 43  1  0  0  0  0
M  CHG  1  10   1
M  END
> <s_m_source_file>
AV-unprocessed.smi

> <i_m_source_file_index>
3249

> <i_lp_mmshare_version>
43012

> <i_f3d_flags>
0

> <s_epik_input>
W0NIM11jMVtjSF1ubihbY0hdMSlbQ0BIXShbQ0gzXSlbQ0BIXShbQ0gzXSlbTkhdW0NIMl1bQ0BASF0yW0NIMl1bQ0gyXVtDSDJdW0NIMl1PMg==

> <s_epik_cmdline>
J2VwaWtfcHl0aG9uJywgJy1waCcsICc3LjAnLCAnLXRuJywgJzgnLCAnLW1hJywgJzIwMCcsICctbWV0YWxfYmluZGluZycsICctaW1hZScsICc8aW5maWxlLm1hZT4nLCAnLW9tYWUnLCAnPG91dGZpbGUubWFlPic=

> <r_lp_tautomer_probability>
1

> <r_epik_Ionization_Penalty>
0.00659207

> <r_epik_Ionization_Penalty_Charging>
0.00656881

> <r_epik_Ionization_Penalty_Neutral>
2.32662e-05

> <r_epik_State_Penalty>
0.0048654

> <r_epik_Charging_Adjusted_Penalty>
0.0114342

> <i_epik_Tot_Q>
1

> <i_epik_Tot_abs_Q>
1

> <r_epik_Metal_State_Penalty>
-0

> <b_epik_Metal_Only>
0

> <s_lp_Force_Field>
OPLS_2005

> <r_lp_Energy>
17.4327

> <b_lp_Chiralities_Consistent>
1

> <s_lp_Variant>
AV-unprocessed.smi:3249-2

> <Gold.Version>
5.8.1

> <Gold.Id.Protein>
6NUR|6NUR_protein|mol2

> <Gold.PLP.Fitness>
46.0814

> <Gold.PLP.PLP>
-42.0394

> <Gold.PLP.part.hbond>
-1.0000

> <Gold.PLP.part.metal>
0.0000

> <Gold.PLP.part.buried>
-5.7022

> <Gold.PLP.part.nonpolar>
-36.1498

> <Gold.PLP.part.repulsive>
1.0923

> <Gold.PLP.ligand.clash>
0.0000

> <Gold.PLP.ligand.torsion>
0.4808

> <Gold.PLP.Chemscore.Hbond>
1.6320

> <Gold.PLP.Chemscore.CHOScore>
0.0000

> <Gold.PLP.Chemscore.Metal>
0.0000

> <Gold.Chemscore.Hbonds>
donor molecule, donor type, donor heavy atom, donor atom, acceptor molecule, acceptor atom, score
      L1  H    10    44       P1  8028  0.90

> <Gold.PLP.Chemscore.Internal.Correction>
0.1075

> <Gold.Rescore>
     Score         DG    S(hbond)    S(metal)    S(lipo)     H(rot)  DE(clash)    DE(int)     intcor
     15.50     -16.86       0.70        0.00     110.94       1.53       0.37       0.99       ----

> <Gold.Chemscore.Fitness>
15.5013

> <Gold.Chemscore.DG>
-16.8647

> <Gold.Chemscore.ZeroCoef>
-5.4800

> <Gold.Chemscore.Hbond>
0.6975

> <Gold.Chemscore.Metal>
0.0000

> <Gold.Chemscore.Lipo>
110.9427

> <Gold.Chemscore.Internal_Hbond>
0.0000

> <Gold.Chemscore.DEClash>
0.3746

> <Gold.Chemscore.DEInternal>
0.9888

> <Gold.Chemscore.Rot>
1.5333

> <Gold.Chemscore.Internal.Correction>
   9.000000E+99

> <Gold.Chemscore.Hbonds>
donor molecule, donor type, donor heavy atom, donor atom, acceptor molecule, acceptor atom, score
      L1  H    10    44       P1  8028  0.46

> <Gold.Chemscore.Hbond.Weighted>
-2.3296

> <Gold.Chemscore.Metal.Weighted>
-0.0000

> <Gold.Chemscore.Lipo.Weighted>
-12.9803

> <Gold.Chemscore.Internal_Hbond.Weighted>
0.0000

> <Gold.Chemscore.DEClash.Weighted>
0.3746

> <Gold.Chemscore.DEInternal.Weighted>
0.9888

> <Gold.Chemscore.Rot.Weighted>
3.9252

> <Gold.Chemscore.Internal.Correction.Weighted>
   9.000000E+99

> <Gold.Protein.RotatedTorsions>
[ 6907 6896 6895 6894 ] final  117.87 input  -60.11 | X-H torsion
[ 7974 7965 7964 7962 ] final  -55.05 input  175.53 | X-H torsion
[ 8008 7997 7996 7995 ] final  133.25 input   59.86 | X-H torsion
[ 10167 10162 10161 10158 ] final   47.86 input  -65.29 | X-H torsion
[ 10718 10713 10712 10709 ] final -163.44 input   66.30 | X-H torsion
[ 10763 10752 10751 10750 ] final -124.02 input  -60.55 | X-H torsion
[ 11005 11000 10999 10996 ] final  -66.70 input  -57.11 | X-H torsion

> <Gold.Protein.ActiveResidues>
 VAL166  LYS551  ARG553  GLY616  TRP617  ASP618  TYR619  PRO620  LYS621  CYS622 
 ASP623  PHE694  ASN695  SER759  ASP760  ASP761  ALA762  ILE779  LEU786  VAL792 
 PHE793  MET794  SER795  GLU796  ALA797  LYS798  CYS799  TRP800  GLU811  SER814 

> <Gold.Protein.RotatedAtoms>
  152.4582  133.7768  159.6828 H   0  0  0  0  0  0  0  0  0  0  0  0  # atno 6907 bound_to 6896
  150.8516  133.7768  159.3029 H   0  0  0  0  0  0  0  0  0  0  0  0  # atno 6908 bound_to 6896
  151.5361  135.1071  159.9966 H   0  0  0  0  0  0  0  0  0  0  0  0  # atno 6909 bound_to 6896
  145.8786  140.8162  142.9851 H   0  0  0  0  0  0  0  0  0  0  0  0  # atno 7974 bound_to 7965
  156.2990  140.2526  156.3223 H   0  0  0  0  0  0  0  0  0  0  0  0  # atno 8008 bound_to 7997
  154.9223  140.0400  157.2023 H   0  0  0  0  0  0  0  0  0  0  0  0  # atno 8009 bound_to 7997
  154.8299  140.2874  155.5734 H   0  0  0  0  0  0  0  0  0  0  0  0  # atno 8010 bound_to 7997
  140.2992  144.2954  150.6223 H   0  0  0  0  0  0  0  0  0  0  0  0  # atno 10167 bound_to 10162
  156.6247  130.8905  151.2965 H   0  0  0  0  0  0  0  0  0  0  0  0  # atno 10718 bound_to 10713
  154.8717  135.4078  154.3038 H   0  0  0  0  0  0  0  0  0  0  0  0  # atno 10763 bound_to 10752
  153.3893  135.7014  153.6512 H   0  0  0  0  0  0  0  0  0  0  0  0  # atno 10764 bound_to 10752
  153.5301  135.3669  155.2643 H   0  0  0  0  0  0  0  0  0  0  0  0  # atno 10765 bound_to 10752
  141.1489  133.6704  156.6179 H   0  0  0  0  0  0  0  0  0  0  0  0  # atno 11005 bound_to 11000
  144.6727  140.1349  143.7441 LP  0  0  0  0  0  0  0  0  0  0  0  0  # atno 17320 bound_to 7965
  145.9050  139.2453  143.1471 LP  0  0  0  0  0  0  0  0  0  0  0  0  # atno 17321 bound_to 7965
  140.5665  143.2185  151.7673 LP  0  0  0  0  0  0  0  0  0  0  0  0  # atno 17342 bound_to 10162
  139.4919  144.4276  151.9908 LP  0  0  0  0  0  0  0  0  0  0  0  0  # atno 17343 bound_to 10162
  157.7217  130.9568  150.1467 LP  0  0  0  0  0  0  0  0  0  0  0  0  # atno 17370 bound_to 10713
  156.2283  130.3680  149.8475 LP  0  0  0  0  0  0  0  0  0  0  0  0  # atno 17371 bound_to 10713
  140.3563  134.7725  157.4503 LP  0  0  0  0  0  0  0  0  0  0  0  0  # atno 17394 bound_to 11000
  140.0820  134.5718  155.8530 LP  0  0  0  0  0  0  0  0  0  0  0  0  # atno 17395 bound_to 11000

$$$$
