AV-unprocessed.smi:2014|AV-procd|sdf|8161|dock2
  -GOLD-   2272010403D 1   1.00000     0.00000
 Structure written by MMmdl.
 46 48  0  0  0  0  0  0  0  0  1 V2000
  149.3413  131.3488  154.5954 C   0  0  0  0  0  0  0  0  0  0  0  0
  150.1487  132.6489  154.7173 C   0  0  2  0  0  0  0  0  0  0  0  0
  150.7068  132.8337  156.1414 C   0  0  0  0  0  0  0  0  0  0  0  0
  151.5131  134.1358  156.2706 C   0  0  0  0  0  0  0  0  0  0  0  0
  150.6773  135.3623  155.8519 C   0  0  1  0  0  0  0  0  0  0  0  0
  151.4863  136.5759  155.9067 N   0  0  0  0  0  0  0  0  0  0  0  0
  152.1034  137.0485  157.0003 C   0  0  0  0  0  0  0  0  0  0  0  0
  152.0353  136.5020  158.1025 O   0  0  0  0  0  0  0  0  0  0  0  0
  152.9169  138.3367  156.8031 C   0  0  0  0  0  0  0  0  0  0  0  0
  152.0883  139.5625  156.7985 N   0  0  0  0  0  0  0  0  0  0  0  0
  151.2141  139.7835  155.7036 C   0  0  0  0  0  0  0  0  0  0  0  0
  151.1223  138.9625  154.7891 O   0  0  0  0  0  0  0  0  0  0  0  0
  150.4637  141.0365  155.7405 C   0  0  0  0  0  0  0  0  0  0  0  0
  149.6019  141.3118  154.6392 C   0  0  0  0  0  0  0  0  0  0  0  0
  148.9201  141.5484  153.7342 N   0  0  0  0  0  0  0  0  0  0  0  0
  150.5930  141.8935  156.7742 C   0  0  0  0  0  0  0  0  0  0  0  0
  151.4174  141.6400  157.8487 N   0  0  0  0  0  0  0  0  0  0  0  0
  151.6547  142.6317  158.8595 C   0  0  0  0  0  0  0  0  0  0  0  0
  152.0516  144.0428  158.4705 C   0  0  0  0  0  0  0  0  0  0  0  0
  153.0688  143.1173  159.0919 C   0  0  0  0  0  0  0  0  0  0  0  0
  152.2328  140.4871  157.8610 C   0  0  0  0  0  0  0  0  0  0  0  0
  153.0527  140.2951  158.7624 O   0  0  0  0  0  0  0  0  0  0  0  0
  150.1174  135.1777  154.4295 C   0  0  0  0  0  0  0  0  0  0  0  0
  149.3104  133.8749  154.3071 C   0  0  0  0  0  0  0  0  0  0  0  0
  148.4779  131.3537  155.2617 H   0  0  0  0  0  0  0  0  0  0  0  0
  149.9527  130.4823  154.8492 H   0  0  0  0  0  0  0  0  0  0  0  0
  148.9766  131.2072  153.5774 H   0  0  0  0  0  0  0  0  0  0  0  0
  150.9942  132.5754  154.0314 H   0  0  0  0  0  0  0  0  0  0  0  0
  149.8866  132.8439  156.8606 H   0  0  0  0  0  0  0  0  0  0  0  0
  151.3393  131.9860  156.4076 H   0  0  0  0  0  0  0  0  0  0  0  0
  151.8585  134.2480  157.2992 H   0  0  0  0  0  0  0  0  0  0  0  0
  152.4088  134.0688  155.6509 H   0  0  0  0  0  0  0  0  0  0  0  0
  149.8333  135.4654  156.5368 H   0  0  0  0  0  0  0  0  0  0  0  0
  151.5932  137.0899  155.0442 H   0  0  0  0  0  0  0  0  0  0  0  0
  153.6792  138.3938  157.5819 H   0  0  0  0  0  0  0  0  0  0  0  0
  153.4904  138.2411  155.8800 H   0  0  0  0  0  0  0  0  0  0  0  0
  150.0258  142.8132  156.7642 H   0  0  0  0  0  0  0  0  0  0  0  0
  151.0332  142.5440  159.7490 H   0  0  0  0  0  0  0  0  0  0  0  0
  152.1712  144.2727  157.4133 H   0  0  0  0  0  0  0  0  0  0  0  0
  151.6703  144.8568  159.0833 H   0  0  0  0  0  0  0  0  0  0  0  0
  153.3683  143.3167  160.1188 H   0  0  0  0  0  0  0  0  0  0  0  0
  153.8554  142.7361  158.4434 H   0  0  0  0  0  0  0  0  0  0  0  0
  149.4859  136.0263  154.1631 H   0  0  0  0  0  0  0  0  0  0  0  0
  150.9359  135.1632  153.7080 H   0  0  0  0  0  0  0  0  0  0  0  0
  148.9578  133.7603  153.2815 H   0  0  0  0  0  0  0  0  0  0  0  0
  148.4197  133.9400  154.9337 H   0  0  0  0  0  0  0  0  0  0  0  0
  1  2  1  0  0  0  0
  1 25  1  0  0  0  0
  1 26  1  0  0  0  0
  1 27  1  0  0  0  0
  2 24  1  0  0  0  0
  2  3  1  0  0  0  0
  2 28  1  0  0  0  0
  3  4  1  0  0  0  0
  3 29  1  0  0  0  0
  3 30  1  0  0  0  0
  4  5  1  0  0  0  0
  4 31  1  0  0  0  0
  4 32  1  0  0  0  0
  5  6  1  0  0  0  0
  5 23  1  0  0  0  0
  5 33  1  0  0  0  0
  6  7  1  0  0  0  0
  6 34  1  0  0  0  0
  7  8  2  0  0  0  0
  7  9  1  0  0  0  0
  9 10  1  0  0  0  0
  9 35  1  0  0  0  0
  9 36  1  0  0  0  0
 10 21  1  0  0  0  0
 10 11  1  0  0  0  0
 11 12  2  0  0  0  0
 11 13  1  0  0  0  0
 13 14  1  0  0  0  0
 13 16  2  0  0  0  0
 14 15  3  0  0  0  0
 16 17  1  0  0  0  0
 16 37  1  0  0  0  0
 17 18  1  0  0  0  0
 17 21  1  0  0  0  0
 18 20  1  0  0  0  0
 18 19  1  0  0  0  0
 18 38  1  0  0  0  0
 19 20  1  0  0  0  0
 19 39  1  0  0  0  0
 19 40  1  0  0  0  0
 20 41  1  0  0  0  0
 20 42  1  0  0  0  0
 21 22  2  0  0  0  0
 23 24  1  0  0  0  0
 23 43  1  0  0  0  0
 23 44  1  0  0  0  0
 24 45  1  0  0  0  0
 24 46  1  0  0  0  0
M  END
> <s_m_source_file>
AV-unprocessed.smi

> <i_m_source_file_index>
2014

> <i_lp_mmshare_version>
43012

> <i_f3d_flags>
0

> <s_epik_input>
W0NIM11bQ0BASF0xW0NIMl1bQ0gyXVtDQEhdKFtDSDJdW0NIMl0xKVtOSF1DKD1PKVtDSDJdbjJjKD1PKWMoQyNOKVtjSF1uKGMyPU8pW0NIXTNbQ0gyXVtDSDJdMw==

> <s_epik_cmdline>
J2VwaWtfcHl0aG9uJywgJy1waCcsICc3LjAnLCAnLXRuJywgJzgnLCAnLW1hJywgJzIwMCcsICctbWV0YWxfYmluZGluZycsICctaW1hZScsICc8aW5maWxlLm1hZT4nLCAnLW9tYWUnLCAnPG91dGZpbGUubWFlPic=

> <r_lp_tautomer_probability>
1

> <r_epik_Ionization_Penalty>
1.91358e-08

> <r_epik_Ionization_Penalty_Charging>
8.89021e-11

> <r_epik_Ionization_Penalty_Neutral>
1.90469e-08

> <r_epik_State_Penalty>
-0

> <r_epik_Charging_Adjusted_Penalty>
8.89021e-11

> <i_epik_Tot_Q>
0

> <i_epik_Tot_abs_Q>
0

> <r_epik_Metal_State_Penalty>
-0

> <b_epik_Metal_Only>
0

> <s_lp_Force_Field>
OPLS_2005

> <r_lp_Energy>
34.0792

> <b_lp_Chiralities_Consistent>
1

> <s_lp_Variant>
AV-unprocessed.smi:2014-1

> <Gold.Version>
5.8.1

> <Gold.Id.Protein>
6NUR|6NUR_protein|mol2

> <Gold.PLP.Fitness>
49.1577

> <Gold.PLP.PLP>
-43.3689

> <Gold.PLP.part.hbond>
-2.7095

> <Gold.PLP.part.metal>
0.0000

> <Gold.PLP.part.buried>
-3.4888

> <Gold.PLP.part.nonpolar>
-37.2698

> <Gold.PLP.part.repulsive>
0.6283

> <Gold.PLP.ligand.clash>
0.0000

> <Gold.PLP.ligand.torsion>
0.4532

> <Gold.PLP.Chemscore.Hbond>
1.1609

> <Gold.PLP.Chemscore.CHOScore>
1.0000

> <Gold.PLP.Chemscore.Metal>
0.0000

> <Gold.Chemscore.Hbonds>
donor molecule, donor type, donor heavy atom, donor atom, acceptor molecule, acceptor atom, score
      P1  H  6896  6907       L1     8  0.12
      P1  H  7989  7998       L1    12  0.02
      P1  H  7997  8008       L1    22  0.10
      P1  H  8011  8017       L1    15  0.72
      L1  C    16    37       P1  8028  1.00

> <Gold.PLP.Chemscore.Internal.Correction>
0.2126

> <Gold.Rescore>
     Score         DG    S(hbond)    S(metal)    S(lipo)     H(rot)  DE(clash)    DE(int)     intcor
     12.37     -15.78       1.28        0.00      88.82       1.70       0.17       3.24       ----

> <Gold.Chemscore.Fitness>
12.3717

> <Gold.Chemscore.DG>
-15.7825

> <Gold.Chemscore.ZeroCoef>
-5.4800

> <Gold.Chemscore.Hbond>
1.2792

> <Gold.Chemscore.Metal>
0.0000

> <Gold.Chemscore.Lipo>
88.8190

> <Gold.Chemscore.Internal_Hbond>
0.0000

> <Gold.Chemscore.DEClash>
0.1725

> <Gold.Chemscore.DEInternal>
3.2383

> <Gold.Chemscore.Rot>
1.7038

> <Gold.Chemscore.Internal.Correction>
   9.000000E+99

> <Gold.Chemscore.Hbonds>
donor molecule, donor type, donor heavy atom, donor atom, acceptor molecule, acceptor atom, score
      P1  H  6896  6907       L1     8  0.12
      P1  H  8011  8017       L1    15  0.63

> <Gold.Chemscore.Hbond.Weighted>
-4.2724

> <Gold.Chemscore.Metal.Weighted>
-0.0000

> <Gold.Chemscore.Lipo.Weighted>
-10.3918

> <Gold.Chemscore.Internal_Hbond.Weighted>
0.0000

> <Gold.Chemscore.DEClash.Weighted>
0.1725

> <Gold.Chemscore.DEInternal.Weighted>
3.2383

> <Gold.Chemscore.Rot.Weighted>
4.3618

> <Gold.Chemscore.Internal.Correction.Weighted>
   9.000000E+99

> <Gold.Protein.RotatedTorsions>
[ 6907 6896 6895 6894 ] final    0.58 input  -60.11 | X-H torsion
[ 7974 7965 7964 7962 ] final   12.00 input  175.53 | X-H torsion
[ 8008 7997 7996 7995 ] final  -96.14 input   59.86 | X-H torsion
[ 10167 10162 10161 10158 ] final -175.22 input  -65.29 | X-H torsion
[ 10718 10713 10712 10709 ] final -154.22 input   66.30 | X-H torsion
[ 10763 10752 10751 10750 ] final   98.93 input  -60.55 | X-H torsion
[ 11005 11000 10999 10996 ] final  -72.52 input  -57.11 | X-H torsion

> <Gold.Protein.ActiveResidues>
 VAL166  LYS551  ARG553  GLY616  TRP617  ASP618  TYR619  PRO620  LYS621  CYS622 
 ASP623  PHE694  ASN695  SER759  ASP760  ASP761  ALA762  ILE779  LEU786  VAL792 
 PHE793  MET794  SER795  GLU796  ALA797  LYS798  CYS799  TRP800  GLU811  SER814 

> <Gold.Protein.RotatedAtoms>
  151.5788  135.1059  160.0012 H   0  0  0  0  0  0  0  0  0  0  0  0  # atno 6907 bound_to 6896
  152.4364  133.7365  159.6627 H   0  0  0  0  0  0  0  0  0  0  0  0  # atno 6908 bound_to 6896
  150.8263  133.8097  159.3140 H   0  0  0  0  0  0  0  0  0  0  0  0  # atno 6909 bound_to 6896
  146.2360  139.9402  142.8484 H   0  0  0  0  0  0  0  0  0  0  0  0  # atno 7974 bound_to 7965
  154.7705  140.0474  157.1047 H   0  0  0  0  0  0  0  0  0  0  0  0  # atno 8008 bound_to 7997
  154.9826  140.3103  155.4920 H   0  0  0  0  0  0  0  0  0  0  0  0  # atno 8009 bound_to 7997
  156.2920  140.2233  156.4926 H   0  0  0  0  0  0  0  0  0  0  0  0  # atno 8010 bound_to 7997
  139.5592  144.1911  152.1211 H   0  0  0  0  0  0  0  0  0  0  0  0  # atno 10167 bound_to 10162
  156.4964  130.8371  151.2591 H   0  0  0  0  0  0  0  0  0  0  0  0  # atno 10718 bound_to 10713
  153.2951  135.4131  155.1202 H   0  0  0  0  0  0  0  0  0  0  0  0  # atno 10763 bound_to 10752
  154.8532  135.3528  154.5928 H   0  0  0  0  0  0  0  0  0  0  0  0  # atno 10764 bound_to 10752
  153.6352  135.7059  153.5319 H   0  0  0  0  0  0  0  0  0  0  0  0  # atno 10765 bound_to 10752
  141.1610  133.6849  156.7072 H   0  0  0  0  0  0  0  0  0  0  0  0  # atno 11005 bound_to 11000
  145.1960  140.9833  143.4183 LP  0  0  0  0  0  0  0  0  0  0  0  0  # atno 17320 bound_to 7965
  144.9815  139.3778  143.6259 LP  0  0  0  0  0  0  0  0  0  0  0  0  # atno 17321 bound_to 7965
  140.1422  144.5192  150.6737 LP  0  0  0  0  0  0  0  0  0  0  0  0  # atno 17342 bound_to 10162
  140.6870  143.2355  151.5234 LP  0  0  0  0  0  0  0  0  0  0  0  0  # atno 17343 bound_to 10162
  157.7468  130.9996  150.2896 LP  0  0  0  0  0  0  0  0  0  0  0  0  # atno 17370 bound_to 10713
  156.3375  130.3810  149.7437 LP  0  0  0  0  0  0  0  0  0  0  0  0  # atno 17371 bound_to 10713
  140.2914  134.8237  157.4020 LP  0  0  0  0  0  0  0  0  0  0  0  0  # atno 17394 bound_to 11000
  140.1343  134.5054  155.8081 LP  0  0  0  0  0  0  0  0  0  0  0  0  # atno 17395 bound_to 11000

$$$$
