AV-unprocessed.smi:2252|AV-procd|sdf|9113|dock3
  -GOLD-   2272012313D 1   1.00000     0.00000
 Structure written by MMmdl.
 44 46  0  0  0  0  0  0  0  0  1 V2000
  151.5548  145.2071  159.9439 C   0  0  0  0  0  0  0  0  0  0  0  0
  152.1291  144.0154  160.5386 N   0  0  0  0  0  0  0  0  0  0  0  0
  152.5094  143.8679  161.8660 C   0  0  0  0  0  0  0  0  0  0  0  0
  152.9913  142.5879  161.9976 C   0  0  0  0  0  0  0  0  0  0  0  0
  152.9177  141.9384  160.7700 N   0  0  0  0  0  0  0  0  0  0  0  0
  152.4044  142.8407  159.9392 C   0  0  0  0  0  0  0  0  0  0  0  0
  152.1254  142.5757  158.4927 C   0  0  0  0  0  0  0  0  0  0  0  0
  150.6210  142.4618  158.1958 C   0  0  0  0  0  0  0  0  0  0  0  0
  150.3647  141.5592  157.0803 N   0  0  0  0  0  0  0  0  0  0  0  0
  149.7871  140.3523  157.1878 C   0  0  0  0  0  0  0  0  0  0  0  0
  149.4286  139.8703  158.2632 O   0  0  0  0  0  0  0  0  0  0  0  0
  149.5906  139.5616  155.8820 C   0  0  2  0  0  0  0  0  0  0  0  0
  150.8496  139.7066  154.9992 C   0  0  0  0  0  0  0  0  0  0  0  0
  151.4917  138.4964  154.3538 C   0  0  0  0  0  0  0  0  0  0  0  0
  152.1952  139.2011  155.4818 C   0  0  0  0  0  0  0  0  0  0  0  0
  148.3731  139.9718  155.1395 N   0  0  0  0  0  0  0  0  0  0  0  0
  148.0885  139.1886  153.9379 C   0  0  0  0  0  0  0  0  0  0  0  0
  147.0442  140.0208  153.1916 C   0  0  0  0  0  0  0  0  0  0  0  0
  147.2470  141.4459  153.6974 C   0  0  0  0  0  0  0  0  0  0  0  0
  148.4303  141.3491  154.6596 C   0  0  0  0  0  0  0  0  0  0  0  0
  151.3065  145.9317  160.7199 H   0  0  0  0  0  0  0  0  0  0  0  0
  150.6460  144.9513  159.3985 H   0  0  0  0  0  0  0  0  0  0  0  0
  152.2714  145.6569  159.2566 H   0  0  0  0  0  0  0  0  0  0  0  0
  152.4061  144.6635  162.5891 H   0  0  0  0  0  0  0  0  0  0  0  0
  153.3813  142.0888  162.8722 H   0  0  0  0  0  0  0  0  0  0  0  0
  152.5796  143.3613  157.8881 H   0  0  0  0  0  0  0  0  0  0  0  0
  152.6276  141.6500  158.2087 H   0  0  0  0  0  0  0  0  0  0  0  0
  150.0970  142.0798  159.0724 H   0  0  0  0  0  0  0  0  0  0  0  0
  150.1953  143.4443  157.9837 H   0  0  0  0  0  0  0  0  0  0  0  0
  150.6354  141.8775  156.1610 H   0  0  0  0  0  0  0  0  0  0  0  0
  149.4837  138.5099  156.1564 H   0  0  0  0  0  0  0  0  0  0  0  0
  150.8852  140.6347  154.4307 H   0  0  0  0  0  0  0  0  0  0  0  0
  151.0602  137.5197  154.5639 H   0  0  0  0  0  0  0  0  0  0  0  0
  151.8961  138.6203  153.3513 H   0  0  0  0  0  0  0  0  0  0  0  0
  153.0711  139.7980  155.2359 H   0  0  0  0  0  0  0  0  0  0  0  0
  152.2354  138.6890  156.4413 H   0  0  0  0  0  0  0  0  0  0  0  0
  148.9913  139.0923  153.3318 H   0  0  0  0  0  0  0  0  0  0  0  0
  147.7218  138.1871  154.1658 H   0  0  0  0  0  0  0  0  0  0  0  0
  147.1729  139.9451  152.1115 H   0  0  0  0  0  0  0  0  0  0  0  0
  146.0369  139.6779  153.4311 H   0  0  0  0  0  0  0  0  0  0  0  0
  147.4410  142.1508  152.8883 H   0  0  0  0  0  0  0  0  0  0  0  0
  146.3550  141.7842  154.2264 H   0  0  0  0  0  0  0  0  0  0  0  0
  148.3592  142.0758  155.4695 H   0  0  0  0  0  0  0  0  0  0  0  0
  149.3644  141.5257  154.1228 H   0  0  0  0  0  0  0  0  0  0  0  0
  1  2  1  0  0  0  0
  1 21  1  0  0  0  0
  1 22  1  0  0  0  0
  1 23  1  0  0  0  0
  2  6  1  0  0  0  0
  2  3  1  0  0  0  0
  3  4  2  0  0  0  0
  3 24  1  0  0  0  0
  4  5  1  0  0  0  0
  4 25  1  0  0  0  0
  5  6  2  0  0  0  0
  6  7  1  0  0  0  0
  7  8  1  0  0  0  0
  7 26  1  0  0  0  0
  7 27  1  0  0  0  0
  8  9  1  0  0  0  0
  8 28  1  0  0  0  0
  8 29  1  0  0  0  0
  9 10  1  0  0  0  0
  9 30  1  0  0  0  0
 10 11  2  0  0  0  0
 10 12  1  0  0  0  0
 12 13  1  0  0  0  0
 12 16  1  0  0  0  0
 12 31  1  0  0  0  0
 13 15  1  0  0  0  0
 13 14  1  0  0  0  0
 13 32  1  0  0  0  0
 14 15  1  0  0  0  0
 14 33  1  0  0  0  0
 14 34  1  0  0  0  0
 15 35  1  0  0  0  0
 15 36  1  0  0  0  0
 16 20  1  0  0  0  0
 16 17  1  0  0  0  0
 17 18  1  0  0  0  0
 17 37  1  0  0  0  0
 17 38  1  0  0  0  0
 18 19  1  0  0  0  0
 18 39  1  0  0  0  0
 18 40  1  0  0  0  0
 19 20  1  0  0  0  0
 19 41  1  0  0  0  0
 19 42  1  0  0  0  0
 20 43  1  0  0  0  0
 20 44  1  0  0  0  0
M  END
> <s_m_source_file>
AV-unprocessed.smi

> <i_m_source_file_index>
2252

> <i_lp_mmshare_version>
43012

> <i_f3d_flags>
0

> <s_epik_input>
W0NIM11uMVtjSF1bY0hdbmMxW0NIMl1bQ0gyXVtOSF1DKD1PKVtDQEhdKFtDSF0yW0NIMl1bQ0gyXTIpTjNbQ0gyXVtDSDJdW0NIMl1bQ0gyXTM=

> <s_epik_cmdline>
J2VwaWtfcHl0aG9uJywgJy1waCcsICc3LjAnLCAnLXRuJywgJzgnLCAnLW1hJywgJzIwMCcsICctbWV0YWxfYmluZGluZycsICctaW1hZScsICc8aW5maWxlLm1hZT4nLCAnLW9tYWUnLCAnPG91dGZpbGUubWFlPic=

> <r_epik_Ionization_Penalty>
3.7689

> <r_epik_Ionization_Penalty_Charging>
1.29411

> <r_epik_Ionization_Penalty_Neutral>
2.4748

> <r_epik_State_Penalty>
3.85943

> <r_epik_Charging_Adjusted_Penalty>
5.15353

> <i_epik_Tot_Q>
0

> <i_epik_Tot_abs_Q>
0

> <r_epik_Metal_State_Penalty>
2.88358

> <b_epik_Metal_Only>
1

> <s_lp_Force_Field>
OPLS_2005

> <r_lp_Energy>
30.6984

> <b_lp_Chiralities_Consistent>
1

> <s_lp_Variant>
AV-unprocessed.smi:2252-11

> <Gold.Version>
5.8.1

> <Gold.Id.Protein>
6NUR|6NUR_protein|mol2

> <Gold.PLP.Fitness>
44.2945

> <Gold.PLP.PLP>
-46.2367

> <Gold.PLP.part.hbond>
-0.0849

> <Gold.PLP.part.metal>
0.0000

> <Gold.PLP.part.buried>
-5.4567

> <Gold.PLP.part.nonpolar>
-39.7794

> <Gold.PLP.part.repulsive>
0.0951

> <Gold.PLP.ligand.clash>
0.0000

> <Gold.PLP.ligand.torsion>
1.5783

> <Gold.PLP.Chemscore.Hbond>
0.0000

> <Gold.PLP.Chemscore.CHOScore>
0.0000

> <Gold.PLP.Chemscore.Metal>
0.0000

> <Gold.PLP.Chemscore.Internal.Correction>
1.2143

> <Gold.Rescore>
     Score         DG    S(hbond)    S(metal)    S(lipo)     H(rot)  DE(clash)    DE(int)     intcor
     11.90     -13.61       0.00        0.00     110.19       1.86       0.11       1.60       ----

> <Gold.Chemscore.Fitness>
11.8991

> <Gold.Chemscore.DG>
-13.6057

> <Gold.Chemscore.ZeroCoef>
-5.4800

> <Gold.Chemscore.Hbond>
0.0000

> <Gold.Chemscore.Metal>
0.0000

> <Gold.Chemscore.Lipo>
110.1897

> <Gold.Chemscore.Internal_Hbond>
0.0000

> <Gold.Chemscore.DEClash>
0.1066

> <Gold.Chemscore.DEInternal>
1.6000

> <Gold.Chemscore.Rot>
1.8619

> <Gold.Chemscore.Internal.Correction>
   9.000000E+99

> <Gold.Chemscore.Hbond.Weighted>
-0.0000

> <Gold.Chemscore.Metal.Weighted>
-0.0000

> <Gold.Chemscore.Lipo.Weighted>
-12.8922

> <Gold.Chemscore.Internal_Hbond.Weighted>
0.0000

> <Gold.Chemscore.DEClash.Weighted>
0.1066

> <Gold.Chemscore.DEInternal.Weighted>
1.6000

> <Gold.Chemscore.Rot.Weighted>
4.7665

> <Gold.Chemscore.Internal.Correction.Weighted>
   9.000000E+99

> <Gold.Protein.RotatedTorsions>
[ 6907 6896 6895 6894 ] final   28.41 input  -60.11 | X-H torsion
[ 7974 7965 7964 7962 ] final   52.48 input  175.53 | X-H torsion
[ 8008 7997 7996 7995 ] final   49.66 input   59.86 | X-H torsion
[ 10167 10162 10161 10158 ] final  103.67 input  -65.29 | X-H torsion
[ 10718 10713 10712 10709 ] final -110.88 input   66.30 | X-H torsion
[ 10763 10752 10751 10750 ] final  -31.41 input  -60.55 | X-H torsion
[ 11005 11000 10999 10996 ] final  -71.84 input  -57.11 | X-H torsion

> <Gold.Protein.ActiveResidues>
 VAL166  LYS551  ARG553  GLY616  TRP617  ASP618  TYR619  PRO620  LYS621  CYS622 
 ASP623  PHE694  ASN695  SER759  ASP760  ASP761  ALA762  ILE779  LEU786  VAL792 
 PHE793  MET794  SER795  GLU796  ALA797  LYS798  CYS799  TRP800  GLU811  SER814 

> <Gold.Protein.RotatedAtoms>
  152.0166  134.9846  160.0569 H   0  0  0  0  0  0  0  0  0  0  0  0  # atno 6907 bound_to 6896
  152.1377  133.4441  159.4760 H   0  0  0  0  0  0  0  0  0  0  0  0  # atno 6908 bound_to 6896
  150.6862  134.2261  159.4459 H   0  0  0  0  0  0  0  0  0  0  0  0  # atno 6909 bound_to 6896
  145.9809  139.4241  143.0132 H   0  0  0  0  0  0  0  0  0  0  0  0  # atno 7974 bound_to 7965
  155.4058  140.3440  155.4260 H   0  0  0  0  0  0  0  0  0  0  0  0  # atno 8008 bound_to 7997
  156.1477  140.1561  156.8852 H   0  0  0  0  0  0  0  0  0  0  0  0  # atno 8009 bound_to 7997
  154.5025  140.0811  156.7808 H   0  0  0  0  0  0  0  0  0  0  0  0  # atno 8010 bound_to 7997
  139.7243  144.7051  151.0823 H   0  0  0  0  0  0  0  0  0  0  0  0  # atno 10167 bound_to 10162
  156.0615  130.5838  150.8298 H   0  0  0  0  0  0  0  0  0  0  0  0  # atno 10718 bound_to 10713
  153.7970  135.6893  153.4862 H   0  0  0  0  0  0  0  0  0  0  0  0  # atno 10763 bound_to 10752
  153.1713  135.4541  154.9904 H   0  0  0  0  0  0  0  0  0  0  0  0  # atno 10764 bound_to 10752
  154.8022  135.3342  154.7461 H   0  0  0  0  0  0  0  0  0  0  0  0  # atno 10765 bound_to 10752
  141.1599  133.6829  156.6968 H   0  0  0  0  0  0  0  0  0  0  0  0  # atno 11005 bound_to 11000
  145.7771  140.9872  143.1119 LP  0  0  0  0  0  0  0  0  0  0  0  0  # atno 17320 bound_to 7965
  144.6861  139.9518  143.7478 LP  0  0  0  0  0  0  0  0  0  0  0  0  # atno 17321 bound_to 7965
  140.7760  143.5125  150.9635 LP  0  0  0  0  0  0  0  0  0  0  0  0  # atno 17342 bound_to 10162
  139.8813  143.7069  152.3156 LP  0  0  0  0  0  0  0  0  0  0  0  0  # atno 17343 bound_to 10162
  157.5628  131.0946  150.9534 LP  0  0  0  0  0  0  0  0  0  0  0  0  # atno 17370 bound_to 10713
  156.9768  130.5512  149.5294 LP  0  0  0  0  0  0  0  0  0  0  0  0  # atno 17371 bound_to 10713
  140.2989  134.8180  157.4081 LP  0  0  0  0  0  0  0  0  0  0  0  0  # atno 17394 bound_to 11000
  140.1280  134.5133  155.8129 LP  0  0  0  0  0  0  0  0  0  0  0  0  # atno 17395 bound_to 11000

$$$$
