AV-unprocessed.smi:2526|AV-procd|sdf|9935|dock5
  -GOLD-   2272013583D 1   1.00000     0.00000
 Structure written by MMmdl.
 29 30  0  0  0  0  0  0  0  0  2 V2000
  142.0396  138.4523  153.5353 C   0  0  0  0  0  0  0  0  0  0  0  0
  142.7605  137.2467  153.1865 N   0  0  0  0  0  0  0  0  0  0  0  0
  143.8599  137.1077  152.3681 C   0  0  0  0  0  0  0  0  0  0  0  0
  144.1955  135.7806  152.3450 C   0  0  0  0  0  0  0  0  0  0  0  0
  145.3249  135.0808  151.6156 C   0  0  1  0  0  0  0  0  0  0  0  0
  146.1338  134.2888  152.5461 N   0  0  0  0  0  0  0  0  0  0  0  0
  146.0324  132.9654  152.7718 C   0  0  0  0  0  0  0  0  0  0  0  0
  146.6794  132.4170  153.6601 O   0  0  0  0  0  0  0  0  0  0  0  0
  145.1269  132.1148  151.8649 C   0  0  0  0  0  0  0  0  0  0  0  0
  144.1520  132.9289  150.9947 C   0  0  0  0  0  0  0  0  0  0  0  0
  144.8234  134.1961  150.4482 C   0  0  1  0  0  0  0  0  0  0  0  0
  143.9397  134.9276  149.5212 N   0  3  0  0  0  0  0  0  0  0  0  0
  143.2102  135.1856  153.1858 C   0  0  0  0  0  0  0  0  0  0  0  0
  142.3609  136.0630  153.6923 N   0  0  0  0  0  0  0  0  0  0  0  0
  142.5061  139.3172  153.0632 H   0  0  0  0  0  0  0  0  0  0  0  0
  142.0513  138.5903  154.6170 H   0  0  0  0  0  0  0  0  0  0  0  0
  141.0067  138.3766  153.1941 H   0  0  0  0  0  0  0  0  0  0  0  0
  144.3131  137.9577  151.8788 H   0  0  0  0  0  0  0  0  0  0  0  0
  145.9970  135.8311  151.1973 H   0  0  0  0  0  0  0  0  0  0  0  0
  146.7745  134.8055  153.1319 H   0  0  0  0  0  0  0  0  0  0  0  0
  145.7823  131.5322  151.2169 H   0  0  0  0  0  0  0  0  0  0  0  0
  144.5751  131.3956  152.4710 H   0  0  0  0  0  0  0  0  0  0  0  0
  143.8002  132.3068  150.1711 H   0  0  0  0  0  0  0  0  0  0  0  0
  143.2673  133.1892  151.5775 H   0  0  0  0  0  0  0  0  0  0  0  0
  145.6882  133.8860  149.8596 H   0  0  0  0  0  0  0  0  0  0  0  0
  144.2832  134.8214  148.5772 H   0  0  0  0  0  0  0  0  0  0  0  0
  143.9290  135.9073  149.7671 H   0  0  0  0  0  0  0  0  0  0  0  0
  143.0929  134.1442  153.4472 H   0  0  0  0  0  0  0  0  0  0  0  0
  143.0028  134.5554  149.5821 H   0  0  0  0  0  0  0  0  0  0  0  0
  1  2  1  0  0  0  0
  1 15  1  0  0  0  0
  1 16  1  0  0  0  0
  1 17  1  0  0  0  0
  2 14  1  0  0  0  0
  2  3  1  0  0  0  0
  3  4  2  0  0  0  0
  3 18  1  0  0  0  0
  4  5  1  0  0  0  0
  4 13  1  0  0  0  0
  5 11  1  0  0  0  0
  5  6  1  0  0  0  0
  5 19  1  0  0  0  0
  6  7  1  0  0  0  0
  6 20  1  0  0  0  0
  7  8  2  0  0  0  0
  7  9  1  0  0  0  0
  9 10  1  0  0  0  0
  9 21  1  0  0  0  0
  9 22  1  0  0  0  0
 10 11  1  0  0  0  0
 10 23  1  0  0  0  0
 10 24  1  0  0  0  0
 11 12  1  0  0  0  0
 11 25  1  0  0  0  0
 12 26  1  0  0  0  0
 12 27  1  0  0  0  0
 12 29  1  0  0  0  0
 13 14  2  0  0  0  0
 13 28  1  0  0  0  0
M  CHG  1  12   1
M  END
> <s_m_source_file>
AV-unprocessed.smi

> <i_m_source_file_index>
2526

> <i_lp_mmshare_version>
43012

> <i_f3d_flags>
0

> <s_epik_input>
W0NIM11uMVtjSF1jKFtjSF1uMSlbQ0BASF0yW05IXUMoPU8pW0NIMl1bQ0gyXVtDQEhdMltOSDJd

> <s_epik_cmdline>
J2VwaWtfcHl0aG9uJywgJy1waCcsICc3LjAnLCAnLXRuJywgJzgnLCAnLW1hJywgJzIwMCcsICctbWV0YWxfYmluZGluZycsICctaW1hZScsICc8aW5maWxlLm1hZT4nLCAnLW9tYWUnLCAnPG91dGZpbGUubWFlPic=

> <r_lp_tautomer_probability>
1

> <r_epik_Ionization_Penalty>
0.00878543

> <r_epik_Ionization_Penalty_Charging>
0.00874185

> <r_epik_Ionization_Penalty_Neutral>
4.35793e-05

> <r_epik_State_Penalty>
0.00660351

> <r_epik_Charging_Adjusted_Penalty>
0.0153454

> <i_epik_Tot_Q>
1

> <i_epik_Tot_abs_Q>
1

> <r_epik_Metal_State_Penalty>
0.00660727

> <b_epik_Metal_Only>
0

> <s_lp_Force_Field>
OPLS_2005

> <r_lp_Energy>
11.1602

> <b_lp_Chiralities_Consistent>
1

> <s_lp_Variant>
AV-unprocessed.smi:2526-2

> <Gold.Version>
5.8.1

> <Gold.Id.Protein>
6NUR|6NUR_protein|mol2

> <Gold.PLP.Fitness>
39.5861

> <Gold.PLP.PLP>
-22.8225

> <Gold.PLP.part.hbond>
-2.0000

> <Gold.PLP.part.metal>
0.0000

> <Gold.PLP.part.buried>
-4.7323

> <Gold.PLP.part.nonpolar>
-17.0487

> <Gold.PLP.part.repulsive>
0.3474

> <Gold.PLP.ligand.clash>
0.0000

> <Gold.PLP.ligand.torsion>
0.1304

> <Gold.PLP.Chemscore.Hbond>
2.9440

> <Gold.PLP.Chemscore.CHOScore>
2.7246

> <Gold.PLP.Chemscore.Metal>
0.0000

> <Gold.Chemscore.Hbonds>
donor molecule, donor type, donor heavy atom, donor atom, acceptor molecule, acceptor atom, score
      L1  H    12    26       P1  7921  0.68
      L1  H    12    29       P1 10186  2.00
      L1  C     3    18       P1 10171  0.89
      L1  C     3    18       P1 10175  0.65
      L1  C    13    28       P1 10957  0.43

> <Gold.PLP.Chemscore.Internal.Correction>
0.0187

> <Gold.Rescore>
     Score         DG    S(hbond)    S(metal)    S(lipo)     H(rot)  DE(clash)    DE(int)     intcor
     13.73     -13.81       1.75        0.00      43.01       1.00       0.07       0.01       ----

> <Gold.Chemscore.Fitness>
13.7279

> <Gold.Chemscore.DG>
-13.8100

> <Gold.Chemscore.ZeroCoef>
-5.4800

> <Gold.Chemscore.Hbond>
1.7538

> <Gold.Chemscore.Metal>
0.0000

> <Gold.Chemscore.Lipo>
43.0114

> <Gold.Chemscore.Internal_Hbond>
0.0000

> <Gold.Chemscore.DEClash>
0.0727

> <Gold.Chemscore.DEInternal>
0.0093

> <Gold.Chemscore.Rot>
1.0000

> <Gold.Chemscore.Internal.Correction>
   9.000000E+99

> <Gold.Chemscore.Hbonds>
donor molecule, donor type, donor heavy atom, donor atom, acceptor molecule, acceptor atom, score
      L1  H    12    26       P1  7921  0.66
      L1  H    12    29       P1 10186  0.93

> <Gold.Chemscore.Hbond.Weighted>
-5.8577

> <Gold.Chemscore.Metal.Weighted>
-0.0000

> <Gold.Chemscore.Lipo.Weighted>
-5.0323

> <Gold.Chemscore.Internal_Hbond.Weighted>
0.0000

> <Gold.Chemscore.DEClash.Weighted>
0.0727

> <Gold.Chemscore.DEInternal.Weighted>
0.0093

> <Gold.Chemscore.Rot.Weighted>
2.5600

> <Gold.Chemscore.Internal.Correction.Weighted>
   9.000000E+99

> <Gold.Protein.RotatedTorsions>
[ 6907 6896 6895 6894 ] final   60.99 input  -60.11 | X-H torsion
[ 7974 7965 7964 7962 ] final   18.20 input  175.53 | X-H torsion
[ 8008 7997 7996 7995 ] final   92.71 input   59.86 | X-H torsion
[ 10167 10162 10161 10158 ] final   75.31 input  -65.29 | X-H torsion
[ 10718 10713 10712 10709 ] final  123.49 input   66.30 | X-H torsion
[ 10763 10752 10751 10750 ] final   -0.16 input  -60.55 | X-H torsion
[ 11005 11000 10999 10996 ] final  -81.13 input  -57.11 | X-H torsion

> <Gold.Protein.ActiveResidues>
 VAL166  LYS551  ARG553  GLY616  TRP617  ASP618  TYR619  PRO620  LYS621  CYS622 
 ASP623  PHE694  ASN695  SER759  ASP760  ASP761  ALA762  ILE779  LEU786  VAL792 
 PHE793  MET794  SER795  GLU796  ALA797  LYS798  CYS799  TRP800  GLU811  SER814 

> <Gold.Protein.RotatedAtoms>
  152.4051  134.6221  160.0053 H   0  0  0  0  0  0  0  0  0  0  0  0  # atno 6907 bound_to 6896
  151.6415  133.3320  159.3139 H   0  0  0  0  0  0  0  0  0  0  0  0  # atno 6908 bound_to 6896
  150.7947  134.7038  159.6610 H   0  0  0  0  0  0  0  0  0  0  0  0  # atno 6909 bound_to 6896
  146.2193  139.8491  142.8626 H   0  0  0  0  0  0  0  0  0  0  0  0  # atno 7974 bound_to 7965
  156.0385  140.3322  155.7217 H   0  0  0  0  0  0  0  0  0  0  0  0  # atno 8008 bound_to 7997
  155.5780  140.0634  157.2808 H   0  0  0  0  0  0  0  0  0  0  0  0  # atno 8009 bound_to 7997
  154.4383  140.1849  156.0935 H   0  0  0  0  0  0  0  0  0  0  0  0  # atno 8010 bound_to 7997
  140.0043  144.5662  150.7711 H   0  0  0  0  0  0  0  0  0  0  0  0  # atno 10167 bound_to 10162
  157.5660  131.1086  150.8453 H   0  0  0  0  0  0  0  0  0  0  0  0  # atno 10718 bound_to 10713
  153.3283  135.6973  153.6969 H   0  0  0  0  0  0  0  0  0  0  0  0  # atno 10763 bound_to 10752
  153.5782  135.3503  155.2865 H   0  0  0  0  0  0  0  0  0  0  0  0  # atno 10764 bound_to 10752
  154.8613  135.4288  154.2466 H   0  0  0  0  0  0  0  0  0  0  0  0  # atno 10765 bound_to 10752
  141.1667  133.7182  156.8377 H   0  0  0  0  0  0  0  0  0  0  0  0  # atno 11005 bound_to 11000
  145.2820  141.0141  143.3712 LP  0  0  0  0  0  0  0  0  0  0  0  0  # atno 17320 bound_to 7965
  144.9143  139.4490  143.6572 LP  0  0  0  0  0  0  0  0  0  0  0  0  # atno 17321 bound_to 7965
  140.7406  143.2807  151.3606 LP  0  0  0  0  0  0  0  0  0  0  0  0  # atno 17342 bound_to 10162
  139.6249  144.0833  152.2425 LP  0  0  0  0  0  0  0  0  0  0  0  0  # atno 17343 bound_to 10162
  156.8938  130.5222  149.5285 LP  0  0  0  0  0  0  0  0  0  0  0  0  # atno 17370 bound_to 10713
  156.0708  130.5741  150.9380 LP  0  0  0  0  0  0  0  0  0  0  0  0  # atno 17371 bound_to 10713
  140.2006  134.8900  157.3164 LP  0  0  0  0  0  0  0  0  0  0  0  0  # atno 17394 bound_to 11000
  140.2192  134.4044  155.7574 LP  0  0  0  0  0  0  0  0  0  0  0  0  # atno 17395 bound_to 11000

$$$$
