AV-unprocessed.smi:148|AV-procd|sdf|1205|dock7
  -GOLD-   2262018373D 1   1.00000     0.00000
 Structure written by MMmdl.
 63 67  0  0  0  0  0  0  0  0  1 V2000
  145.7279  131.5911  155.3411 O   0  0  0  0  0  0  0  0  0  0  0  0
  146.1631  131.4842  154.0017 C   0  0  0  0  0  0  0  0  0  0  0  0
  145.9484  132.8183  153.2487 C   0  0  1  0  0  0  0  0  0  0  0  0
  146.9351  133.8950  153.7677 C   0  0  0  0  0  0  0  0  0  0  0  0
  146.8458  134.1221  155.1994 N   0  0  0  0  0  0  0  0  0  0  0  0
  145.7547  134.5949  155.8943 C   0  0  0  0  0  0  0  0  0  0  0  0
  145.9227  134.7070  157.1837 N   0  0  0  0  0  0  0  0  0  0  0  0
  147.2312  134.2893  157.3895 C   0  0  0  0  0  0  0  0  0  0  0  0
  148.0573  134.1643  158.5372 C   0  0  0  0  0  0  0  0  0  0  0  0
  147.6061  134.4658  159.7784 N   0  0  0  0  0  0  0  0  0  0  0  0
  147.3888  133.2186  160.5147 C   0  0  0  0  0  0  0  0  0  0  0  0
  146.6795  133.4615  161.8522 C   0  0  0  0  0  0  0  0  0  0  0  0
  147.4558  134.4862  162.6834 C   0  0  0  0  0  0  0  0  0  0  0  0
  147.6127  135.7818  161.8794 C   0  0  0  0  0  0  0  0  0  0  0  0
  148.3092  135.5359  160.5143 C   0  0  2  0  0  0  0  0  0  0  0  0
  148.4873  136.8484  159.6809 C   0  0  2  0  0  0  0  0  0  0  0  0
  147.2337  137.2932  158.9080 C   0  0  0  0  0  0  0  0  0  0  0  0
  147.7321  138.1594  157.7392 C   0  0  0  0  0  0  0  0  0  0  0  0
  149.2638  138.1123  157.7859 C   0  0  0  0  0  0  0  0  0  0  0  0
  149.5948  136.8701  158.6139 C   0  0  1  0  0  0  0  0  0  0  0  0
  150.8909  136.9605  159.1672 O   0  0  0  0  0  0  0  0  0  0  0  0
  149.3205  133.6913  158.3616 N   0  0  0  0  0  0  0  0  0  0  0  0
  149.7548  133.3858  157.1351 C   0  0  0  0  0  0  0  0  0  0  0  0
  149.1014  133.4662  155.9736 N   0  0  0  0  0  0  0  0  0  0  0  0
  147.8286  133.9228  156.1522 C   0  0  0  0  0  0  0  0  0  0  0  0
  145.9829  132.6695  151.7013 C   0  0  2  0  0  0  0  0  0  0  0  0
  145.3810  133.8302  150.9069 C   0  0  0  0  0  0  0  0  0  0  0  0
  144.4667  133.1512  149.8863 C   0  0  0  0  0  0  0  0  0  0  0  0
  144.9539  131.8210  149.8099 O   0  0  0  0  0  0  0  0  0  0  0  0
  145.2774  131.4324  151.1337 C   0  0  0  0  0  0  0  0  0  0  0  0
  144.7839  131.6342  155.3483 H   0  0  0  0  0  0  0  0  0  0  0  0
  147.2136  131.1936  153.9986 H   0  0  0  0  0  0  0  0  0  0  0  0
  145.6079  130.6677  153.5425 H   0  0  0  0  0  0  0  0  0  0  0  0
  144.9407  133.1609  153.4891 H   0  0  0  0  0  0  0  0  0  0  0  0
  147.9637  133.6119  153.5418 H   0  0  0  0  0  0  0  0  0  0  0  0
  146.7580  134.8427  153.2575 H   0  0  0  0  0  0  0  0  0  0  0  0
  144.8208  134.8478  155.4137 H   0  0  0  0  0  0  0  0  0  0  0  0
  146.7940  132.5270  159.9157 H   0  0  0  0  0  0  0  0  0  0  0  0
  148.3509  132.7353  160.6931 H   0  0  0  0  0  0  0  0  0  0  0  0
  145.6659  133.8217  161.6709 H   0  0  0  0  0  0  0  0  0  0  0  0
  146.5853  132.5242  162.4009 H   0  0  0  0  0  0  0  0  0  0  0  0
  146.9327  134.6840  163.6194 H   0  0  0  0  0  0  0  0  0  0  0  0
  148.4368  134.0895  162.9475 H   0  0  0  0  0  0  0  0  0  0  0  0
  146.6190  136.2017  161.7279 H   0  0  0  0  0  0  0  0  0  0  0  0
  148.1651  136.5031  162.4793 H   0  0  0  0  0  0  0  0  0  0  0  0
  149.3086  135.1550  160.7303 H   0  0  0  0  0  0  0  0  0  0  0  0
  148.6911  137.6788  160.3572 H   0  0  0  0  0  0  0  0  0  0  0  0
  146.6822  136.4439  158.5079 H   0  0  0  0  0  0  0  0  0  0  0  0
  146.5462  137.8413  159.5532 H   0  0  0  0  0  0  0  0  0  0  0  0
  147.3681  137.7530  156.7947 H   0  0  0  0  0  0  0  0  0  0  0  0
  147.3696  139.1854  157.8137 H   0  0  0  0  0  0  0  0  0  0  0  0
  149.7134  138.0869  156.7929 H   0  0  0  0  0  0  0  0  0  0  0  0
  149.6322  139.0070  158.2909 H   0  0  0  0  0  0  0  0  0  0  0  0
  149.5407  135.9975  157.9641 H   0  0  0  0  0  0  0  0  0  0  0  0
  151.4577  137.3822  158.5396 H   0  0  0  0  0  0  0  0  0  0  0  0
  150.7700  133.0216  157.0756 H   0  0  0  0  0  0  0  0  0  0  0  0
  147.0230  132.6152  151.3782 H   0  0  0  0  0  0  0  0  0  0  0  0
  144.8344  134.5508  151.5141 H   0  0  0  0  0  0  0  0  0  0  0  0
  146.1746  134.3798  150.3987 H   0  0  0  0  0  0  0  0  0  0  0  0
  143.4358  133.1367  150.2436 H   0  0  0  0  0  0  0  0  0  0  0  0
  144.4840  133.6421  148.9130 H   0  0  0  0  0  0  0  0  0  0  0  0
  145.9115  130.5456  151.1466 H   0  0  0  0  0  0  0  0  0  0  0  0
  144.3551  131.1989  151.6657 H   0  0  0  0  0  0  0  0  0  0  0  0
  1  2  1  0  0  0  0
  1 31  1  0  0  0  0
  2  3  1  0  0  0  0
  2 32  1  0  0  0  0
  2 33  1  0  0  0  0
  3  4  1  0  0  0  0
  3 26  1  0  0  0  0
  3 34  1  0  0  0  0
  4  5  1  0  0  0  0
  4 35  1  0  0  0  0
  4 36  1  0  0  0  0
  5 25  1  0  0  0  0
  5  6  1  0  0  0  0
  6  7  2  0  0  0  0
  6 37  1  0  0  0  0
  7  8  1  0  0  0  0
  8 25  2  0  0  0  0
  8  9  1  0  0  0  0
  9 10  1  0  0  0  0
  9 22  2  0  0  0  0
 10 15  1  0  0  0  0
 10 11  1  0  0  0  0
 11 12  1  0  0  0  0
 11 38  1  0  0  0  0
 11 39  1  0  0  0  0
 12 13  1  0  0  0  0
 12 40  1  0  0  0  0
 12 41  1  0  0  0  0
 13 14  1  0  0  0  0
 13 42  1  0  0  0  0
 13 43  1  0  0  0  0
 14 15  1  0  0  0  0
 14 44  1  0  0  0  0
 14 45  1  0  0  0  0
 15 16  1  0  0  0  0
 15 46  1  0  0  0  0
 16 20  1  0  0  0  0
 16 17  1  0  0  0  0
 16 47  1  0  0  0  0
 17 18  1  0  0  0  0
 17 48  1  0  0  0  0
 17 49  1  0  0  0  0
 18 19  1  0  0  0  0
 18 50  1  0  0  0  0
 18 51  1  0  0  0  0
 19 20  1  0  0  0  0
 19 52  1  0  0  0  0
 19 53  1  0  0  0  0
 20 21  1  0  0  0  0
 20 54  1  0  0  0  0
 21 55  1  0  0  0  0
 22 23  1  0  0  0  0
 23 24  2  0  0  0  0
 23 56  1  0  0  0  0
 24 25  1  0  0  0  0
 26 30  1  0  0  0  0
 26 27  1  0  0  0  0
 26 57  1  0  0  0  0
 27 28  1  0  0  0  0
 27 58  1  0  0  0  0
 27 59  1  0  0  0  0
 28 29  1  0  0  0  0
 28 60  1  0  0  0  0
 28 61  1  0  0  0  0
 29 30  1  0  0  0  0
 30 62  1  0  0  0  0
 30 63  1  0  0  0  0
M  END
> <s_m_source_file>
AV-unprocessed.smi

> <i_m_source_file_index>
148

> <i_lp_mmshare_version>
43012

> <i_f3d_flags>
0

> <s_epik_input>
W0NIMl0xT1tDSDJdW0NIMl1bQ0BIXTFbQ0BIXShbQ0gyXVtPSF0pW0NIMl1uKFtjSF1uMiljKGMyMyluW2NIXW5jM040W0NIMl1bQ0gyXVtDSDJdW0NIMl1bQ0BIXTRbQ0BASF01W0NIMl1bQ0gyXVtDSDJdW0NASF01W09IXQ==

> <s_epik_cmdline>
J2VwaWtfcHl0aG9uJywgJy1waCcsICc3LjAnLCAnLXRuJywgJzgnLCAnLW1hJywgJzIwMCcsICctbWV0YWxfYmluZGluZycsICctaW1hZScsICc8aW5maWxlLm1hZT4nLCAnLW9tYWUnLCAnPG91dGZpbGUubWFlPic=

> <r_lp_tautomer_probability>
1

> <r_epik_Ionization_Penalty>
0.00556303

> <r_epik_Ionization_Penalty_Charging>
0

> <r_epik_Ionization_Penalty_Neutral>
0.00556303

> <r_epik_State_Penalty>
0.00401767

> <r_epik_Charging_Adjusted_Penalty>
0.00401767

> <i_epik_Tot_Q>
0

> <i_epik_Tot_abs_Q>
0

> <r_epik_Metal_State_Penalty>
-0

> <b_epik_Metal_Only>
0

> <s_lp_Force_Field>
OPLS_2005

> <r_lp_Energy>
67.6364

> <b_lp_Chiralities_Consistent>
1

> <s_lp_Variant>
AV-unprocessed.smi:148-4

> <Gold.Version>
5.8.1

> <Gold.Id.Protein>
6NUR|6NUR_protein|mol2

> <Gold.PLP.Fitness>
45.0383

> <Gold.PLP.PLP>
-37.2747

> <Gold.PLP.part.hbond>
-3.5164

> <Gold.PLP.part.metal>
0.0000

> <Gold.PLP.part.buried>
-6.8829

> <Gold.PLP.part.nonpolar>
-28.0972

> <Gold.PLP.part.repulsive>
0.1586

> <Gold.PLP.ligand.clash>
0.0000

> <Gold.PLP.ligand.torsion>
0.8515

> <Gold.PLP.Chemscore.Hbond>
3.0000

> <Gold.PLP.Chemscore.CHOScore>
0.0000

> <Gold.PLP.Chemscore.Metal>
0.0000

> <Gold.Chemscore.Hbonds>
donor molecule, donor type, donor heavy atom, donor atom, acceptor molecule, acceptor atom, score
      L1  H     1    31       P1 10957  0.59
      P1  H  6896  6907       L1    22  1.00
      P1  H  6896  6908       L1    21  0.99

> <Gold.PLP.Chemscore.Internal.Correction>
0.4665

> <Gold.Rescore>
     Score         DG    S(hbond)    S(metal)    S(lipo)     H(rot)  DE(clash)    DE(int)     intcor
     12.08     -14.63       2.24        0.00      86.98       3.32       0.24       2.31       ----

> <Gold.Chemscore.Fitness>
12.0832

> <Gold.Chemscore.DG>
-14.6284

> <Gold.Chemscore.ZeroCoef>
-5.4800

> <Gold.Chemscore.Hbond>
2.2371

> <Gold.Chemscore.Metal>
0.0000

> <Gold.Chemscore.Lipo>
86.9776

> <Gold.Chemscore.Internal_Hbond>
0.0000

> <Gold.Chemscore.DEClash>
0.2366

> <Gold.Chemscore.DEInternal>
2.3086

> <Gold.Chemscore.Rot>
3.3203

> <Gold.Chemscore.Internal.Correction>
   9.000000E+99

> <Gold.Chemscore.Hbonds>
donor molecule, donor type, donor heavy atom, donor atom, acceptor molecule, acceptor atom, score
      L1  H     1    31       P1 10957  0.10
      P1  H  6896  6907       L1    22  0.29
      P1  H  6896  6908       L1    21  0.65

> <Gold.Chemscore.Hbond.Weighted>
-7.4720

> <Gold.Chemscore.Metal.Weighted>
-0.0000

> <Gold.Chemscore.Lipo.Weighted>
-10.1764

> <Gold.Chemscore.Internal_Hbond.Weighted>
0.0000

> <Gold.Chemscore.DEClash.Weighted>
0.2366

> <Gold.Chemscore.DEInternal.Weighted>
2.3086

> <Gold.Chemscore.Rot.Weighted>
8.5000

> <Gold.Chemscore.Internal.Correction.Weighted>
   9.000000E+99

> <Gold.Protein.RotatedTorsions>
[ 6907 6896 6895 6894 ] final -127.32 input  -60.11 | X-H torsion
[ 7974 7965 7964 7962 ] final  -36.84 input  175.53 | X-H torsion
[ 8008 7997 7996 7995 ] final  157.75 input   59.86 | X-H torsion
[ 10167 10162 10161 10158 ] final  -49.22 input  -65.29 | X-H torsion
[ 10718 10713 10712 10709 ] final  -72.39 input   66.30 | X-H torsion
[ 10763 10752 10751 10750 ] final  -68.24 input  -60.55 | X-H torsion
[ 11005 11000 10999 10996 ] final  -22.45 input  -57.11 | X-H torsion

> <Gold.Protein.ActiveResidues>
 VAL166  LYS551  ARG553  GLY616  TRP617  ASP618  TYR619  PRO620  LYS621  CYS622 
 ASP623  PHE694  ASN695  SER759  ASP760  ASP761  ALA762  ILE779  LEU786  VAL792 
 PHE793  MET794  SER795  GLU796  ALA797  LYS798  CYS799  TRP800  GLU811  SER814 

> <Gold.Protein.RotatedAtoms>
  150.9061  133.7056  159.2866 H   0  0  0  0  0  0  0  0  0  0  0  0  # atno 6907 bound_to 6896
  151.4559  135.1033  159.9720 H   0  0  0  0  0  0  0  0  0  0  0  0  # atno 6908 bound_to 6896
  152.4904  133.8436  159.7220 H   0  0  0  0  0  0  0  0  0  0  0  0  # atno 6909 bound_to 6896
  146.0627  140.6326  142.8989 H   0  0  0  0  0  0  0  0  0  0  0  0  # atno 7974 bound_to 7965
  156.2345  140.1877  156.7157 H   0  0  0  0  0  0  0  0  0  0  0  0  # atno 8008 bound_to 7997
  154.6081  140.0626  156.9485 H   0  0  0  0  0  0  0  0  0  0  0  0  # atno 8009 bound_to 7997
  155.2062  140.3296  155.4338 H   0  0  0  0  0  0  0  0  0  0  0  0  # atno 8010 bound_to 7997
  140.6695  143.2707  151.4184 H   0  0  0  0  0  0  0  0  0  0  0  0  # atno 10167 bound_to 10162
  156.0322  130.4371  150.2586 H   0  0  0  0  0  0  0  0  0  0  0  0  # atno 10718 bound_to 10713
  154.3861  135.6063  153.5817 H   0  0  0  0  0  0  0  0  0  0  0  0  # atno 10763 bound_to 10752
  152.9787  135.5872  154.4353 H   0  0  0  0  0  0  0  0  0  0  0  0  # atno 10764 bound_to 10752
  154.4130  135.2844  155.2003 H   0  0  0  0  0  0  0  0  0  0  0  0  # atno 10765 bound_to 10752
  140.8658  133.7756  156.0128 H   0  0  0  0  0  0  0  0  0  0  0  0  # atno 11005 bound_to 11000
  144.7184  140.4290  143.7027 LP  0  0  0  0  0  0  0  0  0  0  0  0  # atno 17320 bound_to 7965
  145.6532  139.1568  143.2850 LP  0  0  0  0  0  0  0  0  0  0  0  0  # atno 17321 bound_to 7965
  139.5957  144.1403  152.2141 LP  0  0  0  0  0  0  0  0  0  0  0  0  # atno 17342 bound_to 10162
  140.0771  144.5731  150.7149 LP  0  0  0  0  0  0  0  0  0  0  0  0  # atno 17343 bound_to 10162
  157.0688  131.0111  151.3197 LP  0  0  0  0  0  0  0  0  0  0  0  0  # atno 17370 bound_to 10713
  157.5015  130.7883  149.7610 LP  0  0  0  0  0  0  0  0  0  0  0  0  # atno 17371 bound_to 10713
  140.8631  134.2817  157.5225 LP  0  0  0  0  0  0  0  0  0  0  0  0  # atno 17394 bound_to 11000
  139.8709  134.9528  156.4127 LP  0  0  0  0  0  0  0  0  0  0  0  0  # atno 17395 bound_to 11000

$$$$
