AV-unprocessed.smi:2941|AV-procd|sdf|11265|dock6
  -GOLD-   2272016153D 1   1.00000     0.00000
 Structure written by MMmdl.
 35 36  0  0  0  0  0  0  0  0  2 V2000
  146.1489  138.1292  151.3792 C   0  0  0  0  0  0  0  0  0  0  0  0
  146.5932  139.4353  151.7023 O   0  0  0  0  0  0  0  0  0  0  0  0
  147.0468  139.5388  153.0411 C   0  0  0  0  0  0  0  0  0  0  0  0
  146.9671  141.0085  153.4797 C   0  0  0  0  0  0  0  0  0  0  0  0
  147.4973  141.1922  154.8371 N   0  0  0  0  0  0  0  0  0  0  0  0
  148.8956  141.1214  154.9876 C   0  0  0  0  0  0  0  0  0  0  0  0
  149.4983  141.2749  156.1817 C   0  0  0  0  0  0  0  0  0  0  0  0
  150.9743  141.1814  156.2955 C   0  0  0  0  0  0  0  0  0  0  0  0
  151.6464  140.6448  155.4133 O   0  0  0  0  0  0  0  0  0  0  0  0
  151.6232  141.7814  157.5003 C   0  0  0  0  0  0  0  0  0  0  0  0
  151.3255  143.1222  157.8414 C   0  0  0  0  0  0  0  0  0  0  0  0
  151.9245  143.7305  158.9599 C   0  0  0  0  0  0  0  0  0  0  0  0
  151.6304  145.0155  159.2700 F   0  0  0  0  0  0  0  0  0  0  0  0
  152.8302  143.0051  159.7537 C   0  0  0  0  0  0  0  0  0  0  0  0
  153.1335  141.6706  159.4284 C   0  0  0  0  0  0  0  0  0  0  0  0
  152.5372  141.0532  158.3097 C   0  0  0  0  0  0  0  0  0  0  0  0
  152.8526  139.7464  158.0562 O   0  5  0  0  0  0  0  0  0  0  0  0
  148.6521  141.5055  157.3369 C   0  0  0  0  0  0  0  0  0  0  0  0
  147.3124  141.5622  157.2011 C   0  0  0  0  0  0  0  0  0  0  0  0
  146.4617  141.7782  158.3243 C   0  0  0  0  0  0  0  0  0  0  0  0
  145.7847  141.9421  159.2487 N   0  0  0  0  0  0  0  0  0  0  0  0
  146.6569  141.3982  155.8959 C   0  0  0  0  0  0  0  0  0  0  0  0
  145.4331  141.4383  155.7565 O   0  0  0  0  0  0  0  0  0  0  0  0
  145.8135  138.1022  150.3426 H   0  0  0  0  0  0  0  0  0  0  0  0
  145.3121  137.8296  152.0115 H   0  0  0  0  0  0  0  0  0  0  0  0
  146.9520  137.3999  151.4922 H   0  0  0  0  0  0  0  0  0  0  0  0
  146.4316  138.9147  153.6911 H   0  0  0  0  0  0  0  0  0  0  0  0
  148.0748  139.1802  153.1147 H   0  0  0  0  0  0  0  0  0  0  0  0
  147.5206  141.6295  152.7737 H   0  0  0  0  0  0  0  0  0  0  0  0
  145.9362  141.3609  153.4159 H   0  0  0  0  0  0  0  0  0  0  0  0
  149.4369  140.9332  154.0706 H   0  0  0  0  0  0  0  0  0  0  0  0
  150.6391  143.6997  157.2392 H   0  0  0  0  0  0  0  0  0  0  0  0
  153.2910  143.4703  160.6124 H   0  0  0  0  0  0  0  0  0  0  0  0
  153.8266  141.1172  160.0456 H   0  0  0  0  0  0  0  0  0  0  0  0
  149.0859  141.6195  158.3201 H   0  0  0  0  0  0  0  0  0  0  0  0
  1  2  1  0  0  0  0
  1 24  1  0  0  0  0
  1 25  1  0  0  0  0
  1 26  1  0  0  0  0
  2  3  1  0  0  0  0
  3  4  1  0  0  0  0
  3 27  1  0  0  0  0
  3 28  1  0  0  0  0
  4  5  1  0  0  0  0
  4 29  1  0  0  0  0
  4 30  1  0  0  0  0
  5 22  1  0  0  0  0
  5  6  1  0  0  0  0
  6  7  2  0  0  0  0
  6 31  1  0  0  0  0
  7  8  1  0  0  0  0
  7 18  1  0  0  0  0
  8  9  2  0  0  0  0
  8 10  1  0  0  0  0
 10 16  1  0  0  0  0
 10 11  2  0  0  0  0
 11 12  1  0  0  0  0
 11 32  1  0  0  0  0
 12 13  1  0  0  0  0
 12 14  2  0  0  0  0
 14 15  1  0  0  0  0
 14 33  1  0  0  0  0
 15 16  2  0  0  0  0
 15 34  1  0  0  0  0
 16 17  1  0  0  0  0
 18 19  2  0  0  0  0
 18 35  1  0  0  0  0
 19 20  1  0  0  0  0
 19 22  1  0  0  0  0
 20 21  3  0  0  0  0
 22 23  2  0  0  0  0
M  CHG  1  17  -1
M  END
> <s_m_source_file>
AV-unprocessed.smi

> <i_m_source_file_index>
2941

> <i_lp_mmshare_version>
43012

> <i_f3d_flags>
0

> <s_epik_input>
W0NIM11PW0NIMl1bQ0gyXW4xW2NIXWMoW2NIXWMoQyNOKWMxPU8pQyg9TyljMltjSF1jKEYpW2NIXVtjSF1jMltPSF0=

> <s_epik_cmdline>
J2VwaWtfcHl0aG9uJywgJy1waCcsICc3LjAnLCAnLXRuJywgJzgnLCAnLW1hJywgJzIwMCcsICctbWV0YWxfYmluZGluZycsICctaW1hZScsICc8aW5maWxlLm1hZT4nLCAnLW9tYWUnLCAnPG91dGZpbGUubWFlPic=

> <r_epik_Ionization_Penalty>
0.585622

> <r_epik_Ionization_Penalty_Charging>
0.585622

> <r_epik_Ionization_Penalty_Neutral>
1.08437e-11

> <r_epik_State_Penalty>
0.598756

> <r_epik_Charging_Adjusted_Penalty>
1.18438

> <i_epik_Tot_Q>
-1

> <i_epik_Tot_abs_Q>
1

> <r_epik_Metal_State_Penalty>
0.598756

> <b_epik_Metal_Only>
0

> <s_lp_Force_Field>
OPLS_2005

> <r_lp_Energy>
22.2584

> <b_lp_Chiralities_Consistent>
1

> <s_lp_Variant>
AV-unprocessed.smi:2941-2

> <Gold.Version>
5.8.1

> <Gold.Id.Protein>
6NUR|6NUR_protein|mol2

> <Gold.PLP.Fitness>
50.7531

> <Gold.PLP.PLP>
-41.7271

> <Gold.PLP.part.hbond>
-2.7420

> <Gold.PLP.part.metal>
0.0000

> <Gold.PLP.part.buried>
-2.7163

> <Gold.PLP.part.nonpolar>
-37.1573

> <Gold.PLP.part.repulsive>
1.0279

> <Gold.PLP.ligand.clash>
0.0000

> <Gold.PLP.ligand.torsion>
1.4002

> <Gold.PLP.Chemscore.Hbond>
3.3703

> <Gold.PLP.Chemscore.CHOScore>
0.0000

> <Gold.PLP.Chemscore.Metal>
0.0000

> <Gold.Chemscore.Hbonds>
donor molecule, donor type, donor heavy atom, donor atom, acceptor molecule, acceptor atom, score
      P1  H  6934  6946       L1    21  0.71
      P1  H  7989  7998       L1     9  0.72
      P1  H  7997  8008       L1    17  1.78

> <Gold.PLP.Chemscore.Internal.Correction>
1.7156

> <Gold.Rescore>
     Score         DG    S(hbond)    S(metal)    S(lipo)     H(rot)  DE(clash)    DE(int)     intcor
     15.79     -18.25       1.52        0.00      98.08       1.47       0.04       2.41       ----

> <Gold.Chemscore.Fitness>
15.7916

> <Gold.Chemscore.DG>
-18.2458

> <Gold.Chemscore.ZeroCoef>
-5.4800

> <Gold.Chemscore.Hbond>
1.5167

> <Gold.Chemscore.Metal>
0.0000

> <Gold.Chemscore.Lipo>
98.0783

> <Gold.Chemscore.Internal_Hbond>
0.0000

> <Gold.Chemscore.DEClash>
0.0421

> <Gold.Chemscore.DEInternal>
2.4121

> <Gold.Chemscore.Rot>
1.4747

> <Gold.Chemscore.Internal.Correction>
   9.000000E+99

> <Gold.Chemscore.Hbonds>
donor molecule, donor type, donor heavy atom, donor atom, acceptor molecule, acceptor atom, score
      P1  H  6934  6946       L1    21  0.15
      P1  H  7989  7998       L1     9  0.72
      P1  H  7997  8008       L1    17  0.16

> <Gold.Chemscore.Hbond.Weighted>
-5.0659

> <Gold.Chemscore.Metal.Weighted>
-0.0000

> <Gold.Chemscore.Lipo.Weighted>
-11.4752

> <Gold.Chemscore.Internal_Hbond.Weighted>
0.0000

> <Gold.Chemscore.DEClash.Weighted>
0.0421

> <Gold.Chemscore.DEInternal.Weighted>
2.4121

> <Gold.Chemscore.Rot.Weighted>
3.7754

> <Gold.Chemscore.Internal.Correction.Weighted>
   9.000000E+99

> <Gold.Protein.RotatedTorsions>
[ 6907 6896 6895 6894 ] final  -21.52 input  -60.11 | X-H torsion
[ 7974 7965 7964 7962 ] final  110.15 input  175.53 | X-H torsion
[ 8008 7997 7996 7995 ] final  -83.87 input   59.86 | X-H torsion
[ 10167 10162 10161 10158 ] final  131.63 input  -65.29 | X-H torsion
[ 10718 10713 10712 10709 ] final  166.55 input   66.30 | X-H torsion
[ 10763 10752 10751 10750 ] final -119.27 input  -60.55 | X-H torsion
[ 11005 11000 10999 10996 ] final -142.54 input  -57.11 | X-H torsion

> <Gold.Protein.ActiveResidues>
 VAL166  LYS551  ARG553  GLY616  TRP617  ASP618  TYR619  PRO620  LYS621  CYS622 
 ASP623  PHE694  ASN695  SER759  ASP760  ASP761  ALA762  ILE779  LEU786  VAL792 
 PHE793  MET794  SER795  GLU796  ALA797  LYS798  CYS799  TRP800  GLU811  SER814 

> <Gold.Protein.RotatedAtoms>
  151.2322  135.0558  159.8991 H   0  0  0  0  0  0  0  0  0  0  0  0  # atno 6907 bound_to 6896
  152.5403  134.0525  159.8126 H   0  0  0  0  0  0  0  0  0  0  0  0  # atno 6908 bound_to 6896
  151.0706  133.5420  159.2659 H   0  0  0  0  0  0  0  0  0  0  0  0  # atno 6909 bound_to 6896
  145.2586  139.2711  143.4029 H   0  0  0  0  0  0  0  0  0  0  0  0  # atno 7974 bound_to 7965
  154.6237  140.0613  156.9646 H   0  0  0  0  0  0  0  0  0  0  0  0  # atno 8008 bound_to 7997
  155.1777  140.3296  155.4362 H   0  0  0  0  0  0  0  0  0  0  0  0  # atno 8009 bound_to 7997
  156.2445  140.1903  156.6875 H   0  0  0  0  0  0  0  0  0  0  0  0  # atno 8010 bound_to 7997
  139.5375  144.6698  151.4735 H   0  0  0  0  0  0  0  0  0  0  0  0  # atno 10167 bound_to 10162
  157.0642  131.0348  151.2635 H   0  0  0  0  0  0  0  0  0  0  0  0  # atno 10718 bound_to 10713
  154.8612  135.4244  154.2272 H   0  0  0  0  0  0  0  0  0  0  0  0  # atno 10763 bound_to 10752
  153.3265  135.6985  153.6991 H   0  0  0  0  0  0  0  0  0  0  0  0  # atno 10764 bound_to 10752
  153.6025  135.3534  155.2924 H   0  0  0  0  0  0  0  0  0  0  0  0  # atno 10765 bound_to 10752
  140.8215  134.2625  157.4898 H   0  0  0  0  0  0  0  0  0  0  0  0  # atno 11005 bound_to 11000
  146.3282  140.2997  142.8620 LP  0  0  0  0  0  0  0  0  0  0  0  0  # atno 17320 bound_to 7965
  144.9438  140.8107  143.5614 LP  0  0  0  0  0  0  0  0  0  0  0  0  # atno 17321 bound_to 7965
  140.6589  143.8540  150.6866 LP  0  0  0  0  0  0  0  0  0  0  0  0  # atno 17342 bound_to 10162
  140.1928  143.4022  152.1850 LP  0  0  0  0  0  0  0  0  0  0  0  0  # atno 17343 bound_to 10162
  157.4930  130.7833  149.7527 LP  0  0  0  0  0  0  0  0  0  0  0  0  # atno 17370 bound_to 10713
  155.9969  130.3903  150.2760 LP  0  0  0  0  0  0  0  0  0  0  0  0  # atno 17371 bound_to 10713
  139.8708  134.9538  156.4155 LP  0  0  0  0  0  0  0  0  0  0  0  0  # atno 17394 bound_to 11000
  140.9094  133.7723  155.9773 LP  0  0  0  0  0  0  0  0  0  0  0  0  # atno 17395 bound_to 11000

$$$$
