#       Name:                AV-unprocessed.smi:218
#       Creating user name   scv26
#       Creation time:       Thu Mar 26 20:10:17 2020


#       File generated by GOLD software.
#

@<TRIPOS>MOLECULE
AV-unprocessed.smi:218
    68    71     1
SMALL
NO_CHARGES


@<TRIPOS>ATOM
      1 ****        -7.6272   4.5546  -1.9461 C.3            1 S1                 0.0000
      2 ****        -6.1555   4.8179  -1.6048 C.3            1 S1                 0.0000
      3 ****        -5.4078   5.4297  -2.8023 C.3            1 S1                 0.0000
      4 ****        -5.5792   3.5586  -1.2520 O.3            1 S1                 0.0000
      5 ****        -4.4095   3.5117  -0.5179 C.ar           1 S1                 0.0000
      6 ****        -3.8313   2.2514  -0.2624 C.ar           1 S1                 0.0000
      7 ****        -2.6357   2.1877   0.4816 C.ar           1 S1                 0.0000
      8 ****        -1.9763   0.8548   0.7721 C.3            1 S1                 0.0000
      9 ****        -0.5907   0.7952   0.3268 N.pl3          1 S1                 0.0000
     10 ****         0.1328  -0.3290   0.5146 C.ar           1 S1                 0.0000
     11 ****        -0.3996  -1.4059   1.1489 N.ar           1 S1                 0.0000
     12 ****         0.3358  -2.5079   1.3228 C.ar           1 S1                 0.0000
     13 ****         1.5958  -2.7370   0.9473 N.ar           1 S1                 0.0000
     14 ****         2.1364  -1.6596   0.3078 C.ar           1 S1                 0.0000
     15 ****         1.4725  -0.4260   0.0571 C.ar           1 S1                 0.0000
     16 ****         2.3269   0.4423  -0.6089 N.2            1 S1                 0.0000
     17 ****         3.4302  -0.2429  -0.7436 C.2            1 S1                 0.0000
     18 ****         3.4057  -1.5167  -0.2201 N.pl3          1 S1                 0.0000
     19 ****         4.5219  -2.5189  -0.2320 C.3            1 S1                 0.0000
     20 ****         3.9979  -3.8018  -0.4172 O.3            1 S1                 0.0000
     21 ****         4.3304  -4.6453   0.6860 C.3            1 S1                 0.0000
     22 ****         4.5004  -6.0933   0.2010 C.3            1 S1                 0.0000
     23 ****         3.2423  -6.7270   0.1127 O.3            1 S1                 0.0000
     24 ****         5.6242  -4.0209   1.2115 C.3            1 S1                 0.0000
     25 ****         5.9346  -4.3994   2.5389 O.3            1 S1                 0.0000
     26 ****         5.3463  -2.5318   1.0692 C.3            1 S1                 0.0000
     27 ****         4.6537  -1.9970   2.1876 O.3            1 S1                 0.0000
     28 ****        -2.0678   3.3901   0.9500 C.ar           1 S1                 0.0000
     29 ****        -2.7206   4.6008   0.6492 C.ar           1 S1                 0.0000
     30 ****        -3.8629   4.6682  -0.0667 N.ar           1 S1                 0.0000
     31 ****         5.1188  -2.2562  -1.1063 H              1 S1                 0.0000
     32 ****         3.5559  -4.5753   1.4516 H              1 S1                 0.0000
     33 ****         6.4546  -4.2972   0.5596 H              1 S1                 0.0000
     34 ****         6.2636  -1.9595   0.9276 H              1 S1                 0.0000
     35 ****        -8.1404   5.4785  -2.2138 H              1 S1                 0.0000
     36 ****        -8.1524   4.1188  -1.0958 H              1 S1                 0.0000
     37 ****        -7.7216   3.8641  -2.7847 H              1 S1                 0.0000
     38 ****        -6.1389   5.5093  -0.7609 H              1 S1                 0.0000
     39 ****        -5.8654   6.3705  -3.1087 H              1 S1                 0.0000
     40 ****        -5.4239   4.7567  -3.6599 H              1 S1                 0.0000
     41 ****        -4.3646   5.6373  -2.5659 H              1 S1                 0.0000
     42 ****        -4.2979   1.3522  -0.6374 H              1 S1                 0.0000
     43 ****        -2.0203   0.6784   1.8476 H              1 S1                 0.0000
     44 ****        -2.5440   0.0571   0.2908 H              1 S1                 0.0000
     45 ****        -0.2391   1.6143  -0.1479 H              1 S1                 0.0000
     46 ****        -0.1542  -3.3228   1.8350 H              1 S1                 0.0000
     47 ****         4.3021   0.1671  -1.2326 H              1 S1                 0.0000
     48 ****         5.0151  -6.1326  -0.7593 H              1 S1                 0.0000
     49 ****         5.1005  -6.6598   0.9136 H              1 S1                 0.0000
     50 ****         3.3739  -7.6203  -0.1665 H              1 S1                 0.0000
     51 ****         5.2394  -4.0938   3.1024 H              1 S1                 0.0000
     52 ****         4.3839  -1.1158   1.9785 H              1 S1                 0.0000
     53 ****        -1.1549   3.3873   1.5276 H              1 S1                 0.0000
     54 ****        -2.3143   5.5407   0.9924 H              1 S1                 0.0000
     55 ****        -5.4016   3.0732  -2.1080 LP             1 S1                 0.0000
     56 ****        -6.2699   3.0633  -0.7251 LP             1 S1                 0.0000
     57 ****        -1.3408  -1.3740   1.4853 LP             1 S1                 0.0000
     58 ****         2.0841  -3.5936   1.1142 LP             1 S1                 0.0000
     59 ****         2.1405   1.3760  -0.9145 LP             1 S1                 0.0000
     60 ****         4.3764  -4.1934  -1.2559 LP             1 S1                 0.0000
     61 ****         3.0029  -3.7420  -0.4967 LP             1 S1                 0.0000
     62 ****         2.6692  -6.2473  -0.5517 LP             1 S1                 0.0000
     63 ****         2.7959  -6.7159   1.0075 LP             1 S1                 0.0000
     64 ****         6.8017  -3.9851   2.8154 LP             1 S1                 0.0000
     65 ****         6.0067  -5.3950   2.5993 LP             1 S1                 0.0000
     66 ****         5.2576  -1.9851   2.9846 LP             1 S1                 0.0000
     67 ****         3.8501  -2.5579   2.3868 LP             1 S1                 0.0000
     68 ****        -4.2955   5.5489  -0.2596 LP             1 S1                 0.0000
@<TRIPOS>BOND
    1    1    2 1     
    2    1   35 1     
    3    1   36 1     
    4    1   37 1     
    5    2    3 1     
    6    2    4 1     
    7    2   38 1     
    8    3   39 1     
    9    3   40 1     
   10    3   41 1     
   11    4    5 1     
   12    5   30 ar    
   13    5    6 ar    
   14    6    7 ar    
   15    6   42 1     
   16    7    8 1     
   17    7   28 ar    
   18    8    9 1     
   19    8   43 1     
   20    8   44 1     
   21    9   10 1     
   22    9   45 1     
   23   10   15 ar    
   24   10   11 ar    
   25   11   12 ar    
   26   12   13 ar    
   27   12   46 1     
   28   13   14 ar    
   29   14   18 1     
   30   14   15 ar    
   31   15   16 1     
   32   16   17 2     
   33   17   18 1     
   34   17   47 1     
   35   18   19 1     
   36   19   31 1     
   37   19   26 1     
   38   19   20 1     
   39   20   21 1     
   40   21   32 1     
   41   21   22 1     
   42   21   24 1     
   43   22   23 1     
   44   22   48 1     
   45   22   49 1     
   46   23   50 1     
   47   24   33 1     
   48   24   25 1     
   49   24   26 1     
   50   25   51 1     
   51   26   34 1     
   52   26   27 1     
   53   27   52 1     
   54   28   29 ar    
   55   28   53 1     
   56   29   30 ar    
   57   29   54 1     
   58    4   55 1     
   59    4   56 1     
   60   11   57 1     
   61   13   58 1     
   62   16   59 1     
   63   20   60 1     
   64   20   61 1     
   65   23   62 1     
   66   23   63 1     
   67   25   64 1     
   68   25   65 1     
   69   27   66 1     
   70   27   67 1     
   71   30   68 1     
@<TRIPOS>SUBSTRUCTURE
      1 S1             1
@<TRIPOS>SET
LONE_PAIRS      STATIC     ATOMS    <user>   **** ""
14 55 56 57 58 59 60 61 62 63 64 65 66 67 68
DONOR_HYDROGENS      STATIC     ATOMS    <user>   **** ""
4 45 50 51 52
ATOM$BLUE        STATIC     ATOMS    COLORGROUP SYSTEM
14 55 56 57 58 59 60 61 62 63 64 65 66 67 68
ATOM$RED        STATIC     ATOMS    COLORGROUP SYSTEM
4 45 50 51 52
