AV-unprocessed.smi:2883|AV-procd|sdf|11080|dock1
  -GOLD-   2272015553D 1   1.00000     0.00000
 Structure written by MMmdl.
 39 41  0  0  0  0  0  0  0  0  1 V2000
  150.0122  144.0411  159.4971 C   0  0  0  0  0  0  0  0  0  0  0  0
  151.5486  144.2209  159.5025 C   0  0  0  0  0  0  0  0  0  0  0  0
  151.9146  144.8203  158.1240 C   0  0  0  0  0  0  0  0  0  0  0  0
  151.9471  145.2056  160.6169 C   0  0  0  0  0  0  0  0  0  0  0  0
  152.2645  142.8780  159.7257 C   0  0  0  0  0  0  0  0  0  0  0  0
  153.2209  142.8395  160.6632 N   0  0  0  0  0  0  0  0  0  0  0  0
  153.9392  141.7021  160.7749 C   0  0  0  0  0  0  0  0  0  0  0  0
  153.7243  140.6021  159.9223 C   0  0  0  0  0  0  0  0  0  0  0  0
  152.7238  140.7546  158.9423 C   0  0  0  0  0  0  0  0  0  0  0  0
  152.4650  139.7037  158.0519 N   0  0  0  0  0  0  0  0  0  0  0  0
  152.2541  139.9621  156.6305 C   0  0  1  0  0  0  0  0  0  0  0  0
  152.9893  138.9715  155.7245 C   0  0  0  0  0  0  0  0  0  0  0  0
  151.8531  138.4634  154.8256 C   0  0  1  0  0  0  0  0  0  0  0  0
  150.9371  137.4869  155.5739 C   0  0  0  0  0  0  0  0  0  0  0  0
  150.1826  138.4270  156.5120 C   0  0  0  0  0  0  0  0  0  0  0  0
  150.7962  139.7922  156.1567 C   0  0  2  0  0  0  0  0  0  0  0  0
  151.0181  139.6082  154.7687 O   0  0  0  0  0  0  0  0  0  0  0  0
  152.0152  141.9027  158.8424 N   0  0  0  0  0  0  0  0  0  0  0  0
  149.5035  144.9840  159.2933 H   0  0  0  0  0  0  0  0  0  0  0  0
  149.6386  143.6844  160.4576 H   0  0  0  0  0  0  0  0  0  0  0  0
  149.6978  143.3280  158.7341 H   0  0  0  0  0  0  0  0  0  0  0  0
  151.6704  144.1321  157.3138 H   0  0  0  0  0  0  0  0  0  0  0  0
  152.9771  145.0547  158.0484 H   0  0  0  0  0  0  0  0  0  0  0  0
  151.3743  145.7494  157.9385 H   0  0  0  0  0  0  0  0  0  0  0  0
  151.4562  146.1709  160.4896 H   0  0  0  0  0  0  0  0  0  0  0  0
  153.0233  145.3818  160.6231 H   0  0  0  0  0  0  0  0  0  0  0  0
  151.6712  144.8230  161.6002 H   0  0  0  0  0  0  0  0  0  0  0  0
  154.6951  141.6716  161.5455 H   0  0  0  0  0  0  0  0  0  0  0  0
  154.3030  139.6949  160.0153 H   0  0  0  0  0  0  0  0  0  0  0  0
  152.2062  138.7997  158.4192 H   0  0  0  0  0  0  0  0  0  0  0  0
  152.5984  140.9697  156.3926 H   0  0  0  0  0  0  0  0  0  0  0  0
  153.7484  139.4894  155.1374 H   0  0  0  0  0  0  0  0  0  0  0  0
  153.4769  138.1581  156.2640 H   0  0  0  0  0  0  0  0  0  0  0  0
  152.1864  138.0996  153.8533 H   0  0  0  0  0  0  0  0  0  0  0  0
  150.2465  136.9969  154.8868 H   0  0  0  0  0  0  0  0  0  0  0  0
  151.4963  136.7162  156.1053 H   0  0  0  0  0  0  0  0  0  0  0  0
  149.1170  138.4159  156.2811 H   0  0  0  0  0  0  0  0  0  0  0  0
  150.2998  138.1653  157.5638 H   0  0  0  0  0  0  0  0  0  0  0  0
  150.1513  140.6391  156.3928 H   0  0  0  0  0  0  0  0  0  0  0  0
  1  2  1  0  0  0  0
  1 19  1  0  0  0  0
  1 20  1  0  0  0  0
  1 21  1  0  0  0  0
  2  3  1  0  0  0  0
  2  4  1  0  0  0  0
  2  5  1  0  0  0  0
  3 22  1  0  0  0  0
  3 23  1  0  0  0  0
  3 24  1  0  0  0  0
  4 25  1  0  0  0  0
  4 26  1  0  0  0  0
  4 27  1  0  0  0  0
  5 18  1  0  0  0  0
  5  6  2  0  0  0  0
  6  7  1  0  0  0  0
  7  8  2  0  0  0  0
  7 28  1  0  0  0  0
  8  9  1  0  0  0  0
  8 29  1  0  0  0  0
  9 10  1  0  0  0  0
  9 18  2  0  0  0  0
 10 11  1  0  0  0  0
 10 30  1  0  0  0  0
 11 16  1  0  0  0  0
 11 12  1  0  0  0  0
 11 31  1  0  0  0  0
 12 13  1  0  0  0  0
 12 32  1  0  0  0  0
 12 33  1  0  0  0  0
 13 17  1  0  0  0  0
 13 14  1  0  0  0  0
 13 34  1  0  0  0  0
 14 15  1  0  0  0  0
 14 35  1  0  0  0  0
 14 36  1  0  0  0  0
 15 16  1  0  0  0  0
 15 37  1  0  0  0  0
 15 38  1  0  0  0  0
 16 17  1  0  0  0  0
 16 39  1  0  0  0  0
M  END
> <s_m_source_file>
AV-unprocessed.smi

> <i_m_source_file_index>
2883

> <i_lp_mmshare_version>
43012

> <i_f3d_flags>
0

> <s_epik_input>
W0NIM11DKFtDSDNdKShbQ0gzXSljMW5bY0hdW2NIXWMobjEpW05IXVtDQEhdKFtDSDJdW0NAQEhdMjMpW0NAQEhdKE8zKVtDSDJdW0NIMl0y

> <s_epik_cmdline>
J2VwaWtfcHl0aG9uJywgJy1waCcsICc3LjAnLCAnLXRuJywgJzgnLCAnLW1hJywgJzIwMCcsICctbWV0YWxfYmluZGluZycsICctaW1hZScsICc8aW5maWxlLm1hZT4nLCAnLW9tYWUnLCAnPG91dGZpbGUubWFlPic=

> <r_lp_tautomer_probability>
1

> <r_epik_Ionization_Penalty>
0.453006

> <r_epik_Ionization_Penalty_Charging>
0

> <r_epik_Ionization_Penalty_Neutral>
0.453006

> <r_epik_State_Penalty>
0.455155

> <r_epik_Charging_Adjusted_Penalty>
0.455155

> <i_epik_Tot_Q>
0

> <i_epik_Tot_abs_Q>
0

> <r_epik_Metal_State_Penalty>
0.255592

> <b_epik_Metal_Only>
0

> <s_lp_Force_Field>
OPLS_2005

> <r_lp_Energy>
33.5757

> <b_lp_Chiralities_Consistent>
1

> <s_lp_Variant>
AV-unprocessed.smi:2883-6

> <Gold.Version>
5.8.1

> <Gold.Id.Protein>
6NUR|6NUR_protein|mol2

> <Gold.PLP.Fitness>
41.8726

> <Gold.PLP.PLP>
-40.0309

> <Gold.PLP.part.hbond>
-1.0000

> <Gold.PLP.part.metal>
0.0000

> <Gold.PLP.part.buried>
-7.3464

> <Gold.PLP.part.nonpolar>
-32.1975

> <Gold.PLP.part.repulsive>
0.1921

> <Gold.PLP.ligand.clash>
0.0000

> <Gold.PLP.ligand.torsion>
0.6538

> <Gold.PLP.Chemscore.Hbond>
1.0000

> <Gold.PLP.Chemscore.CHOScore>
0.0000

> <Gold.PLP.Chemscore.Metal>
0.0000

> <Gold.Chemscore.Hbonds>
donor molecule, donor type, donor heavy atom, donor atom, acceptor molecule, acceptor atom, score
      P1  H  7989  7998       L1    17  1.00

> <Gold.PLP.Chemscore.Internal.Correction>
0.1493

> <Gold.Rescore>
     Score         DG    S(hbond)    S(metal)    S(lipo)     H(rot)  DE(clash)    DE(int)     intcor
     16.22     -16.94       0.95        0.00      95.97       1.15       0.00       0.72       ----

> <Gold.Chemscore.Fitness>
16.2203

> <Gold.Chemscore.DG>
-16.9428

> <Gold.Chemscore.ZeroCoef>
-5.4800

> <Gold.Chemscore.Hbond>
0.9501

> <Gold.Chemscore.Metal>
0.0000

> <Gold.Chemscore.Lipo>
95.9715

> <Gold.Chemscore.Internal_Hbond>
0.0000

> <Gold.Chemscore.DEClash>
0.0029

> <Gold.Chemscore.DEInternal>
0.7196

> <Gold.Chemscore.Rot>
1.1482

> <Gold.Chemscore.Internal.Correction>
   9.000000E+99

> <Gold.Chemscore.Hbonds>
donor molecule, donor type, donor heavy atom, donor atom, acceptor molecule, acceptor atom, score
      P1  H  7989  7998       L1    17  0.82

> <Gold.Chemscore.Hbond.Weighted>
-3.1734

> <Gold.Chemscore.Metal.Weighted>
-0.0000

> <Gold.Chemscore.Lipo.Weighted>
-11.2287

> <Gold.Chemscore.Internal_Hbond.Weighted>
0.0000

> <Gold.Chemscore.DEClash.Weighted>
0.0029

> <Gold.Chemscore.DEInternal.Weighted>
0.7196

> <Gold.Chemscore.Rot.Weighted>
2.9393

> <Gold.Chemscore.Internal.Correction.Weighted>
   9.000000E+99

> <Gold.Protein.RotatedTorsions>
[ 6907 6896 6895 6894 ] final  -86.23 input  -60.11 | X-H torsion
[ 7974 7965 7964 7962 ] final  157.50 input  175.53 | X-H torsion
[ 8008 7997 7996 7995 ] final  172.35 input   59.86 | X-H torsion
[ 10167 10162 10161 10158 ] final    2.00 input  -65.29 | X-H torsion
[ 10718 10713 10712 10709 ] final   28.86 input   66.30 | X-H torsion
[ 10763 10752 10751 10750 ] final  -83.63 input  -60.55 | X-H torsion
[ 11005 11000 10999 10996 ] final -116.96 input  -57.11 | X-H torsion

> <Gold.Protein.ActiveResidues>
 VAL166  LYS551  ARG553  GLY616  TRP617  ASP618  TYR619  PRO620  LYS621  CYS622 
 ASP623  PHE694  ASN695  SER759  ASP760  ASP761  ALA762  ILE779  LEU786  VAL792 
 PHE793  MET794  SER795  GLU796  ALA797  LYS798  CYS799  TRP800  GLU811  SER814 

> <Gold.Protein.RotatedAtoms>
  150.6867  134.3083  159.4735 H   0  0  0  0  0  0  0  0  0  0  0  0  # atno 6907 bound_to 6896
  152.0972  134.9364  160.0579 H   0  0  0  0  0  0  0  0  0  0  0  0  # atno 6908 bound_to 6896
  152.0658  133.4048  159.4474 H   0  0  0  0  0  0  0  0  0  0  0  0  # atno 6909 bound_to 6896
  144.7900  139.7349  143.6225 H   0  0  0  0  0  0  0  0  0  0  0  0  # atno 7974 bound_to 7965
  156.1183  140.1488  156.9242 H   0  0  0  0  0  0  0  0  0  0  0  0  # atno 8008 bound_to 7997
  154.4816  140.0877  156.7433 H   0  0  0  0  0  0  0  0  0  0  0  0  # atno 8009 bound_to 7997
  155.4475  140.3433  155.4299 H   0  0  0  0  0  0  0  0  0  0  0  0  # atno 8010 bound_to 7997
  140.6656  143.7188  150.7821 H   0  0  0  0  0  0  0  0  0  0  0  0  # atno 10167 bound_to 10162
  157.2390  130.7060  149.6349 H   0  0  0  0  0  0  0  0  0  0  0  0  # atno 10718 bound_to 10713
  154.5900  135.5549  153.7269 H   0  0  0  0  0  0  0  0  0  0  0  0  # atno 10763 bound_to 10752
  153.0113  135.6341  154.1862 H   0  0  0  0  0  0  0  0  0  0  0  0  # atno 10764 bound_to 10752
  154.1803  135.2887  155.3034 H   0  0  0  0  0  0  0  0  0  0  0  0  # atno 10765 bound_to 10752
  141.0387  133.9869  157.3029 H   0  0  0  0  0  0  0  0  0  0  0  0  # atno 11005 bound_to 11000
  146.2148  139.5529  142.9657 LP  0  0  0  0  0  0  0  0  0  0  0  0  # atno 17320 bound_to 7965
  145.5820  141.0381  143.2117 LP  0  0  0  0  0  0  0  0  0  0  0  0  # atno 17321 bound_to 7965
  140.0865  143.4918  152.2502 LP  0  0  0  0  0  0  0  0  0  0  0  0  # atno 17342 bound_to 10162
  139.5904  144.7547  151.3416 LP  0  0  0  0  0  0  0  0  0  0  0  0  # atno 17343 bound_to 10162
  155.9671  130.4464  150.5540 LP  0  0  0  0  0  0  0  0  0  0  0  0  # atno 17370 bound_to 10713
  157.3399  131.0715  151.1796 LP  0  0  0  0  0  0  0  0  0  0  0  0  # atno 17371 bound_to 10713
  139.9259  135.0201  156.8234 LP  0  0  0  0  0  0  0  0  0  0  0  0  # atno 17394 bound_to 11000
  140.6275  133.9937  155.7646 LP  0  0  0  0  0  0  0  0  0  0  0  0  # atno 17395 bound_to 11000

$$$$
