#       Name:                AV-unprocessed.smi:2044
#       Creating user name   scv26
#       Creation time:       Fri Mar 27 10:56:25 2020


#       File generated by GOLD software.
#

@<TRIPOS>MOLECULE
AV-unprocessed.smi:2044
    47    48     1
SMALL
NO_CHARGES


@<TRIPOS>ATOM
      1 ****        -7.2080   2.1584  -0.6975 C.3            1 S1                 0.0000
      2 ****        -5.7550   1.8265  -0.7181 C.2            1 S1                 0.0000
      3 ****        -5.0700   0.6593  -0.9090 C.2            1 S1                 0.0000
      4 ****        -3.7126   1.0634  -0.7999 C.2            1 S1                 0.0000
      5 ****        -2.6588   0.1240  -0.9391 N.am           1 S1                 0.0000
      6 ****        -1.3373   0.3588  -0.8660 C.2            1 S1                 0.0000
      7 ****        -0.8218   1.4577  -0.6579 O.2            1 S1                 0.0000
      8 ****        -0.6311  -0.7665  -1.0484 N.am           1 S1                 0.0000
      9 ****         0.8268  -0.8545  -1.0246 C.3            1 S1                 0.0000
     10 ****         1.4278  -0.8108   0.4107 C.3            1 S1                 0.0000
     11 ****         0.7844  -1.9394   1.2561 C.3            1 S1                 0.0000
     12 ****         2.9091  -0.8557   0.4287 N.3            1 S1                 0.0000
     13 ****         3.4548  -0.8057   1.7904 C.3            1 S1                 0.0000
     14 ****         4.9932  -0.8175   1.8219 C.3            1 S1                 0.0000
     15 ****         5.4964   0.2673   1.0551 O.3            1 S1                 0.0000
     16 ****         5.0563   0.2146  -0.2945 C.3            1 S1                 0.0000
     17 ****         3.5186   0.2351  -0.3413 C.3            1 S1                 0.0000
     18 ****        -3.5812   2.3600  -0.5650 N.2            1 S1                 0.0000
     19 ****        -4.8892   2.8556  -0.5120 O.3            1 S1                 0.0000
     20 ****        -7.8097   1.2630  -0.5404 H              1 S1                 0.0000
     21 ****        -7.5139   2.6102  -1.6412 H              1 S1                 0.0000
     22 ****        -7.4348   2.8618   0.1040 H              1 S1                 0.0000
     23 ****        -5.4778  -0.3231  -1.0956 H              1 S1                 0.0000
     24 ****        -2.9419  -0.8285  -1.1147 H              1 S1                 0.0000
     25 ****        -1.1352  -1.6257  -1.2114 H              1 S1                 0.0000
     26 ****         1.1184  -1.7809  -1.5200 H              1 S1                 0.0000
     27 ****         1.1977  -0.0433  -1.6494 H              1 S1                 0.0000
     28 ****         1.1192   0.1351   0.8587 H              1 S1                 0.0000
     29 ****        -0.3033  -1.9357   1.1966 H              1 S1                 0.0000
     30 ****         1.0089  -1.8396   2.3172 H              1 S1                 0.0000
     31 ****         1.1272  -2.9217   0.9290 H              1 S1                 0.0000
     32 ****         3.0900   0.0865   2.3017 H              1 S1                 0.0000
     33 ****         3.1185  -1.6632   2.3705 H              1 S1                 0.0000
     34 ****         5.3510  -0.7223   2.8471 H              1 S1                 0.0000
     35 ****         5.3811  -1.7604   1.4333 H              1 S1                 0.0000
     36 ****         5.4619   1.0706  -0.8339 H              1 S1                 0.0000
     37 ****         5.4458  -0.6824  -0.7787 H              1 S1                 0.0000
     38 ****         3.2365   0.1726  -1.3901 H              1 S1                 0.0000
     39 ****         3.1579   1.1960   0.0289 H              1 S1                 0.0000
     40 ****        -1.3987   2.2641  -0.5278 LP             1 S1                 0.0000
     41 ****         0.1737   1.5437  -0.6191 LP             1 S1                 0.0000
     42 ****         3.1395  -1.7316   0.0047 LP             1 S1                 0.0000
     43 ****         6.4958   0.2371   1.0701 LP             1 S1                 0.0000
     44 ****         5.1827   1.1244   1.4637 LP             1 S1                 0.0000
     45 ****        -2.7311   2.8740  -0.4503 LP             1 S1                 0.0000
     46 ****        -5.0585   3.2630   0.3854 LP             1 S1                 0.0000
     47 ****        -5.0154   3.5486  -1.2218 LP             1 S1                 0.0000
@<TRIPOS>BOND
    1    1    2 1     
    2    1   20 1     
    3    1   21 1     
    4    1   22 1     
    5    2   19 1     
    6    2    3 2     
    7    3    4 1     
    8    3   23 1     
    9    4    5 1     
   10    4   18 2     
   11    5    6 am    
   12    5   24 1     
   13    6    7 2     
   14    6    8 am    
   15    8    9 1     
   16    8   25 1     
   17    9   10 1     
   18    9   26 1     
   19    9   27 1     
   20   10   11 1     
   21   10   12 1     
   22   10   28 1     
   23   11   29 1     
   24   11   30 1     
   25   11   31 1     
   26   12   17 1     
   27   12   13 1     
   28   13   14 1     
   29   13   32 1     
   30   13   33 1     
   31   14   15 1     
   32   14   34 1     
   33   14   35 1     
   34   15   16 1     
   35   16   17 1     
   36   16   36 1     
   37   16   37 1     
   38   17   38 1     
   39   17   39 1     
   40   18   19 1     
   41    7   40 1     
   42    7   41 1     
   43   12   42 1     
   44   15   43 1     
   45   15   44 1     
   46   18   45 1     
   47   19   46 1     
   48   19   47 1     
@<TRIPOS>SUBSTRUCTURE
      1 S1             1
@<TRIPOS>SET
LONE_PAIRS      STATIC     ATOMS    <user>   **** ""
8 40 41 42 43 44 45 46 47
DONOR_HYDROGENS      STATIC     ATOMS    <user>   **** ""
2 24 25
ATOM$BLUE        STATIC     ATOMS    COLORGROUP SYSTEM
8 40 41 42 43 44 45 46 47
ATOM$RED        STATIC     ATOMS    COLORGROUP SYSTEM
2 24 25
