AV-unprocessed.smi:2675|AV-procd|sdf|10362|dock2
  -GOLD-   2272014383D 1   1.00000     0.00000
 Structure written by MMmdl.
 36 37  0  0  0  0  0  0  0  0  1 V2000
  152.8103  143.6615  162.4242 C   0  0  0  0  0  0  0  0  0  0  0  0
  152.6350  143.2381  160.9989 C   0  0  0  0  0  0  0  0  0  0  0  0
  153.2778  142.1099  160.4948 N   0  0  0  0  0  0  0  0  0  0  0  0
  152.8893  142.0642  159.2284 C   0  0  0  0  0  0  0  0  0  0  0  0
  152.0640  143.0550  158.8623 N   0  0  0  0  0  0  0  0  0  0  0  0
  151.5034  143.2696  157.5371 C   0  0  0  0  0  0  0  0  0  0  0  0
  150.7619  142.0250  157.0468 C   0  0  0  0  0  0  0  0  0  0  0  0
  150.9771  140.9374  157.5792 O   0  0  0  0  0  0  0  0  0  0  0  0
  149.8770  142.2161  156.0523 N   0  0  0  0  0  0  0  0  0  0  0  0
  148.9410  141.2542  155.4585 C   0  0  1  0  0  0  0  0  0  0  0  0
  149.7878  140.0404  155.0415 C   0  0  0  0  0  0  0  0  0  0  0  0
  147.9353  140.7875  156.4334 C   0  0  0  0  0  0  0  0  0  0  0  0
  147.1490  140.4224  157.2004 N   0  0  0  0  0  0  0  0  0  0  0  0
  148.1911  141.7688  154.2273 C   0  0  0  0  0  0  0  0  0  0  0  0
  146.8351  142.4341  154.3264 C   0  0  0  0  0  0  0  0  0  0  0  0
  146.9719  141.0959  153.6349 C   0  0  0  0  0  0  0  0  0  0  0  0
  151.8824  143.8300  160.0067 C   0  0  0  0  0  0  0  0  0  0  0  0
  151.0233  145.0529  160.0474 C   0  0  0  0  0  0  0  0  0  0  0  0
  151.8469  143.8223  162.9082 H   0  0  0  0  0  0  0  0  0  0  0  0
  153.3734  144.5927  162.4889 H   0  0  0  0  0  0  0  0  0  0  0  0
  153.3470  142.9098  163.0038 H   0  0  0  0  0  0  0  0  0  0  0  0
  153.2226  141.2957  158.5464 H   0  0  0  0  0  0  0  0  0  0  0  0
  150.8183  144.1178  157.5680 H   0  0  0  0  0  0  0  0  0  0  0  0
  152.3071  143.5306  156.8475 H   0  0  0  0  0  0  0  0  0  0  0  0
  149.8025  143.1587  155.6984 H   0  0  0  0  0  0  0  0  0  0  0  0
  149.1674  139.2528  154.6121 H   0  0  0  0  0  0  0  0  0  0  0  0
  150.3135  139.6106  155.8952 H   0  0  0  0  0  0  0  0  0  0  0  0
  150.5353  140.3135  154.2952 H   0  0  0  0  0  0  0  0  0  0  0  0
  148.8630  142.1988  153.4861 H   0  0  0  0  0  0  0  0  0  0  0  0
  146.3308  142.4467  155.2906 H   0  0  0  0  0  0  0  0  0  0  0  0
  146.6591  143.3070  153.7012 H   0  0  0  0  0  0  0  0  0  0  0  0
  146.8868  141.0833  152.5504 H   0  0  0  0  0  0  0  0  0  0  0  0
  146.5460  140.2322  154.1373 H   0  0  0  0  0  0  0  0  0  0  0  0
  150.9991  145.4841  161.0483 H   0  0  0  0  0  0  0  0  0  0  0  0
  149.9982  144.8176  159.7610 H   0  0  0  0  0  0  0  0  0  0  0  0
  151.3991  145.8159  159.3659 H   0  0  0  0  0  0  0  0  0  0  0  0
  1  2  1  0  0  0  0
  1 19  1  0  0  0  0
  1 20  1  0  0  0  0
  1 21  1  0  0  0  0
  2 17  2  0  0  0  0
  2  3  1  0  0  0  0
  3  4  2  0  0  0  0
  4  5  1  0  0  0  0
  4 22  1  0  0  0  0
  5  6  1  0  0  0  0
  5 17  1  0  0  0  0
  6  7  1  0  0  0  0
  6 23  1  0  0  0  0
  6 24  1  0  0  0  0
  7  8  2  0  0  0  0
  7  9  1  0  0  0  0
  9 10  1  0  0  0  0
  9 25  1  0  0  0  0
 10 11  1  0  0  0  0
 10 12  1  0  0  0  0
 10 14  1  0  0  0  0
 11 26  1  0  0  0  0
 11 27  1  0  0  0  0
 11 28  1  0  0  0  0
 12 13  3  0  0  0  0
 14 16  1  0  0  0  0
 14 15  1  0  0  0  0
 14 29  1  0  0  0  0
 15 16  1  0  0  0  0
 15 30  1  0  0  0  0
 15 31  1  0  0  0  0
 16 32  1  0  0  0  0
 16 33  1  0  0  0  0
 17 18  1  0  0  0  0
 18 34  1  0  0  0  0
 18 35  1  0  0  0  0
 18 36  1  0  0  0  0
M  END
> <s_m_source_file>
AV-unprocessed.smi

> <i_m_source_file_index>
2675

> <i_lp_mmshare_version>
43012

> <i_f3d_flags>
0

> <s_epik_input>
W0NIM11jMW5bY0hdbihjMVtDSDNdKVtDSDJdQyg9TylbTkhdW0NAQF0oW0NIM10pKEMjTilbQ0hdMltDSDJdW0NIMl0y

> <s_epik_cmdline>
J2VwaWtfcHl0aG9uJywgJy1waCcsICc3LjAnLCAnLXRuJywgJzgnLCAnLW1hJywgJzIwMCcsICctbWV0YWxfYmluZGluZycsICctaW1hZScsICc8aW5maWxlLm1hZT4nLCAnLW9tYWUnLCAnPG91dGZpbGUubWFlPic=

> <r_lp_tautomer_probability>
1

> <r_epik_Ionization_Penalty>
0.876174

> <r_epik_Ionization_Penalty_Charging>
0.876172

> <r_epik_Ionization_Penalty_Neutral>
2.64295e-06

> <r_epik_State_Penalty>
0.913958

> <r_epik_Charging_Adjusted_Penalty>
1.79013

> <i_epik_Tot_Q>
0

> <i_epik_Tot_abs_Q>
0

> <r_epik_Metal_State_Penalty>
0.359336

> <b_epik_Metal_Only>
0

> <s_lp_Force_Field>
OPLS_2005

> <r_lp_Energy>
14.5701

> <b_lp_Chiralities_Consistent>
1

> <s_lp_Variant>
AV-unprocessed.smi:2675-3

> <Gold.Version>
5.8.1

> <Gold.Id.Protein>
6NUR|6NUR_protein|mol2

> <Gold.PLP.Fitness>
45.1831

> <Gold.PLP.PLP>
-42.8763

> <Gold.PLP.part.hbond>
-1.0000

> <Gold.PLP.part.metal>
0.0000

> <Gold.PLP.part.buried>
-5.8542

> <Gold.PLP.part.nonpolar>
-36.3741

> <Gold.PLP.part.repulsive>
0.1283

> <Gold.PLP.ligand.clash>
0.0000

> <Gold.PLP.ligand.torsion>
1.1074

> <Gold.PLP.Chemscore.Hbond>
1.0000

> <Gold.PLP.Chemscore.CHOScore>
0.0000

> <Gold.PLP.Chemscore.Metal>
0.0000

> <Gold.Chemscore.Hbonds>
donor molecule, donor type, donor heavy atom, donor atom, acceptor molecule, acceptor atom, score
      L1  H     9    25       P1  8028  0.98

> <Gold.PLP.Chemscore.Internal.Correction>
1.5215

> <Gold.Rescore>
     Score         DG    S(hbond)    S(metal)    S(lipo)     H(rot)  DE(clash)    DE(int)     intcor
     11.33     -15.07       0.98        0.00      92.22       1.74       0.05       3.68       ----

> <Gold.Chemscore.Fitness>
11.3286

> <Gold.Chemscore.DG>
-15.0651

> <Gold.Chemscore.ZeroCoef>
-5.4800

> <Gold.Chemscore.Hbond>
0.9752

> <Gold.Chemscore.Metal>
0.0000

> <Gold.Chemscore.Lipo>
92.2190

> <Gold.Chemscore.Internal_Hbond>
0.0000

> <Gold.Chemscore.DEClash>
0.0515

> <Gold.Chemscore.DEInternal>
3.6850

> <Gold.Chemscore.Rot>
1.7429

> <Gold.Chemscore.Internal.Correction>
   9.000000E+99

> <Gold.Chemscore.Hbonds>
donor molecule, donor type, donor heavy atom, donor atom, acceptor molecule, acceptor atom, score
      L1  H     9    25       P1  8028  0.93

> <Gold.Chemscore.Hbond.Weighted>
-3.2572

> <Gold.Chemscore.Metal.Weighted>
-0.0000

> <Gold.Chemscore.Lipo.Weighted>
-10.7896

> <Gold.Chemscore.Internal_Hbond.Weighted>
0.0000

> <Gold.Chemscore.DEClash.Weighted>
0.0515

> <Gold.Chemscore.DEInternal.Weighted>
3.6850

> <Gold.Chemscore.Rot.Weighted>
4.4617

> <Gold.Chemscore.Internal.Correction.Weighted>
   9.000000E+99

> <Gold.Protein.RotatedTorsions>
[ 6907 6896 6895 6894 ] final -135.89 input  -60.11 | X-H torsion
[ 7974 7965 7964 7962 ] final  -84.92 input  175.53 | X-H torsion
[ 8008 7997 7996 7995 ] final -147.00 input   59.86 | X-H torsion
[ 10167 10162 10161 10158 ] final  -95.68 input  -65.29 | X-H torsion
[ 10718 10713 10712 10709 ] final  -93.42 input   66.30 | X-H torsion
[ 10763 10752 10751 10750 ] final   32.13 input  -60.55 | X-H torsion
[ 11005 11000 10999 10996 ] final   10.55 input  -57.11 | X-H torsion

> <Gold.Protein.ActiveResidues>
 VAL166  LYS551  ARG553  GLY616  TRP617  ASP618  TYR619  PRO620  LYS621  CYS622 
 ASP623  PHE694  ASN695  SER759  ASP760  ASP761  ALA762  ILE779  LEU786  VAL792 
 PHE793  MET794  SER795  GLU796  ALA797  LYS798  CYS799  TRP800  GLU811  SER814 

> <Gold.Protein.RotatedAtoms>
  151.0034  133.6034  159.2691 H   0  0  0  0  0  0  0  0  0  0  0  0  # atno 6907 bound_to 6896
  151.3212  135.0818  159.9316 H   0  0  0  0  0  0  0  0  0  0  0  0  # atno 6908 bound_to 6896
  152.5280  133.9681  159.7803 H   0  0  0  0  0  0  0  0  0  0  0  0  # atno 6909 bound_to 6896
  145.5002  140.9547  143.1764 H   0  0  0  0  0  0  0  0  0  0  0  0  # atno 7974 bound_to 7965
  155.5685  140.0632  157.2812 H   0  0  0  0  0  0  0  0  0  0  0  0  # atno 8008 bound_to 7997
  154.4368  140.1873  156.0901 H   0  0  0  0  0  0  0  0  0  0  0  0  # atno 8009 bound_to 7997
  156.0394  140.3297  155.7230 H   0  0  0  0  0  0  0  0  0  0  0  0  # atno 8010 bound_to 7997
  140.3016  143.3159  152.0242 H   0  0  0  0  0  0  0  0  0  0  0  0  # atno 10167 bound_to 10162
  156.0013  130.5026  150.5773 H   0  0  0  0  0  0  0  0  0  0  0  0  # atno 10718 bound_to 10713
  153.0278  135.6421  154.1307 H   0  0  0  0  0  0  0  0  0  0  0  0  # atno 10763 bound_to 10752
  154.1034  135.2858  155.3248 H   0  0  0  0  0  0  0  0  0  0  0  0  # atno 10764 bound_to 10752
  154.6383  135.5468  153.7822 H   0  0  0  0  0  0  0  0  0  0  0  0  # atno 10765 bound_to 10752
  140.5132  134.0631  155.7824 H   0  0  0  0  0  0  0  0  0  0  0  0  # atno 11005 bound_to 11000
  144.7784  139.6579  143.7165 LP  0  0  0  0  0  0  0  0  0  0  0  0  # atno 17320 bound_to 7965
  146.2231  139.5672  142.9605 LP  0  0  0  0  0  0  0  0  0  0  0  0  # atno 17321 bound_to 7965
  139.4914  144.6451  151.6795 LP  0  0  0  0  0  0  0  0  0  0  0  0  # atno 17342 bound_to 10162
  140.5646  144.0212  150.6186 LP  0  0  0  0  0  0  0  0  0  0  0  0  # atno 17343 bound_to 10162
  157.3659  131.0757  151.1598 LP  0  0  0  0  0  0  0  0  0  0  0  0  # atno 17370 bound_to 10713
  157.2368  130.6550  149.5872 LP  0  0  0  0  0  0  0  0  0  0  0  0  # atno 17371 bound_to 10713
  141.1374  133.9197  157.2403 LP  0  0  0  0  0  0  0  0  0  0  0  0  # atno 17394 bound_to 11000
  139.9647  135.0145  156.9355 LP  0  0  0  0  0  0  0  0  0  0  0  0  # atno 17395 bound_to 11000

$$$$
