AV-unprocessed.smi:1240|AV-procd|sdf|5198|dock6
  -GOLD-   22720 4283D 1   1.00000     0.00000
 Structure written by MMmdl.
 47 49  0  0  0  0  0  0  0  0  1 V2000
  145.3402  134.5655  153.9797 O   0  0  0  0  0  0  0  0  0  0  0  0
  146.2856  134.9575  153.2959 C   0  0  0  0  0  0  0  0  0  0  0  0
  147.2436  135.7719  153.7607 N   0  0  0  0  0  0  0  0  0  0  0  0
  147.3254  136.2717  155.1298 C   0  0  0  0  0  0  0  0  0  0  0  0
  148.7208  136.8702  155.4694 C   0  0  1  0  0  0  0  0  0  0  0  0
  149.0944  138.0752  154.5533 C   0  0  1  0  0  0  0  0  0  0  0  0
  148.2015  139.3179  154.5966 C   0  0  0  0  0  0  0  0  0  0  0  0
  149.1917  140.4847  154.6006 C   0  0  0  0  0  0  0  0  0  0  0  0
  150.4070  139.9245  154.1271 O   0  0  0  0  0  0  0  0  0  0  0  0
  150.5136  138.6344  154.7054 C   0  0  0  0  0  0  0  0  0  0  0  0
  148.9737  137.0799  156.9083 N   0  0  0  0  0  0  0  0  0  0  0  0
  148.2303  136.2063  157.8137 C   0  0  0  0  0  0  0  0  0  0  0  0
  148.4888  136.5606  159.2891 C   0  0  0  0  0  0  0  0  0  0  0  0
  149.8862  136.5318  159.5591 O   0  0  0  0  0  0  0  0  0  0  0  0
  150.6223  137.4260  158.7313 C   0  0  0  0  0  0  0  0  0  0  0  0
  150.3927  137.0594  157.2562 C   0  0  0  0  0  0  0  0  0  0  0  0
  146.5170  134.6178  152.0161 N   0  0  0  0  0  0  0  0  0  0  0  0
  145.7678  133.7442  151.1824 C   0  0  0  0  0  0  0  0  0  0  0  0
  146.4752  132.9644  150.2441 C   0  0  0  0  0  0  0  0  0  0  0  0
  145.7529  132.1003  149.3973 C   0  0  0  0  0  0  0  0  0  0  0  0
  144.4086  131.9847  149.4283 N   0  0  0  0  0  0  0  0  0  0  0  0
  143.7320  132.7435  150.3162 C   0  0  0  0  0  0  0  0  0  0  0  0
  144.3564  133.6379  151.2084 C   0  0  0  0  0  0  0  0  0  0  0  0
  147.9843  136.0459  153.1320 H   0  0  0  0  0  0  0  0  0  0  0  0
  146.5435  137.0204  155.2522 H   0  0  0  0  0  0  0  0  0  0  0  0
  147.0681  135.4566  155.8061 H   0  0  0  0  0  0  0  0  0  0  0  0
  149.4383  136.1040  155.1720 H   0  0  0  0  0  0  0  0  0  0  0  0
  149.0403  137.7151  153.5247 H   0  0  0  0  0  0  0  0  0  0  0  0
  147.5723  139.3522  153.7064 H   0  0  0  0  0  0  0  0  0  0  0  0
  147.5369  139.3626  155.4576 H   0  0  0  0  0  0  0  0  0  0  0  0
  148.8640  141.3167  153.9770 H   0  0  0  0  0  0  0  0  0  0  0  0
  149.3415  140.8575  155.6149 H   0  0  0  0  0  0  0  0  0  0  0  0
  150.8136  138.7428  155.7484 H   0  0  0  0  0  0  0  0  0  0  0  0
  151.2613  138.0263  154.1958 H   0  0  0  0  0  0  0  0  0  0  0  0
  147.1616  136.2947  157.6335 H   0  0  0  0  0  0  0  0  0  0  0  0
  148.5025  135.1649  157.6410 H   0  0  0  0  0  0  0  0  0  0  0  0
  148.0895  137.5490  159.5215 H   0  0  0  0  0  0  0  0  0  0  0  0
  147.9838  135.8501  159.9432 H   0  0  0  0  0  0  0  0  0  0  0  0
  150.3162  138.4546  158.9280 H   0  0  0  0  0  0  0  0  0  0  0  0
  151.6810  137.3530  158.9801 H   0  0  0  0  0  0  0  0  0  0  0  0
  150.8124  136.0697  157.0785 H   0  0  0  0  0  0  0  0  0  0  0  0
  150.9431  137.7547  156.6213 H   0  0  0  0  0  0  0  0  0  0  0  0
  147.3767  134.9635  151.6159 H   0  0  0  0  0  0  0  0  0  0  0  0
  147.5519  133.0185  150.1753 H   0  0  0  0  0  0  0  0  0  0  0  0
  146.2697  131.4866  148.6743 H   0  0  0  0  0  0  0  0  0  0  0  0
  142.6569  132.6399  150.3120 H   0  0  0  0  0  0  0  0  0  0  0  0
  143.7463  134.2247  151.8773 H   0  0  0  0  0  0  0  0  0  0  0  0
  1  2  2  0  0  0  0
  2  3  1  0  0  0  0
  2 17  1  0  0  0  0
  3  4  1  0  0  0  0
  3 24  1  0  0  0  0
  4  5  1  0  0  0  0
  4 25  1  0  0  0  0
  4 26  1  0  0  0  0
  5  6  1  0  0  0  0
  5 11  1  0  0  0  0
  5 27  1  0  0  0  0
  6 10  1  0  0  0  0
  6  7  1  0  0  0  0
  6 28  1  0  0  0  0
  7  8  1  0  0  0  0
  7 29  1  0  0  0  0
  7 30  1  0  0  0  0
  8  9  1  0  0  0  0
  8 31  1  0  0  0  0
  8 32  1  0  0  0  0
  9 10  1  0  0  0  0
 10 33  1  0  0  0  0
 10 34  1  0  0  0  0
 11 16  1  0  0  0  0
 11 12  1  0  0  0  0
 12 13  1  0  0  0  0
 12 35  1  0  0  0  0
 12 36  1  0  0  0  0
 13 14  1  0  0  0  0
 13 37  1  0  0  0  0
 13 38  1  0  0  0  0
 14 15  1  0  0  0  0
 15 16  1  0  0  0  0
 15 39  1  0  0  0  0
 15 40  1  0  0  0  0
 16 41  1  0  0  0  0
 16 42  1  0  0  0  0
 17 18  1  0  0  0  0
 17 43  1  0  0  0  0
 18 23  1  0  0  0  0
 18 19  2  0  0  0  0
 19 20  1  0  0  0  0
 19 44  1  0  0  0  0
 20 21  2  0  0  0  0
 20 45  1  0  0  0  0
 21 22  1  0  0  0  0
 22 23  2  0  0  0  0
 22 46  1  0  0  0  0
 23 47  1  0  0  0  0
M  END
> <s_m_source_file>
AV-unprocessed.smi

> <i_m_source_file_index>
1240

> <i_lp_mmshare_version>
43012

> <i_f3d_flags>
0

> <s_epik_input>
W2NIXTFbY0hdbltjSF1bY0hdYzFbTkhdQyg9TylbTkhdW0NIMl1bQ0BIXShbQ0BASF0yW0NIMl1bQ0gyXU9bQ0gyXTIpTjNbQ0gyXVtDSDJdT1tDSDJdW0NIMl0z

> <s_epik_cmdline>
J2VwaWtfcHl0aG9uJywgJy1waCcsICc3LjAnLCAnLXRuJywgJzgnLCAnLW1hJywgJzIwMCcsICctbWV0YWxfYmluZGluZycsICctaW1hZScsICc8aW5maWxlLm1hZT4nLCAnLW9tYWUnLCAnPG91dGZpbGUubWFlPic=

> <r_epik_Ionization_Penalty>
0.238664

> <r_epik_Ionization_Penalty_Charging>
0

> <r_epik_Ionization_Penalty_Neutral>
0.238664

> <r_epik_State_Penalty>
0.217087

> <r_epik_Charging_Adjusted_Penalty>
0.217087

> <i_epik_Tot_Q>
0

> <i_epik_Tot_abs_Q>
0

> <r_epik_Metal_State_Penalty>
0.199194

> <b_epik_Metal_Only>
0

> <s_lp_Force_Field>
OPLS_2005

> <r_lp_Energy>
57.1619

> <b_lp_Chiralities_Consistent>
1

> <s_lp_Variant>
AV-unprocessed.smi:1240-4

> <Gold.Version>
5.8.1

> <Gold.Id.Protein>
6NUR|6NUR_protein|mol2

> <Gold.PLP.Fitness>
46.4111

> <Gold.PLP.PLP>
-32.7930

> <Gold.PLP.part.hbond>
-4.9826

> <Gold.PLP.part.metal>
0.0000

> <Gold.PLP.part.buried>
-4.5658

> <Gold.PLP.part.nonpolar>
-23.5277

> <Gold.PLP.part.repulsive>
0.9362

> <Gold.PLP.ligand.clash>
0.0000

> <Gold.PLP.ligand.torsion>
0.9733

> <Gold.PLP.Chemscore.Hbond>
4.1312

> <Gold.PLP.Chemscore.CHOScore>
0.9426

> <Gold.PLP.Chemscore.Metal>
0.0000

> <Gold.Chemscore.Hbonds>
donor molecule, donor type, donor heavy atom, donor atom, acceptor molecule, acceptor atom, score
      L1  H     3    24       P1  7948  1.00
      L1  H    17    43       P1  7948  0.94
      P1  H  6896  6908       L1    14  1.00
      P1  H  7989  7998       L1     9  1.00
      P1  H 10785 10796       L1    21  0.18
      L1  C    22    46       P1 10186  0.90

> <Gold.PLP.Chemscore.Internal.Correction>
0.3434

> <Gold.Rescore>
     Score         DG    S(hbond)    S(metal)    S(lipo)     H(rot)  DE(clash)    DE(int)     intcor
     21.14     -23.36       3.83        0.00      79.52       1.65       0.07       2.15       ----

> <Gold.Chemscore.Fitness>
21.1428

> <Gold.Chemscore.DG>
-23.3583

> <Gold.Chemscore.ZeroCoef>
-5.4800

> <Gold.Chemscore.Hbond>
3.8324

> <Gold.Chemscore.Metal>
0.0000

> <Gold.Chemscore.Lipo>
79.5221

> <Gold.Chemscore.Internal_Hbond>
0.0000

> <Gold.Chemscore.DEClash>
0.0650

> <Gold.Chemscore.DEInternal>
2.1504

> <Gold.Chemscore.Rot>
1.6508

> <Gold.Chemscore.Internal.Correction>
   9.000000E+99

> <Gold.Chemscore.Hbonds>
donor molecule, donor type, donor heavy atom, donor atom, acceptor molecule, acceptor atom, score
      L1  H     3    24       P1  7948  0.99
      L1  H    17    43       P1  7948  0.66
      P1  H  6896  6908       L1    14  0.55
      P1  H  7989  7998       L1     9  0.97
      P1  H 10785 10796       L1    21  0.16

> <Gold.Chemscore.Hbond.Weighted>
-12.8003

> <Gold.Chemscore.Metal.Weighted>
-0.0000

> <Gold.Chemscore.Lipo.Weighted>
-9.3041

> <Gold.Chemscore.Internal_Hbond.Weighted>
0.0000

> <Gold.Chemscore.DEClash.Weighted>
0.0650

> <Gold.Chemscore.DEInternal.Weighted>
2.1504

> <Gold.Chemscore.Rot.Weighted>
4.2262

> <Gold.Chemscore.Internal.Correction.Weighted>
   9.000000E+99

> <Gold.Protein.RotatedTorsions>
[ 6907 6896 6895 6894 ] final -154.67 input  -60.11 | X-H torsion
[ 7974 7965 7964 7962 ] final -130.41 input  175.53 | X-H torsion
[ 8008 7997 7996 7995 ] final   85.91 input   59.86 | X-H torsion
[ 10167 10162 10161 10158 ] final  -58.77 input  -65.29 | X-H torsion
[ 10718 10713 10712 10709 ] final    9.37 input   66.30 | X-H torsion
[ 10763 10752 10751 10750 ] final  173.58 input  -60.55 | X-H torsion
[ 11005 11000 10999 10996 ] final -133.88 input  -57.11 | X-H torsion

> <Gold.Protein.ActiveResidues>
 VAL166  LYS551  ARG553  GLY616  TRP617  ASP618  TYR619  PRO620  LYS621  CYS622 
 ASP623  PHE694  ASN695  SER759  ASP760  ASP761  ALA762  ILE779  LEU786  VAL792 
 PHE793  MET794  SER795  GLU796  ALA797  LYS798  CYS799  TRP800  GLU811  SER814 

> <Gold.Protein.RotatedAtoms>
  151.2610  133.4302  159.2615 H   0  0  0  0  0  0  0  0  0  0  0  0  # atno 6907 bound_to 6896
  151.0531  134.9686  159.8232 H   0  0  0  0  0  0  0  0  0  0  0  0  # atno 6908 bound_to 6896
  152.5386  134.2564  159.8971 H   0  0  0  0  0  0  0  0  0  0  0  0  # atno 6909 bound_to 6896
  144.9477  140.7310  143.4807 H   0  0  0  0  0  0  0  0  0  0  0  0  # atno 7974 bound_to 7965
  155.9561  140.3397  155.6450 H   0  0  0  0  0  0  0  0  0  0  0  0  # atno 8008 bound_to 7997
  155.6858  140.0743  157.2485 H   0  0  0  0  0  0  0  0  0  0  0  0  # atno 8009 bound_to 7997
  154.4132  140.1666  156.2019 H   0  0  0  0  0  0  0  0  0  0  0  0  # atno 8010 bound_to 7997
  140.6177  143.2408  151.5558 H   0  0  0  0  0  0  0  0  0  0  0  0  # atno 10167 bound_to 10162
  156.9654  130.5948  149.5665 H   0  0  0  0  0  0  0  0  0  0  0  0  # atno 10718 bound_to 10713
  154.4420  135.2762  155.1841 H   0  0  0  0  0  0  0  0  0  0  0  0  # atno 10763 bound_to 10752
  154.3703  135.6110  153.5740 H   0  0  0  0  0  0  0  0  0  0  0  0  # atno 10764 bound_to 10752
  152.9841  135.5856  154.4749 H   0  0  0  0  0  0  0  0  0  0  0  0  # atno 10765 bound_to 10752
  140.9040  134.1653  157.4439 H   0  0  0  0  0  0  0  0  0  0  0  0  # atno 11005 bound_to 11000
  145.2892  139.1890  143.4749 LP  0  0  0  0  0  0  0  0  0  0  0  0  # atno 17320 bound_to 7965
  146.3310  140.2866  142.8613 LP  0  0  0  0  0  0  0  0  0  0  0  0  # atno 17321 bound_to 7965
  139.5412  144.2643  152.1354 LP  0  0  0  0  0  0  0  0  0  0  0  0  # atno 17342 bound_to 10162
  140.1856  144.4802  150.6505 LP  0  0  0  0  0  0  0  0  0  0  0  0  # atno 17343 bound_to 10162
  156.0305  130.5396  150.8521 LP  0  0  0  0  0  0  0  0  0  0  0  0  # atno 17370 bound_to 10713
  157.5629  131.0946  150.9532 LP  0  0  0  0  0  0  0  0  0  0  0  0  # atno 17371 bound_to 10713
  139.8746  134.9909  156.5526 LP  0  0  0  0  0  0  0  0  0  0  0  0  # atno 17394 bound_to 11000
  140.8194  133.8366  155.8881 LP  0  0  0  0  0  0  0  0  0  0  0  0  # atno 17395 bound_to 11000

$$$$
