AV-unprocessed.smi:15|AV-procd|sdf|83|dock9
  -GOLD-   2262015213D 1   1.00000     0.00000
 Structure written by MMmdl.
 53 56  0  0  0  0  0  0  0  0  1 V2000
  149.9331  141.2867  158.1433 C   0  0  0  0  0  0  0  0  0  0  0  0
  151.4192  141.2776  157.7606 C   0  0  0  0  0  0  0  0  0  0  0  0
  152.2173  140.3566  158.5749 N   0  0  0  0  0  0  0  0  0  0  0  0
  153.3887  140.8629  159.2953 C   0  0  0  0  0  0  0  0  0  0  0  0
  153.0416  141.4956  160.6551 C   0  0  2  0  0  0  0  0  0  0  0  0
  152.5258  142.9267  160.5398 C   0  0  0  0  0  0  0  0  0  0  0  0
  152.7867  143.4962  161.9232 C   0  0  0  0  0  0  0  0  0  0  0  0
  153.8958  142.6007  162.4847 C   0  0  0  0  0  0  0  0  0  0  0  0
  154.2039  141.6761  161.4487 O   0  0  0  0  0  0  0  0  0  0  0  0
  152.3418  139.0832  158.1167 C   0  0  0  0  0  0  0  0  0  0  0  0
  153.5518  138.6392  157.6812 N   0  0  0  0  0  0  0  0  0  0  0  0
  153.6969  137.3825  157.2513 C   0  0  0  0  0  0  0  0  0  0  0  0
  152.7793  136.4175  157.1715 N   0  0  0  0  0  0  0  0  0  0  0  0
  151.5607  136.8581  157.5963 C   0  0  0  0  0  0  0  0  0  0  0  0
  151.2569  138.1614  158.0819 C   0  0  0  0  0  0  0  0  0  0  0  0
  149.9098  138.2364  158.4168 N   0  0  0  0  0  0  0  0  0  0  0  0
  149.4479  137.0443  158.1560 C   0  0  0  0  0  0  0  0  0  0  0  0
  150.3681  136.1572  157.6449 N   0  0  0  0  0  0  0  0  0  0  0  0
  150.1299  134.7721  157.2699 C   0  0  0  0  0  0  0  0  0  0  0  0
  149.3825  134.5750  155.9252 C   0  0  1  0  0  0  0  0  0  0  0  0
  150.0167  135.4359  154.9942 O   0  0  0  0  0  0  0  0  0  0  0  0
  149.4133  133.1579  155.3702 C   0  0  0  0  0  0  0  0  0  0  0  0
  148.2629  133.1689  154.3683 C   0  0  0  0  0  0  0  0  0  0  0  0
  147.2887  134.0502  154.9164 O   0  0  0  0  0  0  0  0  0  0  0  0
  147.8612  134.8437  155.9546 C   0  0  2  0  0  0  0  0  0  0  0  0
  147.4223  136.3120  155.8426 C   0  0  0  0  0  0  0  0  0  0  0  0
  149.3650  141.9117  157.4546 H   0  0  0  0  0  0  0  0  0  0  0  0
  149.7762  141.6857  159.1453 H   0  0  0  0  0  0  0  0  0  0  0  0
  149.5098  140.2827  158.1065 H   0  0  0  0  0  0  0  0  0  0  0  0
  151.4935  140.9858  156.7118 H   0  0  0  0  0  0  0  0  0  0  0  0
  151.8306  142.2847  157.8332 H   0  0  0  0  0  0  0  0  0  0  0  0
  154.1176  140.0640  159.4292 H   0  0  0  0  0  0  0  0  0  0  0  0
  153.8979  141.6075  158.6854 H   0  0  0  0  0  0  0  0  0  0  0  0
  152.3149  140.8904  161.2001 H   0  0  0  0  0  0  0  0  0  0  0  0
  153.1085  143.4778  159.8000 H   0  0  0  0  0  0  0  0  0  0  0  0
  151.4759  142.9771  160.2495 H   0  0  0  0  0  0  0  0  0  0  0  0
  153.0829  144.5445  161.8775 H   0  0  0  0  0  0  0  0  0  0  0  0
  151.8939  143.4251  162.5457 H   0  0  0  0  0  0  0  0  0  0  0  0
  154.7842  143.1669  162.7651 H   0  0  0  0  0  0  0  0  0  0  0  0
  153.5455  142.0593  163.3643 H   0  0  0  0  0  0  0  0  0  0  0  0
  154.6905  137.1114  156.9260 H   0  0  0  0  0  0  0  0  0  0  0  0
  148.4137  136.7798  158.3233 H   0  0  0  0  0  0  0  0  0  0  0  0
  151.0949  134.2646  157.2358 H   0  0  0  0  0  0  0  0  0  0  0  0
  149.5697  134.2989  158.0776 H   0  0  0  0  0  0  0  0  0  0  0  0
  150.0615  136.3018  155.3704 H   0  0  0  0  0  0  0  0  0  0  0  0
  150.3690  132.8827  154.9226 H   0  0  0  0  0  0  0  0  0  0  0  0
  149.1868  132.4287  156.1471 H   0  0  0  0  0  0  0  0  0  0  0  0
  148.5949  133.5686  153.4093 H   0  0  0  0  0  0  0  0  0  0  0  0
  147.8495  132.1752  154.1955 H   0  0  0  0  0  0  0  0  0  0  0  0
  147.4414  134.4327  156.8715 H   0  0  0  0  0  0  0  0  0  0  0  0
  147.8680  136.9155  156.6335 H   0  0  0  0  0  0  0  0  0  0  0  0
  146.3393  136.3970  155.9327 H   0  0  0  0  0  0  0  0  0  0  0  0
  147.7055  136.7468  154.8838 H   0  0  0  0  0  0  0  0  0  0  0  0
  1  2  1  0  0  0  0
  1 27  1  0  0  0  0
  1 28  1  0  0  0  0
  1 29  1  0  0  0  0
  2  3  1  0  0  0  0
  2 30  1  0  0  0  0
  2 31  1  0  0  0  0
  3  4  1  0  0  0  0
  3 10  1  0  0  0  0
  4  5  1  0  0  0  0
  4 32  1  0  0  0  0
  4 33  1  0  0  0  0
  5  9  1  0  0  0  0
  5  6  1  0  0  0  0
  5 34  1  0  0  0  0
  6  7  1  0  0  0  0
  6 35  1  0  0  0  0
  6 36  1  0  0  0  0
  7  8  1  0  0  0  0
  7 37  1  0  0  0  0
  7 38  1  0  0  0  0
  8  9  1  0  0  0  0
  8 39  1  0  0  0  0
  8 40  1  0  0  0  0
 10 15  1  0  0  0  0
 10 11  2  0  0  0  0
 11 12  1  0  0  0  0
 12 13  2  0  0  0  0
 12 41  1  0  0  0  0
 13 14  1  0  0  0  0
 14 18  1  0  0  0  0
 14 15  2  0  0  0  0
 15 16  1  0  0  0  0
 16 17  2  0  0  0  0
 17 18  1  0  0  0  0
 17 42  1  0  0  0  0
 18 19  1  0  0  0  0
 19 20  1  0  0  0  0
 19 43  1  0  0  0  0
 19 44  1  0  0  0  0
 20 25  1  0  0  0  0
 20 21  1  0  0  0  0
 20 22  1  0  0  0  0
 21 45  1  0  0  0  0
 22 23  1  0  0  0  0
 22 46  1  0  0  0  0
 22 47  1  0  0  0  0
 23 24  1  0  0  0  0
 23 48  1  0  0  0  0
 23 49  1  0  0  0  0
 24 25  1  0  0  0  0
 25 26  1  0  0  0  0
 25 50  1  0  0  0  0
 26 51  1  0  0  0  0
 26 52  1  0  0  0  0
 26 53  1  0  0  0  0
M  END
> <s_m_source_file>
AV-unprocessed.smi

> <i_m_source_file_index>
15

> <i_lp_mmshare_version>
43012

> <i_f3d_flags>
0

> <s_epik_input>
TzFbQ0gyXVtDSDJdW0NIMl1bQ0BIXTFbQ0gyXU4oW0NIMl1bQ0gzXSljKG5bY0hdbjIpYyhjMjMpbltjSF1uM1tDSDJdW0NAQF00KFtPSF0pW0NIMl1bQ0gyXU9bQ0BIXTRbQ0gzXQ==

> <s_epik_cmdline>
J2VwaWtfcHl0aG9uJywgJy1waCcsICc3LjAnLCAnLXRuJywgJzgnLCAnLW1hJywgJzIwMCcsICctbWV0YWxfYmluZGluZycsICctaW1hZScsICc8aW5maWxlLm1hZT4nLCAnLW9tYWUnLCAnPG91dGZpbGUubWFlPic=

> <r_lp_tautomer_probability>
1

> <r_epik_Ionization_Penalty>
0.00360814

> <r_epik_Ionization_Penalty_Charging>
0

> <r_epik_Ionization_Penalty_Neutral>
0.00360814

> <r_epik_State_Penalty>
0.00237482

> <r_epik_Charging_Adjusted_Penalty>
0.00237482

> <i_epik_Tot_Q>
0

> <i_epik_Tot_abs_Q>
0

> <r_epik_Metal_State_Penalty>
-0

> <b_epik_Metal_Only>
0

> <s_lp_Force_Field>
OPLS_2005

> <r_lp_Energy>
48.2804

> <b_lp_Chiralities_Consistent>
1

> <s_lp_Variant>
AV-unprocessed.smi:15-5

> <Gold.Version>
5.8.1

> <Gold.Id.Protein>
6NUR|6NUR_protein|mol2

> <Gold.PLP.Fitness>
43.3837

> <Gold.PLP.PLP>
-41.2194

> <Gold.PLP.part.hbond>
-4.9833

> <Gold.PLP.part.metal>
0.0000

> <Gold.PLP.part.buried>
-4.9412

> <Gold.PLP.part.nonpolar>
-30.1757

> <Gold.PLP.part.repulsive>
0.3039

> <Gold.PLP.ligand.clash>
0.0000

> <Gold.PLP.ligand.torsion>
1.8136

> <Gold.PLP.Chemscore.Hbond>
1.6299

> <Gold.PLP.Chemscore.CHOScore>
0.0000

> <Gold.PLP.Chemscore.Metal>
0.0000

> <Gold.Chemscore.Hbonds>
donor molecule, donor type, donor heavy atom, donor atom, acceptor molecule, acceptor atom, score
      P1  H  7997  8009       L1    11  1.00

> <Gold.PLP.Chemscore.Internal.Correction>
0.9020

> <Gold.Rescore>
     Score         DG    S(hbond)    S(metal)    S(lipo)     H(rot)  DE(clash)    DE(int)     intcor
     11.00     -13.00       0.89        0.00      92.32       2.44       0.05       1.95       ----

> <Gold.Chemscore.Fitness>
10.9972

> <Gold.Chemscore.DG>
-12.9969

> <Gold.Chemscore.ZeroCoef>
-5.4800

> <Gold.Chemscore.Hbond>
0.8891

> <Gold.Chemscore.Metal>
0.0000

> <Gold.Chemscore.Lipo>
92.3242

> <Gold.Chemscore.Internal_Hbond>
0.0000

> <Gold.Chemscore.DEClash>
0.0522

> <Gold.Chemscore.DEInternal>
1.9475

> <Gold.Chemscore.Rot>
2.4431

> <Gold.Chemscore.Internal.Correction>
   9.000000E+99

> <Gold.Chemscore.Hbonds>
donor molecule, donor type, donor heavy atom, donor atom, acceptor molecule, acceptor atom, score
      P1  H  7997  8009       L1    11  0.84

> <Gold.Chemscore.Hbond.Weighted>
-2.9694

> <Gold.Chemscore.Metal.Weighted>
-0.0000

> <Gold.Chemscore.Lipo.Weighted>
-10.8019

> <Gold.Chemscore.Internal_Hbond.Weighted>
0.0000

> <Gold.Chemscore.DEClash.Weighted>
0.0522

> <Gold.Chemscore.DEInternal.Weighted>
1.9475

> <Gold.Chemscore.Rot.Weighted>
6.2544

> <Gold.Chemscore.Internal.Correction.Weighted>
   9.000000E+99

> <Gold.Protein.RotatedTorsions>
[ 6907 6896 6895 6894 ] final  177.78 input  -60.11 | X-H torsion
[ 7974 7965 7964 7962 ] final  167.24 input  175.53 | X-H torsion
[ 8008 7997 7996 7995 ] final  140.93 input   59.86 | X-H torsion
[ 10167 10162 10161 10158 ] final   81.54 input  -65.29 | X-H torsion
[ 10718 10713 10712 10709 ] final  128.85 input   66.30 | X-H torsion
[ 10763 10752 10751 10750 ] final  154.69 input  -60.55 | X-H torsion
[ 11005 11000 10999 10996 ] final  -95.15 input  -57.11 | X-H torsion

> <Gold.Protein.ActiveResidues>
 VAL166  LYS551  ARG553  GLY616  TRP617  ASP618  TYR619  PRO620  LYS621  CYS622 
 ASP623  PHE694  ASN695  SER759  ASP760  ASP761  ALA762  ILE779  LEU786  VAL792 
 PHE793  MET794  SER795  GLU796  ALA797  LYS798  CYS799  TRP800  GLU811  SER814 

> <Gold.Protein.RotatedAtoms>
  151.6985  133.3311  159.3260 H   0  0  0  0  0  0  0  0  0  0  0  0  # atno 6907 bound_to 6896
  150.7747  134.6637  159.6363 H   0  0  0  0  0  0  0  0  0  0  0  0  # atno 6908 bound_to 6896
  152.3784  134.6631  160.0203 H   0  0  0  0  0  0  0  0  0  0  0  0  # atno 6909 bound_to 6896
  144.7432  139.8732  143.6390 H   0  0  0  0  0  0  0  0  0  0  0  0  # atno 7974 bound_to 7965
  156.2973  140.2328  156.4481 H   0  0  0  0  0  0  0  0  0  0  0  0  # atno 8008 bound_to 7997
  154.8126  140.0442  157.1374 H   0  0  0  0  0  0  0  0  0  0  0  0  # atno 8009 bound_to 7997
  154.9406  140.3029  155.5126 H   0  0  0  0  0  0  0  0  0  0  0  0  # atno 8010 bound_to 7997
  139.9382  144.6107  150.8277 H   0  0  0  0  0  0  0  0  0  0  0  0  # atno 10167 bound_to 10162
  157.5207  131.1098  150.9157 H   0  0  0  0  0  0  0  0  0  0  0  0  # atno 10718 bound_to 10713
  154.1564  135.2812  155.3121 H   0  0  0  0  0  0  0  0  0  0  0  0  # atno 10763 bound_to 10752
  154.6179  135.5477  153.7547 H   0  0  0  0  0  0  0  0  0  0  0  0  # atno 10764 bound_to 10752
  153.0205  135.6432  154.1707 H   0  0  0  0  0  0  0  0  0  0  0  0  # atno 10765 bound_to 10752
  141.1450  133.8006  157.0396 H   0  0  0  0  0  0  0  0  0  0  0  0  # atno 11005 bound_to 11000
  146.1265  139.4292  143.0195 LP  0  0  0  0  0  0  0  0  0  0  0  0  # atno 17320 bound_to 7965
  145.7227  141.0069  143.1394 LP  0  0  0  0  0  0  0  0  0  0  0  0  # atno 17321 bound_to 7965
  140.7618  143.3184  151.2680 LP  0  0  0  0  0  0  0  0  0  0  0  0  # atno 17342 bound_to 10162
  139.6726  143.9994  152.2762 LP  0  0  0  0  0  0  0  0  0  0  0  0  # atno 17343 bound_to 10162
  156.9769  130.5512  149.5294 LP  0  0  0  0  0  0  0  0  0  0  0  0  # atno 17370 bound_to 10713
  156.0351  130.5440  150.8634 LP  0  0  0  0  0  0  0  0  0  0  0  0  # atno 17371 bound_to 10713
  140.0701  134.9707  157.1453 LP  0  0  0  0  0  0  0  0  0  0  0  0  # atno 17394 bound_to 11000
  140.3723  134.2377  155.7177 LP  0  0  0  0  0  0  0  0  0  0  0  0  # atno 17395 bound_to 11000

$$$$
