AV-unprocessed.smi:624|AV-procd|sdf|3099|dock5
  -GOLD-   22720 0 23D 1   1.00000     0.00000
 Structure written by MMmdl.
 30 32  0  0  0  0  0  0  0  0  1 V2000
  153.4776  140.0226  158.3249 O   0  0  0  0  0  0  0  0  0  0  0  0
  152.5671  140.7282  157.8917 C   0  0  0  0  0  0  0  0  0  0  0  0
  151.7349  140.3942  156.8921 N   0  0  0  0  0  0  0  0  0  0  0  0
  151.6965  139.1829  156.1572 C   0  0  0  0  0  0  0  0  0  0  0  0
  152.3722  138.1337  156.6404 N   0  0  0  0  0  0  0  0  0  0  0  0
  152.2528  137.0163  155.8231 N   0  0  0  0  0  0  0  0  0  0  0  0
  151.4923  137.2679  154.7532 C   0  0  0  0  0  0  0  0  0  0  0  0
  150.8440  138.8943  154.6376 S   0  0  0  0  0  0  0  0  0  0  0  0
  152.2804  141.9472  158.3718 N   0  0  0  0  0  0  0  0  0  0  0  0
  152.9670  142.6122  159.4747 C   0  0  0  0  0  0  0  0  0  0  0  0
  152.8400  141.8492  160.7841 C   0  0  0  0  0  0  0  0  0  0  0  0
  153.3754  142.4124  162.0800 C   0  0  0  0  0  0  0  0  0  0  0  0
  154.0392  141.2121  161.4466 C   0  0  0  0  0  0  0  0  0  0  0  0
  152.4807  144.0397  159.6496 C   0  0  0  0  0  0  0  0  0  0  0  0
  151.1588  144.4895  159.0748 C   0  0  0  0  0  0  0  0  0  0  0  0
  152.4533  145.0134  158.4949 C   0  0  0  0  0  0  0  0  0  0  0  0
  151.0396  141.0791  156.6346 H   0  0  0  0  0  0  0  0  0  0  0  0
  151.3123  136.4894  154.0266 H   0  0  0  0  0  0  0  0  0  0  0  0
  151.5168  142.4537  157.9477 H   0  0  0  0  0  0  0  0  0  0  0  0
  154.0293  142.6676  159.2270 H   0  0  0  0  0  0  0  0  0  0  0  0
  151.9063  141.2961  160.8695 H   0  0  0  0  0  0  0  0  0  0  0  0
  153.9173  143.3552  162.0450 H   0  0  0  0  0  0  0  0  0  0  0  0
  152.7882  142.2452  162.9808 H   0  0  0  0  0  0  0  0  0  0  0  0
  153.8932  140.2447  161.9223 H   0  0  0  0  0  0  0  0  0  0  0  0
  155.0163  141.3655  160.9931 H   0  0  0  0  0  0  0  0  0  0  0  0
  152.7437  144.4694  160.6148 H   0  0  0  0  0  0  0  0  0  0  0  0
  150.5954  143.7756  158.4769 H   0  0  0  0  0  0  0  0  0  0  0  0
  150.5596  145.1752  159.6703 H   0  0  0  0  0  0  0  0  0  0  0  0
  152.7184  146.0476  158.7049 H   0  0  0  0  0  0  0  0  0  0  0  0
  152.7391  144.6501  157.5100 H   0  0  0  0  0  0  0  0  0  0  0  0
  1  2  2  0  0  0  0
  2  3  1  0  0  0  0
  2  9  1  0  0  0  0
  3  4  1  0  0  0  0
  3 17  1  0  0  0  0
  4  8  1  0  0  0  0
  4  5  2  0  0  0  0
  5  6  1  0  0  0  0
  6  7  2  0  0  0  0
  7  8  1  0  0  0  0
  7 18  1  0  0  0  0
  9 10  1  0  0  0  0
  9 19  1  0  0  0  0
 10 11  1  0  0  0  0
 10 14  1  0  0  0  0
 10 20  1  0  0  0  0
 11 13  1  0  0  0  0
 11 12  1  0  0  0  0
 11 21  1  0  0  0  0
 12 13  1  0  0  0  0
 12 22  1  0  0  0  0
 12 23  1  0  0  0  0
 13 24  1  0  0  0  0
 13 25  1  0  0  0  0
 14 16  1  0  0  0  0
 14 15  1  0  0  0  0
 14 26  1  0  0  0  0
 15 16  1  0  0  0  0
 15 27  1  0  0  0  0
 15 28  1  0  0  0  0
 16 29  1  0  0  0  0
 16 30  1  0  0  0  0
M  END
> <s_m_source_file>
AV-unprocessed.smi

> <i_m_source_file_index>
624

> <i_lp_mmshare_version>
43012

> <i_f3d_flags>
0

> <s_epik_input>
W0NIMl0xW0NIMl1bQ0hdMVtDSF0oW0NIXTJbQ0gyXVtDSDJdMilbTkhdQyg9TylbTkhdYzNubltjSF1zMw==

> <s_epik_cmdline>
J2VwaWtfcHl0aG9uJywgJy1waCcsICc3LjAnLCAnLXRuJywgJzgnLCAnLW1hJywgJzIwMCcsICctbWV0YWxfYmluZGluZycsICctaW1hZScsICc8aW5maWxlLm1hZT4nLCAnLW9tYWUnLCAnPG91dGZpbGUubWFlPic=

> <r_lp_tautomer_probability>
1

> <r_epik_Ionization_Penalty>
0.000305758

> <r_epik_Ionization_Penalty_Charging>
0

> <r_epik_Ionization_Penalty_Neutral>
0.000305758

> <r_epik_State_Penalty>
-0

> <r_epik_Charging_Adjusted_Penalty>
0

> <i_epik_Tot_Q>
0

> <i_epik_Tot_abs_Q>
0

> <r_epik_Metal_State_Penalty>
0.165203

> <b_epik_Metal_Only>
0

> <s_lp_Force_Field>
OPLS_2005

> <r_lp_Energy>
21.213

> <b_lp_Chiralities_Consistent>
1

> <s_lp_Variant>
AV-unprocessed.smi:624-1

> <Gold.Version>
5.8.1

> <Gold.Id.Protein>
6NUR|6NUR_protein|mol2

> <Gold.PLP.Fitness>
45.9380

> <Gold.PLP.PLP>
-37.6200

> <Gold.PLP.part.hbond>
-2.0000

> <Gold.PLP.part.metal>
0.0000

> <Gold.PLP.part.buried>
-2.3468

> <Gold.PLP.part.nonpolar>
-31.9604

> <Gold.PLP.part.repulsive>
0.2263

> <Gold.PLP.ligand.clash>
0.0000

> <Gold.PLP.ligand.torsion>
1.4670

> <Gold.PLP.Chemscore.Hbond>
1.9920

> <Gold.PLP.Chemscore.CHOScore>
1.0548

> <Gold.PLP.Chemscore.Metal>
0.0000

> <Gold.Chemscore.Hbonds>
donor molecule, donor type, donor heavy atom, donor atom, acceptor molecule, acceptor atom, score
      P1  H  7997  8009       L1     1  1.00
      P1  H 10752 10764       L1     6  0.41
      L1  C     7    18       P1  7949  0.86

> <Gold.PLP.Chemscore.Internal.Correction>
2.1117

> <Gold.Rescore>
     Score         DG    S(hbond)    S(metal)    S(lipo)     H(rot)  DE(clash)    DE(int)     intcor
     15.85     -18.97       1.84        0.00      96.17       1.52       0.09       3.03       ----

> <Gold.Chemscore.Fitness>
15.8514

> <Gold.Chemscore.DG>
-18.9705

> <Gold.Chemscore.ZeroCoef>
-5.4800

> <Gold.Chemscore.Hbond>
1.8375

> <Gold.Chemscore.Metal>
0.0000

> <Gold.Chemscore.Lipo>
96.1653

> <Gold.Chemscore.Internal_Hbond>
0.0000

> <Gold.Chemscore.DEClash>
0.0884

> <Gold.Chemscore.DEInternal>
3.0307

> <Gold.Chemscore.Rot>
1.5227

> <Gold.Chemscore.Internal.Correction>
   9.000000E+99

> <Gold.Chemscore.Hbonds>
donor molecule, donor type, donor heavy atom, donor atom, acceptor molecule, acceptor atom, score
      P1  H  7997  8009       L1     1  0.43
      P1  H 10752 10764       L1     6  0.01

> <Gold.Chemscore.Hbond.Weighted>
-6.1373

> <Gold.Chemscore.Metal.Weighted>
-0.0000

> <Gold.Chemscore.Lipo.Weighted>
-11.2513

> <Gold.Chemscore.Internal_Hbond.Weighted>
0.0000

> <Gold.Chemscore.DEClash.Weighted>
0.0884

> <Gold.Chemscore.DEInternal.Weighted>
3.0307

> <Gold.Chemscore.Rot.Weighted>
3.8982

> <Gold.Chemscore.Internal.Correction.Weighted>
   9.000000E+99

> <Gold.Protein.RotatedTorsions>
[ 6907 6896 6895 6894 ] final   10.33 input  -60.11 | X-H torsion
[ 7974 7965 7964 7962 ] final   -4.52 input  175.53 | X-H torsion
[ 8008 7997 7996 7995 ] final  150.44 input   59.86 | X-H torsion
[ 10167 10162 10161 10158 ] final  145.26 input  -65.29 | X-H torsion
[ 10718 10713 10712 10709 ] final  -98.54 input   66.30 | X-H torsion
[ 10763 10752 10751 10750 ] final  -41.64 input  -60.55 | X-H torsion
[ 11005 11000 10999 10996 ] final -177.75 input  -57.11 | X-H torsion

> <Gold.Protein.ActiveResidues>
 VAL166  LYS551  ARG553  GLY616  TRP617  ASP618  TYR619  PRO620  LYS621  CYS622 
 ASP623  PHE694  ASN695  SER759  ASP760  ASP761  ALA762  ILE779  LEU786  VAL792 
 PHE793  MET794  SER795  GLU796  ALA797  LYS798  CYS799  TRP800  GLU811  SER814 

> <Gold.Protein.RotatedAtoms>
  151.7366  135.0863  160.0308 H   0  0  0  0  0  0  0  0  0  0  0  0  # atno 6907 bound_to 6896
  152.3507  133.6171  159.5951 H   0  0  0  0  0  0  0  0  0  0  0  0  # atno 6908 bound_to 6896
  150.7538  133.9495  159.3523 H   0  0  0  0  0  0  0  0  0  0  0  0  # atno 6909 bound_to 6896
  146.2370  140.1884  142.8332 H   0  0  0  0  0  0  0  0  0  0  0  0  # atno 7974 bound_to 7965
  156.2715  140.2075  156.6017 H   0  0  0  0  0  0  0  0  0  0  0  0  # atno 8008 bound_to 7997
  154.6901  140.0531  157.0378 H   0  0  0  0  0  0  0  0  0  0  0  0  # atno 8009 bound_to 7997
  155.0878  140.3193  155.4585 H   0  0  0  0  0  0  0  0  0  0  0  0  # atno 8010 bound_to 7997
  139.4930  144.5914  151.6672 H   0  0  0  0  0  0  0  0  0  0  0  0  # atno 10167 bound_to 10162
  156.0110  130.5242  150.6537 H   0  0  0  0  0  0  0  0  0  0  0  0  # atno 10718 bound_to 10713
  153.9658  135.6734  153.4746 H   0  0  0  0  0  0  0  0  0  0  0  0  # atno 10763 bound_to 10752
  153.0816  135.4920  154.8511 H   0  0  0  0  0  0  0  0  0  0  0  0  # atno 10764 bound_to 10752
  154.7247  135.3124  154.8951 H   0  0  0  0  0  0  0  0  0  0  0  0  # atno 10765 bound_to 10752
  140.4374  134.6463  157.4741 H   0  0  0  0  0  0  0  0  0  0  0  0  # atno 11005 bound_to 11000
  144.9878  140.8519  143.5358 LP  0  0  0  0  0  0  0  0  0  0  0  0  # atno 17320 bound_to 7965
  145.1886  139.2313  143.5255 LP  0  0  0  0  0  0  0  0  0  0  0  0  # atno 17321 bound_to 7965
  140.5542  144.0375  150.6140 LP  0  0  0  0  0  0  0  0  0  0  0  0  # atno 17342 bound_to 10162
  140.3439  143.3003  152.0558 LP  0  0  0  0  0  0  0  0  0  0  0  0  # atno 17343 bound_to 10162
  157.4293  131.0847  151.1054 LP  0  0  0  0  0  0  0  0  0  0  0  0  # atno 17370 bound_to 10713
  157.1632  130.6234  149.5617 LP  0  0  0  0  0  0  0  0  0  0  0  0  # atno 17371 bound_to 10713
  140.0093  134.6716  155.9406 LP  0  0  0  0  0  0  0  0  0  0  0  0  # atno 17394 bound_to 11000
  141.1720  133.6538  156.4686 LP  0  0  0  0  0  0  0  0  0  0  0  0  # atno 17395 bound_to 11000

$$$$
