#       Name:                AV-unprocessed.smi:414
#       Creating user name   scv26
#       Creation time:       Thu Mar 26 22:46:53 2020


#       File generated by GOLD software.
#

@<TRIPOS>MOLECULE
AV-unprocessed.smi:414
    44    45     1
SMALL
NO_CHARGES


@<TRIPOS>ATOM
      1 ****        -2.2212  -4.2764  -0.0358 C.3            1 S1                 0.0000
      2 ****        -2.4965  -2.7680   0.0424 C.3            1 S1                 0.0000
      3 ****        -1.9396  -2.0291  -1.1895 C.3            1 S1                 0.0000
      4 ****        -2.2091  -0.5157  -1.1143 C.3            1 S1                 0.0000
      5 ****        -1.6657   0.1104   0.1871 C.3            1 S1                 0.0000
      6 ****        -0.2043   0.1341   0.1958 N.am           1 S1                 0.0000
      7 ****         0.5647   1.0738  -0.3747 C.2            1 S1                 0.0000
      8 ****         0.1099   2.0322  -1.0007 O.2            1 S1                 0.0000
      9 ****         2.0806   0.8773  -0.2436 C.3            1 S1                 0.0000
     10 ****         2.7956   2.1410  -0.0044 N.am           1 S1                 0.0000
     11 ****         3.3813   2.7833  -1.1096 C.2            1 S1                 0.0000
     12 ****         4.0498   3.9455  -0.9836 C.2            1 S1                 0.0000
     13 ****         4.1602   4.5379   0.3439 C.2            1 S1                 0.0000
     14 ****         4.7729   5.5952   0.4791 O.2            1 S1                 0.0000
     15 ****         3.5701   3.8792   1.3840 N.pl3          1 S1                -1.0000
     16 ****         2.8899   2.6996   1.2401 C.2            1 S1                 0.0000
     17 ****         2.3615   2.1235   2.1918 O.2            1 S1                 0.0000
     18 ****        -2.1939  -0.6456   1.4214 C.3            1 S1                 0.0000
     19 ****        -1.9269  -2.1591   1.3378 C.3            1 S1                 0.0000
     20 ****        -1.1508  -4.4833  -0.0620 H              1 S1                 0.0000
     21 ****        -2.6662  -4.7112  -0.9312 H              1 S1                 0.0000
     22 ****        -2.6397  -4.7972   0.8261 H              1 S1                 0.0000
     23 ****        -3.5789  -2.6321   0.0552 H              1 S1                 0.0000
     24 ****        -0.8663  -2.2054  -1.2725 H              1 S1                 0.0000
     25 ****        -2.3866  -2.4322  -2.0989 H              1 S1                 0.0000
     26 ****        -1.7822  -0.0168  -1.9851 H              1 S1                 0.0000
     27 ****        -3.2850  -0.3449  -1.1679 H              1 S1                 0.0000
     28 ****        -2.0226   1.1399   0.2528 H              1 S1                 0.0000
     29 ****         0.2587  -0.6179   0.6855 H              1 S1                 0.0000
     30 ****         2.3003   0.1639   0.5533 H              1 S1                 0.0000
     31 ****         2.4403   0.4033  -1.1577 H              1 S1                 0.0000
     32 ****         3.2483   2.2820  -2.0571 H              1 S1                 0.0000
     33 ****         4.4899   4.4286  -1.8436 H              1 S1                 0.0000
     34 ****        -1.7514  -0.2377   2.3312 H              1 S1                 0.0000
     35 ****        -3.2685  -0.4796   1.5075 H              1 S1                 0.0000
     36 ****        -2.3660  -2.6527   2.2054 H              1 S1                 0.0000
     37 ****        -0.8535  -2.3452   1.3921 H              1 S1                 0.0000
     38 ****        -0.8791   2.1383  -1.1035 LP             1 S1                 0.0000
     39 ****         0.7297   2.7041  -1.4061 LP             1 S1                 0.0000
     40 ****         5.1879   6.0378  -0.3158 LP             1 S1                 0.0000
     41 ****         4.8563   6.0125   1.3840 LP             1 S1                 0.0000
     42 ****         3.6382   4.2788   2.2981 LP             1 S1                 0.0000
     43 ****         1.8741   1.2624   2.0470 LP             1 S1                 0.0000
     44 ****         2.4199   2.5168   3.1093 LP             1 S1                 0.0000
@<TRIPOS>BOND
    1    1    2 1     
    2    1   20 1     
    3    1   21 1     
    4    1   22 1     
    5    2   19 1     
    6    2    3 1     
    7    2   23 1     
    8    3    4 1     
    9    3   24 1     
   10    3   25 1     
   11    4    5 1     
   12    4   26 1     
   13    4   27 1     
   14    5    6 1     
   15    5   18 1     
   16    5   28 1     
   17    6    7 am    
   18    6   29 1     
   19    7    8 2     
   20    7    9 1     
   21    9   10 1     
   22    9   30 1     
   23    9   31 1     
   24   10   16 am    
   25   10   11 1     
   26   11   12 2     
   27   11   32 1     
   28   12   13 1     
   29   12   33 1     
   30   13   14 2     
   31   13   15 1     
   32   15   16 1     
   33   16   17 2     
   34   18   19 1     
   35   18   34 1     
   36   18   35 1     
   37   19   36 1     
   38   19   37 1     
   39    8   38 1     
   40    8   39 1     
   41   14   40 1     
   42   14   41 1     
   43   15   42 1     
   44   17   43 1     
   45   17   44 1     
@<TRIPOS>SUBSTRUCTURE
      1 S1             1
@<TRIPOS>SET
LONE_PAIRS      STATIC     ATOMS    <user>   **** ""
7 38 39 40 41 42 43 44
DONOR_HYDROGENS      STATIC     ATOMS    <user>   **** ""
1 29
ATOM$BLUE        STATIC     ATOMS    COLORGROUP SYSTEM
7 38 39 40 41 42 43 44
ATOM$RED        STATIC     ATOMS    COLORGROUP SYSTEM
1 29
