AV-unprocessed.smi:54|AV-procd|sdf|536|dock6
  -GOLD-   2262016423D 1   1.00000     0.00000
 Structure written by MMmdl.
 44 46  0  0  0  0  0  0  0  0  1 V2000
  152.8743  142.0203  161.3728 C   0  0  0  0  0  0  0  0  0  0  0  0
  152.9617  142.8597  160.0883 C   0  0  0  0  0  0  0  0  0  0  0  0
  152.2226  144.1987  160.2449 C   0  0  0  0  0  0  0  0  0  0  0  0
  152.4124  142.0717  158.8936 C   0  0  0  0  0  0  0  0  0  0  0  0
  151.5276  142.5229  158.1655 O   0  0  0  0  0  0  0  0  0  0  0  0
  153.0024  140.7605  158.6895 N   0  0  0  0  0  0  0  0  0  0  0  0
  152.6990  139.8628  157.7232 C   0  0  0  0  0  0  0  0  0  0  0  0
  151.8063  140.0935  156.7709 N   0  0  0  0  0  0  0  0  0  0  0  0
  151.6420  139.0647  155.8859 C   0  0  0  0  0  0  0  0  0  0  0  0
  152.3032  137.8544  155.8969 C   0  0  0  0  0  0  0  0  0  0  0  0
  151.8671  137.0610  154.8411 N   0  0  0  0  0  0  0  0  0  0  0  0
  150.9755  137.7976  154.2383 C   0  0  0  0  0  0  0  0  0  0  0  0
  150.7817  139.0322  154.8115 N   0  0  0  0  0  0  0  0  0  0  0  0
  149.8525  140.1293  154.4077 C   0  0  1  0  0  0  0  0  0  0  0  0
  149.0892  139.7014  153.3299 O   0  0  0  0  0  0  0  0  0  0  0  0
  147.8894  140.4671  153.2784 C   0  0  1  0  0  0  0  0  0  0  0  0
  146.7488  139.5388  152.8345 C   0  0  0  0  0  0  0  0  0  0  0  0
  147.1723  138.7180  151.7665 O   0  0  0  0  0  0  0  0  0  0  0  0
  147.6992  141.0625  154.6914 C   0  0  2  0  0  0  0  0  0  0  0  0
  147.8093  142.4711  154.6226 O   0  0  0  0  0  0  0  0  0  0  0  0
  148.8537  140.4940  155.5081 C   0  0  1  0  0  0  0  0  0  0  0  0
  148.4348  139.3731  156.2669 O   0  0  0  0  0  0  0  0  0  0  0  0
  153.2779  137.5927  156.9164 C   0  0  0  0  0  0  0  0  0  0  0  0
  153.9593  136.5826  157.0782 O   0  0  0  0  0  0  0  0  0  0  0  0
  153.4164  138.6689  157.8030 N   0  0  0  0  0  0  0  0  0  0  0  0
  150.4899  140.9636  154.1098 H   0  0  0  0  0  0  0  0  0  0  0  0
  148.0342  141.2541  152.5357 H   0  0  0  0  0  0  0  0  0  0  0  0
  146.7295  140.8180  155.1279 H   0  0  0  0  0  0  0  0  0  0  0  0
  149.2997  141.2215  156.1881 H   0  0  0  0  0  0  0  0  0  0  0  0
  153.4005  141.0712  161.2623 H   0  0  0  0  0  0  0  0  0  0  0  0
  151.8396  141.7984  161.6381 H   0  0  0  0  0  0  0  0  0  0  0  0
  153.3253  142.5473  162.2139 H   0  0  0  0  0  0  0  0  0  0  0  0
  154.0135  143.0774  159.8972 H   0  0  0  0  0  0  0  0  0  0  0  0
  152.2790  144.7922  159.3315 H   0  0  0  0  0  0  0  0  0  0  0  0
  152.6596  144.7927  161.0480 H   0  0  0  0  0  0  0  0  0  0  0  0
  151.1679  144.0507  160.4812 H   0  0  0  0  0  0  0  0  0  0  0  0
  153.7015  140.4822  159.3618 H   0  0  0  0  0  0  0  0  0  0  0  0
  150.4370  137.4584  153.3656 H   0  0  0  0  0  0  0  0  0  0  0  0
  146.4457  138.8944  153.6602 H   0  0  0  0  0  0  0  0  0  0  0  0
  145.8720  140.1134  152.5344 H   0  0  0  0  0  0  0  0  0  0  0  0
  147.8977  139.1402  151.3323 H   0  0  0  0  0  0  0  0  0  0  0  0
  148.1713  142.7831  155.4381 H   0  0  0  0  0  0  0  0  0  0  0  0
  148.4941  139.5947  157.1834 H   0  0  0  0  0  0  0  0  0  0  0  0
  154.0856  138.5539  158.5496 H   0  0  0  0  0  0  0  0  0  0  0  0
  1  2  1  0  0  0  0
  1 30  1  0  0  0  0
  1 31  1  0  0  0  0
  1 32  1  0  0  0  0
  2  3  1  0  0  0  0
  2  4  1  0  0  0  0
  2 33  1  0  0  0  0
  3 34  1  0  0  0  0
  3 35  1  0  0  0  0
  3 36  1  0  0  0  0
  4  5  2  0  0  0  0
  4  6  1  0  0  0  0
  6 37  1  0  0  0  0
  6  7  1  0  0  0  0
  7 25  1  0  0  0  0
  7  8  2  0  0  0  0
  8  9  1  0  0  0  0
  9 13  1  0  0  0  0
  9 10  2  0  0  0  0
 10 11  1  0  0  0  0
 10 23  1  0  0  0  0
 11 12  2  0  0  0  0
 12 13  1  0  0  0  0
 12 38  1  0  0  0  0
 13 14  1  0  0  0  0
 14 26  1  0  0  0  0
 14 21  1  0  0  0  0
 14 15  1  0  0  0  0
 15 16  1  0  0  0  0
 16 27  1  0  0  0  0
 16 17  1  0  0  0  0
 16 19  1  0  0  0  0
 17 18  1  0  0  0  0
 17 39  1  0  0  0  0
 17 40  1  0  0  0  0
 18 41  1  0  0  0  0
 19 28  1  0  0  0  0
 19 20  1  0  0  0  0
 19 21  1  0  0  0  0
 20 42  1  0  0  0  0
 21 29  1  0  0  0  0
 21 22  1  0  0  0  0
 22 43  1  0  0  0  0
 23 24  2  0  0  0  0
 23 25  1  0  0  0  0
 25 44  1  0  0  0  0
M  END
> <s_m_source_file>
AV-unprocessed.smi

> <i_m_source_file_index>
54

> <i_lp_mmshare_version>
43012

> <i_f3d_flags>
0

> <s_epik_input>
W0NIM11bQ0hdKFtDSDNdKUMoPU8pW05IXWMobjEpW25IXWMoPU8pYyhjMTIpbltjSF1uMltDQEBIXTNPW0NASF0oW0NIMl1bT0hdKVtDQEBIXShbT0hdKVtDQEhdM1tPSF0=

> <s_epik_cmdline>
J2VwaWtfcHl0aG9uJywgJy1waCcsICc3LjAnLCAnLXRuJywgJzgnLCAnLW1hJywgJzIwMCcsICctbWV0YWxfYmluZGluZycsICctaW1hZScsICc8aW5maWxlLm1hZT4nLCAnLW9tYWUnLCAnPG91dGZpbGUubWFlPic=

> <r_lp_tautomer_probability>
0.85571

> <r_epik_Ionization_Penalty>
0.0316551

> <r_epik_Ionization_Penalty_Charging>
0.0316043

> <r_epik_Ionization_Penalty_Neutral>
5.07097e-05

> <r_epik_State_Penalty>
3.15494e-07

> <r_epik_Charging_Adjusted_Penalty>
0.0316047

> <i_epik_Tot_Q>
0

> <i_epik_Tot_abs_Q>
0

> <r_epik_Metal_State_Penalty>
0.421206

> <b_epik_Metal_Only>
0

> <s_epik_Chemistry_Notes>
This compound contains an acetal/aminal-like group ( X-CH(R)-Y where X, Y are N, S, or O) that may be acid/base labile, releasing an aldehyde.

> <s_lp_Force_Field>
OPLS_2005

> <r_lp_Energy>
42.5501

> <b_lp_Chiralities_Consistent>
1

> <s_lp_Variant>
AV-unprocessed.smi:54-8

> <Gold.Version>
5.8.1

> <Gold.Id.Protein>
6NUR|6NUR_protein|mol2

> <Gold.PLP.Fitness>
46.1864

> <Gold.PLP.PLP>
-34.4137

> <Gold.PLP.part.hbond>
-5.4879

> <Gold.PLP.part.metal>
0.0000

> <Gold.PLP.part.buried>
-0.3399

> <Gold.PLP.part.nonpolar>
-35.0432

> <Gold.PLP.part.repulsive>
6.8080

> <Gold.PLP.ligand.clash>
0.0000

> <Gold.PLP.ligand.torsion>
0.2065

> <Gold.PLP.Chemscore.Hbond>
2.9500

> <Gold.PLP.Chemscore.CHOScore>
1.1025

> <Gold.PLP.Chemscore.Metal>
0.0000

> <Gold.Chemscore.Hbonds>
donor molecule, donor type, donor heavy atom, donor atom, acceptor molecule, acceptor atom, score
      L1  H    18    41       P1  7957  1.00
      L1  H    20    42       P1  8028  0.40
      P1  H 10752 10763       L1    24  0.72
      P1  H 10752 10765       L1    11  0.80
      L1  C    12    38       P1  7948  0.67
      L1  C    12    38       P1  7949  0.44

> <Gold.PLP.Chemscore.Internal.Correction>
0.0281

> <Gold.Rescore>
     Score         DG    S(hbond)    S(metal)    S(lipo)     H(rot)  DE(clash)    DE(int)     intcor
      7.30     -11.99       2.77        0.00      65.13       4.05       3.11       1.58       ----

> <Gold.Chemscore.Fitness>
7.2987

> <Gold.Chemscore.DG>
-11.9917

> <Gold.Chemscore.ZeroCoef>
-5.4800

> <Gold.Chemscore.Hbond>
2.7717

> <Gold.Chemscore.Metal>
0.0000

> <Gold.Chemscore.Lipo>
65.1316

> <Gold.Chemscore.Internal_Hbond>
0.0000

> <Gold.Chemscore.DEClash>
3.1095

> <Gold.Chemscore.DEInternal>
1.5834

> <Gold.Chemscore.Rot>
4.0493

> <Gold.Chemscore.Internal.Correction>
   9.000000E+99

> <Gold.Chemscore.Hbonds>
donor molecule, donor type, donor heavy atom, donor atom, acceptor molecule, acceptor atom, score
      L1  H    18    41       P1  7957  0.78
      L1  H    20    42       P1  8028  0.36
      P1  H 10752 10763       L1    24  0.63
      P1  H 10752 10765       L1    11  0.78

> <Gold.Chemscore.Hbond.Weighted>
-9.2575

> <Gold.Chemscore.Metal.Weighted>
-0.0000

> <Gold.Chemscore.Lipo.Weighted>
-7.6204

> <Gold.Chemscore.Internal_Hbond.Weighted>
0.0000

> <Gold.Chemscore.DEClash.Weighted>
3.1095

> <Gold.Chemscore.DEInternal.Weighted>
1.5834

> <Gold.Chemscore.Rot.Weighted>
10.3662

> <Gold.Chemscore.Internal.Correction.Weighted>
   9.000000E+99

> <Gold.Protein.RotatedTorsions>
[ 6907 6896 6895 6894 ] final   23.57 input  -60.11 | X-H torsion
[ 7974 7965 7964 7962 ] final   36.78 input  175.53 | X-H torsion
[ 8008 7997 7996 7995 ] final   63.17 input   59.86 | X-H torsion
[ 10167 10162 10161 10158 ] final   14.19 input  -65.29 | X-H torsion
[ 10718 10713 10712 10709 ] final   -3.53 input   66.30 | X-H torsion
[ 10763 10752 10751 10750 ] final  151.46 input  -60.55 | X-H torsion
[ 11005 11000 10999 10996 ] final -135.22 input  -57.11 | X-H torsion

> <Gold.Protein.ActiveResidues>
 VAL166  LYS551  ARG553  GLY616  TRP617  ASP618  TYR619  PRO620  LYS621  CYS622 
 ASP623  PHE694  ASN695  SER759  ASP760  ASP761  ALA762  ILE779  LEU786  VAL792 
 PHE793  MET794  SER795  GLU796  ALA797  LYS798  CYS799  TRP800  GLU811  SER814 

> <Gold.Protein.RotatedAtoms>
  151.9444  135.0198  160.0537 H   0  0  0  0  0  0  0  0  0  0  0  0  # atno 6907 bound_to 6896
  152.2008  133.4835  159.5066 H   0  0  0  0  0  0  0  0  0  0  0  0  # atno 6908 bound_to 6896
  150.6954  134.1510  159.4183 H   0  0  0  0  0  0  0  0  0  0  0  0  # atno 6909 bound_to 6896
  146.1186  139.5974  142.9305 H   0  0  0  0  0  0  0  0  0  0  0  0  # atno 7974 bound_to 7965
  155.6259  140.3496  155.4667 H   0  0  0  0  0  0  0  0  0  0  0  0  # atno 8008 bound_to 7997
  156.0042  140.1219  157.0542 H   0  0  0  0  0  0  0  0  0  0  0  0  # atno 8009 bound_to 7997
  154.4259  140.1094  156.5725 H   0  0  0  0  0  0  0  0  0  0  0  0  # atno 8010 bound_to 7997
  140.5952  143.8715  150.6911 H   0  0  0  0  0  0  0  0  0  0  0  0  # atno 10167 bound_to 10162
  156.7747  130.5311  149.5761 H   0  0  0  0  0  0  0  0  0  0  0  0  # atno 10718 bound_to 10713
  154.1042  135.2843  155.3245 H   0  0  0  0  0  0  0  0  0  0  0  0  # atno 10763 bound_to 10752
  154.6535  135.5360  153.7933 H   0  0  0  0  0  0  0  0  0  0  0  0  # atno 10764 bound_to 10752
  153.0368  135.6516  154.1204 H   0  0  0  0  0  0  0  0  0  0  0  0  # atno 10765 bound_to 10752
  140.8918  134.1801  157.4522 H   0  0  0  0  0  0  0  0  0  0  0  0  # atno 11005 bound_to 11000
  145.5514  141.0413  143.2276 LP  0  0  0  0  0  0  0  0  0  0  0  0  # atno 17320 bound_to 7965
  144.7576  139.7037  143.7248 LP  0  0  0  0  0  0  0  0  0  0  0  0  # atno 17321 bound_to 7965
  140.2248  143.3781  152.1614 LP  0  0  0  0  0  0  0  0  0  0  0  0  # atno 17342 bound_to 10162
  139.5254  144.7095  151.5251 LP  0  0  0  0  0  0  0  0  0  0  0  0  # atno 17343 bound_to 10162
  156.1256  130.6141  151.0258 LP  0  0  0  0  0  0  0  0  0  0  0  0  # atno 17370 bound_to 10713
  157.6674  131.0868  150.7694 LP  0  0  0  0  0  0  0  0  0  0  0  0  # atno 17371 bound_to 10713
  139.8730  134.9862  156.5313 LP  0  0  0  0  0  0  0  0  0  0  0  0  # atno 17394 bound_to 11000
  140.8337  133.8259  155.9008 LP  0  0  0  0  0  0  0  0  0  0  0  0  # atno 17395 bound_to 11000

$$$$
