#       Name:                AV-unprocessed.smi:2291
#       Creating user name   scv26
#       Creation time:       Fri Mar 27 12:43:13 2020


#       File generated by GOLD software.
#

@<TRIPOS>MOLECULE
AV-unprocessed.smi:2291
    49    51     1
SMALL
NO_CHARGES


@<TRIPOS>ATOM
      1 ****        -0.1989   0.8423  -1.6813 O.2            1 S1                 0.0000
      2 ****        -0.9145   1.2613  -0.7706 C.2            1 S1                 0.0000
      3 ****        -1.3842   2.5169  -0.6682 N.am           1 S1                 0.0000
      4 ****        -1.1494   3.6153  -1.5375 C.ar           1 S1                 0.0000
      5 ****        -1.7423   4.8336  -1.1352 C.ar           1 S1                 0.0000
      6 ****        -1.5655   5.9853  -1.9263 C.ar           1 S1                 0.0000
      7 ****        -0.8000   5.8868  -3.1019 C.ar           1 S1                 0.0000
      8 ****        -0.5469   7.2632  -4.1108 Cl             1 S1                 0.0000
      9 ****        -0.2459   4.6364  -3.4329 C.ar           1 S1                 0.0000
     10 ****        -0.4145   3.5320  -2.6751 N.ar           1 S1                 0.0000
     11 ****        -1.3228   0.5060   0.2643 N.am           1 S1                 0.0000
     12 ****        -0.9824  -0.8984   0.5321 C.3            1 S1                 0.0000
     13 ****         0.5234  -1.0015   0.8996 C.2            1 S1                 0.0000
     14 ****         0.9259  -0.4878   1.9447 O.2            1 S1                 0.0000
     15 ****         1.3525  -1.6211   0.0440 N.am           1 S1                 0.0000
     16 ****         2.7889  -1.7750   0.2295 C.3            1 S1                 0.0000
     17 ****         3.1942  -2.8430   1.2273 C.3            1 S1                 0.0000
     18 ****         3.5222  -2.4913   2.6603 C.3            1 S1                 0.0000
     19 ****         4.6203  -2.9243   1.7198 C.3            1 S1                 0.0000
     20 ****        -1.8489  -1.3953   1.7284 C.3            1 S1                 0.0000
     21 ****        -2.7126  -2.5580   1.2271 C.3            1 S1                 0.0000
     22 ****        -1.9890  -3.0806  -0.0058 C.3            1 S1                 0.0000
     23 ****        -1.4333  -1.8132  -0.6466 C.3            1 S1                 0.0000
     24 ****        -1.9604   2.7156   0.1361 H              1 S1                 0.0000
     25 ****        -2.3261   4.8910  -0.2278 H              1 S1                 0.0000
     26 ****        -2.0092   6.9255  -1.6339 H              1 S1                 0.0000
     27 ****         0.3479   4.5178  -4.3272 H              1 S1                 0.0000
     28 ****        -1.9064   0.9519   0.9564 H              1 S1                 0.0000
     29 ****         0.9582  -2.0010  -0.8046 H              1 S1                 0.0000
     30 ****         3.2177  -2.0350  -0.7385 H              1 S1                 0.0000
     31 ****         3.2323  -0.8185   0.5120 H              1 S1                 0.0000
     32 ****         2.7030  -3.8009   1.0660 H              1 S1                 0.0000
     33 ****         3.4904  -1.4415   2.9459 H              1 S1                 0.0000
     34 ****         3.2102  -3.1929   3.4310 H              1 S1                 0.0000
     35 ****         5.0458  -3.9150   1.8660 H              1 S1                 0.0000
     36 ****         5.3190  -2.1620   1.3801 H              1 S1                 0.0000
     37 ****        -1.2376  -1.7572   2.5570 H              1 S1                 0.0000
     38 ****        -2.4803  -0.6093   2.1457 H              1 S1                 0.0000
     39 ****        -2.8596  -3.3288   1.9843 H              1 S1                 0.0000
     40 ****        -3.6967  -2.1849   0.9402 H              1 S1                 0.0000
     41 ****        -1.1712  -3.7395   0.2896 H              1 S1                 0.0000
     42 ****        -2.6465  -3.6368  -0.6745 H              1 S1                 0.0000
     43 ****        -2.2433  -1.3341  -1.1996 H              1 S1                 0.0000
     44 ****        -0.6653  -2.0348  -1.3873 H              1 S1                 0.0000
     45 ****         0.0767   1.4543  -2.4226 LP             1 S1                 0.0000
     46 ****         0.1066  -0.1099  -1.6794 LP             1 S1                 0.0000
     47 ****        -0.0026   2.6629  -2.9489 LP             1 S1                 0.0000
     48 ****         0.2854  -0.0106   2.5463 LP             1 S1                 0.0000
     49 ****         1.8932  -0.5480   2.1912 LP             1 S1                 0.0000
@<TRIPOS>BOND
    1    1    2 2     
    2    2    3 am    
    3    2   11 am    
    4    3    4 1     
    5    3   24 1     
    6    4   10 ar    
    7    4    5 ar    
    8    5    6 ar    
    9    5   25 1     
   10    6    7 ar    
   11    6   26 1     
   12    7    8 1     
   13    7    9 ar    
   14    9   10 ar    
   15    9   27 1     
   16   11   12 1     
   17   11   28 1     
   18   12   23 1     
   19   12   13 1     
   20   12   20 1     
   21   13   14 2     
   22   13   15 am    
   23   15   16 1     
   24   15   29 1     
   25   16   17 1     
   26   16   30 1     
   27   16   31 1     
   28   17   19 1     
   29   17   18 1     
   30   17   32 1     
   31   18   19 1     
   32   18   33 1     
   33   18   34 1     
   34   19   35 1     
   35   19   36 1     
   36   20   21 1     
   37   20   37 1     
   38   20   38 1     
   39   21   22 1     
   40   21   39 1     
   41   21   40 1     
   42   22   23 1     
   43   22   41 1     
   44   22   42 1     
   45   23   43 1     
   46   23   44 1     
   47    1   45 1     
   48    1   46 1     
   49   10   47 1     
   50   14   48 1     
   51   14   49 1     
@<TRIPOS>SUBSTRUCTURE
      1 S1             1
@<TRIPOS>SET
LONE_PAIRS      STATIC     ATOMS    <user>   **** ""
5 45 46 47 48 49
DONOR_HYDROGENS      STATIC     ATOMS    <user>   **** ""
3 24 28 29
ATOM$BLUE        STATIC     ATOMS    COLORGROUP SYSTEM
5 45 46 47 48 49
ATOM$RED        STATIC     ATOMS    COLORGROUP SYSTEM
3 24 28 29
