#       Name:                AV-unprocessed.smi:1830
#       Creating user name   scv26
#       Creation time:       Fri Mar 27 09:11:55 2020


#       File generated by GOLD software.
#

@<TRIPOS>MOLECULE
AV-unprocessed.smi:1830
    59    62     1
SMALL
NO_CHARGES


@<TRIPOS>ATOM
      1 ****         0.0687   2.6666   1.1188 O.2            1 S1                 0.0000
      2 ****        -0.3247   1.5171   1.3163 C.2            1 S1                 0.0000
      3 ****         0.4854   0.4502   1.3309 N.am           1 S1                 0.0000
      4 ****         1.9242   0.4899   1.0968 C.3            1 S1                 0.0000
      5 ****         2.2576   0.6303  -0.4058 C.3            1 S1                 0.0000
      6 ****         3.7797   0.6851  -0.6831 C.3            1 S1                 0.0000
      7 ****         4.3456  -0.6693  -0.5387 N.4            1 S1                 1.0000
      8 ****         5.7915  -0.8457  -0.7588 C.3            1 S1                 0.0000
      9 ****         5.9555  -2.3312  -1.1373 C.3            1 S1                 0.0000
     10 ****         4.5267  -2.8857  -1.2819 C.3            1 S1                 0.0000
     11 ****         3.6789  -1.6255  -1.4250 C.3            1 S1                 0.0000
     12 ****         2.1956  -1.7095  -1.0478 C.3            1 S1                 0.0000
     13 ****         1.6323  -0.4023  -1.1848 O.3            1 S1                 0.0000
     14 ****        -1.6025   1.1577   1.5188 N.am           1 S1                 0.0000
     15 ****        -2.7585   1.9862   1.4885 C.ar           1 S1                 0.0000
     16 ****        -2.7266   3.3167   1.9726 C.ar           1 S1                 0.0000
     17 ****        -3.9114   4.0724   1.9892 C.ar           1 S1                 0.0000
     18 ****        -5.0936   3.4644   1.5353 C.ar           1 S1                 0.0000
     19 ****        -5.1429   2.1955   1.0832 N.ar           1 S1                 0.0000
     20 ****        -4.0056   1.4583   1.0469 C.ar           1 S1                 0.0000
     21 ****        -4.1123   0.1410   0.5445 N.3            1 S1                 0.0000
     22 ****        -5.4202  -0.4861   0.3849 C.3            1 S1                 0.0000
     23 ****        -5.1722  -1.6915  -0.5171 C.3            1 S1                 0.0000
     24 ****        -4.0896  -1.1752  -1.4599 C.3            1 S1                 0.0000
     25 ****        -3.2609  -0.2313  -0.5818 C.3            1 S1                 0.0000
     26 ****         0.0737  -0.4563   1.4994 H              1 S1                 0.0000
     27 ****         2.3630   1.3173   1.6569 H              1 S1                 0.0000
     28 ****         2.3621  -0.4169   1.5129 H              1 S1                 0.0000
     29 ****         1.8328   1.5738  -0.7503 H              1 S1                 0.0000
     30 ****         3.9630   1.0482  -1.6955 H              1 S1                 0.0000
     31 ****         4.2763   1.3751  -0.0002 H              1 S1                 0.0000
     32 ****         6.1241  -0.2108  -1.5814 H              1 S1                 0.0000
     33 ****         6.3595  -0.5744   0.1314 H              1 S1                 0.0000
     34 ****         6.5040  -2.4212  -2.0756 H              1 S1                 0.0000
     35 ****         6.5115  -2.8819  -0.3777 H              1 S1                 0.0000
     36 ****         4.4189  -3.5650  -2.1281 H              1 S1                 0.0000
     37 ****         4.2471  -3.4277  -0.3772 H              1 S1                 0.0000
     38 ****         3.7656  -1.2676  -2.4535 H              1 S1                 0.0000
     39 ****         1.6716  -2.3927  -1.7164 H              1 S1                 0.0000
     40 ****         2.0598  -2.0885  -0.0345 H              1 S1                 0.0000
     41 ****        -1.7841   0.1663   1.5757 H              1 S1                 0.0000
     42 ****        -1.8186   3.7601   2.3529 H              1 S1                 0.0000
     43 ****        -3.9156   5.0888   2.3543 H              1 S1                 0.0000
     44 ****        -6.0264   4.0086   1.5402 H              1 S1                 0.0000
     45 ****        -5.8410  -0.7793   1.3472 H              1 S1                 0.0000
     46 ****        -6.1197   0.1936  -0.1034 H              1 S1                 0.0000
     47 ****        -4.7883  -2.5266   0.0706 H              1 S1                 0.0000
     48 ****        -6.0704  -2.0247  -1.0374 H              1 S1                 0.0000
     49 ****        -3.4936  -1.9735  -1.9029 H              1 S1                 0.0000
     50 ****        -4.5514  -0.6103  -2.2710 H              1 S1                 0.0000
     51 ****        -2.9206   0.6391  -1.1449 H              1 S1                 0.0000
     52 ****        -2.3826  -0.7540  -0.2024 H              1 S1                 0.0000
     53 ****         4.1604  -0.9760   0.4057 H              1 S1                 0.0000
     54 ****         1.0399   2.8419   0.9579 LP             1 S1                 0.0000
     55 ****        -0.5830   3.4251   1.1193 LP             1 S1                 0.0000
     56 ****         1.6940  -0.1406  -2.1479 LP             1 S1                 0.0000
     57 ****         0.6710  -0.4521  -0.9139 LP             1 S1                 0.0000
     58 ****        -6.0098   1.8017   0.7776 LP             1 S1                 0.0000
     59 ****        -3.7334  -0.2527   1.3820 LP             1 S1                 0.0000
@<TRIPOS>BOND
    1    1    2 2     
    2    2    3 am    
    3    2   14 am    
    4    3    4 1     
    5    3   26 1     
    6    4    5 1     
    7    4   27 1     
    8    4   28 1     
    9    5   13 1     
   10    5    6 1     
   11    5   29 1     
   12    6    7 1     
   13    6   30 1     
   14    6   31 1     
   15    7   11 1     
   16    7    8 1     
   17    7   53 1     
   18    8    9 1     
   19    8   32 1     
   20    8   33 1     
   21    9   10 1     
   22    9   34 1     
   23    9   35 1     
   24   10   11 1     
   25   10   36 1     
   26   10   37 1     
   27   11   12 1     
   28   11   38 1     
   29   12   13 1     
   30   12   39 1     
   31   12   40 1     
   32   14   15 1     
   33   14   41 1     
   34   15   20 ar    
   35   15   16 ar    
   36   16   17 ar    
   37   16   42 1     
   38   17   18 ar    
   39   17   43 1     
   40   18   19 ar    
   41   18   44 1     
   42   19   20 ar    
   43   20   21 1     
   44   21   25 1     
   45   21   22 1     
   46   22   23 1     
   47   22   45 1     
   48   22   46 1     
   49   23   24 1     
   50   23   47 1     
   51   23   48 1     
   52   24   25 1     
   53   24   49 1     
   54   24   50 1     
   55   25   51 1     
   56   25   52 1     
   57    1   54 1     
   58    1   55 1     
   59   13   56 1     
   60   13   57 1     
   61   19   58 1     
   62   21   59 1     
@<TRIPOS>SUBSTRUCTURE
      1 S1             1
@<TRIPOS>SET
LONE_PAIRS      STATIC     ATOMS    <user>   **** ""
6 54 55 56 57 58 59
DONOR_HYDROGENS      STATIC     ATOMS    <user>   **** ""
3 26 53 41
ATOM$BLUE        STATIC     ATOMS    COLORGROUP SYSTEM
6 54 55 56 57 58 59
ATOM$RED        STATIC     ATOMS    COLORGROUP SYSTEM
3 26 53 41
