AV-unprocessed.smi:290|AV-procd|sdf|2220|dock8
  -GOLD-   2262022 63D 1   1.00000     0.00000
 Structure written by MMmdl.
 59 62  0  0  0  0  0  0  0  0  2 V2000
  151.3273  144.6484  158.6320 C   0  0  0  0  0  0  0  0  0  0  0  0
  151.7694  143.2365  158.2140 C   0  0  1  0  0  0  0  0  0  0  0  0
  152.1952  142.4939  159.3479 O   0  0  0  0  0  0  0  0  0  0  0  0
  152.1736  141.1258  158.9835 C   0  0  0  0  0  0  0  0  0  0  0  0
  150.8490  141.0018  158.2419 C   0  0  0  0  0  0  0  0  0  0  0  0
  150.7087  142.3428  157.5160 C   0  0  1  0  0  0  0  0  0  0  0  0
  149.3913  142.8232  157.7268 O   0  0  0  0  0  0  0  0  0  0  0  0
  150.9412  142.2023  155.9911 C   0  0  0  0  0  0  0  0  0  0  0  0
  150.1796  141.1215  155.3834 N   0  0  0  0  0  0  0  0  0  0  0  0
  150.5703  139.8074  155.2495 C   0  0  0  0  0  0  0  0  0  0  0  0
  149.7075  139.0252  154.6598 N   0  0  0  0  0  0  0  0  0  0  0  0
  148.6373  139.8629  154.3761 C   0  0  0  0  0  0  0  0  0  0  0  0
  147.3754  139.6719  153.7570 C   0  0  0  0  0  0  0  0  0  0  0  0
  146.9895  138.4610  153.2939 N   0  0  0  0  0  0  0  0  0  0  0  0
  146.4649  138.4694  151.9415 C   0  0  0  0  0  0  0  0  0  0  0  0
  145.7427  137.1330  151.7773 C   0  0  0  0  0  0  0  0  0  0  0  0
  145.5163  136.5930  153.2055 C   0  0  2  0  0  0  0  0  0  0  0  0
  144.0974  136.1580  153.4048 N   0  3  1  0  0  0  0  0  0  0  0  0
  143.1550  137.2767  153.1404 C   0  0  0  0  0  0  0  0  0  0  0  0
  143.7044  134.9076  152.6934 C   0  0  0  0  0  0  0  0  0  0  0  0
  142.2779  134.4262  153.0201 C   0  0  0  0  0  0  0  0  0  0  0  0
  142.1422  134.1988  154.4075 O   0  0  0  0  0  0  0  0  0  0  0  0
  146.0214  137.7421  154.1130 C   0  0  1  0  0  0  0  0  0  0  0  0
  146.6814  137.2659  155.4260 C   0  0  0  0  0  0  0  0  0  0  0  0
  146.5457  140.7441  153.6565 N   0  0  0  0  0  0  0  0  0  0  0  0
  146.9334  141.9328  154.1299 C   0  0  0  0  0  0  0  0  0  0  0  0
  148.0808  142.2592  154.7293 N   0  0  0  0  0  0  0  0  0  0  0  0
  148.9122  141.1822  154.8307 C   0  0  0  0  0  0  0  0  0  0  0  0
  146.1688  135.7306  153.3552 H   0  0  0  0  0  0  0  0  0  0  0  0
  145.1951  138.4189  154.3362 H   0  0  0  0  0  0  0  0  0  0  0  0
  150.9810  145.2230  157.7725 H   0  0  0  0  0  0  0  0  0  0  0  0
  152.1558  145.1945  159.0829 H   0  0  0  0  0  0  0  0  0  0  0  0
  150.5199  144.6149  159.3640 H   0  0  0  0  0  0  0  0  0  0  0  0
  152.6463  143.3254  157.5714 H   0  0  0  0  0  0  0  0  0  0  0  0
  153.0153  140.9038  158.3252 H   0  0  0  0  0  0  0  0  0  0  0  0
  152.2326  140.4739  159.8551 H   0  0  0  0  0  0  0  0  0  0  0  0
  150.8246  140.1388  157.5754 H   0  0  0  0  0  0  0  0  0  0  0  0
  150.0512  140.8687  158.9747 H   0  0  0  0  0  0  0  0  0  0  0  0
  149.1794  143.4333  157.0369 H   0  0  0  0  0  0  0  0  0  0  0  0
  150.6762  143.1312  155.4841 H   0  0  0  0  0  0  0  0  0  0  0  0
  151.9987  142.0341  155.7820 H   0  0  0  0  0  0  0  0  0  0  0  0
  151.5250  139.4435  155.6009 H   0  0  0  0  0  0  0  0  0  0  0  0
  145.7629  139.2928  151.8002 H   0  0  0  0  0  0  0  0  0  0  0  0
  147.2671  138.5824  151.2114 H   0  0  0  0  0  0  0  0  0  0  0  0
  144.8142  137.2802  151.2237 H   0  0  0  0  0  0  0  0  0  0  0  0
  146.3551  136.4334  151.2070 H   0  0  0  0  0  0  0  0  0  0  0  0
  143.0740  137.4728  152.0705 H   0  0  0  0  0  0  0  0  0  0  0  0
  143.4753  138.1999  153.6223 H   0  0  0  0  0  0  0  0  0  0  0  0
  142.1599  137.0640  153.5277 H   0  0  0  0  0  0  0  0  0  0  0  0
  143.8064  135.0591  151.6179 H   0  0  0  0  0  0  0  0  0  0  0  0
  144.3703  134.0906  152.9641 H   0  0  0  0  0  0  0  0  0  0  0  0
  141.5133  135.1225  152.6787 H   0  0  0  0  0  0  0  0  0  0  0  0
  142.0821  133.4858  152.5041 H   0  0  0  0  0  0  0  0  0  0  0  0
  142.0891  133.2671  154.5592 H   0  0  0  0  0  0  0  0  0  0  0  0
  146.0117  136.6732  156.0455 H   0  0  0  0  0  0  0  0  0  0  0  0
  147.0082  138.1112  156.0324 H   0  0  0  0  0  0  0  0  0  0  0  0
  147.5596  136.6522  155.2228 H   0  0  0  0  0  0  0  0  0  0  0  0
  146.2231  142.7378  154.0121 H   0  0  0  0  0  0  0  0  0  0  0  0
  144.0173  135.9414  154.3884 H   0  0  0  0  0  0  0  0  0  0  0  0
  1  2  1  0  0  0  0
  1 31  1  0  0  0  0
  1 32  1  0  0  0  0
  1 33  1  0  0  0  0
  2  6  1  0  0  0  0
  2  3  1  0  0  0  0
  2 34  1  0  0  0  0
  3  4  1  0  0  0  0
  4  5  1  0  0  0  0
  4 35  1  0  0  0  0
  4 36  1  0  0  0  0
  5  6  1  0  0  0  0
  5 37  1  0  0  0  0
  5 38  1  0  0  0  0
  6  7  1  0  0  0  0
  6  8  1  0  0  0  0
  7 39  1  0  0  0  0
  8  9  1  0  0  0  0
  8 40  1  0  0  0  0
  8 41  1  0  0  0  0
  9 28  1  0  0  0  0
  9 10  1  0  0  0  0
 10 11  2  0  0  0  0
 10 42  1  0  0  0  0
 11 12  1  0  0  0  0
 12 28  2  0  0  0  0
 12 13  1  0  0  0  0
 13 14  1  0  0  0  0
 13 25  2  0  0  0  0
 14 23  1  0  0  0  0
 14 15  1  0  0  0  0
 15 16  1  0  0  0  0
 15 43  1  0  0  0  0
 15 44  1  0  0  0  0
 16 17  1  0  0  0  0
 16 45  1  0  0  0  0
 16 46  1  0  0  0  0
 17 29  1  0  0  0  0
 17 18  1  0  0  0  0
 17 23  1  0  0  0  0
 18 19  1  0  0  0  0
 18 20  1  0  0  0  0
 18 59  1  0  0  0  0
 19 47  1  0  0  0  0
 19 48  1  0  0  0  0
 19 49  1  0  0  0  0
 20 21  1  0  0  0  0
 20 50  1  0  0  0  0
 20 51  1  0  0  0  0
 21 22  1  0  0  0  0
 21 52  1  0  0  0  0
 21 53  1  0  0  0  0
 22 54  1  0  0  0  0
 23 30  1  0  0  0  0
 23 24  1  0  0  0  0
 24 55  1  0  0  0  0
 24 56  1  0  0  0  0
 24 57  1  0  0  0  0
 25 26  1  0  0  0  0
 26 27  2  0  0  0  0
 26 58  1  0  0  0  0
 27 28  1  0  0  0  0
M  CHG  1  18   1
M  END
> <s_m_source_file>
AV-unprocessed.smi

> <i_m_source_file_index>
290

> <i_lp_mmshare_version>
43012

> <i_f3d_flags>
0

> <s_epik_input>
W0NIMl0xW0NIMl1PW0NAQEhdKFtDSDNdKVtDQEBdMShbT0hdKVtDSDJdbihbY0hdbjIpYyhjMjMpbltjSF1uYzNONFtDSDJdW0NIMl1bQ0BIXShbQ0BIXTRbQ0gzXSlOKFtDSDNdKVtDSDJdW0NIMl1bT0hd

> <s_epik_cmdline>
J2VwaWtfcHl0aG9uJywgJy1waCcsICc3LjAnLCAnLXRuJywgJzgnLCAnLW1hJywgJzIwMCcsICctbWV0YWxfYmluZGluZycsICctaW1hZScsICc8aW5maWxlLm1hZT4nLCAnLW9tYWUnLCAnPG91dGZpbGUubWFlPic=

> <r_lp_tautomer_probability>
1

> <r_epik_Ionization_Penalty>
0.0036983

> <r_epik_Ionization_Penalty_Charging>
0.0032725

> <r_epik_Ionization_Penalty_Neutral>
0.000425798

> <r_epik_State_Penalty>
-0

> <r_epik_Charging_Adjusted_Penalty>
0.0032725

> <i_epik_Tot_Q>
1

> <i_epik_Tot_abs_Q>
1

> <r_epik_Metal_State_Penalty>
-0

> <b_epik_Metal_Only>
0

> <s_lp_Force_Field>
OPLS_2005

> <r_lp_Energy>
65.0723

> <b_lp_Chiralities_Consistent>
1

> <s_lp_Variant>
AV-unprocessed.smi:290-6

> <Gold.Version>
5.8.1

> <Gold.Id.Protein>
6NUR|6NUR_protein|mol2

> <Gold.PLP.Fitness>
48.4757

> <Gold.PLP.PLP>
-43.9682

> <Gold.PLP.part.hbond>
-3.1301

> <Gold.PLP.part.metal>
0.0000

> <Gold.PLP.part.buried>
-6.5918

> <Gold.PLP.part.nonpolar>
-38.5240

> <Gold.PLP.part.repulsive>
3.1758

> <Gold.PLP.ligand.clash>
0.0000

> <Gold.PLP.ligand.torsion>
0.8575

> <Gold.PLP.Chemscore.Hbond>
2.0000

> <Gold.PLP.Chemscore.CHOScore>
0.0000

> <Gold.PLP.Chemscore.Metal>
0.0000

> <Gold.Chemscore.Hbonds>
donor molecule, donor type, donor heavy atom, donor atom, acceptor molecule, acceptor atom, score
      L1  H     7    39       P1  8028  1.00
      L1  H    22    54       P1 10957  1.00

> <Gold.PLP.Chemscore.Internal.Correction>
0.2226

> <Gold.Rescore>
     Score         DG    S(hbond)    S(metal)    S(lipo)     H(rot)  DE(clash)    DE(int)     intcor
     10.44     -13.74       1.94        0.00      95.54       3.67       2.50       0.80       ----

> <Gold.Chemscore.Fitness>
10.4394

> <Gold.Chemscore.DG>
-13.7445

> <Gold.Chemscore.ZeroCoef>
-5.4800

> <Gold.Chemscore.Hbond>
1.9374

> <Gold.Chemscore.Metal>
0.0000

> <Gold.Chemscore.Lipo>
95.5375

> <Gold.Chemscore.Internal_Hbond>
0.0000

> <Gold.Chemscore.DEClash>
2.5033

> <Gold.Chemscore.DEInternal>
0.8018

> <Gold.Chemscore.Rot>
3.6658

> <Gold.Chemscore.Internal.Correction>
   9.000000E+99

> <Gold.Chemscore.Hbonds>
donor molecule, donor type, donor heavy atom, donor atom, acceptor molecule, acceptor atom, score
      L1  H     7    39       P1  8028  0.78
      L1  H    22    54       P1 10957  0.98

> <Gold.Chemscore.Hbond.Weighted>
-6.4710

> <Gold.Chemscore.Metal.Weighted>
-0.0000

> <Gold.Chemscore.Lipo.Weighted>
-11.1779

> <Gold.Chemscore.Internal_Hbond.Weighted>
0.0000

> <Gold.Chemscore.DEClash.Weighted>
2.5033

> <Gold.Chemscore.DEInternal.Weighted>
0.8018

> <Gold.Chemscore.Rot.Weighted>
9.3844

> <Gold.Chemscore.Internal.Correction.Weighted>
   9.000000E+99

> <Gold.Protein.RotatedTorsions>
[ 6907 6896 6895 6894 ] final  -91.78 input  -60.11 | X-H torsion
[ 7974 7965 7964 7962 ] final   50.51 input  175.53 | X-H torsion
[ 8008 7997 7996 7995 ] final -111.65 input   59.86 | X-H torsion
[ 10167 10162 10161 10158 ] final  -40.95 input  -65.29 | X-H torsion
[ 10718 10713 10712 10709 ] final  -29.26 input   66.30 | X-H torsion
[ 10763 10752 10751 10750 ] final   53.42 input  -60.55 | X-H torsion
[ 11005 11000 10999 10996 ] final  -91.74 input  -57.11 | X-H torsion

> <Gold.Protein.ActiveResidues>
 VAL166  LYS551  ARG553  GLY616  TRP617  ASP618  TYR619  PRO620  LYS621  CYS622 
 ASP623  PHE694  ASN695  SER759  ASP760  ASP761  ALA762  ILE779  LEU786  VAL792 
 PHE793  MET794  SER795  GLU796  ALA797  LYS798  CYS799  TRP800  GLU811  SER814 

> <Gold.Protein.RotatedAtoms>
  150.6897  134.2224  159.4401 H   0  0  0  0  0  0  0  0  0  0  0  0  # atno 6907 bound_to 6896
  152.0179  134.9837  160.0579 H   0  0  0  0  0  0  0  0  0  0  0  0  # atno 6908 bound_to 6896
  152.1425  133.4438  159.4811 H   0  0  0  0  0  0  0  0  0  0  0  0  # atno 6909 bound_to 6896
  146.0005  139.4434  143.0018 H   0  0  0  0  0  0  0  0  0  0  0  0  # atno 7974 bound_to 7965
  154.9931  140.0395  157.2328 H   0  0  0  0  0  0  0  0  0  0  0  0  # atno 8008 bound_to 7997
  154.7611  140.2784  155.6191 H   0  0  0  0  0  0  0  0  0  0  0  0  # atno 8009 bound_to 7997
  156.2904  140.2628  156.2389 H   0  0  0  0  0  0  0  0  0  0  0  0  # atno 8010 bound_to 7997
  140.7018  143.3123  151.2998 H   0  0  0  0  0  0  0  0  0  0  0  0  # atno 10167 bound_to 10162
  156.4147  130.4415  149.7227 H   0  0  0  0  0  0  0  0  0  0  0  0  # atno 10718 bound_to 10713
  152.9795  135.5779  154.4739 H   0  0  0  0  0  0  0  0  0  0  0  0  # atno 10763 bound_to 10752
  154.4297  135.2773  155.1922 H   0  0  0  0  0  0  0  0  0  0  0  0  # atno 10764 bound_to 10752
  154.3636  135.6183  153.5757 H   0  0  0  0  0  0  0  0  0  0  0  0  # atno 10765 bound_to 10752
  141.1538  133.7775  156.9921 H   0  0  0  0  0  0  0  0  0  0  0  0  # atno 11005 bound_to 11000
  145.7495  140.9978  143.1258 LP  0  0  0  0  0  0  0  0  0  0  0  0  # atno 17320 bound_to 7965
  144.6918  139.9197  143.7467 LP  0  0  0  0  0  0  0  0  0  0  0  0  # atno 17321 bound_to 7965
  139.6550  144.0293  152.2653 LP  0  0  0  0  0  0  0  0  0  0  0  0  # atno 17342 bound_to 10162
  139.9842  144.6407  150.7873 LP  0  0  0  0  0  0  0  0  0  0  0  0  # atno 17343 bound_to 10162
  156.4191  130.7760  151.2776 LP  0  0  0  0  0  0  0  0  0  0  0  0  # atno 17370 bound_to 10713
  157.7507  131.0188  150.3641 LP  0  0  0  0  0  0  0  0  0  0  0  0  # atno 17371 bound_to 10713
  140.0995  134.9544  157.1902 LP  0  0  0  0  0  0  0  0  0  0  0  0  # atno 17394 bound_to 11000
  140.3337  134.2781  155.7223 LP  0  0  0  0  0  0  0  0  0  0  0  0  # atno 17395 bound_to 11000

$$$$
