#       Name:                AV-unprocessed.smi:268
#       Creating user name   scv26
#       Creation time:       Thu Mar 26 21:25:55 2020


#       File generated by GOLD software.
#

@<TRIPOS>MOLECULE
AV-unprocessed.smi:268
    60    63     1
SMALL
NO_CHARGES


@<TRIPOS>ATOM
      1 ****        -3.3988  -4.5072   0.2968 C.3            1 S1                 0.0000
      2 ****        -4.7624  -3.8196   0.1481 C.3            1 S1                 0.0000
      3 ****        -4.6641  -2.4019   0.1811 O.3            1 S1                 0.0000
      4 ****        -4.1658  -1.8145  -1.0124 C.3            1 S1                 0.0000
      5 ****        -2.6474  -1.5847  -1.0290 C.3            1 S1                 0.0000
      6 ****        -2.9330  -0.2094  -1.6572 C.3            1 S1                 0.0000
      7 ****        -2.0956   0.8746  -1.1377 N.3            1 S1                 0.0000
      8 ****        -2.5842   2.2390  -1.3106 C.3            1 S1                 0.0000
      9 ****        -0.7474   0.7696  -1.2741 C.ar           1 S1                 0.0000
     10 ****        -0.2198  -0.0475  -2.2254 N.ar           1 S1                 0.0000
     11 ****         1.1042  -0.1474  -2.3730 C.ar           1 S1                 0.0000
     12 ****         2.0686   0.4705  -1.6889 N.ar           1 S1                 0.0000
     13 ****         1.5476   1.2928  -0.7340 C.ar           1 S1                 0.0000
     14 ****         0.1658   1.5023  -0.4637 C.ar           1 S1                 0.0000
     15 ****         0.0222   2.4061   0.5825 N.2            1 S1                 0.0000
     16 ****         1.2474   2.7141   0.9099 C.2            1 S1                 0.0000
     17 ****         2.2272   2.0833   0.1768 N.pl3          1 S1                 0.0000
     18 ****         3.6663   2.2335   0.3293 C.3            1 S1                 0.0000
     19 ****         4.2629   1.3895   1.4712 C.3            1 S1                 0.0000
     20 ****         3.9705  -0.0990   1.1911 C.3            1 S1                 0.0000
     21 ****         4.5768  -0.9575   2.1366 O.3            1 S1                 0.0000
     22 ****         5.7111   1.7399   1.8422 C.3            1 S1                 0.0000
     23 ****         5.3724   1.9320   3.2334 O.3            1 S1                 0.0000
     24 ****         3.9685   1.8771   2.8972 C.3            1 S1                 0.0000
     25 ****        -4.3150  -0.2875  -0.9914 C.3            1 S1                 0.0000
     26 ****        -3.5208  -5.5867   0.3865 H              1 S1                 0.0000
     27 ****        -2.8782  -4.1559   1.1878 H              1 S1                 0.0000
     28 ****        -2.7578  -4.3246  -0.5647 H              1 S1                 0.0000
     29 ****        -5.2716  -4.1521  -0.7577 H              1 S1                 0.0000
     30 ****        -5.3962  -4.1186   0.9831 H              1 S1                 0.0000
     31 ****        -4.5552  -2.2474  -1.9364 H              1 S1                 0.0000
     32 ****        -2.2157  -1.5273  -0.0276 H              1 S1                 0.0000
     33 ****        -2.0900  -2.2671  -1.6709 H              1 S1                 0.0000
     34 ****        -2.9972  -0.2524  -2.7460 H              1 S1                 0.0000
     35 ****        -2.6517   2.7377  -0.3435 H              1 S1                 0.0000
     36 ****        -3.5772   2.2490  -1.7606 H              1 S1                 0.0000
     37 ****        -1.9275   2.8262  -1.9548 H              1 S1                 0.0000
     38 ****         1.4383  -0.8184  -3.1506 H              1 S1                 0.0000
     39 ****         1.4693   3.4127   1.7031 H              1 S1                 0.0000
     40 ****         4.1426   1.9822  -0.6191 H              1 S1                 0.0000
     41 ****         3.8717   3.2928   0.4886 H              1 S1                 0.0000
     42 ****         2.8998  -0.3020   1.2160 H              1 S1                 0.0000
     43 ****         4.3243  -0.3840   0.1998 H              1 S1                 0.0000
     44 ****         4.3587  -1.8501   1.9156 H              1 S1                 0.0000
     45 ****         6.4252   0.9297   1.6914 H              1 S1                 0.0000
     46 ****         6.0750   2.6616   1.3856 H              1 S1                 0.0000
     47 ****         3.5082   2.8645   2.9452 H              1 S1                 0.0000
     48 ****         3.4176   1.1629   3.5099 H              1 S1                 0.0000
     49 ****        -5.1351   0.0972  -1.5981 H              1 S1                 0.0000
     50 ****        -4.3349   0.1234   0.0201 H              1 S1                 0.0000
     51 ****        -4.0533  -2.1492   0.9314 LP             1 S1                 0.0000
     52 ****        -5.5762  -2.0302   0.3542 LP             1 S1                 0.0000
     53 ****        -2.2402   0.6757  -0.1684 LP             1 S1                 0.0000
     54 ****        -0.8270  -0.5768  -2.8180 LP             1 S1                 0.0000
     55 ****         3.0469   0.3466  -1.8549 LP             1 S1                 0.0000
     56 ****        -0.8260   2.7432   0.9909 LP             1 S1                 0.0000
     57 ****         4.2366  -0.7442   3.0524 LP             1 S1                 0.0000
     58 ****         5.5693  -0.8374   2.1133 LP             1 S1                 0.0000
     59 ****         5.6686   2.8104   3.6084 LP             1 S1                 0.0000
     60 ****         5.6778   1.1931   3.8340 LP             1 S1                 0.0000
@<TRIPOS>BOND
    1    1    2 1     
    2    1   26 1     
    3    1   27 1     
    4    1   28 1     
    5    2    3 1     
    6    2   29 1     
    7    2   30 1     
    8    3    4 1     
    9    4   25 1     
   10    4    5 1     
   11    4   31 1     
   12    5    6 1     
   13    5   32 1     
   14    5   33 1     
   15    6    7 1     
   16    6   25 1     
   17    6   34 1     
   18    7    8 1     
   19    7    9 1     
   20    8   35 1     
   21    8   36 1     
   22    8   37 1     
   23    9   14 ar    
   24    9   10 ar    
   25   10   11 ar    
   26   11   12 ar    
   27   11   38 1     
   28   12   13 ar    
   29   13   17 1     
   30   13   14 ar    
   31   14   15 1     
   32   15   16 2     
   33   16   17 1     
   34   16   39 1     
   35   17   18 1     
   36   18   19 1     
   37   18   40 1     
   38   18   41 1     
   39   19   24 1     
   40   19   20 1     
   41   19   22 1     
   42   20   21 1     
   43   20   42 1     
   44   20   43 1     
   45   21   44 1     
   46   22   23 1     
   47   22   45 1     
   48   22   46 1     
   49   23   24 1     
   50   24   47 1     
   51   24   48 1     
   52   25   49 1     
   53   25   50 1     
   54    3   51 1     
   55    3   52 1     
   56    7   53 1     
   57   10   54 1     
   58   12   55 1     
   59   15   56 1     
   60   21   57 1     
   61   21   58 1     
   62   23   59 1     
   63   23   60 1     
@<TRIPOS>SUBSTRUCTURE
      1 S1             1
@<TRIPOS>SET
LONE_PAIRS      STATIC     ATOMS    <user>   **** ""
10 51 52 53 54 55 56 57 58 59 60
DONOR_HYDROGENS      STATIC     ATOMS    <user>   **** ""
1 44
ATOM$BLUE        STATIC     ATOMS    COLORGROUP SYSTEM
10 51 52 53 54 55 56 57 58 59 60
ATOM$RED        STATIC     ATOMS    COLORGROUP SYSTEM
1 44
