AV-unprocessed.smi:2198|AV-procd|sdf|8914|dock6
  -GOLD-   2272012133D 1   1.00000     0.00000
 Structure written by MMmdl.
 43 44  0  0  0  0  0  0  0  0  1 V2000
  146.6471  138.1665  151.9814 C   0  0  0  0  0  0  0  0  0  0  0  0
  147.3550  139.2773  152.7286 C   0  0  0  0  0  0  0  0  0  0  0  0
  146.8214  140.4251  152.9890 N   0  0  0  0  0  0  0  0  0  0  0  0
  147.5778  141.3787  153.6852 C   0  0  0  0  0  0  0  0  0  0  0  0
  146.8797  142.7022  153.9485 C   0  0  0  0  0  0  0  0  0  0  0  0
  148.8556  141.1205  154.0922 C   0  0  0  0  0  0  0  0  0  0  0  0
  149.7071  142.1377  154.8492 C   0  0  0  0  0  0  0  0  0  0  0  0
  150.1310  141.7162  156.2568 C   0  0  0  0  0  0  0  0  0  0  0  0
  149.8853  140.5790  156.6580 O   0  0  0  0  0  0  0  0  0  0  0  0
  150.7619  142.6424  156.9950 N   0  0  0  0  0  0  0  0  0  0  0  0
  151.2515  142.4555  158.3593 C   0  0  1  0  0  0  0  0  0  0  0  0
  152.6168  143.1450  158.5633 C   0  0  0  0  0  0  0  0  0  0  0  0
  152.4971  144.6784  158.5638 C   0  0  0  0  0  0  0  0  0  0  0  0
  151.4727  145.1578  159.6038 C   0  0  0  0  0  0  0  0  0  0  0  0
  150.0932  144.5096  159.3798 C   0  0  2  0  0  0  0  0  0  0  0  0
  149.0736  144.9889  160.4227 C   0  0  0  0  0  0  0  0  0  0  0  0
  150.2126  142.9707  159.3757 C   0  0  0  0  0  0  0  0  0  0  0  0
  149.4533  139.8046  153.7927 C   0  0  0  0  0  0  0  0  0  0  0  0
  150.5898  139.4640  154.1171 O   0  0  0  0  0  0  0  0  0  0  0  0
  148.6533  138.9504  153.1159 N   0  0  0  0  0  0  0  0  0  0  0  0
  149.0179  138.0372  152.8867 H   0  0  0  0  0  0  0  0  0  0  0  0
  145.7473  137.8665  152.5190 H   0  0  0  0  0  0  0  0  0  0  0  0
  147.2845  137.2888  151.8648 H   0  0  0  0  0  0  0  0  0  0  0  0
  146.3549  138.5093  150.9886 H   0  0  0  0  0  0  0  0  0  0  0  0
  147.4422  143.5292  153.5155 H   0  0  0  0  0  0  0  0  0  0  0  0
  146.7745  142.8739  155.0197 H   0  0  0  0  0  0  0  0  0  0  0  0
  145.8811  142.7164  153.5103 H   0  0  0  0  0  0  0  0  0  0  0  0
  150.6084  142.3786  154.2845 H   0  0  0  0  0  0  0  0  0  0  0  0
  149.1614  143.0804  154.9023 H   0  0  0  0  0  0  0  0  0  0  0  0
  150.9157  143.5499  156.5804 H   0  0  0  0  0  0  0  0  0  0  0  0
  151.3759  141.3848  158.5314 H   0  0  0  0  0  0  0  0  0  0  0  0
  153.0381  142.8228  159.5162 H   0  0  0  0  0  0  0  0  0  0  0  0
  153.3248  142.8253  157.7978 H   0  0  0  0  0  0  0  0  0  0  0  0
  153.4702  145.1250  158.7702 H   0  0  0  0  0  0  0  0  0  0  0  0
  152.2040  145.0267  157.5727 H   0  0  0  0  0  0  0  0  0  0  0  0
  151.8345  144.9200  160.6052 H   0  0  0  0  0  0  0  0  0  0  0  0
  151.3873  146.2442  159.5573 H   0  0  0  0  0  0  0  0  0  0  0  0
  149.7284  144.8257  158.4015 H   0  0  0  0  0  0  0  0  0  0  0  0
  149.3771  144.7100  161.4323 H   0  0  0  0  0  0  0  0  0  0  0  0
  148.0904  144.5549  160.2388 H   0  0  0  0  0  0  0  0  0  0  0  0
  148.9653  146.0735  160.3959 H   0  0  0  0  0  0  0  0  0  0  0  0
  149.2405  142.5189  159.1733 H   0  0  0  0  0  0  0  0  0  0  0  0
  150.4992  142.6324  160.3723 H   0  0  0  0  0  0  0  0  0  0  0  0
  1  2  1  0  0  0  0
  1 22  1  0  0  0  0
  1 23  1  0  0  0  0
  1 24  1  0  0  0  0
  2 20  1  0  0  0  0
  2  3  2  0  0  0  0
  3  4  1  0  0  0  0
  4  5  1  0  0  0  0
  4  6  2  0  0  0  0
  5 25  1  0  0  0  0
  5 26  1  0  0  0  0
  5 27  1  0  0  0  0
  6  7  1  0  0  0  0
  6 18  1  0  0  0  0
  7  8  1  0  0  0  0
  7 28  1  0  0  0  0
  7 29  1  0  0  0  0
  8  9  2  0  0  0  0
  8 10  1  0  0  0  0
 10 11  1  0  0  0  0
 10 30  1  0  0  0  0
 11 17  1  0  0  0  0
 11 12  1  0  0  0  0
 11 31  1  0  0  0  0
 12 13  1  0  0  0  0
 12 32  1  0  0  0  0
 12 33  1  0  0  0  0
 13 14  1  0  0  0  0
 13 34  1  0  0  0  0
 13 35  1  0  0  0  0
 14 15  1  0  0  0  0
 14 36  1  0  0  0  0
 14 37  1  0  0  0  0
 15 16  1  0  0  0  0
 15 17  1  0  0  0  0
 15 38  1  0  0  0  0
 16 39  1  0  0  0  0
 16 40  1  0  0  0  0
 16 41  1  0  0  0  0
 17 42  1  0  0  0  0
 17 43  1  0  0  0  0
 18 19  2  0  0  0  0
 18 20  1  0  0  0  0
 20 21  1  0  0  0  0
M  END
> <s_m_source_file>
AV-unprocessed.smi

> <i_m_source_file_index>
2198

> <i_lp_mmshare_version>
43012

> <i_f3d_flags>
0

> <s_epik_input>
W0NIM11jMW5jKFtDSDNdKWMoYyg9TylbbkhdMSlbQ0gyXUMoPU8pW05IXVtDQEBIXTJbQ0gyXVtDSDJdW0NIMl1bQ0BASF0oW0NIM10pW0NIMl0y

> <s_epik_cmdline>
J2VwaWtfcHl0aG9uJywgJy1waCcsICc3LjAnLCAnLXRuJywgJzgnLCAnLW1hJywgJzIwMCcsICctbWV0YWxfYmluZGluZycsICctaW1hZScsICc8aW5maWxlLm1hZT4nLCAnLW9tYWUnLCAnPG91dGZpbGUubWFlPic=

> <r_lp_tautomer_probability>
0.839158

> <r_epik_Ionization_Penalty>
0.000372587

> <r_epik_Ionization_Penalty_Charging>
0.000337977

> <r_epik_Ionization_Penalty_Neutral>
3.46101e-05

> <r_epik_State_Penalty>
0.09125

> <r_epik_Charging_Adjusted_Penalty>
0.091588

> <i_epik_Tot_Q>
0

> <i_epik_Tot_abs_Q>
0

> <r_epik_Metal_State_Penalty>
0.25197

> <b_epik_Metal_Only>
0

> <s_lp_Force_Field>
OPLS_2005

> <r_lp_Energy>
10.5346

> <b_lp_Chiralities_Consistent>
1

> <s_lp_Variant>
AV-unprocessed.smi:2198-4

> <Gold.Version>
5.8.1

> <Gold.Id.Protein>
6NUR|6NUR_protein|mol2

> <Gold.PLP.Fitness>
43.6418

> <Gold.PLP.PLP>
-38.5366

> <Gold.PLP.part.hbond>
-3.7374

> <Gold.PLP.part.metal>
0.0000

> <Gold.PLP.part.buried>
3.7228

> <Gold.PLP.part.nonpolar>
-39.2456

> <Gold.PLP.part.repulsive>
0.7653

> <Gold.PLP.ligand.clash>
0.0000

> <Gold.PLP.ligand.torsion>
0.3651

> <Gold.PLP.Chemscore.Hbond>
1.9425

> <Gold.PLP.Chemscore.CHOScore>
0.0000

> <Gold.PLP.Chemscore.Metal>
0.0000

> <Gold.Chemscore.Hbonds>
donor molecule, donor type, donor heavy atom, donor atom, acceptor molecule, acceptor atom, score
      L1  H    20    21       P1  7948  0.96
      P1  H  7989  7998       L1    19  1.00

> <Gold.PLP.Chemscore.Internal.Correction>
0.0080

> <Gold.Rescore>
     Score         DG    S(hbond)    S(metal)    S(lipo)     H(rot)  DE(clash)    DE(int)     intcor
     15.76     -20.39       1.85        0.00     106.89       1.48       4.18       0.45       ----

> <Gold.Chemscore.Fitness>
15.7617

> <Gold.Chemscore.DG>
-20.3895

> <Gold.Chemscore.ZeroCoef>
-5.4800

> <Gold.Chemscore.Hbond>
1.8539

> <Gold.Chemscore.Metal>
0.0000

> <Gold.Chemscore.Lipo>
106.8930

> <Gold.Chemscore.Internal_Hbond>
0.0000

> <Gold.Chemscore.DEClash>
4.1756

> <Gold.Chemscore.DEInternal>
0.4522

> <Gold.Chemscore.Rot>
1.4801

> <Gold.Chemscore.Internal.Correction>
   9.000000E+99

> <Gold.Chemscore.Hbonds>
donor molecule, donor type, donor heavy atom, donor atom, acceptor molecule, acceptor atom, score
      L1  H    20    21       P1  7948  0.88
      P1  H  7989  7998       L1    19  0.40

> <Gold.Chemscore.Hbond.Weighted>
-6.1922

> <Gold.Chemscore.Metal.Weighted>
-0.0000

> <Gold.Chemscore.Lipo.Weighted>
-12.5065

> <Gold.Chemscore.Internal_Hbond.Weighted>
0.0000

> <Gold.Chemscore.DEClash.Weighted>
4.1756

> <Gold.Chemscore.DEInternal.Weighted>
0.4522

> <Gold.Chemscore.Rot.Weighted>
3.7891

> <Gold.Chemscore.Internal.Correction.Weighted>
   9.000000E+99

> <Gold.Protein.RotatedTorsions>
[ 6907 6896 6895 6894 ] final -150.03 input  -60.11 | X-H torsion
[ 7974 7965 7964 7962 ] final  151.34 input  175.53 | X-H torsion
[ 8008 7997 7996 7995 ] final   59.17 input   59.86 | X-H torsion
[ 10167 10162 10161 10158 ] final    8.94 input  -65.29 | X-H torsion
[ 10718 10713 10712 10709 ] final  168.48 input   66.30 | X-H torsion
[ 10763 10752 10751 10750 ] final  -27.49 input  -60.55 | X-H torsion
[ 11005 11000 10999 10996 ] final  -31.27 input  -57.11 | X-H torsion

> <Gold.Protein.ActiveResidues>
 VAL166  LYS551  ARG553  GLY616  TRP617  ASP618  TYR619  PRO620  LYS621  CYS622 
 ASP623  PHE694  ASN695  SER759  ASP760  ASP761  ALA762  ILE779  LEU786  VAL792 
 PHE793  MET794  SER795  GLU796  ALA797  LYS798  CYS799  TRP800  GLU811  SER814 

> <Gold.Protein.RotatedAtoms>
  151.1927  133.4658  159.2594 H   0  0  0  0  0  0  0  0  0  0  0  0  # atno 6907 bound_to 6896
  151.1148  135.0046  159.8521 H   0  0  0  0  0  0  0  0  0  0  0  0  # atno 6908 bound_to 6896
  152.5452  134.1843  159.8701 H   0  0  0  0  0  0  0  0  0  0  0  0  # atno 6909 bound_to 6896
  144.8300  139.6524  143.6063 H   0  0  0  0  0  0  0  0  0  0  0  0  # atno 7974 bound_to 7965
  155.5618  140.3488  155.4493 H   0  0  0  0  0  0  0  0  0  0  0  0  # atno 8008 bound_to 7997
  156.0508  140.1317  157.0078 H   0  0  0  0  0  0  0  0  0  0  0  0  # atno 8009 bound_to 7997
  154.4433  140.1005  156.6359 H   0  0  0  0  0  0  0  0  0  0  0  0  # atno 8010 bound_to 7997
  140.6284  143.8048  150.7263 H   0  0  0  0  0  0  0  0  0  0  0  0  # atno 10167 bound_to 10162
  157.0365  131.0274  151.2727 H   0  0  0  0  0  0  0  0  0  0  0  0  # atno 10718 bound_to 10713
  153.7330  135.6937  153.4985 H   0  0  0  0  0  0  0  0  0  0  0  0  # atno 10763 bound_to 10752
  153.2122  135.4399  155.0392 H   0  0  0  0  0  0  0  0  0  0  0  0  # atno 10764 bound_to 10752
  154.8246  135.3440  154.6859 H   0  0  0  0  0  0  0  0  0  0  0  0  # atno 10765 bound_to 10752
  140.9454  133.7253  156.1138 H   0  0  0  0  0  0  0  0  0  0  0  0  # atno 11005 bound_to 11000
  146.2603  139.6395  142.9366 LP  0  0  0  0  0  0  0  0  0  0  0  0  # atno 17320 bound_to 7965
  145.4917  141.0438  143.2589 LP  0  0  0  0  0  0  0  0  0  0  0  0  # atno 17321 bound_to 7965
  140.1654  143.4239  152.2038 LP  0  0  0  0  0  0  0  0  0  0  0  0  # atno 17342 bound_to 10162
  139.5501  144.7331  151.4460 LP  0  0  0  0  0  0  0  0  0  0  0  0  # atno 17343 bound_to 10162
  157.5137  130.7955  149.7733 LP  0  0  0  0  0  0  0  0  0  0  0  0  # atno 17370 bound_to 10713
  156.0052  130.3859  150.2458 LP  0  0  0  0  0  0  0  0  0  0  0  0  # atno 17371 bound_to 10713
  140.7677  134.3868  157.5514 LP  0  0  0  0  0  0  0  0  0  0  0  0  # atno 17394 bound_to 11000
  139.8832  134.9002  156.2783 LP  0  0  0  0  0  0  0  0  0  0  0  0  # atno 17395 bound_to 11000

$$$$
