AV-unprocessed.smi:2033|AV-procd|sdf|8261|dock4
  -GOLD-   2272010533D 1   1.00000     0.00000
 Structure written by MMmdl.
 32 33  0  0  0  0  0  0  0  0  2 V2000
  145.2618  133.3472  162.3573 C   0  0  0  0  0  0  0  0  0  0  0  0
  146.2211  134.2345  161.6410 C   0  0  0  0  0  0  0  0  0  0  0  0
  146.8696  133.8557  160.5370 N   0  0  0  0  0  0  0  0  0  0  0  0
  147.7042  134.8529  160.0530 N   0  0  0  0  0  0  0  0  0  0  0  0
  147.6672  135.9728  160.7890 C   0  0  0  0  0  0  0  0  0  0  0  0
  148.4030  137.0564  160.4915 N   0  5  0  0  0  0  0  0  0  0  0  0
  149.1762  137.0632  159.3816 C   0  0  0  0  0  0  0  0  0  0  0  0
  149.7435  136.0891  158.8808 O   0  0  0  0  0  0  0  0  0  0  0  0
  149.2989  138.2737  158.8155 N   0  0  0  0  0  0  0  0  0  0  0  0
  150.0563  138.5910  157.6026 C   0  0  2  0  0  0  0  0  0  0  0  0
  149.4984  137.7235  156.4465 C   0  0  0  0  0  0  0  0  0  0  0  0
  150.3838  137.6092  155.1849 C   0  0  0  0  0  0  0  0  0  0  0  0
  151.0147  138.9323  154.7043 C   0  0  0  0  0  0  0  0  0  0  0  0
  151.9763  139.6451  155.6906 C   0  0  0  0  0  0  0  0  0  0  0  0
  152.3921  138.8379  156.8379 N   0  0  0  0  0  0  0  0  0  0  0  0
  151.5701  138.3301  157.7721 C   0  0  0  0  0  0  0  0  0  0  0  0
  152.0027  137.6579  158.7077 O   0  0  0  0  0  0  0  0  0  0  0  0
  146.5878  135.8646  162.1793 S   0  0  0  0  0  0  0  0  0  0  0  0
  144.3068  133.3309  161.8322 H   0  0  0  0  0  0  0  0  0  0  0  0
  145.0976  133.7087  163.3725 H   0  0  0  0  0  0  0  0  0  0  0  0
  145.6531  132.3308  162.4091 H   0  0  0  0  0  0  0  0  0  0  0  0
  148.8118  139.0390  159.2578 H   0  0  0  0  0  0  0  0  0  0  0  0
  149.8943  139.6445  157.3711 H   0  0  0  0  0  0  0  0  0  0  0  0
  149.2967  136.7127  156.8050 H   0  0  0  0  0  0  0  0  0  0  0  0
  148.5284  138.1300  156.1574 H   0  0  0  0  0  0  0  0  0  0  0  0
  151.1743  136.8776  155.3579 H   0  0  0  0  0  0  0  0  0  0  0  0
  149.7841  137.1883  154.3774 H   0  0  0  0  0  0  0  0  0  0  0  0
  151.5647  138.7214  153.7864 H   0  0  0  0  0  0  0  0  0  0  0  0
  150.2245  139.6256  154.4139 H   0  0  0  0  0  0  0  0  0  0  0  0
  152.8730  139.9625  155.1579 H   0  0  0  0  0  0  0  0  0  0  0  0
  151.5192  140.5647  156.0584 H   0  0  0  0  0  0  0  0  0  0  0  0
  153.3810  138.6605  156.9376 H   0  0  0  0  0  0  0  0  0  0  0  0
  1  2  1  0  0  0  0
  1 19  1  0  0  0  0
  1 20  1  0  0  0  0
  1 21  1  0  0  0  0
  2 18  1  0  0  0  0
  2  3  2  0  0  0  0
  3  4  1  0  0  0  0
  4  5  2  0  0  0  0
  5  6  1  0  0  0  0
  5 18  1  0  0  0  0
  6  7  1  0  0  0  0
  7  8  2  0  0  0  0
  7  9  1  0  0  0  0
  9 10  1  0  0  0  0
  9 22  1  0  0  0  0
 10 16  1  0  0  0  0
 10 11  1  0  0  0  0
 10 23  1  0  0  0  0
 11 12  1  0  0  0  0
 11 24  1  0  0  0  0
 11 25  1  0  0  0  0
 12 13  1  0  0  0  0
 12 26  1  0  0  0  0
 12 27  1  0  0  0  0
 13 14  1  0  0  0  0
 13 28  1  0  0  0  0
 13 29  1  0  0  0  0
 14 15  1  0  0  0  0
 14 30  1  0  0  0  0
 14 31  1  0  0  0  0
 15 16  1  0  0  0  0
 15 32  1  0  0  0  0
 16 17  2  0  0  0  0
M  CHG  1   6  -1
M  END
> <s_m_source_file>
AV-unprocessed.smi

> <i_m_source_file_index>
2033

> <i_lp_mmshare_version>
43012

> <i_f3d_flags>
0

> <s_epik_input>
W0NIM11jMW5uYyhzMSlbTkhdQyg9TylbTkhdW0NAQEhdMltDSDJdW0NIMl1bQ0gyXVtDSDJdW05IXUMyPU8=

> <s_epik_cmdline>
J2VwaWtfcHl0aG9uJywgJy1waCcsICc3LjAnLCAnLXRuJywgJzgnLCAnLW1hJywgJzIwMCcsICctbWV0YWxfYmluZGluZycsICctaW1hZScsICc8aW5maWxlLm1hZT4nLCAnLW9tYWUnLCAnPG91dGZpbGUubWFlPic=

> <r_lp_tautomer_probability>
1

> <r_epik_Ionization_Penalty>
4.07233

> <r_epik_Ionization_Penalty_Charging>
3.9374

> <r_epik_Ionization_Penalty_Neutral>
0.134927

> <r_epik_State_Penalty>
3.93663

> <r_epik_Charging_Adjusted_Penalty>
7.87404

> <i_epik_Tot_Q>
-1

> <i_epik_Tot_abs_Q>
1

> <r_epik_Metal_State_Penalty>
0.602812

> <b_epik_Metal_Only>
1

> <s_lp_Force_Field>
OPLS_2005

> <r_lp_Energy>
13.5644

> <b_lp_Chiralities_Consistent>
1

> <s_lp_Variant>
AV-unprocessed.smi:2033-3

> <Gold.Version>
5.8.1

> <Gold.Id.Protein>
6NUR|6NUR_protein|mol2

> <Gold.PLP.Fitness>
35.3129

> <Gold.PLP.PLP>
-25.1559

> <Gold.PLP.part.hbond>
-3.0000

> <Gold.PLP.part.metal>
0.0000

> <Gold.PLP.part.buried>
-4.3442

> <Gold.PLP.part.nonpolar>
-18.5494

> <Gold.PLP.part.repulsive>
0.2979

> <Gold.PLP.ligand.clash>
0.0000

> <Gold.PLP.ligand.torsion>
0.2229

> <Gold.PLP.Chemscore.Hbond>
3.5335

> <Gold.PLP.Chemscore.CHOScore>
0.0000

> <Gold.PLP.Chemscore.Metal>
0.0000

> <Gold.Chemscore.Hbonds>
donor molecule, donor type, donor heavy atom, donor atom, acceptor molecule, acceptor atom, score
      P1  H  6896  6907       L1     8  1.00
      P1  H  6931  6943       L1     6  1.60
      P1  H  6934  6947       L1     6  0.26

> <Gold.PLP.Chemscore.Internal.Correction>
0.0024

> <Gold.Rescore>
     Score         DG    S(hbond)    S(metal)    S(lipo)     H(rot)  DE(clash)    DE(int)     intcor
      9.34     -14.88       1.91        0.00      47.75       1.00       0.01       5.53       ----

> <Gold.Chemscore.Fitness>
9.3440

> <Gold.Chemscore.DG>
-14.8836

> <Gold.Chemscore.ZeroCoef>
-5.4800

> <Gold.Chemscore.Hbond>
1.9093

> <Gold.Chemscore.Metal>
0.0000

> <Gold.Chemscore.Lipo>
47.7482

> <Gold.Chemscore.Internal_Hbond>
0.0000

> <Gold.Chemscore.DEClash>
0.0060

> <Gold.Chemscore.DEInternal>
5.5336

> <Gold.Chemscore.Rot>
1.0000

> <Gold.Chemscore.Internal.Correction>
   9.000000E+99

> <Gold.Chemscore.Hbonds>
donor molecule, donor type, donor heavy atom, donor atom, acceptor molecule, acceptor atom, score
      P1  H  6896  6907       L1     8  1.00
      P1  H  6931  6943       L1     6  0.67
      P1  H  6934  6947       L1     6  0.10

> <Gold.Chemscore.Hbond.Weighted>
-6.3771

> <Gold.Chemscore.Metal.Weighted>
-0.0000

> <Gold.Chemscore.Lipo.Weighted>
-5.5865

> <Gold.Chemscore.Internal_Hbond.Weighted>
0.0000

> <Gold.Chemscore.DEClash.Weighted>
0.0060

> <Gold.Chemscore.DEInternal.Weighted>
5.5336

> <Gold.Chemscore.Rot.Weighted>
2.5600

> <Gold.Chemscore.Internal.Correction.Weighted>
   9.000000E+99

> <Gold.Protein.RotatedTorsions>
[ 6907 6896 6895 6894 ] final  -57.37 input  -60.11 | X-H torsion
[ 7974 7965 7964 7962 ] final  -23.73 input  175.53 | X-H torsion
[ 8008 7997 7996 7995 ] final   -6.31 input   59.86 | X-H torsion
[ 10167 10162 10161 10158 ] final  -52.36 input  -65.29 | X-H torsion
[ 10718 10713 10712 10709 ] final  117.54 input   66.30 | X-H torsion
[ 10763 10752 10751 10750 ] final   52.15 input  -60.55 | X-H torsion
[ 11005 11000 10999 10996 ] final -133.14 input  -57.11 | X-H torsion

> <Gold.Protein.ActiveResidues>
 VAL166  LYS551  ARG553  GLY616  TRP617  ASP618  TYR619  PRO620  LYS621  CYS622 
 ASP623  PHE694  ASN695  SER759  ASP760  ASP761  ALA762  ILE779  LEU786  VAL792 
 PHE793  MET794  SER795  GLU796  ALA797  LYS798  CYS799  TRP800  GLU811  SER814 

> <Gold.Protein.RotatedAtoms>
  150.8091  134.7235  159.6671 H   0  0  0  0  0  0  0  0  0  0  0  0  # atno 6907 bound_to 6896
  152.4211  134.5950  159.9994 H   0  0  0  0  0  0  0  0  0  0  0  0  # atno 6908 bound_to 6896
  151.6164  133.3305  159.3114 H   0  0  0  0  0  0  0  0  0  0  0  0  # atno 6909 bound_to 6896
  146.1598  140.4656  142.8576 H   0  0  0  0  0  0  0  0  0  0  0  0  # atno 7974 bound_to 7965
  154.5951  140.2436  155.7868 H   0  0  0  0  0  0  0  0  0  0  0  0  # atno 8008 bound_to 7997
  156.2273  140.2978  156.0053 H   0  0  0  0  0  0  0  0  0  0  0  0  # atno 8009 bound_to 7997
  155.2308  140.0403  157.2952 H   0  0  0  0  0  0  0  0  0  0  0  0  # atno 8010 bound_to 7997
  140.6541  143.2586  151.4637 H   0  0  0  0  0  0  0  0  0  0  0  0  # atno 10167 bound_to 10162
  157.6090  131.1038  150.7629 H   0  0  0  0  0  0  0  0  0  0  0  0  # atno 10718 bound_to 10713
  152.9787  135.5822  154.4531 H   0  0  0  0  0  0  0  0  0  0  0  0  # atno 10763 bound_to 10752
  154.4117  135.2770  155.2034 H   0  0  0  0  0  0  0  0  0  0  0  0  # atno 10764 bound_to 10752
  154.3821  135.6144  153.5851 H   0  0  0  0  0  0  0  0  0  0  0  0  # atno 10765 bound_to 10752
  140.9107  134.1572  157.4391 H   0  0  0  0  0  0  0  0  0  0  0  0  # atno 11005 bound_to 11000
  144.8011  140.6215  143.6477 LP  0  0  0  0  0  0  0  0  0  0  0  0  # atno 17320 bound_to 7965
  145.4617  139.1512  143.3862 LP  0  0  0  0  0  0  0  0  0  0  0  0  # atno 17321 bound_to 7965
  139.5761  144.1816  152.1905 LP  0  0  0  0  0  0  0  0  0  0  0  0  # atno 17342 bound_to 10162
  140.1127  144.5443  150.6914 LP  0  0  0  0  0  0  0  0  0  0  0  0  # atno 17343 bound_to 10162
  156.8011  130.4921  149.5369 LP  0  0  0  0  0  0  0  0  0  0  0  0  # atno 17370 bound_to 10713
  156.1186  130.6093  151.0158 LP  0  0  0  0  0  0  0  0  0  0  0  0  # atno 17371 bound_to 10713
  139.8757  134.9934  156.5645 LP  0  0  0  0  0  0  0  0  0  0  0  0  # atno 17394 bound_to 11000
  140.8114  133.8426  155.8813 LP  0  0  0  0  0  0  0  0  0  0  0  0  # atno 17395 bound_to 11000

$$$$
