#       Name:                AV-unprocessed.smi:686
#       Creating user name   scv26
#       Creation time:       Fri Mar 27 00:31:42 2020


#       File generated by GOLD software.
#

@<TRIPOS>MOLECULE
AV-unprocessed.smi:686
    45    46     1
SMALL
NO_CHARGES


@<TRIPOS>ATOM
      1 ****        -1.5968   1.1603   3.4395 C.3            1 S1                 0.0000
      2 ****        -0.9752   0.2214   2.3967 C.3            1 S1                 0.0000
      3 ****        -1.9467  -0.8373   1.8711 C.3            1 S1                 0.0000
      4 ****        -1.4286  -1.2068   0.5389 N.4            1 S1                 1.0000
      5 ****        -2.3723  -1.9704  -0.3258 C.3            1 S1                 0.0000
      6 ****        -2.8521  -3.2623   0.3621 C.3            1 S1                 0.0000
      7 ****        -1.7324  -2.3157  -1.6838 C.3            1 S1                 0.0000
      8 ****        -0.9290   0.0578  -0.0436 C.3            1 S1                 0.0000
      9 ****        -0.4642   0.9368   1.1328 C.3            1 S1                 0.0000
     10 ****         0.9980   1.0594   1.1756 N.3            1 S1                 0.0000
     11 ****         1.8441   1.9806  -0.0174 S.o2           1 S1                 0.0000
     12 ****         0.8534   2.5535  -0.9423 O.2            1 S1                 0.0000
     13 ****         2.7895   2.8551   0.6924 O.2            1 S1                 0.0000
     14 ****         2.8133   0.6881  -0.9069 C.3            1 S1                 0.0000
     15 ****         3.3312   1.2502  -2.1993 C.2            1 S1                 0.0000
     16 ****         4.4076   2.1574  -2.4022 C.2            1 S1                 0.0000
     17 ****         4.4314   2.3249  -3.7567 C.2            1 S1                 0.0000
     18 ****         3.4579   1.5842  -4.3444 O.3            1 S1                 0.0000
     19 ****         2.7612   0.9002  -3.3417 N.2            1 S1                 0.0000
     20 ****        -2.4422   1.7112   3.0261 H              1 S1                 0.0000
     21 ****        -0.8661   1.8881   3.7934 H              1 S1                 0.0000
     22 ****        -1.9546   0.6016   4.3049 H              1 S1                 0.0000
     23 ****        -0.1464  -0.3111   2.8675 H              1 S1                 0.0000
     24 ****        -2.0073  -1.6950   2.5418 H              1 S1                 0.0000
     25 ****        -2.9482  -0.4159   1.7658 H              1 S1                 0.0000
     26 ****        -3.2463  -1.3444  -0.5131 H              1 S1                 0.0000
     27 ****        -3.5037  -3.8361  -0.2976 H              1 S1                 0.0000
     28 ****        -3.4262  -3.0560   1.2654 H              1 S1                 0.0000
     29 ****        -2.0127  -3.9031   0.6350 H              1 S1                 0.0000
     30 ****        -2.4097  -2.9133  -2.2948 H              1 S1                 0.0000
     31 ****        -0.8132  -2.8884  -1.5546 H              1 S1                 0.0000
     32 ****        -1.4929  -1.4231  -2.2619 H              1 S1                 0.0000
     33 ****        -0.1455  -0.1319  -0.7765 H              1 S1                 0.0000
     34 ****        -1.7435   0.5648  -0.5638 H              1 S1                 0.0000
     35 ****        -0.9006   1.9332   1.0463 H              1 S1                 0.0000
     36 ****         1.3881   1.1589   2.1130 H              1 S1                 0.0000
     37 ****         3.6275   0.3589  -0.2615 H              1 S1                 0.0000
     38 ****         2.1678  -0.1709  -1.0866 H              1 S1                 0.0000
     39 ****         5.0560   2.6159  -1.6703 H              1 S1                 0.0000
     40 ****         5.0505   2.9088  -4.4217 H              1 S1                 0.0000
     41 ****        -0.6196  -1.7899   0.6988 H              1 S1                 0.0000
     42 ****         1.2066   0.1406   0.8405 LP             1 S1                 0.0000
     43 ****         3.8679   0.9288  -4.9787 LP             1 S1                 0.0000
     44 ****         2.8315   2.1834  -4.8430 LP             1 S1                 0.0000
     45 ****         1.9903   0.2749  -3.4634 LP             1 S1                 0.0000
@<TRIPOS>BOND
    1    1    2 1     
    2    1   20 1     
    3    1   21 1     
    4    1   22 1     
    5    2    9 1     
    6    2    3 1     
    7    2   23 1     
    8    3    4 1     
    9    3   24 1     
   10    3   25 1     
   11    4    5 1     
   12    4    8 1     
   13    4   41 1     
   14    5    6 1     
   15    5    7 1     
   16    5   26 1     
   17    6   27 1     
   18    6   28 1     
   19    6   29 1     
   20    7   30 1     
   21    7   31 1     
   22    7   32 1     
   23    8    9 1     
   24    8   33 1     
   25    8   34 1     
   26    9   10 1     
   27    9   35 1     
   28   10   11 1     
   29   10   36 1     
   30   11   12 2     
   31   11   13 2     
   32   11   14 1     
   33   14   15 1     
   34   14   37 1     
   35   14   38 1     
   36   15   19 2     
   37   15   16 1     
   38   16   17 2     
   39   16   39 1     
   40   17   18 1     
   41   17   40 1     
   42   18   19 1     
   43   10   42 1     
   44   18   43 1     
   45   18   44 1     
   46   19   45 1     
@<TRIPOS>SUBSTRUCTURE
      1 S1             1
@<TRIPOS>SET
LONE_PAIRS      STATIC     ATOMS    <user>   **** ""
6 42 12 13 43 44 45
DONOR_HYDROGENS      STATIC     ATOMS    <user>   **** ""
2 41 36
ATOM$BLUE        STATIC     ATOMS    COLORGROUP SYSTEM
6 42 12 13 43 44 45
ATOM$RED        STATIC     ATOMS    COLORGROUP SYSTEM
2 41 36
