AV-unprocessed.smi:639|AV-procd|sdf|3145|dock10
  -GOLD-   22720 0 73D 1   1.00000     0.00000
 Structure written by MMmdl.
 24 25  0  0  0  0  0  0  0  0  1 V2000
  151.3141  140.9272  156.9657 C   0  0  0  0  0  0  0  0  0  0  0  0
  150.5413  140.2168  155.9694 N   0  0  0  0  0  0  0  0  0  0  0  0
  149.2535  139.7372  156.0629 C   0  0  0  0  0  0  0  0  0  0  0  0
  148.9449  139.1344  154.8739 C   0  0  0  0  0  0  0  0  0  0  0  0
  147.6518  138.4554  154.4664 C   0  0  2  0  0  0  0  0  0  0  0  0
  147.2787  137.2953  155.4080 C   0  0  0  0  0  0  0  0  0  0  0  0
  147.6640  138.0121  153.0800 N   0  0  0  0  0  0  0  0  0  0  0  0
  146.7861  138.6744  152.3141 C   0  0  0  0  0  0  0  0  0  0  0  0
  146.6105  138.5104  151.1092 O   0  0  0  0  0  0  0  0  0  0  0  0
  146.1307  139.5388  153.0947 N   0  0  0  0  0  0  0  0  0  0  0  0
  146.5344  139.4861  154.3630 C   0  0  0  0  0  0  0  0  0  0  0  0
  146.0952  140.1469  155.3031 O   0  0  0  0  0  0  0  0  0  0  0  0
  150.1383  139.3040  154.1106 C   0  0  0  0  0  0  0  0  0  0  0  0
  151.0888  139.9479  154.7675 N   0  0  0  0  0  0  0  0  0  0  0  0
  150.6479  141.3755  157.7034 H   0  0  0  0  0  0  0  0  0  0  0  0
  151.8991  141.7173  156.4936 H   0  0  0  0  0  0  0  0  0  0  0  0
  151.9881  140.2339  157.4693 H   0  0  0  0  0  0  0  0  0  0  0  0
  148.6644  139.8646  156.9591 H   0  0  0  0  0  0  0  0  0  0  0  0
  147.1773  137.6339  156.4397 H   0  0  0  0  0  0  0  0  0  0  0  0
  148.0431  136.5178  155.3907 H   0  0  0  0  0  0  0  0  0  0  0  0
  146.3334  136.8325  155.1213 H   0  0  0  0  0  0  0  0  0  0  0  0
  148.2877  137.2943  152.7406 H   0  0  0  0  0  0  0  0  0  0  0  0
  145.4029  140.1548  152.7625 H   0  0  0  0  0  0  0  0  0  0  0  0
  150.3411  138.9795  153.1006 H   0  0  0  0  0  0  0  0  0  0  0  0
  1  2  1  0  0  0  0
  1 15  1  0  0  0  0
  1 16  1  0  0  0  0
  1 17  1  0  0  0  0
  2 14  1  0  0  0  0
  2  3  1  0  0  0  0
  3  4  2  0  0  0  0
  3 18  1  0  0  0  0
  4  5  1  0  0  0  0
  4 13  1  0  0  0  0
  5 11  1  0  0  0  0
  5  6  1  0  0  0  0
  5  7  1  0  0  0  0
  6 19  1  0  0  0  0
  6 20  1  0  0  0  0
  6 21  1  0  0  0  0
  7  8  1  0  0  0  0
  7 22  1  0  0  0  0
  8  9  2  0  0  0  0
  8 10  1  0  0  0  0
 10 11  1  0  0  0  0
 10 23  1  0  0  0  0
 11 12  2  0  0  0  0
 13 14  2  0  0  0  0
 13 24  1  0  0  0  0
M  END
> <s_m_source_file>
AV-unprocessed.smi

> <i_m_source_file_index>
639

> <i_lp_mmshare_version>
43012

> <i_f3d_flags>
0

> <s_epik_input>
W0NIM11uMVtjSF1jKFtjSF1uMSlbQ0BAXTIoW0NIM10pW05IXUMoPU8pW05IXUMyPU8=

> <s_epik_cmdline>
J2VwaWtfcHl0aG9uJywgJy1waCcsICc3LjAnLCAnLXRuJywgJzgnLCAnLW1hJywgJzIwMCcsICctbWV0YWxfYmluZGluZycsICctaW1hZScsICc8aW5maWxlLm1hZT4nLCAnLW9tYWUnLCAnPG91dGZpbGUubWFlPic=

> <r_lp_tautomer_probability>
1

> <r_epik_Ionization_Penalty>
0.0282779

> <r_epik_Ionization_Penalty_Charging>
0

> <r_epik_Ionization_Penalty_Neutral>
0.0282779

> <r_epik_State_Penalty>
0.022996

> <r_epik_Charging_Adjusted_Penalty>
0.022996

> <i_epik_Tot_Q>
0

> <i_epik_Tot_abs_Q>
0

> <r_epik_Metal_State_Penalty>
0.428533

> <b_epik_Metal_Only>
0

> <s_lp_Force_Field>
OPLS_2005

> <r_lp_Energy>
13.4697

> <b_lp_Chiralities_Consistent>
1

> <s_lp_Variant>
AV-unprocessed.smi:639-2

> <Gold.Version>
5.8.1

> <Gold.Id.Protein>
6NUR|6NUR_protein|mol2

> <Gold.PLP.Fitness>
31.8323

> <Gold.PLP.PLP>
-17.8102

> <Gold.PLP.part.hbond>
-3.9800

> <Gold.PLP.part.metal>
0.0000

> <Gold.PLP.part.buried>
-2.7839

> <Gold.PLP.part.nonpolar>
-12.7691

> <Gold.PLP.part.repulsive>
1.1855

> <Gold.PLP.ligand.clash>
0.0000

> <Gold.PLP.ligand.torsion>
0.0712

> <Gold.PLP.Chemscore.Hbond>
3.7960

> <Gold.PLP.Chemscore.CHOScore>
0.8832

> <Gold.PLP.Chemscore.Metal>
0.0000

> <Gold.Chemscore.Hbonds>
donor molecule, donor type, donor heavy atom, donor atom, acceptor molecule, acceptor atom, score
      L1  H     7    22       P1  7948  0.98
      L1  H    10    23       P1 10175  1.00
      P1  H  7954  7966       L1     9  0.89
      P1  H  7989  7998       L1    14  0.85
      L1  C    13    24       P1  7957  0.93

> <Gold.PLP.Chemscore.Internal.Correction>
0.1268

> <Gold.Rescore>
     Score         DG    S(hbond)    S(metal)    S(lipo)     H(rot)  DE(clash)    DE(int)     intcor
     14.96     -16.52       3.28        0.00      22.73       1.00       1.48       0.08       ----

> <Gold.Chemscore.Fitness>
14.9635

> <Gold.Chemscore.DG>
-16.5213

> <Gold.Chemscore.ZeroCoef>
-5.4800

> <Gold.Chemscore.Hbond>
3.2760

> <Gold.Chemscore.Metal>
0.0000

> <Gold.Chemscore.Lipo>
22.7302

> <Gold.Chemscore.Internal_Hbond>
0.0000

> <Gold.Chemscore.DEClash>
1.4801

> <Gold.Chemscore.DEInternal>
0.0777

> <Gold.Chemscore.Rot>
1.0000

> <Gold.Chemscore.Internal.Correction>
   9.000000E+99

> <Gold.Chemscore.Hbonds>
donor molecule, donor type, donor heavy atom, donor atom, acceptor molecule, acceptor atom, score
      L1  H     7    22       P1  7948  0.92
      L1  H    10    23       P1 10175  0.91
      P1  H  7954  7966       L1     9  0.83
      P1  H  7989  7998       L1    14  0.15

> <Gold.Chemscore.Hbond.Weighted>
-10.9419

> <Gold.Chemscore.Metal.Weighted>
-0.0000

> <Gold.Chemscore.Lipo.Weighted>
-2.6594

> <Gold.Chemscore.Internal_Hbond.Weighted>
0.0000

> <Gold.Chemscore.DEClash.Weighted>
1.4801

> <Gold.Chemscore.DEInternal.Weighted>
0.0777

> <Gold.Chemscore.Rot.Weighted>
2.5600

> <Gold.Chemscore.Internal.Correction.Weighted>
   9.000000E+99

> <Gold.Protein.RotatedTorsions>
[ 6907 6896 6895 6894 ] final  -58.44 input  -60.11 | X-H torsion
[ 7974 7965 7964 7962 ] final  141.67 input  175.53 | X-H torsion
[ 8008 7997 7996 7995 ] final   65.82 input   59.86 | X-H torsion
[ 10167 10162 10161 10158 ] final  -35.36 input  -65.29 | X-H torsion
[ 10718 10713 10712 10709 ] final  154.49 input   66.30 | X-H torsion
[ 10763 10752 10751 10750 ] final -126.59 input  -60.55 | X-H torsion
[ 11005 11000 10999 10996 ] final   21.46 input  -57.11 | X-H torsion

> <Gold.Protein.ActiveResidues>
 VAL166  LYS551  ARG553  GLY616  TRP617  ASP618  TYR619  PRO620  LYS621  CYS622 
 ASP623  PHE694  ASN695  SER759  ASP760  ASP761  ALA762  ILE779  LEU786  VAL792 
 PHE793  MET794  SER795  GLU796  ALA797  LYS798  CYS799  TRP800  GLU811  SER814 

> <Gold.Protein.RotatedAtoms>
  150.8007  134.7098  159.6596 H   0  0  0  0  0  0  0  0  0  0  0  0  # atno 6907 bound_to 6896
  152.4123  134.6099  160.0032 H   0  0  0  0  0  0  0  0  0  0  0  0  # atno 6908 bound_to 6896
  151.6338  133.3293  159.3151 H   0  0  0  0  0  0  0  0  0  0  0  0  # atno 6909 bound_to 6896
  144.9075  139.5337  143.5724 H   0  0  0  0  0  0  0  0  0  0  0  0  # atno 7974 bound_to 7965
  155.6678  140.3497  155.4807 H   0  0  0  0  0  0  0  0  0  0  0  0  # atno 8008 bound_to 7997
  155.9714  140.1156  157.0831 H   0  0  0  0  0  0  0  0  0  0  0  0  # atno 8009 bound_to 7997
  154.4167  140.1156  156.5298 H   0  0  0  0  0  0  0  0  0  0  0  0  # atno 8010 bound_to 7997
  140.7166  143.3483  151.2210 H   0  0  0  0  0  0  0  0  0  0  0  0  # atno 10167 bound_to 10162
  157.2309  131.0739  151.1853 H   0  0  0  0  0  0  0  0  0  0  0  0  # atno 10718 bound_to 10713
  154.8746  135.3990  154.3455 H   0  0  0  0  0  0  0  0  0  0  0  0  # atno 10763 bound_to 10752
  153.4248  135.7024  153.6275 H   0  0  0  0  0  0  0  0  0  0  0  0  # atno 10764 bound_to 10752
  153.4922  135.3746  155.2467 H   0  0  0  0  0  0  0  0  0  0  0  0  # atno 10765 bound_to 10752
  140.3913  134.1816  155.7662 H   0  0  0  0  0  0  0  0  0  0  0  0  # atno 11005 bound_to 11000
  146.3141  139.7855  142.8997 LP  0  0  0  0  0  0  0  0  0  0  0  0  # atno 17320 bound_to 7965
  145.3510  141.0307  143.3338 LP  0  0  0  0  0  0  0  0  0  0  0  0  # atno 17321 bound_to 7965
  139.7007  143.9537  152.2904 LP  0  0  0  0  0  0  0  0  0  0  0  0  # atno 17342 bound_to 10162
  139.9230  144.6788  150.8442 LP  0  0  0  0  0  0  0  0  0  0  0  0  # atno 17343 bound_to 10162
  157.3479  130.7067  149.6422 LP  0  0  0  0  0  0  0  0  0  0  0  0  # atno 17370 bound_to 10713
  155.9675  130.4261  150.4684 LP  0  0  0  0  0  0  0  0  0  0  0  0  # atno 17371 bound_to 10713
  141.1890  133.8248  157.0974 LP  0  0  0  0  0  0  0  0  0  0  0  0  # atno 17394 bound_to 11000
  140.0405  134.9857  157.0952 LP  0  0  0  0  0  0  0  0  0  0  0  0  # atno 17395 bound_to 11000

$$$$
