AV-unprocessed.smi:975|AV-procd|sdf|4301|dock7
  -GOLD-   22720 2203D 1   1.00000     0.00000
 Structure written by MMmdl.
 44 45  0  0  0  0  0  0  0  0  1 V2000
  153.7589  142.5684  163.6333 C   0  0  0  0  0  0  0  0  0  0  0  0
  153.2989  142.7298  162.1991 C   0  0  0  0  0  0  0  0  0  0  0  0
  152.3851  143.7907  161.8292 C   0  0  0  0  0  0  0  0  0  0  0  0
  151.9951  143.9005  160.5499 C   0  0  0  0  0  0  0  0  0  0  0  0
  152.4501  143.0162  159.5552 N   0  0  0  0  0  0  0  0  0  0  0  0
  151.9644  143.2454  158.1822 C   0  0  0  0  0  0  0  0  0  0  0  0
  151.2265  142.0524  157.5495 C   0  0  0  0  0  0  0  0  0  0  0  0
  151.4685  140.9168  157.9568 O   0  0  0  0  0  0  0  0  0  0  0  0
  150.3357  142.3027  156.5741 N   0  0  0  0  0  0  0  0  0  0  0  0
  149.5367  141.3111  155.8595 C   0  0  0  0  0  0  0  0  0  0  0  0
  148.9225  141.9938  154.6157 C   0  0  0  0  0  0  0  0  0  0  0  0
  147.9285  141.1522  153.7948 C   0  0  0  0  0  0  0  0  0  0  0  0
  146.4388  141.3545  154.1534 C   0  0  0  0  0  0  0  0  0  0  0  0
  145.8936  140.4379  155.2642 C   0  0  0  0  0  0  0  0  0  0  0  0
  145.9595  140.9874  156.7053 C   0  0  0  0  0  0  0  0  0  0  0  0
  147.3173  141.5294  157.1880 C   0  0  0  0  0  0  0  0  0  0  0  0
  148.5281  140.6478  156.8237 C   0  0  0  0  0  0  0  0  0  0  0  0
  153.3202  141.9995  159.8361 C   0  0  0  0  0  0  0  0  0  0  0  0
  153.7359  141.2337  158.9667 O   0  0  0  0  0  0  0  0  0  0  0  0
  153.7350  141.8848  161.2390 C   0  0  0  0  0  0  0  0  0  0  0  0
  153.3300  143.3390  164.2747 H   0  0  0  0  0  0  0  0  0  0  0  0
  154.8451  142.6410  163.6937 H   0  0  0  0  0  0  0  0  0  0  0  0
  153.4564  141.5953  164.0211 H   0  0  0  0  0  0  0  0  0  0  0  0
  152.0214  144.4882  162.5698 H   0  0  0  0  0  0  0  0  0  0  0  0
  151.3208  144.6717  160.2059 H   0  0  0  0  0  0  0  0  0  0  0  0
  151.3051  144.1146  158.1511 H   0  0  0  0  0  0  0  0  0  0  0  0
  152.8007  143.5066  157.5319 H   0  0  0  0  0  0  0  0  0  0  0  0
  150.1983  143.2661  156.3050 H   0  0  0  0  0  0  0  0  0  0  0  0
  150.2057  140.5273  155.4989 H   0  0  0  0  0  0  0  0  0  0  0  0
  148.4659  142.9495  154.8749 H   0  0  0  0  0  0  0  0  0  0  0  0
  149.7520  142.2589  153.9583 H   0  0  0  0  0  0  0  0  0  0  0  0
  148.0424  141.4615  152.7549 H   0  0  0  0  0  0  0  0  0  0  0  0
  148.2026  140.0967  153.8076 H   0  0  0  0  0  0  0  0  0  0  0  0
  146.2188  142.4012  154.3670 H   0  0  0  0  0  0  0  0  0  0  0  0
  145.8690  141.1236  153.2524 H   0  0  0  0  0  0  0  0  0  0  0  0
  144.8412  140.2463  155.0510 H   0  0  0  0  0  0  0  0  0  0  0  0
  146.3648  139.4573  155.2009 H   0  0  0  0  0  0  0  0  0  0  0  0
  145.2165  141.7776  156.8187 H   0  0  0  0  0  0  0  0  0  0  0  0
  145.6432  140.1914  157.3805 H   0  0  0  0  0  0  0  0  0  0  0  0
  147.4514  142.5472  156.8246 H   0  0  0  0  0  0  0  0  0  0  0  0
  147.2739  141.6353  158.2726 H   0  0  0  0  0  0  0  0  0  0  0  0
  148.2057  139.6948  156.4083 H   0  0  0  0  0  0  0  0  0  0  0  0
  149.0461  140.3668  157.7417 H   0  0  0  0  0  0  0  0  0  0  0  0
  154.4171  141.0912  161.5084 H   0  0  0  0  0  0  0  0  0  0  0  0
  1  2  1  0  0  0  0
  1 21  1  0  0  0  0
  1 22  1  0  0  0  0
  1 23  1  0  0  0  0
  2 20  2  0  0  0  0
  2  3  1  0  0  0  0
  3  4  2  0  0  0  0
  3 24  1  0  0  0  0
  4  5  1  0  0  0  0
  4 25  1  0  0  0  0
  5  6  1  0  0  0  0
  5 18  1  0  0  0  0
  6  7  1  0  0  0  0
  6 26  1  0  0  0  0
  6 27  1  0  0  0  0
  7  8  2  0  0  0  0
  7  9  1  0  0  0  0
  9 10  1  0  0  0  0
  9 28  1  0  0  0  0
 10 17  1  0  0  0  0
 10 11  1  0  0  0  0
 10 29  1  0  0  0  0
 11 12  1  0  0  0  0
 11 30  1  0  0  0  0
 11 31  1  0  0  0  0
 12 13  1  0  0  0  0
 12 32  1  0  0  0  0
 12 33  1  0  0  0  0
 13 14  1  0  0  0  0
 13 34  1  0  0  0  0
 13 35  1  0  0  0  0
 14 15  1  0  0  0  0
 14 36  1  0  0  0  0
 14 37  1  0  0  0  0
 15 16  1  0  0  0  0
 15 38  1  0  0  0  0
 15 39  1  0  0  0  0
 16 17  1  0  0  0  0
 16 40  1  0  0  0  0
 16 41  1  0  0  0  0
 17 42  1  0  0  0  0
 17 43  1  0  0  0  0
 18 19  2  0  0  0  0
 18 20  1  0  0  0  0
 20 44  1  0  0  0  0
M  END
> <s_m_source_file>
AV-unprocessed.smi

> <i_m_source_file_index>
975

> <i_lp_mmshare_version>
43012

> <i_f3d_flags>
0

> <s_epik_input>
W0NIM11jMVtjSF1bY0hdbihjKD1PKVtjSF0xKVtDSDJdQyg9TylbTkhdW0NIXTJbQ0gyXVtDSDJdW0NIMl1bQ0gyXVtDSDJdW0NIMl1bQ0gyXTI=

> <s_epik_cmdline>
J2VwaWtfcHl0aG9uJywgJy1waCcsICc3LjAnLCAnLXRuJywgJzgnLCAnLW1hJywgJzIwMCcsICctbWV0YWxfYmluZGluZycsICctaW1hZScsICc8aW5maWxlLm1hZT4nLCAnLW9tYWUnLCAnPG91dGZpbGUubWFlPic=

> <r_lp_tautomer_probability>
1

> <r_epik_Ionization_Penalty>
5.54847e-07

> <r_epik_Ionization_Penalty_Charging>
5.34632e-07

> <r_epik_Ionization_Penalty_Neutral>
2.02148e-08

> <r_epik_State_Penalty>
-0

> <r_epik_Charging_Adjusted_Penalty>
5.34632e-07

> <i_epik_Tot_Q>
0

> <i_epik_Tot_abs_Q>
0

> <r_epik_Metal_State_Penalty>
-0

> <b_epik_Metal_Only>
0

> <s_lp_Force_Field>
OPLS_2005

> <r_lp_Energy>
31.8723

> <b_lp_Chiralities_Consistent>
1

> <s_lp_Variant>
AV-unprocessed.smi:975-1

> <Gold.Version>
5.8.1

> <Gold.Id.Protein>
6NUR|6NUR_protein|mol2

> <Gold.PLP.Fitness>
44.2535

> <Gold.PLP.PLP>
-42.4707

> <Gold.PLP.part.hbond>
-1.9492

> <Gold.PLP.part.metal>
0.0000

> <Gold.PLP.part.buried>
0.0445

> <Gold.PLP.part.nonpolar>
-40.2431

> <Gold.PLP.part.repulsive>
0.0648

> <Gold.PLP.ligand.clash>
0.0000

> <Gold.PLP.ligand.torsion>
0.4519

> <Gold.PLP.Chemscore.Hbond>
0.8866

> <Gold.PLP.Chemscore.CHOScore>
0.0000

> <Gold.PLP.Chemscore.Metal>
0.0000

> <Gold.Chemscore.Hbonds>
donor molecule, donor type, donor heavy atom, donor atom, acceptor molecule, acceptor atom, score
      L1  H     9    28       P1  8028  0.89
      P1  H  7997  8010       L1    19  0.05

> <Gold.PLP.Chemscore.Internal.Correction>
0.0268

> <Gold.Rescore>
     Score         DG    S(hbond)    S(metal)    S(lipo)     H(rot)  DE(clash)    DE(int)     intcor
     12.67     -17.59       0.97        0.00     104.96       1.34       1.83       3.08       ----

> <Gold.Chemscore.Fitness>
12.6721

> <Gold.Chemscore.DG>
-17.5869

> <Gold.Chemscore.ZeroCoef>
-5.4800

> <Gold.Chemscore.Hbond>
0.9715

> <Gold.Chemscore.Metal>
0.0000

> <Gold.Chemscore.Lipo>
104.9581

> <Gold.Chemscore.Internal_Hbond>
0.0000

> <Gold.Chemscore.DEClash>
1.8342

> <Gold.Chemscore.DEInternal>
3.0805

> <Gold.Chemscore.Rot>
1.3352

> <Gold.Chemscore.Internal.Correction>
   9.000000E+99

> <Gold.Chemscore.Hbonds>
donor molecule, donor type, donor heavy atom, donor atom, acceptor molecule, acceptor atom, score
      L1  H     9    28       P1  8028  0.82
      P1  H  7997  8010       L1    19  0.07

> <Gold.Chemscore.Hbond.Weighted>
-3.2449

> <Gold.Chemscore.Metal.Weighted>
-0.0000

> <Gold.Chemscore.Lipo.Weighted>
-12.2801

> <Gold.Chemscore.Internal_Hbond.Weighted>
0.0000

> <Gold.Chemscore.DEClash.Weighted>
1.8342

> <Gold.Chemscore.DEInternal.Weighted>
3.0805

> <Gold.Chemscore.Rot.Weighted>
3.4181

> <Gold.Chemscore.Internal.Correction.Weighted>
   9.000000E+99

> <Gold.Protein.RotatedTorsions>
[ 6907 6896 6895 6894 ] final  -58.19 input  -60.11 | X-H torsion
[ 7974 7965 7964 7962 ] final  150.80 input  175.53 | X-H torsion
[ 8008 7997 7996 7995 ] final   11.06 input   59.86 | X-H torsion
[ 10167 10162 10161 10158 ] final  101.49 input  -65.29 | X-H torsion
[ 10718 10713 10712 10709 ] final   89.43 input   66.30 | X-H torsion
[ 10763 10752 10751 10750 ] final -126.30 input  -60.55 | X-H torsion
[ 11005 11000 10999 10996 ] final   86.40 input  -57.11 | X-H torsion

> <Gold.Protein.ActiveResidues>
 VAL166  LYS551  ARG553  GLY616  TRP617  ASP618  TYR619  PRO620  LYS621  CYS622 
 ASP623  PHE694  ASN695  SER759  ASP760  ASP761  ALA762  ILE779  LEU786  VAL792 
 PHE793  MET794  SER795  GLU796  ALA797  LYS798  CYS799  TRP800  GLU811  SER814 

> <Gold.Protein.RotatedAtoms>
  150.8026  134.7130  159.6614 H   0  0  0  0  0  0  0  0  0  0  0  0  # atno 6907 bound_to 6896
  152.4144  134.6064  160.0024 H   0  0  0  0  0  0  0  0  0  0  0  0  # atno 6908 bound_to 6896
  151.6298  133.3296  159.3142 H   0  0  0  0  0  0  0  0  0  0  0  0  # atno 6909 bound_to 6896
  144.8338  139.6455  143.6047 H   0  0  0  0  0  0  0  0  0  0  0  0  # atno 7974 bound_to 7965
  154.8018  140.2853  155.5916 H   0  0  0  0  0  0  0  0  0  0  0  0  # atno 8008 bound_to 7997
  156.2978  140.2585  156.2817 H   0  0  0  0  0  0  0  0  0  0  0  0  # atno 8009 bound_to 7997
  154.9549  140.0378  157.2151 H   0  0  0  0  0  0  0  0  0  0  0  0  # atno 8010 bound_to 7997
  139.7433  144.7005  151.0542 H   0  0  0  0  0  0  0  0  0  0  0  0  # atno 10167 bound_to 10162
  157.6955  131.0333  150.3424 H   0  0  0  0  0  0  0  0  0  0  0  0  # atno 10718 bound_to 10713
  154.8744  135.4000  154.3408 H   0  0  0  0  0  0  0  0  0  0  0  0  # atno 10763 bound_to 10752
  153.4208  135.7023  153.6301 H   0  0  0  0  0  0  0  0  0  0  0  0  # atno 10764 bound_to 10752
  153.4964  135.3737  155.2488 H   0  0  0  0  0  0  0  0  0  0  0  0  # atno 10765 bound_to 10752
  139.8945  134.8352  156.2715 H   0  0  0  0  0  0  0  0  0  0  0  0  # atno 11005 bound_to 11000
  146.2638  139.6473  142.9343 LP  0  0  0  0  0  0  0  0  0  0  0  0  # atno 17320 bound_to 7965
  145.4839  141.0438  143.2630 LP  0  0  0  0  0  0  0  0  0  0  0  0  # atno 17321 bound_to 7965
  140.7789  143.4898  150.9908 LP  0  0  0  0  0  0  0  0  0  0  0  0  # atno 17342 bound_to 10162
  139.8586  143.7344  152.3174 LP  0  0  0  0  0  0  0  0  0  0  0  0  # atno 17343 bound_to 10162
  156.3883  130.3893  149.7049 LP  0  0  0  0  0  0  0  0  0  0  0  0  # atno 17370 bound_to 10713
  156.4407  130.7860  151.2881 LP  0  0  0  0  0  0  0  0  0  0  0  0  # atno 17371 bound_to 10713
  141.0098  133.7102  156.1093 LP  0  0  0  0  0  0  0  0  0  0  0  0  # atno 17394 bound_to 11000
  140.7384  134.4178  157.5558 LP  0  0  0  0  0  0  0  0  0  0  0  0  # atno 17395 bound_to 11000

$$$$
