AV-unprocessed.smi:153|AV-procd|sdf|1260|dock8
  -GOLD-   2262018503D 1   1.00000     0.00000
 Structure written by MMmdl.
 59 62  0  0  0  0  0  0  0  0  1 V2000
  149.8435  145.1244  159.7189 C   0  0  0  0  0  0  0  0  0  0  0  0
  151.1947  144.6013  160.2445 C   0  0  2  0  0  0  0  0  0  0  0  0
  152.2045  145.5002  159.7986 O   0  0  0  0  0  0  0  0  0  0  0  0
  152.7660  145.0479  158.5693 C   0  0  0  0  0  0  0  0  0  0  0  0
  152.2561  143.6203  158.3549 C   0  0  0  0  0  0  0  0  0  0  0  0
  151.6389  143.2294  159.6948 C   0  0  2  0  0  0  0  0  0  0  0  0
  150.5361  142.3696  159.4739 O   0  0  0  0  0  0  0  0  0  0  0  0
  152.6053  142.4594  160.6371 C   0  0  0  0  0  0  0  0  0  0  0  0
  153.2568  141.3046  160.0376 N   0  0  0  0  0  0  0  0  0  0  0  0
  152.9647  140.7345  158.8217 C   0  0  0  0  0  0  0  0  0  0  0  0
  153.6848  139.6933  158.5136 N   0  0  0  0  0  0  0  0  0  0  0  0
  154.5560  139.5312  159.5869 C   0  0  0  0  0  0  0  0  0  0  0  0
  155.5959  138.6029  159.9141 C   0  0  0  0  0  0  0  0  0  0  0  0
  155.9723  137.5327  159.1499 N   0  0  0  0  0  0  0  0  0  0  0  0
  156.3370  136.2861  159.8211 C   0  0  0  0  0  0  0  0  0  0  0  0
  155.5377  137.4278  157.7575 C   0  0  0  0  0  0  0  0  0  0  0  0
  156.7171  137.4083  156.7573 C   0  0  2  0  0  0  0  0  0  0  0  0
  157.5792  138.5023  156.9950 O   0  0  0  0  0  0  0  0  0  0  0  0
  156.2843  137.4123  155.2739 C   0  0  0  0  0  0  0  0  0  0  0  0
  157.3407  137.2313  154.2745 N   0  0  0  0  0  0  0  0  0  0  0  0
  156.8019  137.3499  152.9237 C   0  0  0  0  0  0  0  0  0  0  0  0
  157.8898  137.1737  151.8505 C   0  0  0  0  0  0  0  0  0  0  0  0
  158.5326  135.9158  152.0275 O   0  0  0  0  0  0  0  0  0  0  0  0
  159.1142  135.7747  153.3192 C   0  0  0  0  0  0  0  0  0  0  0  0
  158.0305  135.9491  154.3976 C   0  0  0  0  0  0  0  0  0  0  0  0
  156.2489  138.8152  161.0899 N   0  0  0  0  0  0  0  0  0  0  0  0
  155.9154  139.8274  161.8931 C   0  0  0  0  0  0  0  0  0  0  0  0
  154.9664  140.7460  161.7226 N   0  0  0  0  0  0  0  0  0  0  0  0
  154.3061  140.5581  160.5457 C   0  0  0  0  0  0  0  0  0  0  0  0
  149.0163  144.5016  160.0600 H   0  0  0  0  0  0  0  0  0  0  0  0
  149.8136  145.1531  158.6296 H   0  0  0  0  0  0  0  0  0  0  0  0
  149.6572  146.1359  160.0797 H   0  0  0  0  0  0  0  0  0  0  0  0
  151.1576  144.5970  161.3339 H   0  0  0  0  0  0  0  0  0  0  0  0
  152.4628  145.7011  157.7510 H   0  0  0  0  0  0  0  0  0  0  0  0
  153.8534  145.0806  158.6383 H   0  0  0  0  0  0  0  0  0  0  0  0
  151.4920  143.6387  157.5760 H   0  0  0  0  0  0  0  0  0  0  0  0
  153.0338  142.9348  158.0195 H   0  0  0  0  0  0  0  0  0  0  0  0
  150.1020  142.6371  158.6781 H   0  0  0  0  0  0  0  0  0  0  0  0
  153.3854  143.1317  160.9974 H   0  0  0  0  0  0  0  0  0  0  0  0
  152.0694  142.1203  161.5246 H   0  0  0  0  0  0  0  0  0  0  0  0
  152.1891  141.1089  158.1698 H   0  0  0  0  0  0  0  0  0  0  0  0
  157.1678  136.4442  160.5096 H   0  0  0  0  0  0  0  0  0  0  0  0
  156.6479  135.5279  159.1025 H   0  0  0  0  0  0  0  0  0  0  0  0
  155.4896  135.8873  160.3801 H   0  0  0  0  0  0  0  0  0  0  0  0
  154.9094  136.5476  157.6442 H   0  0  0  0  0  0  0  0  0  0  0  0
  154.8688  138.2563  157.5216 H   0  0  0  0  0  0  0  0  0  0  0  0
  157.3157  136.5088  156.9052 H   0  0  0  0  0  0  0  0  0  0  0  0
  158.3808  138.1734  157.3716 H   0  0  0  0  0  0  0  0  0  0  0  0
  155.4846  136.6872  155.1145 H   0  0  0  0  0  0  0  0  0  0  0  0
  155.8256  138.3860  155.0955 H   0  0  0  0  0  0  0  0  0  0  0  0
  156.0212  136.6030  152.7701 H   0  0  0  0  0  0  0  0  0  0  0  0
  156.3293  138.3247  152.7978 H   0  0  0  0  0  0  0  0  0  0  0  0
  157.4494  137.2120  150.8541 H   0  0  0  0  0  0  0  0  0  0  0  0
  158.6244  137.9782  151.9085 H   0  0  0  0  0  0  0  0  0  0  0  0
  159.5730  134.7891  153.3985 H   0  0  0  0  0  0  0  0  0  0  0  0
  159.9096  136.5104  153.4492 H   0  0  0  0  0  0  0  0  0  0  0  0
  158.5028  135.8655  155.3754 H   0  0  0  0  0  0  0  0  0  0  0  0
  157.3110  135.1321  154.3243 H   0  0  0  0  0  0  0  0  0  0  0  0
  156.4889  139.9096  162.8044 H   0  0  0  0  0  0  0  0  0  0  0  0
  1  2  1  0  0  0  0
  1 30  1  0  0  0  0
  1 31  1  0  0  0  0
  1 32  1  0  0  0  0
  2  6  1  0  0  0  0
  2  3  1  0  0  0  0
  2 33  1  0  0  0  0
  3  4  1  0  0  0  0
  4  5  1  0  0  0  0
  4 34  1  0  0  0  0
  4 35  1  0  0  0  0
  5  6  1  0  0  0  0
  5 36  1  0  0  0  0
  5 37  1  0  0  0  0
  6  7  1  0  0  0  0
  6  8  1  0  0  0  0
  7 38  1  0  0  0  0
  8  9  1  0  0  0  0
  8 39  1  0  0  0  0
  8 40  1  0  0  0  0
  9 29  1  0  0  0  0
  9 10  1  0  0  0  0
 10 11  2  0  0  0  0
 10 41  1  0  0  0  0
 11 12  1  0  0  0  0
 12 29  2  0  0  0  0
 12 13  1  0  0  0  0
 13 14  1  0  0  0  0
 13 26  2  0  0  0  0
 14 15  1  0  0  0  0
 14 16  1  0  0  0  0
 15 42  1  0  0  0  0
 15 43  1  0  0  0  0
 15 44  1  0  0  0  0
 16 17  1  0  0  0  0
 16 45  1  0  0  0  0
 16 46  1  0  0  0  0
 17 18  1  0  0  0  0
 17 19  1  0  0  0  0
 17 47  1  0  0  0  0
 18 48  1  0  0  0  0
 19 20  1  0  0  0  0
 19 49  1  0  0  0  0
 19 50  1  0  0  0  0
 20 25  1  0  0  0  0
 20 21  1  0  0  0  0
 21 22  1  0  0  0  0
 21 51  1  0  0  0  0
 21 52  1  0  0  0  0
 22 23  1  0  0  0  0
 22 53  1  0  0  0  0
 22 54  1  0  0  0  0
 23 24  1  0  0  0  0
 24 25  1  0  0  0  0
 24 55  1  0  0  0  0
 24 56  1  0  0  0  0
 25 57  1  0  0  0  0
 25 58  1  0  0  0  0
 26 27  1  0  0  0  0
 27 28  2  0  0  0  0
 27 59  1  0  0  0  0
 28 29  1  0  0  0  0
M  END
> <s_m_source_file>
AV-unprocessed.smi

> <i_m_source_file_index>
153

> <i_lp_mmshare_version>
43012

> <i_f3d_flags>
0

> <s_epik_input>
W0NIMl0xW0NIMl1PW0NAQEhdKFtDSDNdKVtDQEBdMShbT0hdKVtDSDJdbihbY0hdbjIpYyhjMjMpbltjSF1uYzNOKFtDSDNdKVtDSDJdW0NASF0oW09IXSlbQ0gyXU40W0NIMl1bQ0gyXU9bQ0gyXVtDSDJdNA==

> <s_epik_cmdline>
J2VwaWtfcHl0aG9uJywgJy1waCcsICc3LjAnLCAnLXRuJywgJzgnLCAnLW1hJywgJzIwMCcsICctbWV0YWxfYmluZGluZycsICctaW1hZScsICc8aW5maWxlLm1hZT4nLCAnLW9tYWUnLCAnPG91dGZpbGUubWFlPic=

> <r_lp_tautomer_probability>
1

> <r_epik_Ionization_Penalty>
0.424123

> <r_epik_Ionization_Penalty_Charging>
0

> <r_epik_Ionization_Penalty_Neutral>
0.424123

> <r_epik_State_Penalty>
0.421495

> <r_epik_Charging_Adjusted_Penalty>
0.421495

> <i_epik_Tot_Q>
0

> <i_epik_Tot_abs_Q>
0

> <r_epik_Metal_State_Penalty>
0.421223

> <b_epik_Metal_Only>
0

> <s_lp_Force_Field>
OPLS_2005

> <r_lp_Energy>
59.2369

> <b_lp_Chiralities_Consistent>
1

> <s_lp_Variant>
AV-unprocessed.smi:153-11

> <Gold.Version>
5.8.1

> <Gold.Id.Protein>
6NUR|6NUR_protein|mol2

> <Gold.PLP.Fitness>
51.6691

> <Gold.PLP.PLP>
-46.6105

> <Gold.PLP.part.hbond>
-4.7705

> <Gold.PLP.part.metal>
0.0000

> <Gold.PLP.part.buried>
-2.8634

> <Gold.PLP.part.nonpolar>
-39.7382

> <Gold.PLP.part.repulsive>
0.3810

> <Gold.PLP.ligand.clash>
0.0162

> <Gold.PLP.ligand.torsion>
0.7189

> <Gold.PLP.Chemscore.Hbond>
2.0000

> <Gold.PLP.Chemscore.CHOScore>
0.0000

> <Gold.PLP.Chemscore.Metal>
0.0000

> <Gold.Chemscore.Hbonds>
donor molecule, donor type, donor heavy atom, donor atom, acceptor molecule, acceptor atom, score
      P1  H  7997  8009       L1    18  0.71
      P1  H  7997  8010       L1    11  1.00

> <Gold.PLP.Chemscore.Internal.Correction>
0.5125

> <Gold.Rescore>
     Score         DG    S(hbond)    S(metal)    S(lipo)     H(rot)  DE(clash)    DE(int)     intcor
      9.02     -14.73       1.14        0.00     123.56       3.52       2.64       3.07       ----

> <Gold.Chemscore.Fitness>
9.0162

> <Gold.Chemscore.DG>
-14.7274

> <Gold.Chemscore.ZeroCoef>
-5.4800

> <Gold.Chemscore.Hbond>
1.1361

> <Gold.Chemscore.Metal>
0.0000

> <Gold.Chemscore.Lipo>
123.5596

> <Gold.Chemscore.Internal_Hbond>
0.0000

> <Gold.Chemscore.DEClash>
2.6371

> <Gold.Chemscore.DEInternal>
3.0741

> <Gold.Chemscore.Rot>
3.5170

> <Gold.Chemscore.Internal.Correction>
   9.000000E+99

> <Gold.Chemscore.Hbonds>
donor molecule, donor type, donor heavy atom, donor atom, acceptor molecule, acceptor atom, score
      P1  H  7997  8009       L1    18  0.24
      P1  H  7997  8010       L1    11  0.45

> <Gold.Chemscore.Hbond.Weighted>
-3.7945

> <Gold.Chemscore.Metal.Weighted>
-0.0000

> <Gold.Chemscore.Lipo.Weighted>
-14.4565

> <Gold.Chemscore.Internal_Hbond.Weighted>
0.0000

> <Gold.Chemscore.DEClash.Weighted>
2.6371

> <Gold.Chemscore.DEInternal.Weighted>
3.0741

> <Gold.Chemscore.Rot.Weighted>
9.0036

> <Gold.Chemscore.Internal.Correction.Weighted>
   9.000000E+99

> <Gold.Protein.RotatedTorsions>
[ 6907 6896 6895 6894 ] final  111.83 input  -60.11 | X-H torsion
[ 7974 7965 7964 7962 ] final  -39.51 input  175.53 | X-H torsion
[ 8008 7997 7996 7995 ] final   28.37 input   59.86 | X-H torsion
[ 10167 10162 10161 10158 ] final  161.41 input  -65.29 | X-H torsion
[ 10718 10713 10712 10709 ] final  113.91 input   66.30 | X-H torsion
[ 10763 10752 10751 10750 ] final   65.67 input  -60.55 | X-H torsion
[ 11005 11000 10999 10996 ] final    6.96 input  -57.11 | X-H torsion

> <Gold.Protein.ActiveResidues>
 VAL166  LYS551  ARG553  GLY616  TRP617  ASP618  TYR619  PRO620  LYS621  CYS622 
 ASP623  PHE694  ASN695  SER759  ASP760  ASP761  ALA762  ILE779  LEU786  VAL792 
 PHE793  MET794  SER795  GLU796  ALA797  LYS798  CYS799  TRP800  GLU811  SER814 

> <Gold.Protein.RotatedAtoms>
  152.4949  133.8602  159.7246 H   0  0  0  0  0  0  0  0  0  0  0  0  # atno 6907 bound_to 6896
  150.9116  133.6982  159.2860 H   0  0  0  0  0  0  0  0  0  0  0  0  # atno 6908 bound_to 6896
  151.4389  135.1022  159.9717 H   0  0  0  0  0  0  0  0  0  0  0  0  # atno 6909 bound_to 6896
  146.0389  140.6634  142.9096 H   0  0  0  0  0  0  0  0  0  0  0  0  # atno 7974 bound_to 7965
  155.0576  140.3186  155.4671 H   0  0  0  0  0  0  0  0  0  0  0  0  # atno 8008 bound_to 7997
  156.2820  140.2135  156.5646 H   0  0  0  0  0  0  0  0  0  0  0  0  # atno 8009 bound_to 7997
  154.7159  140.0494  157.0581 H   0  0  0  0  0  0  0  0  0  0  0  0  # atno 8010 bound_to 7997
  139.4849  144.4539  151.8794 H   0  0  0  0  0  0  0  0  0  0  0  0  # atno 10167 bound_to 10162
  157.6311  131.0991  150.7109 H   0  0  0  0  0  0  0  0  0  0  0  0  # atno 10718 bound_to 10713
  153.0106  135.5348  154.6704 H   0  0  0  0  0  0  0  0  0  0  0  0  # atno 10763 bound_to 10752
  154.5890  135.2857  155.0657 H   0  0  0  0  0  0  0  0  0  0  0  0  # atno 10764 bound_to 10752
  154.1758  135.6524  153.5073 H   0  0  0  0  0  0  0  0  0  0  0  0  # atno 10765 bound_to 10752
  140.5536  134.0259  155.7946 H   0  0  0  0  0  0  0  0  0  0  0  0  # atno 11005 bound_to 11000
  144.7065  140.3872  143.7114 LP  0  0  0  0  0  0  0  0  0  0  0  0  # atno 17320 bound_to 7965
  145.6917  139.1640  143.2643 LP  0  0  0  0  0  0  0  0  0  0  0  0  # atno 17321 bound_to 7965
  140.3997  144.2509  150.5894 LP  0  0  0  0  0  0  0  0  0  0  0  0  # atno 17342 bound_to 10162
  140.5068  143.2302  151.8595 LP  0  0  0  0  0  0  0  0  0  0  0  0  # atno 17343 bound_to 10162
  156.7448  130.4750  149.5469 LP  0  0  0  0  0  0  0  0  0  0  0  0  # atno 17370 bound_to 10713
  156.1516  130.6314  151.0603 LP  0  0  0  0  0  0  0  0  0  0  0  0  # atno 17371 bound_to 10713
  141.1156  133.9545  157.2827 LP  0  0  0  0  0  0  0  0  0  0  0  0  # atno 17394 bound_to 11000
  139.9442  135.0186  156.8803 LP  0  0  0  0  0  0  0  0  0  0  0  0  # atno 17395 bound_to 11000

$$$$
