AV-unprocessed.smi:1199|AV-procd|sdf|5019|dock1
  -GOLD-   22720 4 33D 1   1.00000     0.00000
 Structure written by MMmdl.
 41 42  0  0  0  0  0  0  0  0  1 V2000
  146.9305  136.4080  155.5601 C   0  0  0  0  0  0  0  0  0  0  0  0
  148.3073  136.8229  156.1005 C   0  0  1  0  0  0  0  0  0  0  0  0
  148.8172  138.1187  155.4316 C   0  0  0  0  0  0  0  0  0  0  0  0
  150.2018  138.4890  155.7381 N   0  0  0  0  0  0  0  0  0  0  0  0
  150.4020  139.9351  155.8242 C   0  0  0  0  0  0  0  0  0  0  0  0
  151.8697  140.3039  156.1002 C   0  0  0  0  0  0  0  0  0  0  0  0
  152.7052  139.7315  155.1004 O   0  0  0  0  0  0  0  0  0  0  0  0
  152.5806  138.3151  155.0310 C   0  0  0  0  0  0  0  0  0  0  0  0
  151.1163  137.9437  154.7399 C   0  0  0  0  0  0  0  0  0  0  0  0
  148.2055  137.0242  157.5439 N   0  0  0  0  0  0  0  0  0  0  0  0
  148.7239  136.2183  158.4828 C   0  0  0  0  0  0  0  0  0  0  0  0
  149.2678  135.1432  158.2296 O   0  0  0  0  0  0  0  0  0  0  0  0
  148.6172  136.7121  159.9301 C   0  0  0  0  0  0  0  0  0  0  0  0
  147.9178  135.7372  160.7778 N   0  0  0  0  0  0  0  0  0  0  0  0
  147.6381  134.5398  160.1345 N   0  0  0  0  0  0  0  0  0  0  0  0
  146.9840  133.6139  160.7497 C   0  0  0  0  0  0  0  0  0  0  0  0
  146.7229  132.4487  160.0716 O   0  0  0  0  0  0  0  0  0  0  0  0
  146.5378  133.7931  162.1133 C   0  0  0  0  0  0  0  0  0  0  0  0
  146.8197  134.9597  162.7339 C   0  0  0  0  0  0  0  0  0  0  0  0
  147.5542  136.0343  162.0635 C   0  0  0  0  0  0  0  0  0  0  0  0
  147.8149  137.1090  162.6032 O   0  0  0  0  0  0  0  0  0  0  0  0
  146.5406  132.7110  159.1823 H   0  0  0  0  0  0  0  0  0  0  0  0
  146.9705  136.2226  154.4863 H   0  0  0  0  0  0  0  0  0  0  0  0
  146.1828  137.1817  155.7370 H   0  0  0  0  0  0  0  0  0  0  0  0
  146.5819  135.4909  156.0360 H   0  0  0  0  0  0  0  0  0  0  0  0
  149.0066  136.0168  155.8699 H   0  0  0  0  0  0  0  0  0  0  0  0
  148.7489  137.9754  154.3524 H   0  0  0  0  0  0  0  0  0  0  0  0
  148.1447  138.9492  155.6536 H   0  0  0  0  0  0  0  0  0  0  0  0
  150.0756  140.4116  154.8984 H   0  0  0  0  0  0  0  0  0  0  0  0
  149.7954  140.3523  156.6257 H   0  0  0  0  0  0  0  0  0  0  0  0
  151.9948  141.3870  156.0949 H   0  0  0  0  0  0  0  0  0  0  0  0
  152.1770  139.9509  157.0859 H   0  0  0  0  0  0  0  0  0  0  0  0
  153.2320  137.9381  154.2424 H   0  0  0  0  0  0  0  0  0  0  0  0
  152.9154  137.8654  155.9671 H   0  0  0  0  0  0  0  0  0  0  0  0
  151.0219  136.8577  154.7052 H   0  0  0  0  0  0  0  0  0  0  0  0
  150.8439  138.3117  153.7494 H   0  0  0  0  0  0  0  0  0  0  0  0
  147.7652  137.8796  157.8501 H   0  0  0  0  0  0  0  0  0  0  0  0
  149.6136  136.8990  160.3362 H   0  0  0  0  0  0  0  0  0  0  0  0
  148.1163  137.6814  159.9349 H   0  0  0  0  0  0  0  0  0  0  0  0
  145.9932  133.0072  162.6155 H   0  0  0  0  0  0  0  0  0  0  0  0
  146.4913  135.1070  163.7522 H   0  0  0  0  0  0  0  0  0  0  0  0
  1  2  1  0  0  0  0
  1 23  1  0  0  0  0
  1 24  1  0  0  0  0
  1 25  1  0  0  0  0
  2  3  1  0  0  0  0
  2 10  1  0  0  0  0
  2 26  1  0  0  0  0
  3  4  1  0  0  0  0
  3 27  1  0  0  0  0
  3 28  1  0  0  0  0
  4  9  1  0  0  0  0
  4  5  1  0  0  0  0
  5  6  1  0  0  0  0
  5 29  1  0  0  0  0
  5 30  1  0  0  0  0
  6  7  1  0  0  0  0
  6 31  1  0  0  0  0
  6 32  1  0  0  0  0
  7  8  1  0  0  0  0
  8  9  1  0  0  0  0
  8 33  1  0  0  0  0
  8 34  1  0  0  0  0
  9 35  1  0  0  0  0
  9 36  1  0  0  0  0
 10 11  1  0  0  0  0
 10 37  1  0  0  0  0
 11 12  2  0  0  0  0
 11 13  1  0  0  0  0
 13 38  1  0  0  0  0
 13 39  1  0  0  0  0
 13 14  1  0  0  0  0
 14 15  1  0  0  0  0
 14 20  1  0  0  0  0
 15 16  2  0  0  0  0
 16 17  1  0  0  0  0
 16 18  1  0  0  0  0
 17 22  1  0  0  0  0
 18 40  1  0  0  0  0
 18 19  2  0  0  0  0
 19 41  1  0  0  0  0
 19 20  1  0  0  0  0
 20 21  2  0  0  0  0
M  END
> <s_m_source_file>
AV-unprocessed.smi

> <i_m_source_file_index>
1199

> <i_lp_mmshare_version>
43012

> <i_f3d_flags>
0

> <s_epik_input>
W0NIMl0xW0NIMl1PW0NIMl1bQ0gyXU4xW0NIMl1bQ0BASF0oW0NIM10pW05IXUMoPU8pW0NIMl1uMltuSF1jKD1PKVtjSF1bY0hdYzI9Tw==

> <s_epik_cmdline>
J2VwaWtfcHl0aG9uJywgJy1waCcsICc3LjAnLCAnLXRuJywgJzgnLCAnLW1hJywgJzIwMCcsICctbWV0YWxfYmluZGluZycsICctaW1hZScsICc8aW5maWxlLm1hZT4nLCAnLW9tYWUnLCAnPG91dGZpbGUubWFlPic=

> <r_epik_Ionization_Penalty>
2.36432

> <r_epik_Ionization_Penalty_Charging>
3.67277e-08

> <r_epik_Ionization_Penalty_Neutral>
2.36432

> <r_epik_State_Penalty>
1.96081

> <r_epik_Charging_Adjusted_Penalty>
1.96081

> <i_epik_Tot_Q>
0

> <i_epik_Tot_abs_Q>
0

> <r_epik_Metal_State_Penalty>
1.96081

> <b_epik_Metal_Only>
0

> <s_lp_Force_Field>
OPLS_2005

> <r_lp_Energy>
38.3542

> <b_lp_Chiralities_Consistent>
1

> <s_lp_Variant>
AV-unprocessed.smi:1199-6

> <Gold.Version>
5.8.1

> <Gold.Id.Protein>
6NUR|6NUR_protein|mol2

> <Gold.PLP.Fitness>
44.0125

> <Gold.PLP.PLP>
-35.3660

> <Gold.PLP.part.hbond>
-4.1188

> <Gold.PLP.part.metal>
0.0000

> <Gold.PLP.part.buried>
-5.0832

> <Gold.PLP.part.nonpolar>
-26.8938

> <Gold.PLP.part.repulsive>
0.0595

> <Gold.PLP.ligand.clash>
0.0000

> <Gold.PLP.ligand.torsion>
0.6451

> <Gold.PLP.Chemscore.Hbond>
3.2260

> <Gold.PLP.Chemscore.CHOScore>
0.0000

> <Gold.PLP.Chemscore.Metal>
0.0000

> <Gold.Chemscore.Hbonds>
donor molecule, donor type, donor heavy atom, donor atom, acceptor molecule, acceptor atom, score
      P1  H  6896  6908       L1    12  1.00
      P1  H  6931  6943       L1    21  0.88
      P1  H  7989  7998       L1     7  0.19
      P1  H  7997  8008       L1     7  0.90

> <Gold.PLP.Chemscore.Internal.Correction>
0.2587

> <Gold.Rescore>
     Score         DG    S(hbond)    S(metal)    S(lipo)     H(rot)  DE(clash)    DE(int)     intcor
      9.46     -11.82       2.31        0.00      52.49       2.94       0.18       2.18       ----

> <Gold.Chemscore.Fitness>
9.4586

> <Gold.Chemscore.DG>
-11.8161

> <Gold.Chemscore.ZeroCoef>
-5.4800

> <Gold.Chemscore.Hbond>
2.3145

> <Gold.Chemscore.Metal>
0.0000

> <Gold.Chemscore.Lipo>
52.4916

> <Gold.Chemscore.Internal_Hbond>
0.0000

> <Gold.Chemscore.DEClash>
0.1791

> <Gold.Chemscore.DEInternal>
2.1784

> <Gold.Chemscore.Rot>
2.9437

> <Gold.Chemscore.Internal.Correction>
   9.000000E+99

> <Gold.Chemscore.Hbonds>
donor molecule, donor type, donor heavy atom, donor atom, acceptor molecule, acceptor atom, score
      P1  H  6896  6908       L1    12  0.96
      P1  H  6931  6943       L1    21  0.86
      P1  H  7989  7998       L1     7  0.01
      P1  H  7997  8008       L1     7  0.12

> <Gold.Chemscore.Hbond.Weighted>
-7.7306

> <Gold.Chemscore.Metal.Weighted>
-0.0000

> <Gold.Chemscore.Lipo.Weighted>
-6.1415

> <Gold.Chemscore.Internal_Hbond.Weighted>
0.0000

> <Gold.Chemscore.DEClash.Weighted>
0.1791

> <Gold.Chemscore.DEInternal.Weighted>
2.1784

> <Gold.Chemscore.Rot.Weighted>
7.5359

> <Gold.Chemscore.Internal.Correction.Weighted>
   9.000000E+99

> <Gold.Protein.RotatedTorsions>
[ 6907 6896 6895 6894 ] final  157.36 input  -60.11 | X-H torsion
[ 7974 7965 7964 7962 ] final  -34.86 input  175.53 | X-H torsion
[ 8008 7997 7996 7995 ] final  -17.08 input   59.86 | X-H torsion
[ 10167 10162 10161 10158 ] final  154.81 input  -65.29 | X-H torsion
[ 10718 10713 10712 10709 ] final   -8.29 input   66.30 | X-H torsion
[ 10763 10752 10751 10750 ] final -170.45 input  -60.55 | X-H torsion
[ 11005 11000 10999 10996 ] final  139.26 input  -57.11 | X-H torsion

> <Gold.Protein.ActiveResidues>
 VAL166  LYS551  ARG553  GLY616  TRP617  ASP618  TYR619  PRO620  LYS621  CYS622 
 ASP623  PHE694  ASN695  SER759  ASP760  ASP761  ALA762  ILE779  LEU786  VAL792 
 PHE793  MET794  SER795  GLU796  ALA797  LYS798  CYS799  TRP800  GLU811  SER814 

> <Gold.Protein.RotatedAtoms>
  152.0163  133.3881  159.4239 H   0  0  0  0  0  0  0  0  0  0  0  0  # atno 6907 bound_to 6896
  150.6894  134.3675  159.4987 H   0  0  0  0  0  0  0  0  0  0  0  0  # atno 6908 bound_to 6896
  152.1443  134.9038  160.0602 H   0  0  0  0  0  0  0  0  0  0  0  0  # atno 6909 bound_to 6896
  146.0794  140.6090  142.8915 H   0  0  0  0  0  0  0  0  0  0  0  0  # atno 7974 bound_to 7965
  154.5005  140.2152  155.9357 H   0  0  0  0  0  0  0  0  0  0  0  0  # atno 8008 bound_to 7997
  156.1427  140.3176  155.8488 H   0  0  0  0  0  0  0  0  0  0  0  0  # atno 8009 bound_to 7997
  155.4090  140.0489  157.3023 H   0  0  0  0  0  0  0  0  0  0  0  0  # atno 8010 bound_to 7997
  139.4822  144.5154  151.7959 H   0  0  0  0  0  0  0  0  0  0  0  0  # atno 10167 bound_to 10162
  156.7047  130.5104  149.5908 H   0  0  0  0  0  0  0  0  0  0  0  0  # atno 10718 bound_to 10713
  154.6413  135.2899  155.0099 H   0  0  0  0  0  0  0  0  0  0  0  0  # atno 10763 bound_to 10752
  154.1225  135.6546  153.4909 H   0  0  0  0  0  0  0  0  0  0  0  0  # atno 10764 bound_to 10752
  153.0328  135.5291  154.7282 H   0  0  0  0  0  0  0  0  0  0  0  0  # atno 10765 bound_to 10752
  140.0242  134.9382  157.0535 H   0  0  0  0  0  0  0  0  0  0  0  0  # atno 11005 bound_to 11000
  144.7283  140.4594  143.6956 LP  0  0  0  0  0  0  0  0  0  0  0  0  # atno 17320 bound_to 7965
  145.6245  139.1528  143.3003 LP  0  0  0  0  0  0  0  0  0  0  0  0  # atno 17321 bound_to 7965
  140.4662  144.1652  150.5912 LP  0  0  0  0  0  0  0  0  0  0  0  0  # atno 17342 bound_to 10162
  140.4431  143.2518  151.9446 LP  0  0  0  0  0  0  0  0  0  0  0  0  # atno 17343 bound_to 10162
  156.1703  130.6433  151.0829 LP  0  0  0  0  0  0  0  0  0  0  0  0  # atno 17370 bound_to 10713
  157.6959  131.0794  150.6969 LP  0  0  0  0  0  0  0  0  0  0  0  0  # atno 17371 bound_to 10713
  140.4335  134.1755  155.7169 LP  0  0  0  0  0  0  0  0  0  0  0  0  # atno 17394 bound_to 11000
  141.1792  133.8449  157.1316 LP  0  0  0  0  0  0  0  0  0  0  0  0  # atno 17395 bound_to 11000

$$$$
