AV-unprocessed.smi:316|AV-procd|sdf|2325|dock1
  -GOLD-   2262022223D 1   1.00000     0.00000
 Structure written by MMmdl.
 43 44  0  0  0  0  0  0  0  0  2 V2000
  157.3079  137.5346  159.5212 C   0  0  0  0  0  0  0  0  0  0  0  0
  155.9451  137.0492  159.3672 N   0  0  0  0  0  0  0  0  0  0  0  0
  155.1684  137.3061  158.3053 C   0  0  0  0  0  0  0  0  0  0  0  0
  155.5415  137.9856  157.3483 O   0  0  0  0  0  0  0  0  0  0  0  0
  153.7633  136.6959  158.3362 C   0  0  0  0  0  0  0  0  0  0  0  0
  152.9315  137.1395  159.5564 C   0  0  0  0  0  0  0  0  0  0  0  0
  152.1117  138.3076  159.2541 N   0  0  0  0  0  0  0  0  0  0  0  0
  152.5860  139.5423  159.0381 C   0  0  0  0  0  0  0  0  0  0  0  0
  153.7833  139.8270  159.0621 O   0  0  0  0  0  0  0  0  0  0  0  0
  151.5932  140.4085  158.7749 N   0  0  0  0  0  0  0  0  0  0  0  0
  151.7088  141.7863  158.4370 C   0  0  0  0  0  0  0  0  0  0  0  0
  152.6849  142.6103  159.0542 C   0  0  0  0  0  0  0  0  0  0  0  0
  152.7353  143.9846  158.7556 C   0  0  0  0  0  0  0  0  0  0  0  0
  151.7973  144.5198  157.8567 C   0  0  0  0  0  0  0  0  0  0  0  0
  150.8728  143.7130  157.2962 N   0  3  0  0  0  0  0  0  0  0  0  0
  150.7824  142.3799  157.5309 C   0  0  0  0  0  0  0  0  0  0  0  0
  149.7677  141.6595  156.8601 N   0  0  0  0  0  0  0  0  0  0  0  0
  148.3659  141.8607  157.2083 C   0  0  0  0  0  0  0  0  0  0  0  0
  147.5789  141.2142  156.0718 C   0  0  0  0  0  0  0  0  0  0  0  0
  148.4596  141.4998  154.8589 C   0  0  0  0  0  0  0  0  0  0  0  0
  149.8837  141.4409  155.4214 C   0  0  0  0  0  0  0  0  0  0  0  0
  157.7122  137.2095  160.4799 H   0  0  0  0  0  0  0  0  0  0  0  0
  157.3392  138.6246  159.4899 H   0  0  0  0  0  0  0  0  0  0  0  0
  157.9497  137.1443  158.7302 H   0  0  0  0  0  0  0  0  0  0  0  0
  155.5705  136.4796  160.1123 H   0  0  0  0  0  0  0  0  0  0  0  0
  153.2535  136.9714  157.4121 H   0  0  0  0  0  0  0  0  0  0  0  0
  153.8536  135.6085  158.3325 H   0  0  0  0  0  0  0  0  0  0  0  0
  152.2625  136.3357  159.8665 H   0  0  0  0  0  0  0  0  0  0  0  0
  153.5772  137.3538  160.4102 H   0  0  0  0  0  0  0  0  0  0  0  0
  151.1134  138.1629  159.2128 H   0  0  0  0  0  0  0  0  0  0  0  0
  150.6666  140.0151  158.6977 H   0  0  0  0  0  0  0  0  0  0  0  0
  153.3853  142.2115  159.7727 H   0  0  0  0  0  0  0  0  0  0  0  0
  153.4750  144.6202  159.2201 H   0  0  0  0  0  0  0  0  0  0  0  0
  151.7549  145.5615  157.5736 H   0  0  0  0  0  0  0  0  0  0  0  0
  148.1254  141.4133  158.1732 H   0  0  0  0  0  0  0  0  0  0  0  0
  148.1333  142.9255  157.2545 H   0  0  0  0  0  0  0  0  0  0  0  0
  147.5043  140.1378  156.2326 H   0  0  0  0  0  0  0  0  0  0  0  0
  146.5695  141.6140  155.9720 H   0  0  0  0  0  0  0  0  0  0  0  0
  148.2980  140.7988  154.0394 H   0  0  0  0  0  0  0  0  0  0  0  0
  148.2535  142.5041  154.4864 H   0  0  0  0  0  0  0  0  0  0  0  0
  150.5299  142.1782  154.9428 H   0  0  0  0  0  0  0  0  0  0  0  0
  150.3103  140.4523  155.2502 H   0  0  0  0  0  0  0  0  0  0  0  0
  150.2049  144.1317  156.6489 H   0  0  0  0  0  0  0  0  0  0  0  0
  1  2  1  0  0  0  0
  1 22  1  0  0  0  0
  1 23  1  0  0  0  0
  1 24  1  0  0  0  0
  2  3  1  0  0  0  0
  2 25  1  0  0  0  0
  3  4  2  0  0  0  0
  3  5  1  0  0  0  0
  5  6  1  0  0  0  0
  5 26  1  0  0  0  0
  5 27  1  0  0  0  0
  6  7  1  0  0  0  0
  6 28  1  0  0  0  0
  6 29  1  0  0  0  0
  7  8  1  0  0  0  0
  7 30  1  0  0  0  0
  8  9  2  0  0  0  0
  8 10  1  0  0  0  0
 10 11  1  0  0  0  0
 10 31  1  0  0  0  0
 11 16  1  0  0  0  0
 11 12  2  0  0  0  0
 12 13  1  0  0  0  0
 12 32  1  0  0  0  0
 13 14  2  0  0  0  0
 13 33  1  0  0  0  0
 14 15  1  0  0  0  0
 14 34  1  0  0  0  0
 15 16  2  0  0  0  0
 15 43  1  0  0  0  0
 16 17  1  0  0  0  0
 17 21  1  0  0  0  0
 17 18  1  0  0  0  0
 18 19  1  0  0  0  0
 18 35  1  0  0  0  0
 18 36  1  0  0  0  0
 19 20  1  0  0  0  0
 19 37  1  0  0  0  0
 19 38  1  0  0  0  0
 20 21  1  0  0  0  0
 20 39  1  0  0  0  0
 20 40  1  0  0  0  0
 21 41  1  0  0  0  0
 21 42  1  0  0  0  0
M  CHG  1  15   1
M  END
> <s_m_source_file>
AV-unprocessed.smi

> <i_m_source_file_index>
316

> <i_lp_mmshare_version>
43012

> <i_f3d_flags>
0

> <s_epik_input>
W0NIM11bTkhdQyg9TylbQ0gyXVtDSDJdW05IXUMoPU8pW05IXWMxW2NIXVtjSF1bY0hdbmMxTjJbQ0gyXVtDSDJdW0NIMl1bQ0gyXTI=

> <s_epik_cmdline>
J2VwaWtfcHl0aG9uJywgJy1waCcsICc3LjAnLCAnLXRuJywgJzgnLCAnLW1hJywgJzIwMCcsICctbWV0YWxfYmluZGluZycsICctaW1hZScsICc8aW5maWxlLm1hZT4nLCAnLW9tYWUnLCAnPG91dGZpbGUubWFlPic=

> <r_lp_tautomer_probability>
0.999994

> <r_epik_Ionization_Penalty>
1.15434

> <r_epik_Ionization_Penalty_Charging>
1.15432

> <r_epik_Ionization_Penalty_Neutral>
1.92607e-05

> <r_epik_State_Penalty>
1.21599

> <r_epik_Charging_Adjusted_Penalty>
2.37031

> <i_epik_Tot_Q>
1

> <i_epik_Tot_abs_Q>
1

> <r_epik_Metal_State_Penalty>
1.29606

> <b_epik_Metal_Only>
0

> <s_lp_Force_Field>
OPLS_2005

> <r_lp_Energy>
36.337

> <b_lp_Chiralities_Consistent>
1

> <s_lp_Variant>
AV-unprocessed.smi:316-2

> <Gold.Version>
5.8.1

> <Gold.Id.Protein>
6NUR|6NUR_protein|mol2

> <Gold.PLP.Fitness>
40.8997

> <Gold.PLP.PLP>
-32.8990

> <Gold.PLP.part.hbond>
-2.8218

> <Gold.PLP.part.metal>
0.0000

> <Gold.PLP.part.buried>
-5.5150

> <Gold.PLP.part.nonpolar>
-25.1165

> <Gold.PLP.part.repulsive>
0.3896

> <Gold.PLP.ligand.clash>
0.0000

> <Gold.PLP.ligand.torsion>
0.7183

> <Gold.PLP.Chemscore.Hbond>
3.0000

> <Gold.PLP.Chemscore.CHOScore>
0.0000

> <Gold.PLP.Chemscore.Metal>
0.0000

> <Gold.Chemscore.Hbonds>
donor molecule, donor type, donor heavy atom, donor atom, acceptor molecule, acceptor atom, score
      L1  H    15    43       P1  8028  2.00
      P1  H  7997  8010       L1     9  0.71

> <Gold.PLP.Chemscore.Internal.Correction>
0.4374

> <Gold.Rescore>
     Score         DG    S(hbond)    S(metal)    S(lipo)     H(rot)  DE(clash)    DE(int)     intcor
     13.76     -15.71       1.90        0.00      76.46       1.98       0.00       1.95       ----

> <Gold.Chemscore.Fitness>
13.7610

> <Gold.Chemscore.DG>
-15.7093

> <Gold.Chemscore.ZeroCoef>
-5.4800

> <Gold.Chemscore.Hbond>
1.8988

> <Gold.Chemscore.Metal>
0.0000

> <Gold.Chemscore.Lipo>
76.4599

> <Gold.Chemscore.Internal_Hbond>
0.0000

> <Gold.Chemscore.DEClash>
0.0000

> <Gold.Chemscore.DEInternal>
1.9483

> <Gold.Chemscore.Rot>
1.9760

> <Gold.Chemscore.Internal.Correction>
   9.000000E+99

> <Gold.Chemscore.Hbonds>
donor molecule, donor type, donor heavy atom, donor atom, acceptor molecule, acceptor atom, score
      L1  H    15    43       P1  8028  1.00
      P1  H  7997  8010       L1     9  0.70

> <Gold.Chemscore.Hbond.Weighted>
-6.3421

> <Gold.Chemscore.Metal.Weighted>
-0.0000

> <Gold.Chemscore.Lipo.Weighted>
-8.9458

> <Gold.Chemscore.Internal_Hbond.Weighted>
0.0000

> <Gold.Chemscore.DEClash.Weighted>
0.0000

> <Gold.Chemscore.DEInternal.Weighted>
1.9483

> <Gold.Chemscore.Rot.Weighted>
5.0585

> <Gold.Chemscore.Internal.Correction.Weighted>
   9.000000E+99

> <Gold.Protein.RotatedTorsions>
[ 6907 6896 6895 6894 ] final   22.92 input  -60.11 | X-H torsion
[ 7974 7965 7964 7962 ] final -125.24 input  175.53 | X-H torsion
[ 8008 7997 7996 7995 ] final    6.66 input   59.86 | X-H torsion
[ 10167 10162 10161 10158 ] final  105.86 input  -65.29 | X-H torsion
[ 10718 10713 10712 10709 ] final  -91.88 input   66.30 | X-H torsion
[ 10763 10752 10751 10750 ] final   78.49 input  -60.55 | X-H torsion
[ 11005 11000 10999 10996 ] final -119.98 input  -57.11 | X-H torsion

> <Gold.Protein.ActiveResidues>
 VAL166  LYS551  ARG553  GLY616  TRP617  ASP618  TYR619  PRO620  LYS621  CYS622 
 ASP623  PHE694  ASN695  SER759  ASP760  ASP761  ALA762  ILE779  LEU786  VAL792 
 PHE793  MET794  SER795  GLU796  ALA797  LYS798  CYS799  TRP800  GLU811  SER814 

> <Gold.Protein.RotatedAtoms>
  151.9345  135.0241  160.0531 H   0  0  0  0  0  0  0  0  0  0  0  0  # atno 6907 bound_to 6896
  152.2089  133.4892  159.5107 H   0  0  0  0  0  0  0  0  0  0  0  0  # atno 6908 bound_to 6896
  150.6971  134.1409  159.4147 H   0  0  0  0  0  0  0  0  0  0  0  0  # atno 6909 bound_to 6896
  144.9997  140.7809  143.4504 H   0  0  0  0  0  0  0  0  0  0  0  0  # atno 7974 bound_to 7965
  154.7439  140.2754  155.6350 H   0  0  0  0  0  0  0  0  0  0  0  0  # atno 8008 bound_to 7997
  156.2880  140.2691  156.2100 H   0  0  0  0  0  0  0  0  0  0  0  0  # atno 8009 bound_to 7997
  155.0223  140.0371  157.2432 H   0  0  0  0  0  0  0  0  0  0  0  0  # atno 8010 bound_to 7997
  139.7057  144.7086  151.1110 H   0  0  0  0  0  0  0  0  0  0  0  0  # atno 10167 bound_to 10162
  155.9997  130.4965  150.5542 H   0  0  0  0  0  0  0  0  0  0  0  0  # atno 10718 bound_to 10713
  153.0879  135.4875  154.8632 H   0  0  0  0  0  0  0  0  0  0  0  0  # atno 10763 bound_to 10752
  154.7233  135.3044  154.9015 H   0  0  0  0  0  0  0  0  0  0  0  0  # atno 10764 bound_to 10752
  153.9673  135.6805  153.4799 H   0  0  0  0  0  0  0  0  0  0  0  0  # atno 10765 bound_to 10752
  141.0176  134.0171  157.3327 H   0  0  0  0  0  0  0  0  0  0  0  0  # atno 11005 bound_to 11000
  145.2170  139.2177  143.5113 LP  0  0  0  0  0  0  0  0  0  0  0  0  # atno 17320 bound_to 7965
  146.3449  140.2020  142.8589 LP  0  0  0  0  0  0  0  0  0  0  0  0  # atno 17321 bound_to 7965
  140.7721  143.5361  150.9366 LP  0  0  0  0  0  0  0  0  0  0  0  0  # atno 17342 bound_to 10162
  139.9045  143.6796  152.3126 LP  0  0  0  0  0  0  0  0  0  0  0  0  # atno 17343 bound_to 10162
  157.3460  131.0725  151.1750 LP  0  0  0  0  0  0  0  0  0  0  0  0  # atno 17370 bound_to 10713
  157.2583  130.6646  149.5963 LP  0  0  0  0  0  0  0  0  0  0  0  0  # atno 17371 bound_to 10713
  139.9127  135.0192  156.7755 LP  0  0  0  0  0  0  0  0  0  0  0  0  # atno 17394 bound_to 11000
  140.6627  133.9630  155.7813 LP  0  0  0  0  0  0  0  0  0  0  0  0  # atno 17395 bound_to 11000

$$$$
