AV-unprocessed.smi:2356|AV-procd|sdf|9393|dock9
  -GOLD-   2272013 23D 1   1.00000     0.00000
 Structure written by MMmdl.
 53 56  0  0  0  0  0  0  0  0  1 V2000
  154.2079  141.6981  163.7372 C   0  0  0  0  0  0  0  0  0  0  0  0
  153.9800  141.5592  162.2415 C   0  0  0  0  0  0  0  0  0  0  0  0
  153.3561  142.6024  161.6534 N   0  0  0  0  0  0  0  0  0  0  0  0
  153.1043  142.5592  160.3246 C   0  0  0  0  0  0  0  0  0  0  0  0
  152.4495  143.6705  159.7570 N   0  0  0  0  0  0  0  0  0  0  0  0
  151.8756  143.6307  158.4217 C   0  0  0  0  0  0  0  0  0  0  0  0
  151.1365  144.9604  158.2753 C   0  0  0  0  0  0  0  0  0  0  0  0
  150.6775  145.2617  159.7015 C   0  0  0  0  0  0  0  0  0  0  0  0
  151.7882  144.6756  160.5801 C   0  0  0  0  0  0  0  0  0  0  0  0
  153.4874  141.4508  159.5342 C   0  0  0  0  0  0  0  0  0  0  0  0
  154.1366  140.3620  160.1461 C   0  0  0  0  0  0  0  0  0  0  0  0
  154.3981  140.4063  161.5360 C   0  0  0  0  0  0  0  0  0  0  0  0
  155.0260  139.3593  162.2674 N   0  0  0  0  0  0  0  0  0  0  0  0
  154.9106  138.0224  162.1483 C   0  0  0  0  0  0  0  0  0  0  0  0
  154.2489  137.4440  161.2899 O   0  0  0  0  0  0  0  0  0  0  0  0
  155.6174  137.3323  163.0626 N   0  0  0  0  0  0  0  0  0  0  0  0
  155.7188  135.8790  163.2221 C   0  0  2  0  0  0  0  0  0  0  0  0
  156.7765  135.2982  162.2694 C   0  0  0  0  0  0  0  0  0  0  0  0
  156.7857  133.7640  162.3372 C   0  0  0  0  0  0  0  0  0  0  0  0
  155.4889  133.2452  162.0507 O   0  0  0  0  0  0  0  0  0  0  0  0
  154.4508  133.6855  162.9274 C   0  0  1  0  0  0  0  0  0  0  0  0
  154.5968  133.0850  164.3198 C   0  0  0  0  0  0  0  0  0  0  0  0
  153.7227  131.9321  164.7521 C   0  0  0  0  0  0  0  0  0  0  0  0
  153.5338  133.2963  165.3722 C   0  0  0  0  0  0  0  0  0  0  0  0
  154.3605  135.2250  162.9263 C   0  0  0  0  0  0  0  0  0  0  0  0
  155.2720  141.6353  163.9673 H   0  0  0  0  0  0  0  0  0  0  0  0
  153.6910  140.9028  164.2752 H   0  0  0  0  0  0  0  0  0  0  0  0
  153.8391  142.6537  164.1122 H   0  0  0  0  0  0  0  0  0  0  0  0
  152.6428  143.5134  157.6559 H   0  0  0  0  0  0  0  0  0  0  0  0
  151.1798  142.7936  158.3502 H   0  0  0  0  0  0  0  0  0  0  0  0
  151.8294  145.7341  157.9418 H   0  0  0  0  0  0  0  0  0  0  0  0
  150.3132  144.9132  157.5620 H   0  0  0  0  0  0  0  0  0  0  0  0
  150.5123  146.3243  159.8810 H   0  0  0  0  0  0  0  0  0  0  0  0
  149.7409  144.7386  159.8992 H   0  0  0  0  0  0  0  0  0  0  0  0
  151.3772  144.2586  161.5004 H   0  0  0  0  0  0  0  0  0  0  0  0
  152.5157  145.4429  160.8470 H   0  0  0  0  0  0  0  0  0  0  0  0
  153.2907  141.4148  158.4733 H   0  0  0  0  0  0  0  0  0  0  0  0
  154.4055  139.5180  159.5320 H   0  0  0  0  0  0  0  0  0  0  0  0
  155.6579  139.6708  162.9903 H   0  0  0  0  0  0  0  0  0  0  0  0
  156.1513  137.8816  163.7208 H   0  0  0  0  0  0  0  0  0  0  0  0
  155.9888  135.6394  164.2514 H   0  0  0  0  0  0  0  0  0  0  0  0
  156.5639  135.6100  161.2458 H   0  0  0  0  0  0  0  0  0  0  0  0
  157.7667  135.6843  162.5131 H   0  0  0  0  0  0  0  0  0  0  0  0
  157.4866  133.3653  161.6036 H   0  0  0  0  0  0  0  0  0  0  0  0
  157.1316  133.4206  163.3123 H   0  0  0  0  0  0  0  0  0  0  0  0
  153.5203  133.3001  162.5087 H   0  0  0  0  0  0  0  0  0  0  0  0
  155.6187  133.0537  164.6915 H   0  0  0  0  0  0  0  0  0  0  0  0
  152.9599  131.5861  164.0575 H   0  0  0  0  0  0  0  0  0  0  0  0
  154.1812  131.1584  165.3646 H   0  0  0  0  0  0  0  0  0  0  0  0
  153.8649  133.4318  166.3998 H   0  0  0  0  0  0  0  0  0  0  0  0
  152.6441  133.8564  165.0912 H   0  0  0  0  0  0  0  0  0  0  0  0
  153.6116  135.5588  163.6457 H   0  0  0  0  0  0  0  0  0  0  0  0
  154.0097  135.5519  161.9460 H   0  0  0  0  0  0  0  0  0  0  0  0
  1  2  1  0  0  0  0
  1 26  1  0  0  0  0
  1 27  1  0  0  0  0
  1 28  1  0  0  0  0
  2 12  1  0  0  0  0
  2  3  2  0  0  0  0
  3  4  1  0  0  0  0
  4  5  1  0  0  0  0
  4 10  2  0  0  0  0
  5  9  1  0  0  0  0
  5  6  1  0  0  0  0
  6  7  1  0  0  0  0
  6 29  1  0  0  0  0
  6 30  1  0  0  0  0
  7  8  1  0  0  0  0
  7 31  1  0  0  0  0
  7 32  1  0  0  0  0
  8  9  1  0  0  0  0
  8 33  1  0  0  0  0
  8 34  1  0  0  0  0
  9 35  1  0  0  0  0
  9 36  1  0  0  0  0
 10 11  1  0  0  0  0
 10 37  1  0  0  0  0
 11 12  2  0  0  0  0
 11 38  1  0  0  0  0
 12 13  1  0  0  0  0
 13 14  1  0  0  0  0
 13 39  1  0  0  0  0
 14 15  2  0  0  0  0
 14 16  1  0  0  0  0
 16 17  1  0  0  0  0
 16 40  1  0  0  0  0
 17 25  1  0  0  0  0
 17 18  1  0  0  0  0
 17 41  1  0  0  0  0
 18 19  1  0  0  0  0
 18 42  1  0  0  0  0
 18 43  1  0  0  0  0
 19 20  1  0  0  0  0
 19 44  1  0  0  0  0
 19 45  1  0  0  0  0
 20 21  1  0  0  0  0
 21 22  1  0  0  0  0
 21 25  1  0  0  0  0
 21 46  1  0  0  0  0
 22 24  1  0  0  0  0
 22 23  1  0  0  0  0
 22 47  1  0  0  0  0
 23 24  1  0  0  0  0
 23 48  1  0  0  0  0
 23 49  1  0  0  0  0
 24 50  1  0  0  0  0
 24 51  1  0  0  0  0
 25 52  1  0  0  0  0
 25 53  1  0  0  0  0
M  END
> <s_m_source_file>
AV-unprocessed.smi

> <i_m_source_file_index>
2356

> <i_lp_mmshare_version>
43012

> <i_f3d_flags>
0

> <s_epik_input>
W0NIMl0xW0NIMl1bQ0gyXVtDSDJdTjFjKG5jMltDSDNdKVtjSF1bY0hdYzJbTkhdQyg9TylbTkhdW0NAQEhdM1tDSDJdW0NIMl1PW0NASF0oW0NIMl0zKVtDSF00W0NIMl1bQ0gyXTQ=

> <s_epik_cmdline>
J2VwaWtfcHl0aG9uJywgJy1waCcsICc3LjAnLCAnLXRuJywgJzgnLCAnLW1hJywgJzIwMCcsICctbWV0YWxfYmluZGluZycsICctaW1hZScsICc8aW5maWxlLm1hZT4nLCAnLW9tYWUnLCAnPG91dGZpbGUubWFlPic=

> <r_lp_tautomer_probability>
1

> <r_epik_Ionization_Penalty>
0.308781

> <r_epik_Ionization_Penalty_Charging>
0

> <r_epik_Ionization_Penalty_Neutral>
0.308781

> <r_epik_State_Penalty>
0.302092

> <r_epik_Charging_Adjusted_Penalty>
0.302092

> <i_epik_Tot_Q>
0

> <i_epik_Tot_abs_Q>
0

> <r_epik_Metal_State_Penalty>
0.197467

> <b_epik_Metal_Only>
0

> <s_lp_Force_Field>
OPLS_2005

> <r_lp_Energy>
55.4092

> <b_lp_Chiralities_Consistent>
1

> <s_lp_Variant>
AV-unprocessed.smi:2356-1

> <Gold.Version>
5.8.1

> <Gold.Id.Protein>
6NUR|6NUR_protein|mol2

> <Gold.PLP.Fitness>
46.9818

> <Gold.PLP.PLP>
-48.4414

> <Gold.PLP.part.hbond>
0.0000

> <Gold.PLP.part.metal>
0.0000

> <Gold.PLP.part.buried>
-3.3436

> <Gold.PLP.part.nonpolar>
-44.8327

> <Gold.PLP.part.repulsive>
0.0316

> <Gold.PLP.ligand.clash>
0.0000

> <Gold.PLP.ligand.torsion>
1.3524

> <Gold.PLP.Chemscore.Hbond>
0.0000

> <Gold.PLP.Chemscore.CHOScore>
0.0000

> <Gold.PLP.Chemscore.Metal>
0.0000

> <Gold.PLP.Chemscore.Internal.Correction>
1.2452

> <Gold.Rescore>
     Score         DG    S(hbond)    S(metal)    S(lipo)     H(rot)  DE(clash)    DE(int)     intcor
     16.25     -19.33       0.00        0.00     143.30       1.14       0.37       2.70       ----

> <Gold.Chemscore.Fitness>
16.2545

> <Gold.Chemscore.DG>
-19.3285

> <Gold.Chemscore.ZeroCoef>
-5.4800

> <Gold.Chemscore.Hbond>
0.0000

> <Gold.Chemscore.Metal>
0.0000

> <Gold.Chemscore.Lipo>
143.2955

> <Gold.Chemscore.Internal_Hbond>
0.0000

> <Gold.Chemscore.DEClash>
0.3730

> <Gold.Chemscore.DEInternal>
2.7009

> <Gold.Chemscore.Rot>
1.1395

> <Gold.Chemscore.Internal.Correction>
   9.000000E+99

> <Gold.Chemscore.Hbond.Weighted>
-0.0000

> <Gold.Chemscore.Metal.Weighted>
-0.0000

> <Gold.Chemscore.Lipo.Weighted>
-16.7656

> <Gold.Chemscore.Internal_Hbond.Weighted>
0.0000

> <Gold.Chemscore.DEClash.Weighted>
0.3730

> <Gold.Chemscore.DEInternal.Weighted>
2.7009

> <Gold.Chemscore.Rot.Weighted>
2.9171

> <Gold.Chemscore.Internal.Correction.Weighted>
   9.000000E+99

> <Gold.Protein.RotatedTorsions>
[ 6907 6896 6895 6894 ] final  -48.70 input  -60.11 | X-H torsion
[ 7974 7965 7964 7962 ] final -151.50 input  175.53 | X-H torsion
[ 8008 7997 7996 7995 ] final -177.42 input   59.86 | X-H torsion
[ 10167 10162 10161 10158 ] final -104.69 input  -65.29 | X-H torsion
[ 10718 10713 10712 10709 ] final   94.27 input   66.30 | X-H torsion
[ 10763 10752 10751 10750 ] final  -34.97 input  -60.55 | X-H torsion
[ 11005 11000 10999 10996 ] final   88.96 input  -57.11 | X-H torsion

> <Gold.Protein.ActiveResidues>
 VAL166  LYS551  ARG553  GLY616  TRP617  ASP618  TYR619  PRO620  LYS621  CYS622 
 ASP623  PHE694  ASN695  SER759  ASP760  ASP761  ALA762  ILE779  LEU786  VAL792 
 PHE793  MET794  SER795  GLU796  ALA797  LYS798  CYS799  TRP800  GLU811  SER814 

> <Gold.Protein.RotatedAtoms>
  150.8879  134.8279  159.7271 H   0  0  0  0  0  0  0  0  0  0  0  0  # atno 6907 bound_to 6896
  152.4819  134.4694  159.9640 H   0  0  0  0  0  0  0  0  0  0  0  0  # atno 6908 bound_to 6896
  151.4761  133.3518  159.2866 H   0  0  0  0  0  0  0  0  0  0  0  0  # atno 6909 bound_to 6896
  144.7846  140.4789  143.5815 H   0  0  0  0  0  0  0  0  0  0  0  0  # atno 7974 bound_to 7965
  156.0067  140.1232  157.0495 H   0  0  0  0  0  0  0  0  0  0  0  0  # atno 8008 bound_to 7997
  154.4261  140.1096  156.5841 H   0  0  0  0  0  0  0  0  0  0  0  0  # atno 8009 bound_to 7997
  155.6137  140.3471  155.4632 H   0  0  0  0  0  0  0  0  0  0  0  0  # atno 8010 bound_to 7997
  140.2066  143.3778  152.1085 H   0  0  0  0  0  0  0  0  0  0  0  0  # atno 10167 bound_to 10162
  157.6949  131.0507  150.4161 H   0  0  0  0  0  0  0  0  0  0  0  0  # atno 10718 bound_to 10713
  153.8555  135.6845  153.4788 H   0  0  0  0  0  0  0  0  0  0  0  0  # atno 10763 bound_to 10752
  153.1372  135.4672  154.9439 H   0  0  0  0  0  0  0  0  0  0  0  0  # atno 10764 bound_to 10752
  154.7783  135.3260  154.7994 H   0  0  0  0  0  0  0  0  0  0  0  0  # atno 10765 bound_to 10752
  139.8885  134.8521  156.3074 H   0  0  0  0  0  0  0  0  0  0  0  0  # atno 11005 bound_to 11000
  145.5956  139.1499  143.3157 LP  0  0  0  0  0  0  0  0  0  0  0  0  # atno 17320 bound_to 7965
  146.2072  140.6080  142.9076 LP  0  0  0  0  0  0  0  0  0  0  0  0  # atno 17321 bound_to 7965
  139.5196  144.7022  151.5461 LP  0  0  0  0  0  0  0  0  0  0  0  0  # atno 17342 bound_to 10162
  140.6353  143.8996  150.6642 LP  0  0  0  0  0  0  0  0  0  0  0  0  # atno 17343 bound_to 10162
  156.4540  130.4017  149.6618 LP  0  0  0  0  0  0  0  0  0  0  0  0  # atno 17370 bound_to 10713
  156.3757  130.7553  151.2541 LP  0  0  0  0  0  0  0  0  0  0  0  0  # atno 17371 bound_to 10713
  140.9873  133.7230  156.0761 LP  0  0  0  0  0  0  0  0  0  0  0  0  # atno 17394 bound_to 11000
  140.7671  134.3874  157.5515 LP  0  0  0  0  0  0  0  0  0  0  0  0  # atno 17395 bound_to 11000

$$$$
