AV-unprocessed.smi:1859|AV-procd|sdf|7545|dock5
  -GOLD-   22720 9263D 1   1.00000     0.00000
 Structure written by MMmdl.
 46 48  0  0  0  0  0  0  0  0  2 V2000
  146.5850  141.8529  159.2137 O   0  0  0  0  0  0  0  0  0  0  0  0
  146.9486  142.6909  158.3878 C   0  0  0  0  0  0  0  0  0  0  0  0
  147.9684  142.4885  157.5388 N   0  0  0  0  0  0  0  0  0  0  0  0
  148.7631  141.2677  157.4668 C   0  0  0  0  0  0  0  0  0  0  0  0
  150.0633  141.4786  156.6721 C   0  0  0  0  0  0  0  0  0  0  0  0
  151.0255  142.4086  157.3845 C   0  0  0  0  0  0  0  0  0  0  0  0
  151.8814  141.9552  158.4117 C   0  0  0  0  0  0  0  0  0  0  0  0
  152.7603  142.8688  159.0298 C   0  0  0  0  0  0  0  0  0  0  0  0
  152.7654  144.2146  158.6078 C   0  0  0  0  0  0  0  0  0  0  0  0
  151.8917  144.6125  157.5752 C   0  0  0  0  0  0  0  0  0  0  0  0
  151.0650  143.7071  157.0070 N   0  3  0  0  0  0  0  0  0  0  0  0
  146.2290  144.0422  158.2883 C   0  0  2  0  0  0  0  0  0  0  0  0
  146.2540  144.7870  159.6439 C   0  0  0  0  0  0  0  0  0  0  0  0
  145.4155  146.0794  159.6022 C   0  0  0  0  0  0  0  0  0  0  0  0
  144.0059  145.7985  159.0527 C   0  0  0  0  0  0  0  0  0  0  0  0
  144.1330  145.1814  157.7245 N   0  0  0  0  0  0  0  0  0  0  0  0
  143.8103  145.7595  156.5403 C   0  0  0  0  0  0  0  0  0  0  0  0
  143.3795  146.9114  156.4695 O   0  0  0  0  0  0  0  0  0  0  0  0
  143.9763  144.9279  155.3047 C   0  0  0  0  0  0  0  0  0  0  0  0
  143.6777  145.6011  153.9817 C   0  0  0  0  0  0  0  0  0  0  0  0
  142.7349  144.5544  154.5143 C   0  0  0  0  0  0  0  0  0  0  0  0
  144.7697  143.8605  157.8105 C   0  0  0  0  0  0  0  0  0  0  0  0
  148.2004  143.2274  156.8905 H   0  0  0  0  0  0  0  0  0  0  0  0
  148.9853  140.9148  158.4753 H   0  0  0  0  0  0  0  0  0  0  0  0
  148.1569  140.4946  156.9943 H   0  0  0  0  0  0  0  0  0  0  0  0
  150.5558  140.5206  156.4987 H   0  0  0  0  0  0  0  0  0  0  0  0
  149.8447  141.8930  155.6871 H   0  0  0  0  0  0  0  0  0  0  0  0
  151.8678  140.9201  158.7214 H   0  0  0  0  0  0  0  0  0  0  0  0
  153.4226  142.5408  159.8177 H   0  0  0  0  0  0  0  0  0  0  0  0
  153.4306  144.9302  159.0686 H   0  0  0  0  0  0  0  0  0  0  0  0
  151.8292  145.6198  157.1898 H   0  0  0  0  0  0  0  0  0  0  0  0
  146.7506  144.6570  157.5520 H   0  0  0  0  0  0  0  0  0  0  0  0
  145.8594  144.1399  160.4289 H   0  0  0  0  0  0  0  0  0  0  0  0
  147.2804  145.0227  159.9279 H   0  0  0  0  0  0  0  0  0  0  0  0
  145.3506  146.5140  160.6001 H   0  0  0  0  0  0  0  0  0  0  0  0
  145.9117  146.8191  158.9727 H   0  0  0  0  0  0  0  0  0  0  0  0
  143.4826  145.1090  159.7167 H   0  0  0  0  0  0  0  0  0  0  0  0
  143.4065  146.7076  159.0623 H   0  0  0  0  0  0  0  0  0  0  0  0
  144.7625  144.1753  155.3253 H   0  0  0  0  0  0  0  0  0  0  0  0
  143.3375  146.6352  153.9969 H   0  0  0  0  0  0  0  0  0  0  0  0
  144.3145  145.3377  153.1400 H   0  0  0  0  0  0  0  0  0  0  0  0
  142.7320  143.5790  154.0325 H   0  0  0  0  0  0  0  0  0  0  0  0
  141.7609  144.8964  154.8592 H   0  0  0  0  0  0  0  0  0  0  0  0
  144.7498  143.3210  156.8622 H   0  0  0  0  0  0  0  0  0  0  0  0
  144.2077  143.2403  158.5115 H   0  0  0  0  0  0  0  0  0  0  0  0
  150.4415  144.0175  156.2614 H   0  0  0  0  0  0  0  0  0  0  0  0
  1  2  2  0  0  0  0
  2  3  1  0  0  0  0
  2 12  1  0  0  0  0
  3  4  1  0  0  0  0
  3 23  1  0  0  0  0
  4  5  1  0  0  0  0
  4 24  1  0  0  0  0
  4 25  1  0  0  0  0
  5  6  1  0  0  0  0
  5 26  1  0  0  0  0
  5 27  1  0  0  0  0
  6 11  1  0  0  0  0
  6  7  2  0  0  0  0
  7  8  1  0  0  0  0
  7 28  1  0  0  0  0
  8  9  2  0  0  0  0
  8 29  1  0  0  0  0
  9 10  1  0  0  0  0
  9 30  1  0  0  0  0
 10 11  2  0  0  0  0
 10 31  1  0  0  0  0
 11 46  1  0  0  0  0
 12 22  1  0  0  0  0
 12 13  1  0  0  0  0
 12 32  1  0  0  0  0
 13 14  1  0  0  0  0
 13 33  1  0  0  0  0
 13 34  1  0  0  0  0
 14 15  1  0  0  0  0
 14 35  1  0  0  0  0
 14 36  1  0  0  0  0
 15 16  1  0  0  0  0
 15 37  1  0  0  0  0
 15 38  1  0  0  0  0
 16 17  1  0  0  0  0
 16 22  1  0  0  0  0
 17 18  2  0  0  0  0
 17 19  1  0  0  0  0
 19 21  1  0  0  0  0
 19 20  1  0  0  0  0
 19 39  1  0  0  0  0
 20 21  1  0  0  0  0
 20 40  1  0  0  0  0
 20 41  1  0  0  0  0
 21 42  1  0  0  0  0
 21 43  1  0  0  0  0
 22 44  1  0  0  0  0
 22 45  1  0  0  0  0
M  CHG  1  11   1
M  END
> <s_m_source_file>
AV-unprocessed.smi

> <i_m_source_file_index>
1859

> <i_lp_mmshare_version>
43012

> <i_f3d_flags>
0

> <s_epik_input>
W0NIMl0xW0NIMl1bQ0hdMUMoPU8pTihbQ0gyXTIpW0NIMl1bQ0gyXVtDSDJdW0NASF0yQyg9TylbTkhdW0NIMl1bQ0gyXWMzW2NIXVtjSF1bY0hdW2NIXW4z

> <s_epik_cmdline>
J2VwaWtfcHl0aG9uJywgJy1waCcsICc3LjAnLCAnLXRuJywgJzgnLCAnLW1hJywgJzIwMCcsICctbWV0YWxfYmluZGluZycsICctaW1hZScsICc8aW5maWxlLm1hZT4nLCAnLW9tYWUnLCAnPG91dGZpbGUubWFlPic=

> <r_epik_Ionization_Penalty>
1.84754

> <r_epik_Ionization_Penalty_Charging>
1.84754

> <r_epik_Ionization_Penalty_Neutral>
7.35743e-08

> <r_epik_State_Penalty>
1.96477

> <r_epik_Charging_Adjusted_Penalty>
3.81231

> <i_epik_Tot_Q>
1

> <i_epik_Tot_abs_Q>
1

> <r_epik_Metal_State_Penalty>
1.99062

> <b_epik_Metal_Only>
0

> <s_lp_Force_Field>
OPLS_2005

> <r_lp_Energy>
35.3834

> <b_lp_Chiralities_Consistent>
1

> <s_lp_Variant>
AV-unprocessed.smi:1859-3

> <Gold.Version>
5.8.1

> <Gold.Id.Protein>
6NUR|6NUR_protein|mol2

> <Gold.PLP.Fitness>
44.8415

> <Gold.PLP.PLP>
-34.4545

> <Gold.PLP.part.hbond>
-2.9593

> <Gold.PLP.part.metal>
0.0000

> <Gold.PLP.part.buried>
-0.7281

> <Gold.PLP.part.nonpolar>
-30.4964

> <Gold.PLP.part.repulsive>
0.1110

> <Gold.PLP.ligand.clash>
0.0000

> <Gold.PLP.ligand.torsion>
0.5007

> <Gold.PLP.Chemscore.Hbond>
3.7561

> <Gold.PLP.Chemscore.CHOScore>
0.0000

> <Gold.PLP.Chemscore.Metal>
0.0000

> <Gold.Chemscore.Hbonds>
donor molecule, donor type, donor heavy atom, donor atom, acceptor molecule, acceptor atom, score
      L1  H     3    23       P1  8028  0.89
      L1  H    11    46       P1  8028  2.00
      P1  H  6934  6946       L1     1  0.85

> <Gold.PLP.Chemscore.Internal.Correction>
0.1200

> <Gold.Rescore>
     Score         DG    S(hbond)    S(metal)    S(lipo)     H(rot)  DE(clash)    DE(int)     intcor
     17.64     -19.77       2.02        0.00     101.47       1.70       1.53       0.60       ----

> <Gold.Chemscore.Fitness>
17.6398

> <Gold.Chemscore.DG>
-19.7667

> <Gold.Chemscore.ZeroCoef>
-5.4800

> <Gold.Chemscore.Hbond>
2.0244

> <Gold.Chemscore.Metal>
0.0000

> <Gold.Chemscore.Lipo>
101.4697

> <Gold.Chemscore.Internal_Hbond>
0.0000

> <Gold.Chemscore.DEClash>
1.5318

> <Gold.Chemscore.DEInternal>
0.5950

> <Gold.Chemscore.Rot>
1.6980

> <Gold.Chemscore.Internal.Correction>
   9.000000E+99

> <Gold.Chemscore.Hbonds>
donor molecule, donor type, donor heavy atom, donor atom, acceptor molecule, acceptor atom, score
      L1  H     3    23       P1  8028  0.17
      L1  H    11    46       P1  8028  0.96
      P1  H  6934  6946       L1     1  0.83

> <Gold.Chemscore.Hbond.Weighted>
-6.7616

> <Gold.Chemscore.Metal.Weighted>
-0.0000

> <Gold.Chemscore.Lipo.Weighted>
-11.8719

> <Gold.Chemscore.Internal_Hbond.Weighted>
0.0000

> <Gold.Chemscore.DEClash.Weighted>
1.5318

> <Gold.Chemscore.DEInternal.Weighted>
0.5950

> <Gold.Chemscore.Rot.Weighted>
4.3469

> <Gold.Chemscore.Internal.Correction.Weighted>
   9.000000E+99

> <Gold.Protein.RotatedTorsions>
[ 6907 6896 6895 6894 ] final  105.01 input  -60.11 | X-H torsion
[ 7974 7965 7964 7962 ] final   87.58 input  175.53 | X-H torsion
[ 8008 7997 7996 7995 ] final -173.02 input   59.86 | X-H torsion
[ 10167 10162 10161 10158 ] final   64.79 input  -65.29 | X-H torsion
[ 10718 10713 10712 10709 ] final  116.24 input   66.30 | X-H torsion
[ 10763 10752 10751 10750 ] final  -88.42 input  -60.55 | X-H torsion
[ 11005 11000 10999 10996 ] final  136.27 input  -57.11 | X-H torsion

> <Gold.Protein.ActiveResidues>
 VAL166  LYS551  ARG553  GLY616  TRP617  ASP618  TYR619  PRO620  LYS621  CYS622 
 ASP623  PHE694  ASN695  SER759  ASP760  ASP761  ALA762  ILE779  LEU786  VAL792 
 PHE793  MET794  SER795  GLU796  ALA797  LYS798  CYS799  TRP800  GLU811  SER814 

> <Gold.Protein.RotatedAtoms>
  152.5245  133.9591  159.7708 H   0  0  0  0  0  0  0  0  0  0  0  0  # atno 6907 bound_to 6896
  150.9885  133.6165  159.2719 H   0  0  0  0  0  0  0  0  0  0  0  0  # atno 6908 bound_to 6896
  151.3316  135.0849  159.9394 H   0  0  0  0  0  0  0  0  0  0  0  0  # atno 6909 bound_to 6896
  145.5571  139.2300  143.2480 H   0  0  0  0  0  0  0  0  0  0  0  0  # atno 7974 bound_to 7965
  155.9520  140.1128  157.0968 H   0  0  0  0  0  0  0  0  0  0  0  0  # atno 8008 bound_to 7997
  154.4112  140.1198  156.5132 H   0  0  0  0  0  0  0  0  0  0  0  0  # atno 8009 bound_to 7997
  155.6829  140.3473  155.4865 H   0  0  0  0  0  0  0  0  0  0  0  0  # atno 8010 bound_to 7997
  140.1183  144.4755  150.6936 H   0  0  0  0  0  0  0  0  0  0  0  0  # atno 10167 bound_to 10162
  157.6173  131.1023  150.7444 H   0  0  0  0  0  0  0  0  0  0  0  0  # atno 10718 bound_to 10713
  154.6443  135.5378  153.7826 H   0  0  0  0  0  0  0  0  0  0  0  0  # atno 10763 bound_to 10752
  153.0351  135.6467  154.1112 H   0  0  0  0  0  0  0  0  0  0  0  0  # atno 10764 bound_to 10752
  154.1034  135.2931  155.3226 H   0  0  0  0  0  0  0  0  0  0  0  0  # atno 10765 bound_to 10752
  140.0035  134.9469  157.0124 H   0  0  0  0  0  0  0  0  0  0  0  0  # atno 11005 bound_to 11000
  146.1877  140.6395  142.9160 LP  0  0  0  0  0  0  0  0  0  0  0  0  # atno 17320 bound_to 7965
  144.7501  140.5168  143.6808 LP  0  0  0  0  0  0  0  0  0  0  0  0  # atno 17321 bound_to 7965
  140.6887  143.2364  151.5191 LP  0  0  0  0  0  0  0  0  0  0  0  0  # atno 17342 bound_to 10162
  139.5582  144.2222  152.1648 LP  0  0  0  0  0  0  0  0  0  0  0  0  # atno 17343 bound_to 10162
  156.7809  130.4859  149.5401 LP  0  0  0  0  0  0  0  0  0  0  0  0  # atno 17370 bound_to 10713
  156.1301  130.6171  151.0320 LP  0  0  0  0  0  0  0  0  0  0  0  0  # atno 17371 bound_to 10713
  140.4684  134.1412  155.7200 LP  0  0  0  0  0  0  0  0  0  0  0  0  # atno 17394 bound_to 11000
  141.1660  133.8703  157.1714 LP  0  0  0  0  0  0  0  0  0  0  0  0  # atno 17395 bound_to 11000

$$$$
