AV-unprocessed.smi:3232|AV-procd|sdf|12345|dock7
  -GOLD-   2272018203D 1   1.00000     0.00000
 Structure written by MMmdl.
 40 41  0  0  0  0  0  0  0  0  2 V2000
  145.9672  133.7265  151.8844 C   0  0  0  0  0  0  0  0  0  0  0  0
  146.2446  134.2391  153.3045 C   0  0  0  0  0  0  0  0  0  0  0  0
  147.6968  134.3622  153.5853 N   0  3  2  0  0  0  0  0  0  0  0  0
  148.4501  133.0893  153.5185 C   0  0  0  0  0  0  0  0  0  0  0  0
  149.6582  133.2454  154.4533 C   0  0  0  0  0  0  0  0  0  0  0  0
  149.6057  134.6989  154.9217 C   0  0  0  0  0  0  0  0  0  0  0  0
  148.1182  135.0633  154.8248 C   0  0  2  0  0  0  0  0  0  0  0  0
  147.2963  134.6499  156.0746 C   0  0  0  0  0  0  0  0  0  0  0  0
  147.6170  135.4762  157.2339 N   0  0  0  0  0  0  0  0  0  0  0  0
  148.6746  135.3033  158.0438 C   0  0  0  0  0  0  0  0  0  0  0  0
  149.4697  134.3710  157.9199 O   0  0  0  0  0  0  0  0  0  0  0  0
  148.8689  136.3641  159.1396 C   0  0  1  0  0  0  0  0  0  0  0  0
  149.0173  137.7922  158.5781 C   0  0  0  0  0  0  0  0  0  0  0  0
  147.7918  136.2786  160.1187 N   0  0  0  0  0  0  0  0  0  0  0  0
  146.7233  135.4795  160.1534 C   0  0  0  0  0  0  0  0  0  0  0  0
  145.9159  135.7049  161.1803 N   0  0  0  0  0  0  0  0  0  0  0  0
  146.5913  136.7286  161.7820 C   0  0  0  0  0  0  0  0  0  0  0  0
  147.7165  137.1170  161.1828 N   0  0  0  0  0  0  0  0  0  0  0  0
  144.8972  133.5888  151.7273 H   0  0  0  0  0  0  0  0  0  0  0  0
  146.4528  132.7655  151.7113 H   0  0  0  0  0  0  0  0  0  0  0  0
  146.3215  134.4228  151.1246 H   0  0  0  0  0  0  0  0  0  0  0  0
  145.7292  135.1824  153.4860 H   0  0  0  0  0  0  0  0  0  0  0  0
  145.8236  133.5258  154.0143 H   0  0  0  0  0  0  0  0  0  0  0  0
  147.8304  132.2535  153.8475 H   0  0  0  0  0  0  0  0  0  0  0  0
  148.7550  132.8945  152.4898 H   0  0  0  0  0  0  0  0  0  0  0  0
  149.5540  132.5759  155.3082 H   0  0  0  0  0  0  0  0  0  0  0  0
  150.6014  133.0073  153.9609 H   0  0  0  0  0  0  0  0  0  0  0  0
  150.0486  134.8442  155.9064 H   0  0  0  0  0  0  0  0  0  0  0  0
  150.1723  135.3192  154.2259 H   0  0  0  0  0  0  0  0  0  0  0  0
  148.0132  136.1393  154.6797 H   0  0  0  0  0  0  0  0  0  0  0  0
  146.2310  134.7868  155.8914 H   0  0  0  0  0  0  0  0  0  0  0  0
  147.4313  133.5894  156.2938 H   0  0  0  0  0  0  0  0  0  0  0  0
  147.0119  136.2648  157.4117 H   0  0  0  0  0  0  0  0  0  0  0  0
  149.7975  136.1210  159.6588 H   0  0  0  0  0  0  0  0  0  0  0  0
  149.8589  137.8586  157.8874 H   0  0  0  0  0  0  0  0  0  0  0  0
  149.1985  138.5073  159.3810 H   0  0  0  0  0  0  0  0  0  0  0  0
  148.1236  138.1171  158.0436 H   0  0  0  0  0  0  0  0  0  0  0  0
  146.5291  134.7207  159.4095 H   0  0  0  0  0  0  0  0  0  0  0  0
  146.2398  137.2065  162.6844 H   0  0  0  0  0  0  0  0  0  0  0  0
  148.0763  134.9209  152.8341 H   0  0  0  0  0  0  0  0  0  0  0  0
  1  2  1  0  0  0  0
  1 19  1  0  0  0  0
  1 20  1  0  0  0  0
  1 21  1  0  0  0  0
  2  3  1  0  0  0  0
  2 22  1  0  0  0  0
  2 23  1  0  0  0  0
  3  7  1  0  0  0  0
  3  4  1  0  0  0  0
  3 40  1  0  0  0  0
  4  5  1  0  0  0  0
  4 24  1  0  0  0  0
  4 25  1  0  0  0  0
  5  6  1  0  0  0  0
  5 26  1  0  0  0  0
  5 27  1  0  0  0  0
  6  7  1  0  0  0  0
  6 28  1  0  0  0  0
  6 29  1  0  0  0  0
  7  8  1  0  0  0  0
  7 30  1  0  0  0  0
  8  9  1  0  0  0  0
  8 31  1  0  0  0  0
  8 32  1  0  0  0  0
  9 10  1  0  0  0  0
  9 33  1  0  0  0  0
 10 11  2  0  0  0  0
 10 12  1  0  0  0  0
 12 13  1  0  0  0  0
 12 14  1  0  0  0  0
 12 34  1  0  0  0  0
 13 35  1  0  0  0  0
 13 36  1  0  0  0  0
 13 37  1  0  0  0  0
 14 18  1  0  0  0  0
 14 15  1  0  0  0  0
 15 16  2  0  0  0  0
 15 38  1  0  0  0  0
 16 17  1  0  0  0  0
 17 18  2  0  0  0  0
 17 39  1  0  0  0  0
M  CHG  1   3   1
M  END
> <s_m_source_file>
AV-unprocessed.smi

> <i_m_source_file_index>
3232

> <i_lp_mmshare_version>
43012

> <i_f3d_flags>
0

> <s_epik_input>
W0NIM11bQ0gyXU4xW0NIMl1bQ0gyXVtDSDJdW0NASF0xW0NIMl1bTkhdQyg9TylbQ0BIXShbQ0gzXSluMltjSF1uW2NIXW4y

> <s_epik_cmdline>
J2VwaWtfcHl0aG9uJywgJy1waCcsICc3LjAnLCAnLXRuJywgJzgnLCAnLW1hJywgJzIwMCcsICctbWV0YWxfYmluZGluZycsICctaW1hZScsICc8aW5maWxlLm1hZT4nLCAnLW9tYWUnLCAnPG91dGZpbGUubWFlPic=

> <r_lp_tautomer_probability>
1

> <r_epik_Ionization_Penalty>
0.00177695

> <r_epik_Ionization_Penalty_Charging>
0.00176881

> <r_epik_Ionization_Penalty_Neutral>
8.13528e-06

> <r_epik_State_Penalty>
0.00119827

> <r_epik_Charging_Adjusted_Penalty>
0.00296709

> <i_epik_Tot_Q>
1

> <i_epik_Tot_abs_Q>
1

> <r_epik_Metal_State_Penalty>
-0

> <b_epik_Metal_Only>
0

> <s_lp_Force_Field>
OPLS_2005

> <r_lp_Energy>
36.5981

> <b_lp_Chiralities_Consistent>
1

> <s_lp_Variant>
AV-unprocessed.smi:3232-7

> <Gold.Version>
5.8.1

> <Gold.Id.Protein>
6NUR|6NUR_protein|mol2

> <Gold.PLP.Fitness>
38.6113

> <Gold.PLP.PLP>
-24.5620

> <Gold.PLP.part.hbond>
-4.0000

> <Gold.PLP.part.metal>
0.0000

> <Gold.PLP.part.buried>
-3.7348

> <Gold.PLP.part.nonpolar>
-17.1030

> <Gold.PLP.part.repulsive>
0.0054

> <Gold.PLP.ligand.clash>
0.0000

> <Gold.PLP.ligand.torsion>
0.3117

> <Gold.PLP.Chemscore.Hbond>
4.8480

> <Gold.PLP.Chemscore.CHOScore>
0.0000

> <Gold.PLP.Chemscore.Metal>
0.0000

> <Gold.Chemscore.Hbonds>
donor molecule, donor type, donor heavy atom, donor atom, acceptor molecule, acceptor atom, score
      L1  H     3    40       P1  7948  2.00
      P1  H  6896  6907       L1    11  1.00
      P1  H  6931  6943       L1    18  0.98
      P1  H  6934  6947       L1    18  0.73

> <Gold.PLP.Chemscore.Internal.Correction>
0.1287

> <Gold.Rescore>
     Score         DG    S(hbond)    S(metal)    S(lipo)     H(rot)  DE(clash)    DE(int)     intcor
     14.65     -15.25       3.63        0.00      34.36       2.49       0.00       0.59       ----

> <Gold.Chemscore.Fitness>
14.6486

> <Gold.Chemscore.DG>
-15.2462

> <Gold.Chemscore.ZeroCoef>
-5.4800

> <Gold.Chemscore.Hbond>
3.6275

> <Gold.Chemscore.Metal>
0.0000

> <Gold.Chemscore.Lipo>
34.3604

> <Gold.Chemscore.Internal_Hbond>
0.0000

> <Gold.Chemscore.DEClash>
0.0030

> <Gold.Chemscore.DEInternal>
0.5946

> <Gold.Chemscore.Rot>
2.4882

> <Gold.Chemscore.Internal.Correction>
   9.000000E+99

> <Gold.Chemscore.Hbonds>
donor molecule, donor type, donor heavy atom, donor atom, acceptor molecule, acceptor atom, score
      L1  H     3    40       P1  7948  0.88
      P1  H  6896  6907       L1    11  0.97
      P1  H  6931  6943       L1    18  0.93
      P1  H  6934  6947       L1    18  0.12

> <Gold.Chemscore.Hbond.Weighted>
-12.1158

> <Gold.Chemscore.Metal.Weighted>
-0.0000

> <Gold.Chemscore.Lipo.Weighted>
-4.0202

> <Gold.Chemscore.Internal_Hbond.Weighted>
0.0000

> <Gold.Chemscore.DEClash.Weighted>
0.0030

> <Gold.Chemscore.DEInternal.Weighted>
0.5946

> <Gold.Chemscore.Rot.Weighted>
6.3697

> <Gold.Chemscore.Internal.Correction.Weighted>
   9.000000E+99

> <Gold.Protein.RotatedTorsions>
[ 6907 6896 6895 6894 ] final -110.74 input  -60.11 | X-H torsion
[ 7974 7965 7964 7962 ] final -117.73 input  175.53 | X-H torsion
[ 8008 7997 7996 7995 ] final  151.19 input   59.86 | X-H torsion
[ 10167 10162 10161 10158 ] final  -67.15 input  -65.29 | X-H torsion
[ 10718 10713 10712 10709 ] final -143.75 input   66.30 | X-H torsion
[ 10763 10752 10751 10750 ] final -173.46 input  -60.55 | X-H torsion
[ 11005 11000 10999 10996 ] final -149.86 input  -57.11 | X-H torsion

> <Gold.Protein.ActiveResidues>
 VAL166  LYS551  ARG553  GLY616  TRP617  ASP618  TYR619  PRO620  LYS621  CYS622 
 ASP623  PHE694  ASN695  SER759  ASP760  ASP761  ALA762  ILE779  LEU786  VAL792 
 PHE793  MET794  SER795  GLU796  ALA797  LYS798  CYS799  TRP800  GLU811  SER814 

> <Gold.Protein.RotatedAtoms>
  150.7644  133.9337  159.3434 H   0  0  0  0  0  0  0  0  0  0  0  0  # atno 6907 bound_to 6896
  151.7238  135.0887  160.0298 H   0  0  0  0  0  0  0  0  0  0  0  0  # atno 6908 bound_to 6896
  152.3633  133.6286  159.6067 H   0  0  0  0  0  0  0  0  0  0  0  0  # atno 6909 bound_to 6896
  145.0818  140.8431  143.4034 H   0  0  0  0  0  0  0  0  0  0  0  0  # atno 7974 bound_to 7965
  156.2684  140.2054  156.6136 H   0  0  0  0  0  0  0  0  0  0  0  0  # atno 8008 bound_to 7997
  154.6812  140.0540  157.0292 H   0  0  0  0  0  0  0  0  0  0  0  0  # atno 8009 bound_to 7997
  155.0998  140.3205  155.4553 H   0  0  0  0  0  0  0  0  0  0  0  0  # atno 8010 bound_to 7997
  140.5604  143.2312  151.6738 H   0  0  0  0  0  0  0  0  0  0  0  0  # atno 10167 bound_to 10162
  156.3617  130.7742  151.1910 H   0  0  0  0  0  0  0  0  0  0  0  0  # atno 10718 bound_to 10713
  154.6076  135.2861  155.0467 H   0  0  0  0  0  0  0  0  0  0  0  0  # atno 10763 bound_to 10752
  154.1709  135.6473  153.5013 H   0  0  0  0  0  0  0  0  0  0  0  0  # atno 10764 bound_to 10752
  153.0182  135.5400  154.6818 H   0  0  0  0  0  0  0  0  0  0  0  0  # atno 10765 bound_to 10752
  140.7463  134.3458  157.5136 H   0  0  0  0  0  0  0  0  0  0  0  0  # atno 11005 bound_to 11000
  145.1169  139.2720  143.5609 LP  0  0  0  0  0  0  0  0  0  0  0  0  # atno 17320 bound_to 7965
  146.3531  140.0781  142.8619 LP  0  0  0  0  0  0  0  0  0  0  0  0  # atno 17321 bound_to 7965
  139.5067  144.3670  152.0507 LP  0  0  0  0  0  0  0  0  0  0  0  0  # atno 17342 bound_to 10162
  140.2796  144.3874  150.6123 LP  0  0  0  0  0  0  0  0  0  0  0  0  # atno 17343 bound_to 10162
  157.7474  131.0398  150.4567 LP  0  0  0  0  0  0  0  0  0  0  0  0  # atno 17370 bound_to 10713
  156.4779  130.4067  149.6479 LP  0  0  0  0  0  0  0  0  0  0  0  0  # atno 17371 bound_to 10713
  139.8796  134.9113  156.3034 LP  0  0  0  0  0  0  0  0  0  0  0  0  # atno 17394 bound_to 11000
  140.9792  133.7278  156.0646 LP  0  0  0  0  0  0  0  0  0  0  0  0  # atno 17395 bound_to 11000

$$$$
