AV-unprocessed.smi:2685|AV-procd|sdf|10383|dock6
  -GOLD-   2272014413D 1   1.00000     0.00000
 Structure written by MMmdl.
 21 21  0  0  0  0  0  0  0  0  3 V2000
  150.4289  139.9442  157.6357 C   0  0  0  0  0  0  0  0  0  0  0  0
  150.1082  138.5038  157.9916 C   0  0  0  0  0  0  0  0  0  0  0  0
  149.5594  138.2359  159.1213 N   0  0  0  0  0  0  0  0  0  0  0  0
  149.2527  136.9159  159.5043 C   0  0  0  0  0  0  0  0  0  0  0  0
  148.7216  136.7187  160.5951 O   0  0  0  0  0  0  0  0  0  0  0  0
  149.5591  135.8940  158.6435 N   0  5  0  0  0  0  0  0  0  0  0  0
  150.1428  136.1425  157.4444 C   0  0  0  0  0  0  0  0  0  0  0  0
  150.4453  134.9297  156.5766 C   0  0  0  0  0  0  0  0  0  0  0  0
  150.4411  137.4284  157.0177 C   0  0  0  0  0  0  0  0  0  0  0  0
  151.0931  137.7744  155.6762 C   0  0  0  0  0  0  0  0  0  0  0  0
  152.5720  138.1745  155.7542 C   0  0  0  0  0  0  0  0  0  0  0  0
  152.8514  139.3410  155.4005 O   0  0  0  0  0  0  0  0  0  0  0  0
  153.4004  137.3245  156.1508 O   0  5  0  0  0  0  0  0  0  0  0  0
  151.4784  140.0477  157.3598 H   0  0  0  0  0  0  0  0  0  0  0  0
  150.2398  140.6041  158.4831 H   0  0  0  0  0  0  0  0  0  0  0  0
  149.8086  140.2777  156.8039 H   0  0  0  0  0  0  0  0  0  0  0  0
  149.8195  134.9270  155.6843 H   0  0  0  0  0  0  0  0  0  0  0  0
  150.2656  133.9941  157.1078 H   0  0  0  0  0  0  0  0  0  0  0  0
  151.4882  134.9281  156.2592 H   0  0  0  0  0  0  0  0  0  0  0  0
  151.0159  136.9167  155.0087 H   0  0  0  0  0  0  0  0  0  0  0  0
  150.5368  138.5664  155.1756 H   0  0  0  0  0  0  0  0  0  0  0  0
  1  2  1  0  0  0  0
  1 14  1  0  0  0  0
  1 15  1  0  0  0  0
  1 16  1  0  0  0  0
  2  9  1  0  0  0  0
  2  3  2  0  0  0  0
  3  4  1  0  0  0  0
  4  5  2  0  0  0  0
  4  6  1  0  0  0  0
  6  7  1  0  0  0  0
  7  8  1  0  0  0  0
  7  9  2  0  0  0  0
  8 17  1  0  0  0  0
  8 18  1  0  0  0  0
  8 19  1  0  0  0  0
  9 10  1  0  0  0  0
 10 11  1  0  0  0  0
 10 20  1  0  0  0  0
 10 21  1  0  0  0  0
 11 12  2  0  0  0  0
 11 13  1  0  0  0  0
M  CHG  1   6  -1
M  CHG  1  13  -1
M  END
> <s_m_source_file>
AV-unprocessed.smi

> <i_m_source_file_index>
2685

> <i_lp_mmshare_version>
43012

> <i_f3d_flags>
0

> <s_epik_input>
W0NIM11jMW5jKD1PKVtuSF1jKFtDSDNdKWMxW0NIMl1DKD1PKVtPSF0=

> <s_epik_cmdline>
J2VwaWtfcHl0aG9uJywgJy1waCcsICc3LjAnLCAnLXRuJywgJzgnLCAnLW1hJywgJzIwMCcsICctbWV0YWxfYmluZGluZycsICctaW1hZScsICc8aW5maWxlLm1hZT4nLCAnLW9tYWUnLCAnPG91dGZpbGUubWFlPic=

> <r_lp_tautomer_probability>
1

> <r_epik_Ionization_Penalty>
5.93788

> <r_epik_Ionization_Penalty_Charging>
0.439901

> <r_epik_Ionization_Penalty_Neutral>
5.49798

> <r_epik_State_Penalty>
5.49792

> <r_epik_Charging_Adjusted_Penalty>
5.93782

> <i_epik_Tot_Q>
-2

> <i_epik_Tot_abs_Q>
2

> <r_epik_Metal_State_Penalty>
1.50795

> <b_epik_Metal_Only>
1

> <s_lp_Force_Field>
OPLS_2005

> <r_lp_Energy>
12.6786

> <b_lp_Chiralities_Consistent>
1

> <s_lp_Variant>
AV-unprocessed.smi:2685-2

> <Gold.Version>
5.8.1

> <Gold.Id.Protein>
6NUR|6NUR_protein|mol2

> <Gold.PLP.Fitness>
32.6155

> <Gold.PLP.PLP>
-15.0802

> <Gold.PLP.part.hbond>
-5.0918

> <Gold.PLP.part.metal>
0.0000

> <Gold.PLP.part.buried>
-3.8144

> <Gold.PLP.part.nonpolar>
-7.3490

> <Gold.PLP.part.repulsive>
0.0000

> <Gold.PLP.ligand.clash>
0.0000

> <Gold.PLP.ligand.torsion>
0.1850

> <Gold.PLP.Chemscore.Hbond>
5.9680

> <Gold.PLP.Chemscore.CHOScore>
0.0000

> <Gold.PLP.Chemscore.Metal>
0.0000

> <Gold.Chemscore.Hbonds>
donor molecule, donor type, donor heavy atom, donor atom, acceptor molecule, acceptor atom, score
      P1  H  6896  6907       L1     6  2.00
      P1  H  6931  6943       L1     5  0.90
      P1  H  7997  8008       L1    12  2.00
      P1  H 10752 10765       L1    13  0.85

> <Gold.PLP.Chemscore.Internal.Correction>
0.0014

> <Gold.Rescore>
     Score         DG    S(hbond)    S(metal)    S(lipo)     H(rot)  DE(clash)    DE(int)     intcor
     13.36     -13.61       2.81        0.00      22.06       1.50       0.01       0.24       ----

> <Gold.Chemscore.Fitness>
13.3574

> <Gold.Chemscore.DG>
-13.6074

> <Gold.Chemscore.ZeroCoef>
-5.4800

> <Gold.Chemscore.Hbond>
2.8080

> <Gold.Chemscore.Metal>
0.0000

> <Gold.Chemscore.Lipo>
22.0633

> <Gold.Chemscore.Internal_Hbond>
0.0000

> <Gold.Chemscore.DEClash>
0.0093

> <Gold.Chemscore.DEInternal>
0.2407

> <Gold.Chemscore.Rot>
1.4972

> <Gold.Chemscore.Internal.Correction>
   9.000000E+99

> <Gold.Chemscore.Hbonds>
donor molecule, donor type, donor heavy atom, donor atom, acceptor molecule, acceptor atom, score
      P1  H  6896  6907       L1     6  0.42
      P1  H  6931  6943       L1     5  0.68
      P1  H  7997  8008       L1    12  0.97
      P1  H 10752 10765       L1    13  0.40

> <Gold.Chemscore.Hbond.Weighted>
-9.3789

> <Gold.Chemscore.Metal.Weighted>
-0.0000

> <Gold.Chemscore.Lipo.Weighted>
-2.5814

> <Gold.Chemscore.Internal_Hbond.Weighted>
0.0000

> <Gold.Chemscore.DEClash.Weighted>
0.0093

> <Gold.Chemscore.DEInternal.Weighted>
0.2407

> <Gold.Chemscore.Rot.Weighted>
3.8329

> <Gold.Chemscore.Internal.Correction.Weighted>
   9.000000E+99

> <Gold.Protein.RotatedTorsions>
[ 6907 6896 6895 6894 ] final  -68.34 input  -60.11 | X-H torsion
[ 7974 7965 7964 7962 ] final   48.24 input  175.53 | X-H torsion
[ 8008 7997 7996 7995 ] final   -8.70 input   59.86 | X-H torsion
[ 10167 10162 10161 10158 ] final -158.01 input  -65.29 | X-H torsion
[ 10718 10713 10712 10709 ] final  126.22 input   66.30 | X-H torsion
[ 10763 10752 10751 10750 ] final -135.46 input  -60.55 | X-H torsion
[ 11005 11000 10999 10996 ] final  116.41 input  -57.11 | X-H torsion

> <Gold.Protein.ActiveResidues>
 VAL166  LYS551  ARG553  GLY616  TRP617  ASP618  TYR619  PRO620  LYS621  CYS622 
 ASP623  PHE694  ASN695  SER759  ASP760  ASP761  ALA762  ILE779  LEU786  VAL792 
 PHE793  MET794  SER795  GLU796  ALA797  LYS798  CYS799  TRP800  GLU811  SER814 

> <Gold.Protein.RotatedAtoms>
  150.7361  134.5753  159.5910 H   0  0  0  0  0  0  0  0  0  0  0  0  # atno 6907 bound_to 6896
  152.3181  134.7411  160.0329 H   0  0  0  0  0  0  0  0  0  0  0  0  # atno 6908 bound_to 6896
  151.7936  133.3326  159.3543 H   0  0  0  0  0  0  0  0  0  0  0  0  # atno 6909 bound_to 6896
  146.0223  139.4666  142.9889 H   0  0  0  0  0  0  0  0  0  0  0  0  # atno 7974 bound_to 7965
  154.5716  140.2374  155.8183 H   0  0  0  0  0  0  0  0  0  0  0  0  # atno 8008 bound_to 7997
  156.2111  140.3026  155.9692 H   0  0  0  0  0  0  0  0  0  0  0  0  # atno 8009 bound_to 7997
  155.2702  140.0418  157.2997 H   0  0  0  0  0  0  0  0  0  0  0  0  # atno 8010 bound_to 7997
  139.6726  143.9719  152.2292 H   0  0  0  0  0  0  0  0  0  0  0  0  # atno 10167 bound_to 10162
  157.5437  131.1096  150.8816 H   0  0  0  0  0  0  0  0  0  0  0  0  # atno 10718 bound_to 10713
  154.8702  135.3703  154.4902 H   0  0  0  0  0  0  0  0  0  0  0  0  # atno 10763 bound_to 10752
  153.5549  135.7024  153.5579 H   0  0  0  0  0  0  0  0  0  0  0  0  # atno 10764 bound_to 10752
  153.3681  135.4028  155.1732 H   0  0  0  0  0  0  0  0  0  0  0  0  # atno 10765 bound_to 10752
  139.9040  134.9597  156.7194 H   0  0  0  0  0  0  0  0  0  0  0  0  # atno 11005 bound_to 11000
  145.7173  141.0086  143.1421 LP  0  0  0  0  0  0  0  0  0  0  0  0  # atno 17320 bound_to 7965
  144.6995  139.8829  143.7448 LP  0  0  0  0  0  0  0  0  0  0  0  0  # atno 17321 bound_to 7965
  139.9487  144.6634  150.8193 LP  0  0  0  0  0  0  0  0  0  0  0  0  # atno 17342 bound_to 10162
  140.7623  143.3196  151.2652 LP  0  0  0  0  0  0  0  0  0  0  0  0  # atno 17343 bound_to 10162
  156.9361  130.5367  149.5279 LP  0  0  0  0  0  0  0  0  0  0  0  0  # atno 17370 bound_to 10713
  156.0518  130.5586  150.9005 LP  0  0  0  0  0  0  0  0  0  0  0  0  # atno 17371 bound_to 10713
  140.7013  133.9304  155.8026 LP  0  0  0  0  0  0  0  0  0  0  0  0  # atno 17394 bound_to 11000
  141.0370  134.0676  157.3948 LP  0  0  0  0  0  0  0  0  0  0  0  0  # atno 17395 bound_to 11000

$$$$
