AV-unprocessed.smi:1875|AV-procd|sdf|7613|dock4
  -GOLD-   22720 9333D 1   1.00000     0.00000
 Structure written by MMmdl.
 48 50  0  0  0  0  0  0  0  0  2 V2000
  145.9000  134.2270  153.2786 C   0  0  0  0  0  0  0  0  0  0  0  0
  146.0749  135.6086  152.6826 C   0  0  0  0  0  0  0  0  0  0  0  0
  145.7838  135.7468  151.3856 N   0  0  0  0  0  0  0  0  0  0  0  0
  145.9473  136.9755  150.8482 C   0  0  0  0  0  0  0  0  0  0  0  0
  146.4067  138.0651  151.6158 C   0  0  0  0  0  0  0  0  0  0  0  0
  146.6791  137.7987  152.9740 C   0  0  0  0  0  0  0  0  0  0  0  0
  147.1908  138.8785  153.9038 C   0  0  0  0  0  0  0  0  0  0  0  0
  147.4650  140.1155  153.1499 N   0  3  0  0  0  0  0  0  0  0  0  0
  148.0839  141.1868  153.9545 C   0  0  0  0  0  0  0  0  0  0  0  0
  149.3253  140.6742  154.7079 C   0  0  1  0  0  0  0  0  0  0  0  0
  150.1710  140.0202  153.7822 O   0  0  0  0  0  0  0  0  0  0  0  0
  150.1167  141.7891  155.4270 C   0  0  0  0  0  0  0  0  0  0  0  0
  151.0713  141.2940  156.4064 N   0  0  0  0  0  0  0  0  0  0  0  0
  151.8264  140.1819  156.3137 C   0  0  0  0  0  0  0  0  0  0  0  0
  152.6372  139.9081  157.3309 N   0  0  0  0  0  0  0  0  0  0  0  0
  152.3906  140.9742  158.1786 C   0  0  0  0  0  0  0  0  0  0  0  0
  152.9385  141.2856  159.4421 C   0  0  0  0  0  0  0  0  0  0  0  0
  152.5374  142.4470  160.1398 C   0  0  0  0  0  0  0  0  0  0  0  0
  153.1527  142.7434  161.4963 C   0  0  0  0  0  0  0  0  0  0  0  0
  151.5729  143.3183  159.5730 C   0  0  0  0  0  0  0  0  0  0  0  0
  151.1282  144.5731  160.3033 C   0  0  0  0  0  0  0  0  0  0  0  0
  151.0148  143.0218  158.3118 C   0  0  0  0  0  0  0  0  0  0  0  0
  151.4200  141.8618  157.6280 C   0  0  0  0  0  0  0  0  0  0  0  0
  146.5178  136.5658  153.5047 N   0  0  0  0  0  0  0  0  0  0  0  0
  145.1536  133.6527  152.7286 H   0  0  0  0  0  0  0  0  0  0  0  0
  145.5756  134.2894  154.3181 H   0  0  0  0  0  0  0  0  0  0  0  0
  146.8439  133.6823  153.2457 H   0  0  0  0  0  0  0  0  0  0  0  0
  145.7138  137.0895  149.8000 H   0  0  0  0  0  0  0  0  0  0  0  0
  146.5390  139.0459  151.1827 H   0  0  0  0  0  0  0  0  0  0  0  0
  146.4530  139.0765  154.6824 H   0  0  0  0  0  0  0  0  0  0  0  0
  148.1005  138.5352  154.3986 H   0  0  0  0  0  0  0  0  0  0  0  0
  148.0790  139.8883  152.3810 H   0  0  0  0  0  0  0  0  0  0  0  0
  148.3431  142.0242  153.3050 H   0  0  0  0  0  0  0  0  0  0  0  0
  147.3451  141.5515  154.6694 H   0  0  0  0  0  0  0  0  0  0  0  0
  149.0178  139.9405  155.4545 H   0  0  0  0  0  0  0  0  0  0  0  0
  149.7741  140.0662  152.9252 H   0  0  0  0  0  0  0  0  0  0  0  0
  150.6623  142.3835  154.6928 H   0  0  0  0  0  0  0  0  0  0  0  0
  149.4338  142.4775  155.9265 H   0  0  0  0  0  0  0  0  0  0  0  0
  151.7723  139.5314  155.4531 H   0  0  0  0  0  0  0  0  0  0  0  0
  153.6744  140.6226  159.8729 H   0  0  0  0  0  0  0  0  0  0  0  0
  153.6471  143.7151  161.4891 H   0  0  0  0  0  0  0  0  0  0  0  0
  153.8954  141.9932  161.7694 H   0  0  0  0  0  0  0  0  0  0  0  0
  152.3845  142.7511  162.2698 H   0  0  0  0  0  0  0  0  0  0  0  0
  150.3616  145.1091  159.7432 H   0  0  0  0  0  0  0  0  0  0  0  0
  151.9715  145.2490  160.4478 H   0  0  0  0  0  0  0  0  0  0  0  0
  150.7138  144.3215  161.2799 H   0  0  0  0  0  0  0  0  0  0  0  0
  150.2801  143.6782  157.8697 H   0  0  0  0  0  0  0  0  0  0  0  0
  146.5935  140.4616  152.7744 H   0  0  0  0  0  0  0  0  0  0  0  0
  1  2  1  0  0  0  0
  1 25  1  0  0  0  0
  1 26  1  0  0  0  0
  1 27  1  0  0  0  0
  2 24  1  0  0  0  0
  2  3  2  0  0  0  0
  3  4  1  0  0  0  0
  4  5  2  0  0  0  0
  4 28  1  0  0  0  0
  5  6  1  0  0  0  0
  5 29  1  0  0  0  0
  6  7  1  0  0  0  0
  6 24  2  0  0  0  0
  7  8  1  0  0  0  0
  7 30  1  0  0  0  0
  7 31  1  0  0  0  0
  8  9  1  0  0  0  0
  8 32  1  0  0  0  0
  8 48  1  0  0  0  0
  9 10  1  0  0  0  0
  9 33  1  0  0  0  0
  9 34  1  0  0  0  0
 10 11  1  0  0  0  0
 10 12  1  0  0  0  0
 10 35  1  0  0  0  0
 11 36  1  0  0  0  0
 12 13  1  0  0  0  0
 12 37  1  0  0  0  0
 12 38  1  0  0  0  0
 13 23  1  0  0  0  0
 13 14  1  0  0  0  0
 14 15  2  0  0  0  0
 14 39  1  0  0  0  0
 15 16  1  0  0  0  0
 16 23  2  0  0  0  0
 16 17  1  0  0  0  0
 17 18  2  0  0  0  0
 17 40  1  0  0  0  0
 18 19  1  0  0  0  0
 18 20  1  0  0  0  0
 19 41  1  0  0  0  0
 19 42  1  0  0  0  0
 19 43  1  0  0  0  0
 20 21  1  0  0  0  0
 20 22  2  0  0  0  0
 21 44  1  0  0  0  0
 21 45  1  0  0  0  0
 21 46  1  0  0  0  0
 22 23  1  0  0  0  0
 22 47  1  0  0  0  0
M  CHG  1   8   1
M  END
> <s_m_source_file>
AV-unprocessed.smi

> <i_m_source_file_index>
1875

> <i_lp_mmshare_version>
43012

> <i_f3d_flags>
0

> <s_epik_input>
W0NIM11jMW5bY0hdW2NIXWMobjEpW0NIMl1bTkhdW0NIMl1bQ0BIXShbT0hdKVtDSDJdbihbY0hdbjIpYyhjMjMpW2NIXWMoW0NIM10pYyhbY0hdMylbQ0gzXQ==

> <s_epik_cmdline>
J2VwaWtfcHl0aG9uJywgJy1waCcsICc3LjAnLCAnLXRuJywgJzgnLCAnLW1hJywgJzIwMCcsICctbWV0YWxfYmluZGluZycsICctaW1hZScsICc8aW5maWxlLm1hZT4nLCAnLW9tYWUnLCAnPG91dGZpbGUubWFlPic=

> <r_lp_tautomer_probability>
1

> <r_epik_Ionization_Penalty>
0.192455

> <r_epik_Ionization_Penalty_Charging>
0.102343

> <r_epik_Ionization_Penalty_Neutral>
0.0901122

> <r_epik_State_Penalty>
0.175389

> <r_epik_Charging_Adjusted_Penalty>
0.277732

> <i_epik_Tot_Q>
1

> <i_epik_Tot_abs_Q>
1

> <r_epik_Metal_State_Penalty>
0.167659

> <b_epik_Metal_Only>
0

> <s_epik_Chemistry_Notes>
This compound contains an electron-poor aromatic ring that is susceptible to covalent hydrolysis at low pH, typically resulting in measured values for nitrogen ring protonation that are around two units higher than predicted values.

> <s_lp_Force_Field>
OPLS_2005

> <r_lp_Energy>
1.49454

> <b_lp_Chiralities_Consistent>
1

> <s_lp_Variant>
AV-unprocessed.smi:1875-2

> <Gold.Version>
5.8.1

> <Gold.Id.Protein>
6NUR|6NUR_protein|mol2

> <Gold.PLP.Fitness>
58.3856

> <Gold.PLP.PLP>
-46.3905

> <Gold.PLP.part.hbond>
-4.0000

> <Gold.PLP.part.metal>
0.0000

> <Gold.PLP.part.buried>
-0.3956

> <Gold.PLP.part.nonpolar>
-42.2809

> <Gold.PLP.part.repulsive>
0.3586

> <Gold.PLP.ligand.clash>
0.0000

> <Gold.PLP.ligand.torsion>
0.5284

> <Gold.PLP.Chemscore.Hbond>
3.8208

> <Gold.PLP.Chemscore.CHOScore>
0.4948

> <Gold.PLP.Chemscore.Metal>
0.0000

> <Gold.Chemscore.Hbonds>
donor molecule, donor type, donor heavy atom, donor atom, acceptor molecule, acceptor atom, score
      L1  H     8    32       P1  7957  1.00
      L1  H    11    36       P1  7957  1.00
      P1  H  7989  7998       L1    11  0.81
      P1  H  7997  8010       L1    15  1.00
      L1  C     4    28       P1 10171  0.49

> <Gold.PLP.Chemscore.Internal.Correction>
0.1053

> <Gold.Rescore>
     Score         DG    S(hbond)    S(metal)    S(lipo)     H(rot)  DE(clash)    DE(int)     intcor
     19.62     -22.83       2.79        0.00     130.00       2.80       1.78       1.43       ----

> <Gold.Chemscore.Fitness>
19.6228

> <Gold.Chemscore.DG>
-22.8313

> <Gold.Chemscore.ZeroCoef>
-5.4800

> <Gold.Chemscore.Hbond>
2.7907

> <Gold.Chemscore.Metal>
0.0000

> <Gold.Chemscore.Lipo>
130.0042

> <Gold.Chemscore.Internal_Hbond>
0.0000

> <Gold.Chemscore.DEClash>
1.7818

> <Gold.Chemscore.DEInternal>
1.4267

> <Gold.Chemscore.Rot>
2.8047

> <Gold.Chemscore.Internal.Correction>
   9.000000E+99

> <Gold.Chemscore.Hbonds>
donor molecule, donor type, donor heavy atom, donor atom, acceptor molecule, acceptor atom, score
      L1  H     8    32       P1  7957  0.98
      L1  H    11    36       P1  7957  1.00
      P1  H  7989  7998       L1    11  0.16
      P1  H  7997  8010       L1    15  0.39

> <Gold.Chemscore.Hbond.Weighted>
-9.3209

> <Gold.Chemscore.Metal.Weighted>
-0.0000

> <Gold.Chemscore.Lipo.Weighted>
-15.2105

> <Gold.Chemscore.Internal_Hbond.Weighted>
0.0000

> <Gold.Chemscore.DEClash.Weighted>
1.7818

> <Gold.Chemscore.DEInternal.Weighted>
1.4267

> <Gold.Chemscore.Rot.Weighted>
7.1801

> <Gold.Chemscore.Internal.Correction.Weighted>
   9.000000E+99

> <Gold.Protein.RotatedTorsions>
[ 6907 6896 6895 6894 ] final  174.68 input  -60.11 | X-H torsion
[ 7974 7965 7964 7962 ] final   -9.64 input  175.53 | X-H torsion
[ 8008 7997 7996 7995 ] final   54.28 input   59.86 | X-H torsion
[ 10167 10162 10161 10158 ] final  172.95 input  -65.29 | X-H torsion
[ 10718 10713 10712 10709 ] final  116.86 input   66.30 | X-H torsion
[ 10763 10752 10751 10750 ] final -116.14 input  -60.55 | X-H torsion
[ 11005 11000 10999 10996 ] final -113.81 input  -57.11 | X-H torsion

> <Gold.Protein.ActiveResidues>
 VAL166  LYS551  ARG553  GLY616  TRP617  ASP618  TYR619  PRO620  LYS621  CYS622 
 ASP623  PHE694  ASN695  SER759  ASP760  ASP761  ALA762  ILE779  LEU786  VAL792 
 PHE793  MET794  SER795  GLU796  ALA797  LYS798  CYS799  TRP800  GLU811  SER814 

> <Gold.Protein.RotatedAtoms>
  151.7485  133.3326  159.3384 H   0  0  0  0  0  0  0  0  0  0  0  0  # atno 6907 bound_to 6896
  150.7545  134.6214  159.6147 H   0  0  0  0  0  0  0  0  0  0  0  0  # atno 6908 bound_to 6896
  152.3484  134.7041  160.0295 H   0  0  0  0  0  0  0  0  0  0  0  0  # atno 6909 bound_to 6896
  146.2245  140.2647  142.8353 H   0  0  0  0  0  0  0  0  0  0  0  0  # atno 7974 bound_to 7965
  155.4821  140.3469  155.4341 H   0  0  0  0  0  0  0  0  0  0  0  0  # atno 8008 bound_to 7997
  156.1032  140.1441  156.9467 H   0  0  0  0  0  0  0  0  0  0  0  0  # atno 8009 bound_to 7997
  154.4707  140.0902  156.7116 H   0  0  0  0  0  0  0  0  0  0  0  0  # atno 8010 bound_to 7997
  139.5092  144.3316  152.0106 H   0  0  0  0  0  0  0  0  0  0  0  0  # atno 10167 bound_to 10162
  157.6133  131.1030  150.7533 H   0  0  0  0  0  0  0  0  0  0  0  0  # atno 10718 bound_to 10713
  154.8508  135.4356  154.1774 H   0  0  0  0  0  0  0  0  0  0  0  0  # atno 10763 bound_to 10752
  153.2873  135.6958  153.7333 H   0  0  0  0  0  0  0  0  0  0  0  0  # atno 10764 bound_to 10752
  153.6514  135.3450  155.3075 H   0  0  0  0  0  0  0  0  0  0  0  0  # atno 10765 bound_to 10752
  141.0591  133.9564  157.2699 H   0  0  0  0  0  0  0  0  0  0  0  0  # atno 11005 bound_to 11000
  144.9313  140.7978  143.5687 LP  0  0  0  0  0  0  0  0  0  0  0  0  # atno 17320 bound_to 7965
  145.2591  139.2000  143.4902 LP  0  0  0  0  0  0  0  0  0  0  0  0  # atno 17321 bound_to 7965
  140.2756  144.3917  150.6136 LP  0  0  0  0  0  0  0  0  0  0  0  0  # atno 17342 bound_to 10162
  140.6056  143.2167  151.6986 LP  0  0  0  0  0  0  0  0  0  0  0  0  # atno 17343 bound_to 10162
  156.7906  130.4889  149.5385 LP  0  0  0  0  0  0  0  0  0  0  0  0  # atno 17370 bound_to 10713
  156.1245  130.6134  151.0243 LP  0  0  0  0  0  0  0  0  0  0  0  0  # atno 17371 bound_to 10713
  139.9417  135.0190  156.8727 LP  0  0  0  0  0  0  0  0  0  0  0  0  # atno 17394 bound_to 11000
  140.5904  134.0267  155.7497 LP  0  0  0  0  0  0  0  0  0  0  0  0  # atno 17395 bound_to 11000

$$$$
