AV-unprocessed.smi:2533|AV-procd|sdf|9972|dock3
  -GOLD-   2272014 23D 1   1.00000     0.00000
 Structure written by MMmdl.
 35 36  0  0  0  0  0  0  0  0  1 V2000
  153.8855  143.4397  163.8935 C   0  0  0  0  0  0  0  0  0  0  0  0
  154.5116  142.5515  162.9790 O   0  0  0  0  0  0  0  0  0  0  0  0
  153.7770  142.1052  161.9008 C   0  0  0  0  0  0  0  0  0  0  0  0
  152.5302  142.6536  161.5077 C   0  0  0  0  0  0  0  0  0  0  0  0
  151.8407  142.1348  160.3952 C   0  0  0  0  0  0  0  0  0  0  0  0
  152.3820  141.0621  159.6568 C   0  0  0  0  0  0  0  0  0  0  0  0
  151.6239  140.4733  158.4751 C   0  0  2  0  0  0  0  0  0  0  0  0
  150.4599  139.7798  158.8763 O   0  0  0  0  0  0  0  0  0  0  0  0
  152.4885  139.5236  157.6152 C   0  0  0  0  0  0  0  0  0  0  0  0
  151.7493  138.9660  156.4733 N   0  0  0  0  0  0  0  0  0  0  0  0
  150.4317  139.3862  156.4078 N   0  0  0  0  0  0  0  0  0  0  0  0
  149.6492  139.0056  155.4500 C   0  0  0  0  0  0  0  0  0  0  0  0
  148.2334  139.5265  155.4615 C   0  0  0  0  0  0  0  0  0  0  0  0
  147.5143  138.9858  154.4776 F   0  0  0  0  0  0  0  0  0  0  0  0
  147.6475  139.2356  156.6234 F   0  0  0  0  0  0  0  0  0  0  0  0
  148.2326  140.8508  155.3078 F   0  0  0  0  0  0  0  0  0  0  0  0
  150.1675  138.1115  154.4286 C   0  0  0  0  0  0  0  0  0  0  0  0
  151.4526  137.7032  154.4931 C   0  0  0  0  0  0  0  0  0  0  0  0
  152.3445  138.1364  155.5655 C   0  0  0  0  0  0  0  0  0  0  0  0
  153.5242  137.7935  155.6365 O   0  0  0  0  0  0  0  0  0  0  0  0
  153.6230  140.5159  160.0428 C   0  0  0  0  0  0  0  0  0  0  0  0
  154.3126  141.0338  161.1554 C   0  0  0  0  0  0  0  0  0  0  0  0
  155.5011  140.4911  161.5128 F   0  0  0  0  0  0  0  0  0  0  0  0
  154.5873  143.6923  164.6883 H   0  0  0  0  0  0  0  0  0  0  0  0
  153.0119  142.9819  164.3595 H   0  0  0  0  0  0  0  0  0  0  0  0
  153.5903  144.3700  163.4066 H   0  0  0  0  0  0  0  0  0  0  0  0
  152.0777  143.4719  162.0467 H   0  0  0  0  0  0  0  0  0  0  0  0
  150.8860  142.5569  160.1169 H   0  0  0  0  0  0  0  0  0  0  0  0
  151.2847  141.2974  157.8460 H   0  0  0  0  0  0  0  0  0  0  0  0
  150.2485  140.0370  159.7607 H   0  0  0  0  0  0  0  0  0  0  0  0
  153.3890  140.0445  157.2855 H   0  0  0  0  0  0  0  0  0  0  0  0
  152.8503  138.7001  158.2335 H   0  0  0  0  0  0  0  0  0  0  0  0
  149.5274  137.7783  153.6251 H   0  0  0  0  0  0  0  0  0  0  0  0
  151.8338  137.0391  153.7313 H   0  0  0  0  0  0  0  0  0  0  0  0
  154.0465  139.6881  159.4931 H   0  0  0  0  0  0  0  0  0  0  0  0
  1  2  1  0  0  0  0
  1 24  1  0  0  0  0
  1 25  1  0  0  0  0
  1 26  1  0  0  0  0
  2  3  1  0  0  0  0
  3 22  1  0  0  0  0
  3  4  2  0  0  0  0
  4  5  1  0  0  0  0
  4 27  1  0  0  0  0
  5  6  2  0  0  0  0
  5 28  1  0  0  0  0
  6  7  1  0  0  0  0
  6 21  1  0  0  0  0
  7  8  1  0  0  0  0
  7  9  1  0  0  0  0
  7 29  1  0  0  0  0
  8 30  1  0  0  0  0
  9 10  1  0  0  0  0
  9 31  1  0  0  0  0
  9 32  1  0  0  0  0
 10 19  1  0  0  0  0
 10 11  1  0  0  0  0
 11 12  2  0  0  0  0
 12 13  1  0  0  0  0
 12 17  1  0  0  0  0
 13 14  1  0  0  0  0
 13 15  1  0  0  0  0
 13 16  1  0  0  0  0
 17 18  2  0  0  0  0
 17 33  1  0  0  0  0
 18 19  1  0  0  0  0
 18 34  1  0  0  0  0
 19 20  2  0  0  0  0
 21 22  2  0  0  0  0
 21 35  1  0  0  0  0
 22 23  1  0  0  0  0
M  END
> <s_m_source_file>
AV-unprocessed.smi

> <i_m_source_file_index>
2533

> <i_lp_mmshare_version>
43012

> <i_f3d_flags>
0

> <s_epik_input>
W0NIM11PYzFbY0hdW2NIXWMoW2NIXWMxRilbQ0BIXShbT0hdKVtDSDJdbjJuYyhDKEYpKEYpRilbY0hdW2NIXWMyPU8=

> <s_epik_cmdline>
J2VwaWtfcHl0aG9uJywgJy1waCcsICc3LjAnLCAnLXRuJywgJzgnLCAnLW1hJywgJzIwMCcsICctbWV0YWxfYmluZGluZycsICctaW1hZScsICc8aW5maWxlLm1hZT4nLCAnLW9tYWUnLCAnPG91dGZpbGUubWFlPic=

> <r_lp_tautomer_probability>
1

> <r_epik_Ionization_Penalty>
5.00966e-08

> <r_epik_Ionization_Penalty_Charging>
3.92872e-09

> <r_epik_Ionization_Penalty_Neutral>
4.61679e-08

> <r_epik_State_Penalty>
-0

> <r_epik_Charging_Adjusted_Penalty>
3.92872e-09

> <i_epik_Tot_Q>
0

> <i_epik_Tot_abs_Q>
0

> <r_epik_Metal_State_Penalty>
-0

> <b_epik_Metal_Only>
0

> <s_lp_Force_Field>
OPLS_2005

> <r_lp_Energy>
31.2936

> <b_lp_Chiralities_Consistent>
1

> <s_lp_Variant>
AV-unprocessed.smi:2533-1

> <Gold.Version>
5.8.1

> <Gold.Id.Protein>
6NUR|6NUR_protein|mol2

> <Gold.PLP.Fitness>
47.3111

> <Gold.PLP.PLP>
-47.1285

> <Gold.PLP.part.hbond>
-2.0000

> <Gold.PLP.part.metal>
0.0000

> <Gold.PLP.part.buried>
0.1138

> <Gold.PLP.part.nonpolar>
-43.6330

> <Gold.PLP.part.repulsive>
0.0217

> <Gold.PLP.ligand.clash>
0.0071

> <Gold.PLP.ligand.torsion>
0.4313

> <Gold.PLP.Chemscore.Hbond>
0.3380

> <Gold.PLP.Chemscore.CHOScore>
0.0000

> <Gold.PLP.Chemscore.Metal>
0.0000

> <Gold.Chemscore.Hbonds>
donor molecule, donor type, donor heavy atom, donor atom, acceptor molecule, acceptor atom, score
      P1  H 10752 10765       L1    20  0.03

> <Gold.PLP.Chemscore.Internal.Correction>
0.0384

> <Gold.Rescore>
     Score         DG    S(hbond)    S(metal)    S(lipo)     H(rot)  DE(clash)    DE(int)     intcor
     11.15     -13.62       0.69        0.00     104.62       2.50       0.51       1.96       ----

> <Gold.Chemscore.Fitness>
11.1472

> <Gold.Chemscore.DG>
-13.6169

> <Gold.Chemscore.ZeroCoef>
-5.4800

> <Gold.Chemscore.Hbond>
0.6901

> <Gold.Chemscore.Metal>
0.0000

> <Gold.Chemscore.Lipo>
104.6156

> <Gold.Chemscore.Internal_Hbond>
0.0000

> <Gold.Chemscore.DEClash>
0.5142

> <Gold.Chemscore.DEInternal>
1.9556

> <Gold.Chemscore.Rot>
2.5031

> <Gold.Chemscore.Internal.Correction>
   9.000000E+99

> <Gold.Chemscore.Hbonds>
donor molecule, donor type, donor heavy atom, donor atom, acceptor molecule, acceptor atom, score
      P1  H 10752 10765       L1    20  0.01

> <Gold.Chemscore.Hbond.Weighted>
-2.3048

> <Gold.Chemscore.Metal.Weighted>
-0.0000

> <Gold.Chemscore.Lipo.Weighted>
-12.2400

> <Gold.Chemscore.Internal_Hbond.Weighted>
0.0000

> <Gold.Chemscore.DEClash.Weighted>
0.5142

> <Gold.Chemscore.DEInternal.Weighted>
1.9556

> <Gold.Chemscore.Rot.Weighted>
6.4079

> <Gold.Chemscore.Internal.Correction.Weighted>
   9.000000E+99

> <Gold.Protein.RotatedTorsions>
[ 6907 6896 6895 6894 ] final   25.44 input  -60.11 | X-H torsion
[ 7974 7965 7964 7962 ] final   71.09 input  175.53 | X-H torsion
[ 8008 7997 7996 7995 ] final  -11.68 input   59.86 | X-H torsion
[ 10167 10162 10161 10158 ] final   31.95 input  -65.29 | X-H torsion
[ 10718 10713 10712 10709 ] final -150.71 input   66.30 | X-H torsion
[ 10763 10752 10751 10750 ] final -141.34 input  -60.55 | X-H torsion
[ 11005 11000 10999 10996 ] final   82.07 input  -57.11 | X-H torsion

> <Gold.Protein.ActiveResidues>
 VAL166  LYS551  ARG553  GLY616  TRP617  ASP618  TYR619  PRO620  LYS621  CYS622 
 ASP623  PHE694  ASN695  SER759  ASP760  ASP761  ALA762  ILE779  LEU786  VAL792 
 PHE793  MET794  SER795  GLU796  ALA797  LYS798  CYS799  TRP800  GLU811  SER814 

> <Gold.Protein.RotatedAtoms>
  151.9725  135.0069  160.0553 H   0  0  0  0  0  0  0  0  0  0  0  0  # atno 6907 bound_to 6896
  152.1770  133.4677  159.4946 H   0  0  0  0  0  0  0  0  0  0  0  0  # atno 6908 bound_to 6896
  150.6911  134.1799  159.4287 H   0  0  0  0  0  0  0  0  0  0  0  0  # atno 6909 bound_to 6896
  145.7702  139.2839  143.1325 H   0  0  0  0  0  0  0  0  0  0  0  0  # atno 7974 bound_to 7965
  154.5443  140.2296  155.8589 H   0  0  0  0  0  0  0  0  0  0  0  0  # atno 8008 bound_to 7997
  156.1888  140.3082  155.9253 H   0  0  0  0  0  0  0  0  0  0  0  0  # atno 8009 bound_to 7997
  155.3195  140.0440  157.3029 H   0  0  0  0  0  0  0  0  0  0  0  0  # atno 8010 bound_to 7997
  140.4542  144.1003  150.6198 H   0  0  0  0  0  0  0  0  0  0  0  0  # atno 10167 bound_to 10162
  156.4497  130.8161  151.2392 H   0  0  0  0  0  0  0  0  0  0  0  0  # atno 10718 bound_to 10713
  154.8548  135.3527  154.5852 H   0  0  0  0  0  0  0  0  0  0  0  0  # atno 10763 bound_to 10752
  153.6462  135.6996  153.5229 H   0  0  0  0  0  0  0  0  0  0  0  0  # atno 10764 bound_to 10752
  153.2931  135.4229  155.1143 H   0  0  0  0  0  0  0  0  0  0  0  0  # atno 10765 bound_to 10752
  139.9076  134.8044  156.2126 H   0  0  0  0  0  0  0  0  0  0  0  0  # atno 11005 bound_to 11000
  146.0178  140.8376  142.9939 LP  0  0  0  0  0  0  0  0  0  0  0  0  # atno 17320 bound_to 7965
  144.6814  140.2584  143.7322 LP  0  0  0  0  0  0  0  0  0  0  0  0  # atno 17321 bound_to 7965
  140.4171  143.2629  151.9762 LP  0  0  0  0  0  0  0  0  0  0  0  0  # atno 17342 bound_to 10162
  139.4799  144.5864  151.7846 LP  0  0  0  0  0  0  0  0  0  0  0  0  # atno 17343 bound_to 10162
  157.7503  131.0142  150.3454 LP  0  0  0  0  0  0  0  0  0  0  0  0  # atno 17370 bound_to 10713
  156.3830  130.3884  149.7087 LP  0  0  0  0  0  0  0  0  0  0  0  0  # atno 17371 bound_to 10713
  141.0456  133.6915  156.1677 LP  0  0  0  0  0  0  0  0  0  0  0  0  # atno 17394 bound_to 11000
  140.6889  134.4687  157.5589 LP  0  0  0  0  0  0  0  0  0  0  0  0  # atno 17395 bound_to 11000

$$$$
