AV-unprocessed.smi:2240|AV-procd|sdf|9057|dock10
  -GOLD-   2272012263D 1   1.00000     0.00000
 Structure written by MMmdl.
 37 38  0  0  0  0  0  0  0  0  1 V2000
  143.2627  134.9662  153.3496 C   0  0  0  0  0  0  0  0  0  0  0  0
  143.9068  136.1285  152.8440 O   0  0  0  0  0  0  0  0  0  0  0  0
  144.8601  135.9137  151.8024 C   0  0  0  0  0  0  0  0  0  0  0  0
  145.4978  137.2303  151.3269 C   0  0  0  0  0  0  0  0  0  0  0  0
  146.7805  137.4733  151.9797 N   0  0  0  0  0  0  0  0  0  0  0  0
  147.0419  138.4615  152.8468 C   0  0  0  0  0  0  0  0  0  0  0  0
  146.2017  139.2811  153.2194 O   0  0  0  0  0  0  0  0  0  0  0  0
  148.3310  138.4415  153.2285 N   0  0  0  0  0  0  0  0  0  0  0  0
  149.0123  139.3465  154.0851 C   0  0  0  0  0  0  0  0  0  0  0  0
  150.3470  139.0925  154.4935 C   0  0  0  0  0  0  0  0  0  0  0  0
  151.0058  140.0228  155.3200 C   0  0  0  0  0  0  0  0  0  0  0  0
  150.3226  141.1897  155.7094 C   0  0  0  0  0  0  0  0  0  0  0  0
  150.9882  142.2185  156.5991 C   0  0  0  0  0  0  0  0  0  0  0  0
  149.0052  141.3706  155.2457 C   0  0  0  0  0  0  0  0  0  0  0  0
  148.3726  140.4810  154.4519 N   0  0  0  0  0  0  0  0  0  0  0  0
  145.7918  134.7656  152.2389 C   0  0  0  0  0  0  0  0  0  0  0  0
  145.6281  134.1558  150.8463 C   0  0  0  0  0  0  0  0  0  0  0  0
  144.3161  134.9339  150.7423 C   0  0  0  0  0  0  0  0  0  0  0  0
  142.6544  135.2413  154.2110 H   0  0  0  0  0  0  0  0  0  0  0  0
  143.9777  134.2115  153.6776 H   0  0  0  0  0  0  0  0  0  0  0  0
  142.5962  134.5209  152.6116 H   0  0  0  0  0  0  0  0  0  0  0  0
  145.6156  137.2287  150.2420 H   0  0  0  0  0  0  0  0  0  0  0  0
  144.8446  138.0765  151.5379 H   0  0  0  0  0  0  0  0  0  0  0  0
  147.5363  136.8532  151.7281 H   0  0  0  0  0  0  0  0  0  0  0  0
  148.9191  137.7673  152.7615 H   0  0  0  0  0  0  0  0  0  0  0  0
  150.8798  138.2086  154.1773 H   0  0  0  0  0  0  0  0  0  0  0  0
  152.0206  139.8434  155.6435 H   0  0  0  0  0  0  0  0  0  0  0  0
  150.4635  143.1734  156.5563 H   0  0  0  0  0  0  0  0  0  0  0  0
  152.0197  142.3839  156.2868 H   0  0  0  0  0  0  0  0  0  0  0  0
  150.9926  141.8753  157.6337 H   0  0  0  0  0  0  0  0  0  0  0  0
  148.4417  142.2521  155.5142 H   0  0  0  0  0  0  0  0  0  0  0  0
  146.8130  135.0572  152.4823 H   0  0  0  0  0  0  0  0  0  0  0  0
  145.3631  134.1373  153.0217 H   0  0  0  0  0  0  0  0  0  0  0  0
  146.3847  134.5007  150.1397 H   0  0  0  0  0  0  0  0  0  0  0  0
  145.5202  133.0710  150.8304 H   0  0  0  0  0  0  0  0  0  0  0  0
  143.4611  134.3507  151.0895 H   0  0  0  0  0  0  0  0  0  0  0  0
  144.1283  135.3754  149.7633 H   0  0  0  0  0  0  0  0  0  0  0  0
  1  2  1  0  0  0  0
  1 19  1  0  0  0  0
  1 20  1  0  0  0  0
  1 21  1  0  0  0  0
  2  3  1  0  0  0  0
  3 18  1  0  0  0  0
  3  4  1  0  0  0  0
  3 16  1  0  0  0  0
  4  5  1  0  0  0  0
  4 22  1  0  0  0  0
  4 23  1  0  0  0  0
  5  6  1  0  0  0  0
  5 24  1  0  0  0  0
  6  7  2  0  0  0  0
  6  8  1  0  0  0  0
  8  9  1  0  0  0  0
  8 25  1  0  0  0  0
  9 15  1  0  0  0  0
  9 10  2  0  0  0  0
 10 11  1  0  0  0  0
 10 26  1  0  0  0  0
 11 12  2  0  0  0  0
 11 27  1  0  0  0  0
 12 13  1  0  0  0  0
 12 14  1  0  0  0  0
 13 28  1  0  0  0  0
 13 29  1  0  0  0  0
 13 30  1  0  0  0  0
 14 15  2  0  0  0  0
 14 31  1  0  0  0  0
 16 17  1  0  0  0  0
 16 32  1  0  0  0  0
 16 33  1  0  0  0  0
 17 18  1  0  0  0  0
 17 34  1  0  0  0  0
 17 35  1  0  0  0  0
 18 36  1  0  0  0  0
 18 37  1  0  0  0  0
M  END
> <s_m_source_file>
AV-unprocessed.smi

> <i_m_source_file_index>
2240

> <i_lp_mmshare_version>
43012

> <i_f3d_flags>
0

> <s_epik_input>
W0NIMl0xW0NIMl1bQ0gyXUMxKE9bQ0gzXSlbQ0gyXVtOSF1DKD1PKVtOSF1jMltjSF1bY0hdYyhbQ0gzXSlbY0hdbjI=

> <s_epik_cmdline>
J2VwaWtfcHl0aG9uJywgJy1waCcsICc3LjAnLCAnLXRuJywgJzgnLCAnLW1hJywgJzIwMCcsICctbWV0YWxfYmluZGluZycsICctaW1hZScsICc8aW5maWxlLm1hZT4nLCAnLW9tYWUnLCAnPG91dGZpbGUubWFlPic=

> <r_lp_tautomer_probability>
1

> <r_epik_Ionization_Penalty>
5.83017e-05

> <r_epik_Ionization_Penalty_Charging>
0

> <r_epik_Ionization_Penalty_Neutral>
5.83017e-05

> <r_epik_State_Penalty>
-0

> <r_epik_Charging_Adjusted_Penalty>
0

> <i_epik_Tot_Q>
0

> <i_epik_Tot_abs_Q>
0

> <r_epik_Metal_State_Penalty>
-0

> <b_epik_Metal_Only>
0

> <s_lp_Force_Field>
OPLS_2005

> <r_lp_Energy>
21.5554

> <b_lp_Chiralities_Consistent>
1

> <s_lp_Variant>
AV-unprocessed.smi:2240-1

> <Gold.Version>
5.8.1

> <Gold.Id.Protein>
6NUR|6NUR_protein|mol2

> <Gold.PLP.Fitness>
36.8978

> <Gold.PLP.PLP>
-29.7381

> <Gold.PLP.part.hbond>
-2.8168

> <Gold.PLP.part.metal>
0.0000

> <Gold.PLP.part.buried>
2.0738

> <Gold.PLP.part.nonpolar>
-31.4021

> <Gold.PLP.part.repulsive>
2.2768

> <Gold.PLP.ligand.clash>
0.0000

> <Gold.PLP.ligand.torsion>
0.9079

> <Gold.PLP.Chemscore.Hbond>
1.9030

> <Gold.PLP.Chemscore.CHOScore>
1.0000

> <Gold.PLP.Chemscore.Metal>
0.0000

> <Gold.Chemscore.Hbonds>
donor molecule, donor type, donor heavy atom, donor atom, acceptor molecule, acceptor atom, score
      L1  H     5    24       P1  7948  0.99
      L1  H     8    25       P1  7948  0.93
      L1  C    14    31       P1  8028  1.00

> <Gold.PLP.Chemscore.Internal.Correction>
0.2664

> <Gold.Rescore>
     Score         DG    S(hbond)    S(metal)    S(lipo)     H(rot)  DE(clash)    DE(int)     intcor
     11.84     -15.49       1.93        0.00      62.25       1.45       1.55       2.10       ----

> <Gold.Chemscore.Fitness>
11.8430

> <Gold.Chemscore.DG>
-15.4924

> <Gold.Chemscore.ZeroCoef>
-5.4800

> <Gold.Chemscore.Hbond>
1.9301

> <Gold.Chemscore.Metal>
0.0000

> <Gold.Chemscore.Lipo>
62.2547

> <Gold.Chemscore.Internal_Hbond>
0.0000

> <Gold.Chemscore.DEClash>
1.5478

> <Gold.Chemscore.DEInternal>
2.1015

> <Gold.Chemscore.Rot>
1.4523

> <Gold.Chemscore.Internal.Correction>
   9.000000E+99

> <Gold.Chemscore.Hbonds>
donor molecule, donor type, donor heavy atom, donor atom, acceptor molecule, acceptor atom, score
      L1  H     5    24       P1  7948  0.91
      L1  H     8    25       P1  7948  0.91

> <Gold.Chemscore.Hbond.Weighted>
-6.4465

> <Gold.Chemscore.Metal.Weighted>
-0.0000

> <Gold.Chemscore.Lipo.Weighted>
-7.2838

> <Gold.Chemscore.Internal_Hbond.Weighted>
0.0000

> <Gold.Chemscore.DEClash.Weighted>
1.5478

> <Gold.Chemscore.DEInternal.Weighted>
2.1015

> <Gold.Chemscore.Rot.Weighted>
3.7179

> <Gold.Chemscore.Internal.Correction.Weighted>
   9.000000E+99

> <Gold.Protein.RotatedTorsions>
[ 6907 6896 6895 6894 ] final   59.92 input  -60.11 | X-H torsion
[ 7974 7965 7964 7962 ] final  -39.77 input  175.53 | X-H torsion
[ 8008 7997 7996 7995 ] final   97.30 input   59.86 | X-H torsion
[ 10167 10162 10161 10158 ] final -153.09 input  -65.29 | X-H torsion
[ 10718 10713 10712 10709 ] final -142.53 input   66.30 | X-H torsion
[ 10763 10752 10751 10750 ] final  104.04 input  -60.55 | X-H torsion
[ 11005 11000 10999 10996 ] final -139.99 input  -57.11 | X-H torsion

> <Gold.Protein.ActiveResidues>
 VAL166  LYS551  ARG553  GLY616  TRP617  ASP618  TYR619  PRO620  LYS621  CYS622 
 ASP623  PHE694  ASN695  SER759  ASP760  ASP761  ALA762  ILE779  LEU786  VAL792 
 PHE793  MET794  SER795  GLU796  ALA797  LYS798  CYS799  TRP800  GLU811  SER814 

> <Gold.Protein.RotatedAtoms>
  152.3958  134.6368  160.0089 H   0  0  0  0  0  0  0  0  0  0  0  0  # atno 6907 bound_to 6896
  151.6588  133.3312  159.3177 H   0  0  0  0  0  0  0  0  0  0  0  0  # atno 6908 bound_to 6896
  150.7866  134.6898  159.6535 H   0  0  0  0  0  0  0  0  0  0  0  0  # atno 6909 bound_to 6896
  146.0365  140.6664  142.9107 H   0  0  0  0  0  0  0  0  0  0  0  0  # atno 7974 bound_to 7965
  156.0886  140.3260  155.7787 H   0  0  0  0  0  0  0  0  0  0  0  0  # atno 8008 bound_to 7997
  155.5034  140.0571  157.2953 H   0  0  0  0  0  0  0  0  0  0  0  0  # atno 8009 bound_to 7997
  154.4624  140.1973  156.0224 H   0  0  0  0  0  0  0  0  0  0  0  0  # atno 8010 bound_to 7997
  139.7126  143.9084  152.2474 H   0  0  0  0  0  0  0  0  0  0  0  0  # atno 10167 bound_to 10162
  156.3470  130.7668  151.1814 H   0  0  0  0  0  0  0  0  0  0  0  0  # atno 10718 bound_to 10713
  153.3607  135.3956  155.1716 H   0  0  0  0  0  0  0  0  0  0  0  0  # atno 10763 bound_to 10752
  154.8678  135.3679  154.5103 H   0  0  0  0  0  0  0  0  0  0  0  0  # atno 10764 bound_to 10752
  153.5562  135.7082  153.5628 H   0  0  0  0  0  0  0  0  0  0  0  0  # atno 10765 bound_to 10752
  140.8466  134.2337  157.4782 H   0  0  0  0  0  0  0  0  0  0  0  0  # atno 11005 bound_to 11000
  144.7054  140.3831  143.7122 LP  0  0  0  0  0  0  0  0  0  0  0  0  # atno 17320 bound_to 7965
  145.6954  139.1649  143.2623 LP  0  0  0  0  0  0  0  0  0  0  0  0  # atno 17321 bound_to 7965
  139.8958  144.6940  150.8720 LP  0  0  0  0  0  0  0  0  0  0  0  0  # atno 17342 bound_to 10162
  140.7736  143.3551  151.1936 LP  0  0  0  0  0  0  0  0  0  0  0  0  # atno 17343 bound_to 10162
  157.7455  131.0438  150.4763 LP  0  0  0  0  0  0  0  0  0  0  0  0  # atno 17370 bound_to 10713
  156.4952  130.4104  149.6384 LP  0  0  0  0  0  0  0  0  0  0  0  0  # atno 17371 bound_to 10713
  139.8703  134.9662  156.4555 LP  0  0  0  0  0  0  0  0  0  0  0  0  # atno 17394 bound_to 11000
  140.8836  133.7899  155.9494 LP  0  0  0  0  0  0  0  0  0  0  0  0  # atno 17395 bound_to 11000

$$$$
