AV-unprocessed.smi:3115|AV-procd|sdf|11858|dock7
  -GOLD-   2272017243D 1   1.00000     0.00000
 Structure written by MMmdl.
 33 34  0  0  0  0  0  0  0  0  2 V2000
  151.8740  145.4294  159.5067 C   0  0  0  0  0  0  0  0  0  0  0  0
  152.3948  143.9921  159.4047 C   0  0  2  0  0  0  0  0  0  0  0  0
  151.7392  143.2178  158.2445 C   0  0  0  0  0  0  0  0  0  0  0  0
  152.1989  141.8343  158.2420 N   0  0  0  0  0  0  0  0  0  0  0  0
  151.7381  141.0925  157.1450 C   0  0  0  0  0  0  0  0  0  0  0  0
  150.5060  141.4415  156.5523 C   0  0  0  0  0  0  0  0  0  0  0  0
  150.0495  140.6957  155.4462 C   0  0  0  0  0  0  0  0  0  0  0  0
  148.7307  141.0286  154.7801 C   0  0  0  0  0  0  0  0  0  0  0  0
  148.0544  142.1280  155.4869 N   0  3  0  0  0  0  0  0  0  0  0  0
  150.8408  139.6276  154.9777 C   0  0  0  0  0  0  0  0  0  0  0  0
  152.0561  139.3556  155.6359 C   0  0  0  0  0  0  0  0  0  0  0  0
  152.4989  140.0659  156.6948 N   0  0  0  0  0  0  0  0  0  0  0  0
  151.9768  141.1736  159.5222 C   0  0  0  0  0  0  0  0  0  0  0  0
  152.6185  141.9926  160.6550 C   0  0  0  0  0  0  0  0  0  0  0  0
  152.1081  143.3229  160.6308 O   0  0  0  0  0  0  0  0  0  0  0  0
  152.0808  145.9875  158.5932 H   0  0  0  0  0  0  0  0  0  0  0  0
  152.3489  145.9580  160.3335 H   0  0  0  0  0  0  0  0  0  0  0  0
  150.7968  145.4480  159.6741 H   0  0  0  0  0  0  0  0  0  0  0  0
  153.4763  144.0241  159.2604 H   0  0  0  0  0  0  0  0  0  0  0  0
  150.6532  143.2449  158.3459 H   0  0  0  0  0  0  0  0  0  0  0  0
  151.9868  143.6874  157.2917 H   0  0  0  0  0  0  0  0  0  0  0  0
  149.9259  142.2670  156.9394 H   0  0  0  0  0  0  0  0  0  0  0  0
  148.8975  141.3145  153.7411 H   0  0  0  0  0  0  0  0  0  0  0  0
  148.0840  140.1504  154.7742 H   0  0  0  0  0  0  0  0  0  0  0  0
  148.5122  143.0020  155.2713 H   0  0  0  0  0  0  0  0  0  0  0  0
  148.0950  141.9613  156.4823 H   0  0  0  0  0  0  0  0  0  0  0  0
  150.5294  139.0291  154.1341 H   0  0  0  0  0  0  0  0  0  0  0  0
  152.6888  138.5460  155.3032 H   0  0  0  0  0  0  0  0  0  0  0  0
  150.9061  141.0687  159.7039 H   0  0  0  0  0  0  0  0  0  0  0  0
  152.4010  140.1691  159.4991 H   0  0  0  0  0  0  0  0  0  0  0  0
  152.3899  141.5417  161.6207 H   0  0  0  0  0  0  0  0  0  0  0  0
  153.7054  142.0068  160.5587 H   0  0  0  0  0  0  0  0  0  0  0  0
  147.0890  142.1706  155.1933 H   0  0  0  0  0  0  0  0  0  0  0  0
  1  2  1  0  0  0  0
  1 16  1  0  0  0  0
  1 17  1  0  0  0  0
  1 18  1  0  0  0  0
  2 15  1  0  0  0  0
  2  3  1  0  0  0  0
  2 19  1  0  0  0  0
  3  4  1  0  0  0  0
  3 20  1  0  0  0  0
  3 21  1  0  0  0  0
  4  5  1  0  0  0  0
  4 13  1  0  0  0  0
  5 12  1  0  0  0  0
  5  6  2  0  0  0  0
  6  7  1  0  0  0  0
  6 22  1  0  0  0  0
  7  8  1  0  0  0  0
  7 10  2  0  0  0  0
  8  9  1  0  0  0  0
  8 23  1  0  0  0  0
  8 24  1  0  0  0  0
  9 25  1  0  0  0  0
  9 26  1  0  0  0  0
  9 33  1  0  0  0  0
 10 11  1  0  0  0  0
 10 27  1  0  0  0  0
 11 12  2  0  0  0  0
 11 28  1  0  0  0  0
 13 14  1  0  0  0  0
 13 29  1  0  0  0  0
 13 30  1  0  0  0  0
 14 15  1  0  0  0  0
 14 31  1  0  0  0  0
 14 32  1  0  0  0  0
M  CHG  1   9   1
M  END
> <s_m_source_file>
AV-unprocessed.smi

> <i_m_source_file_index>
3115

> <i_lp_mmshare_version>
43012

> <i_f3d_flags>
0

> <s_epik_input>
W0NIM11bQ0BASF0xW0NIMl1OKFtDSDJdW0NIMl1PMSljMltjSF1jKFtDSDJdW05IMl0pW2NIXVtjSF1uMg==

> <s_epik_cmdline>
J2VwaWtfcHl0aG9uJywgJy1waCcsICc3LjAnLCAnLXRuJywgJzgnLCAnLW1hJywgJzIwMCcsICctbWV0YWxfYmluZGluZycsICctaW1hZScsICc8aW5maWxlLm1hZT4nLCAnLW9tYWUnLCAnPG91dGZpbGUubWFlPic=

> <r_lp_tautomer_probability>
1

> <r_epik_Ionization_Penalty>
0.0768907

> <r_epik_Ionization_Penalty_Charging>
0.0768864

> <r_epik_Ionization_Penalty_Neutral>
4.339e-06

> <r_epik_State_Penalty>
0.0093217

> <r_epik_Charging_Adjusted_Penalty>
0.0862081

> <i_epik_Tot_Q>
1

> <i_epik_Tot_abs_Q>
1

> <r_epik_Metal_State_Penalty>
0.0096683

> <b_epik_Metal_Only>
0

> <s_lp_Force_Field>
OPLS_2005

> <r_lp_Energy>
14.5686

> <b_lp_Chiralities_Consistent>
1

> <s_lp_Variant>
AV-unprocessed.smi:3115-1

> <Gold.Version>
5.8.1

> <Gold.Id.Protein>
6NUR|6NUR_protein|mol2

> <Gold.PLP.Fitness>
42.2210

> <Gold.PLP.PLP>
-34.5638

> <Gold.PLP.part.hbond>
-2.0000

> <Gold.PLP.part.metal>
0.0000

> <Gold.PLP.part.buried>
-2.6278

> <Gold.PLP.part.nonpolar>
-29.7318

> <Gold.PLP.part.repulsive>
0.1630

> <Gold.PLP.ligand.clash>
0.1522

> <Gold.PLP.ligand.torsion>
0.6446

> <Gold.PLP.Chemscore.Hbond>
3.0000

> <Gold.PLP.Chemscore.CHOScore>
0.0000

> <Gold.PLP.Chemscore.Metal>
0.0000

> <Gold.Chemscore.Hbonds>
donor molecule, donor type, donor heavy atom, donor atom, acceptor molecule, acceptor atom, score
      L1  H     9    25       P1  8028  2.00
      P1  H  7997  8009       L1    12  1.00

> <Gold.PLP.Chemscore.Internal.Correction>
0.0986

> <Gold.Rescore>
     Score         DG    S(hbond)    S(metal)    S(lipo)     H(rot)  DE(clash)    DE(int)     intcor
     17.89     -18.55       1.85        0.00      87.53       1.30       0.01       0.65       ----

> <Gold.Chemscore.Fitness>
17.8935

> <Gold.Chemscore.DG>
-18.5475

> <Gold.Chemscore.ZeroCoef>
-5.4800

> <Gold.Chemscore.Hbond>
1.8460

> <Gold.Chemscore.Metal>
0.0000

> <Gold.Chemscore.Lipo>
87.5330

> <Gold.Chemscore.Internal_Hbond>
0.0000

> <Gold.Chemscore.DEClash>
0.0060

> <Gold.Chemscore.DEInternal>
0.6480

> <Gold.Chemscore.Rot>
1.3045

> <Gold.Chemscore.Internal.Correction>
   9.000000E+99

> <Gold.Chemscore.Hbonds>
donor molecule, donor type, donor heavy atom, donor atom, acceptor molecule, acceptor atom, score
      L1  H     9    25       P1  8028  0.95
      P1  H  7997  8009       L1    12  0.49

> <Gold.Chemscore.Hbond.Weighted>
-6.1656

> <Gold.Chemscore.Metal.Weighted>
-0.0000

> <Gold.Chemscore.Lipo.Weighted>
-10.2414

> <Gold.Chemscore.Internal_Hbond.Weighted>
0.0000

> <Gold.Chemscore.DEClash.Weighted>
0.0060

> <Gold.Chemscore.DEInternal.Weighted>
0.6480

> <Gold.Chemscore.Rot.Weighted>
3.3395

> <Gold.Chemscore.Internal.Correction.Weighted>
   9.000000E+99

> <Gold.Protein.RotatedTorsions>
[ 6907 6896 6895 6894 ] final    4.71 input  -60.11 | X-H torsion
[ 7974 7965 7964 7962 ] final   67.76 input  175.53 | X-H torsion
[ 8008 7997 7996 7995 ] final -171.37 input   59.86 | X-H torsion
[ 10167 10162 10161 10158 ] final -161.21 input  -65.29 | X-H torsion
[ 10718 10713 10712 10709 ] final   48.69 input   66.30 | X-H torsion
[ 10763 10752 10751 10750 ] final  -34.45 input  -60.55 | X-H torsion
[ 11005 11000 10999 10996 ] final   24.74 input  -57.11 | X-H torsion

> <Gold.Protein.ActiveResidues>
 VAL166  LYS551  ARG553  GLY616  TRP617  ASP618  TYR619  PRO620  LYS621  CYS622 
 ASP623  PHE694  ASN695  SER759  ASP760  ASP761  ALA762  ILE779  LEU786  VAL792 
 PHE793  MET794  SER795  GLU796  ALA797  LYS798  CYS799  TRP800  GLU811  SER814 

> <Gold.Protein.RotatedAtoms>
  151.6456  135.1007  160.0150 H   0  0  0  0  0  0  0  0  0  0  0  0  # atno 6907 bound_to 6896
  152.4029  133.6841  159.6340 H   0  0  0  0  0  0  0  0  0  0  0  0  # atno 6908 bound_to 6896
  150.7927  133.8676  159.3290 H   0  0  0  0  0  0  0  0  0  0  0  0  # atno 6909 bound_to 6896
  145.8108  139.3031  143.1100 H   0  0  0  0  0  0  0  0  0  0  0  0  # atno 7974 bound_to 7965
  155.9307  140.1091  157.1134 H   0  0  0  0  0  0  0  0  0  0  0  0  # atno 8008 bound_to 7997
  154.4070  140.1238  156.4865 H   0  0  0  0  0  0  0  0  0  0  0  0  # atno 8009 bound_to 7997
  155.7083  140.3471  155.4965 H   0  0  0  0  0  0  0  0  0  0  0  0  # atno 8010 bound_to 7997
  139.6482  144.0133  152.2142 H   0  0  0  0  0  0  0  0  0  0  0  0  # atno 10167 bound_to 10162
  157.4712  130.8257  149.7990 H   0  0  0  0  0  0  0  0  0  0  0  0  # atno 10718 bound_to 10713
  153.8469  135.6852  153.4796 H   0  0  0  0  0  0  0  0  0  0  0  0  # atno 10763 bound_to 10752
  153.1420  135.4653  154.9508 H   0  0  0  0  0  0  0  0  0  0  0  0  # atno 10764 bound_to 10752
  154.7820  135.3272  154.7917 H   0  0  0  0  0  0  0  0  0  0  0  0  # atno 10765 bound_to 10752
  140.3554  134.2183  155.7676 H   0  0  0  0  0  0  0  0  0  0  0  0  # atno 11005 bound_to 11000
  145.9779  140.8706  143.0129 LP  0  0  0  0  0  0  0  0  0  0  0  0  # atno 17320 bound_to 7965
  144.6757  140.2039  143.7384 LP  0  0  0  0  0  0  0  0  0  0  0  0  # atno 17321 bound_to 7965
  139.9840  144.6408  150.7874 LP  0  0  0  0  0  0  0  0  0  0  0  0  # atno 17342 bound_to 10162
  140.7525  143.2991  151.3127 LP  0  0  0  0  0  0  0  0  0  0  0  0  # atno 17343 bound_to 10162
  156.0074  130.3849  150.2382 LP  0  0  0  0  0  0  0  0  0  0  0  0  # atno 17370 bound_to 10713
  157.0564  131.0077  151.3237 LP  0  0  0  0  0  0  0  0  0  0  0  0  # atno 17371 bound_to 10713
  141.2000  133.7998  157.0510 LP  0  0  0  0  0  0  0  0  0  0  0  0  # atno 17394 bound_to 11000
  140.0669  134.9724  157.1401 LP  0  0  0  0  0  0  0  0  0  0  0  0  # atno 17395 bound_to 11000

$$$$
