AV-unprocessed.smi:2277|AV-procd|sdf|9178|dock9
  -GOLD-   2272012393D 1   1.00000     0.00000
 Structure written by MMmdl.
 37 38  0  0  0  0  0  0  0  0  1 V2000
  152.1897  145.5364  159.3003 C   0  0  0  0  0  0  0  0  0  0  0  0
  152.0456  144.1227  158.7771 C   0  0  0  0  0  0  0  0  0  0  0  0
  152.4879  143.0169  159.5279 C   0  0  0  0  0  0  0  0  0  0  0  0
  152.3281  141.7248  158.9910 C   0  0  0  0  0  0  0  0  0  0  0  0
  151.7316  141.5683  157.7195 C   0  0  0  0  0  0  0  0  0  0  0  0
  151.6155  140.2257  157.2709 N   0  0  0  0  0  0  0  0  0  0  0  0
  151.0953  139.7784  156.1144 C   0  0  0  0  0  0  0  0  0  0  0  0
  150.6359  140.4860  155.2176 O   0  0  0  0  0  0  0  0  0  0  0  0
  151.1284  138.4384  156.0524 N   0  0  0  0  0  0  0  0  0  0  0  0
  150.6377  137.6320  154.9337 C   0  0  0  0  0  0  0  0  0  0  0  0
  150.5626  136.1201  155.2045 C   0  0  0  0  0  0  0  0  0  0  0  0
  151.0530  135.6744  156.2411 O   0  0  0  0  0  0  0  0  0  0  0  0
  149.9597  135.3383  154.2944 N   0  0  0  0  0  0  0  0  0  0  0  0
  149.8268  133.8935  154.3981 C   0  0  0  0  0  0  0  0  0  0  0  0
  148.4471  133.3798  154.0451 C   0  0  0  0  0  0  0  0  0  0  0  0
  148.2625  131.9791  153.5108 C   0  0  0  0  0  0  0  0  0  0  0  0
  148.0412  133.1679  152.6055 C   0  0  0  0  0  0  0  0  0  0  0  0
  151.3082  142.6402  157.0044 N   0  0  0  0  0  0  0  0  0  0  0  0
  151.4618  143.8782  157.5193 C   0  0  0  0  0  0  0  0  0  0  0  0
  152.6885  145.5521  160.2697 H   0  0  0  0  0  0  0  0  0  0  0  0
  151.2089  145.9989  159.4133 H   0  0  0  0  0  0  0  0  0  0  0  0
  152.7758  146.1386  158.6055 H   0  0  0  0  0  0  0  0  0  0  0  0
  152.9420  143.1514  160.4988 H   0  0  0  0  0  0  0  0  0  0  0  0
  152.6620  140.8651  159.5537 H   0  0  0  0  0  0  0  0  0  0  0  0
  151.9621  139.5243  157.9083 H   0  0  0  0  0  0  0  0  0  0  0  0
  151.5221  137.9351  156.8338 H   0  0  0  0  0  0  0  0  0  0  0  0
  149.6538  137.9862  154.6216 H   0  0  0  0  0  0  0  0  0  0  0  0
  151.3043  137.7931  154.0863 H   0  0  0  0  0  0  0  0  0  0  0  0
  149.5868  135.7751  153.4641 H   0  0  0  0  0  0  0  0  0  0  0  0
  150.5652  133.4147  153.7526 H   0  0  0  0  0  0  0  0  0  0  0  0
  150.0543  133.5895  155.4208 H   0  0  0  0  0  0  0  0  0  0  0  0
  147.6656  133.7305  154.7167 H   0  0  0  0  0  0  0  0  0  0  0  0
  149.1541  131.3785  153.3406 H   0  0  0  0  0  0  0  0  0  0  0  0
  147.3842  131.4273  153.8395 H   0  0  0  0  0  0  0  0  0  0  0  0
  147.0161  133.4101  152.3332 H   0  0  0  0  0  0  0  0  0  0  0  0
  148.7860  133.3587  151.8351 H   0  0  0  0  0  0  0  0  0  0  0  0
  151.1079  144.6960  156.9089 H   0  0  0  0  0  0  0  0  0  0  0  0
  1  2  1  0  0  0  0
  1 20  1  0  0  0  0
  1 21  1  0  0  0  0
  1 22  1  0  0  0  0
  2 19  1  0  0  0  0
  2  3  2  0  0  0  0
  3  4  1  0  0  0  0
  3 23  1  0  0  0  0
  4  5  2  0  0  0  0
  4 24  1  0  0  0  0
  5  6  1  0  0  0  0
  5 18  1  0  0  0  0
  6  7  1  0  0  0  0
  6 25  1  0  0  0  0
  7  8  2  0  0  0  0
  7  9  1  0  0  0  0
  9 10  1  0  0  0  0
  9 26  1  0  0  0  0
 10 11  1  0  0  0  0
 10 27  1  0  0  0  0
 10 28  1  0  0  0  0
 11 12  2  0  0  0  0
 11 13  1  0  0  0  0
 13 14  1  0  0  0  0
 13 29  1  0  0  0  0
 14 15  1  0  0  0  0
 14 30  1  0  0  0  0
 14 31  1  0  0  0  0
 15 17  1  0  0  0  0
 15 16  1  0  0  0  0
 15 32  1  0  0  0  0
 16 17  1  0  0  0  0
 16 33  1  0  0  0  0
 16 34  1  0  0  0  0
 17 35  1  0  0  0  0
 17 36  1  0  0  0  0
 18 19  2  0  0  0  0
 19 37  1  0  0  0  0
M  END
> <s_m_source_file>
AV-unprocessed.smi

> <i_m_source_file_index>
2277

> <i_lp_mmshare_version>
43012

> <i_f3d_flags>
0

> <s_epik_input>
W0NIM11jMVtjSF1bY0hdYyhuW2NIXTEpW05IXUMoPU8pW05IXVtDSDJdQyg9TylbTkhdW0NIMl1bQ0hdMltDSDJdW0NIMl0y

> <s_epik_cmdline>
J2VwaWtfcHl0aG9uJywgJy1waCcsICc3LjAnLCAnLXRuJywgJzgnLCAnLW1hJywgJzIwMCcsICctbWV0YWxfYmluZGluZycsICctaW1hZScsICc8aW5maWxlLm1hZT4nLCAnLW9tYWUnLCAnPG91dGZpbGUubWFlPic=

> <r_lp_tautomer_probability>
1

> <r_epik_Ionization_Penalty>
4.99402e-05

> <r_epik_Ionization_Penalty_Charging>
0

> <r_epik_Ionization_Penalty_Neutral>
4.99402e-05

> <r_epik_State_Penalty>
-0

> <r_epik_Charging_Adjusted_Penalty>
0

> <i_epik_Tot_Q>
0

> <i_epik_Tot_abs_Q>
0

> <r_epik_Metal_State_Penalty>
-0

> <b_epik_Metal_Only>
0

> <s_lp_Force_Field>
OPLS_2005

> <r_lp_Energy>
11.1939

> <b_lp_Chiralities_Consistent>
1

> <s_lp_Variant>
AV-unprocessed.smi:2277-1

> <Gold.Version>
5.8.1

> <Gold.Id.Protein>
6NUR|6NUR_protein|mol2

> <Gold.PLP.Fitness>
45.6733

> <Gold.PLP.PLP>
-37.4841

> <Gold.PLP.part.hbond>
-2.7370

> <Gold.PLP.part.metal>
0.0000

> <Gold.PLP.part.buried>
-2.2479

> <Gold.PLP.part.nonpolar>
-31.7207

> <Gold.PLP.part.repulsive>
0.3688

> <Gold.PLP.ligand.clash>
0.0000

> <Gold.PLP.ligand.torsion>
0.4851

> <Gold.PLP.Chemscore.Hbond>
1.9413

> <Gold.PLP.Chemscore.CHOScore>
0.9284

> <Gold.PLP.Chemscore.Metal>
0.0000

> <Gold.Chemscore.Hbonds>
donor molecule, donor type, donor heavy atom, donor atom, acceptor molecule, acceptor atom, score
      L1  H    13    29       P1  7948  0.90
      P1  H  7989  7998       L1     8  1.00
      L1  C    19    37       P1  8028  0.92

> <Gold.PLP.Chemscore.Internal.Correction>
0.5503

> <Gold.Rescore>
     Score         DG    S(hbond)    S(metal)    S(lipo)     H(rot)  DE(clash)    DE(int)     intcor
     12.64     -14.45       0.95        0.00      88.98       1.81       0.06       1.76       ----

> <Gold.Chemscore.Fitness>
12.6358

> <Gold.Chemscore.DG>
-14.4532

> <Gold.Chemscore.ZeroCoef>
-5.4800

> <Gold.Chemscore.Hbond>
0.9539

> <Gold.Chemscore.Metal>
0.0000

> <Gold.Chemscore.Lipo>
88.9755

> <Gold.Chemscore.Internal_Hbond>
0.0000

> <Gold.Chemscore.DEClash>
0.0568

> <Gold.Chemscore.DEInternal>
1.7607

> <Gold.Chemscore.Rot>
1.8058

> <Gold.Chemscore.Internal.Correction>
   9.000000E+99

> <Gold.Chemscore.Hbonds>
donor molecule, donor type, donor heavy atom, donor atom, acceptor molecule, acceptor atom, score
      L1  H    13    29       P1  7948  0.18
      P1  H  7989  7998       L1     8  0.89

> <Gold.Chemscore.Hbond.Weighted>
-3.1861

> <Gold.Chemscore.Metal.Weighted>
-0.0000

> <Gold.Chemscore.Lipo.Weighted>
-10.4101

> <Gold.Chemscore.Internal_Hbond.Weighted>
0.0000

> <Gold.Chemscore.DEClash.Weighted>
0.0568

> <Gold.Chemscore.DEInternal.Weighted>
1.7607

> <Gold.Chemscore.Rot.Weighted>
4.6230

> <Gold.Chemscore.Internal.Correction.Weighted>
   9.000000E+99

> <Gold.Protein.RotatedTorsions>
[ 6907 6896 6895 6894 ] final  -31.11 input  -60.11 | X-H torsion
[ 7974 7965 7964 7962 ] final   87.27 input  175.53 | X-H torsion
[ 8008 7997 7996 7995 ] final -118.96 input   59.86 | X-H torsion
[ 10167 10162 10161 10158 ] final -122.77 input  -65.29 | X-H torsion
[ 10718 10713 10712 10709 ] final   49.12 input   66.30 | X-H torsion
[ 10763 10752 10751 10750 ] final   56.99 input  -60.55 | X-H torsion
[ 11005 11000 10999 10996 ] final  -68.88 input  -57.11 | X-H torsion

> <Gold.Protein.ActiveResidues>
 VAL166  LYS551  ARG553  GLY616  TRP617  ASP618  TYR619  PRO620  LYS621  CYS622 
 ASP623  PHE694  ASN695  SER759  ASP760  ASP761  ALA762  ILE779  LEU786  VAL792 
 PHE793  MET794  SER795  GLU796  ALA797  LYS798  CYS799  TRP800  GLU811  SER814 

> <Gold.Protein.RotatedAtoms>
  151.0964  134.9947  159.8427 H   0  0  0  0  0  0  0  0  0  0  0  0  # atno 6907 bound_to 6896
  152.5433  134.2003  159.8719 H   0  0  0  0  0  0  0  0  0  0  0  0  # atno 6908 bound_to 6896
  151.2042  133.4549  159.2630 H   0  0  0  0  0  0  0  0  0  0  0  0  # atno 6909 bound_to 6896
  145.5612  139.2304  143.2458 H   0  0  0  0  0  0  0  0  0  0  0  0  # atno 7974 bound_to 7965
  155.1080  140.0397  157.2716 H   0  0  0  0  0  0  0  0  0  0  0  0  # atno 8008 bound_to 7997
  154.6707  140.2611  155.6985 H   0  0  0  0  0  0  0  0  0  0  0  0  # atno 8009 bound_to 7997
  156.2657  140.2798  156.1215 H   0  0  0  0  0  0  0  0  0  0  0  0  # atno 8010 bound_to 7997
  140.0107  143.5445  152.2264 H   0  0  0  0  0  0  0  0  0  0  0  0  # atno 10167 bound_to 10162
  157.4755  130.8282  149.8035 H   0  0  0  0  0  0  0  0  0  0  0  0  # atno 10718 bound_to 10713
  152.9841  135.5657  154.5318 H   0  0  0  0  0  0  0  0  0  0  0  0  # atno 10763 bound_to 10752
  154.4788  135.2788  155.1588 H   0  0  0  0  0  0  0  0  0  0  0  0  # atno 10764 bound_to 10752
  154.3105  135.6289  153.5517 H   0  0  0  0  0  0  0  0  0  0  0  0  # atno 10765 bound_to 10752
  141.1542  133.6751  156.6514 H   0  0  0  0  0  0  0  0  0  0  0  0  # atno 11005 bound_to 11000
  146.1850  140.6436  142.9172 LP  0  0  0  0  0  0  0  0  0  0  0  0  # atno 17320 bound_to 7965
  144.7482  140.5123  143.6820 LP  0  0  0  0  0  0  0  0  0  0  0  0  # atno 17321 bound_to 7965
  139.6207  144.7628  151.2746 LP  0  0  0  0  0  0  0  0  0  0  0  0  # atno 17342 bound_to 10162
  140.7382  143.6653  150.8128 LP  0  0  0  0  0  0  0  0  0  0  0  0  # atno 17343 bound_to 10162
  156.0095  130.3840  150.2314 LP  0  0  0  0  0  0  0  0  0  0  0  0  # atno 17370 bound_to 10713
  157.0499  131.0059  151.3257 LP  0  0  0  0  0  0  0  0  0  0  0  0  # atno 17371 bound_to 10713
  140.3317  134.7923  157.4331 LP  0  0  0  0  0  0  0  0  0  0  0  0  # atno 17394 bound_to 11000
  140.1011  134.5471  155.8352 LP  0  0  0  0  0  0  0  0  0  0  0  0  # atno 17395 bound_to 11000

$$$$
