#       Name:                AV-unprocessed.smi:2775
#       Creating user name   scv26
#       Creation time:       Fri Mar 27 15:13:45 2020


#       File generated by GOLD software.
#

@<TRIPOS>MOLECULE
AV-unprocessed.smi:2775
    47    50     1
SMALL
NO_CHARGES


@<TRIPOS>ATOM
      1 ****        -5.3557   1.9023   0.3417 C.3            1 S1                 0.0000
      2 ****        -4.6209   0.6181   0.0087 C.ar           1 S1                 0.0000
      3 ****        -5.3517  -0.4246  -0.4434 N.pl3          1 S1                 1.0000
      4 ****        -4.8102  -1.6178  -0.7644 C.ar           1 S1                 0.0000
      5 ****        -3.4213  -1.8151  -0.6409 C.ar           1 S1                 0.0000
      6 ****        -2.6035  -0.7491  -0.1872 C.ar           1 S1                 0.0000
      7 ****        -1.1952  -0.8630  -0.0213 N.am           1 S1                 0.0000
      8 ****        -0.3343  -1.6912  -0.6443 C.2            1 S1                 0.0000
      9 ****        -0.6559  -2.5673  -1.4436 O.2            1 S1                 0.0000
     10 ****         0.9537  -1.4749  -0.3279 N.am           1 S1                 0.0000
     11 ****         2.1292  -2.1995  -0.8300 C.3            1 S1                 0.0000
     12 ****         2.3926  -3.5356  -0.1205 C.3            1 S1                 0.0000
     13 ****         1.5688  -4.5170   0.6322 C.3            1 S1                 0.0000
     14 ****         2.6123  -4.8398   1.7318 C.3            1 S1                 0.0000
     15 ****         3.6869  -3.8833   1.5501 O.3            1 S1                 0.0000
     16 ****         3.0579  -2.7435   0.9933 C.3            1 S1                 0.0000
     17 ****         3.4696  -1.7840  -0.1358 C.3            1 S1                 0.0000
     18 ****         4.8244  -1.9193  -0.8501 C.3            1 S1                 0.0000
     19 ****         4.8337  -0.3957  -1.0093 C.3            1 S1                 0.0000
     20 ****         3.8199  -0.3146   0.1365 C.3            1 S1                 0.0000
     21 ****        -3.2206   0.4795   0.1565 C.ar           1 S1                 0.0000
     22 ****        -2.2747   1.8046   0.7472 Cl             1 S1                 0.0000
     23 ****        -4.9525   2.7325  -0.2390 H              1 S1                 0.0000
     24 ****        -5.2477   2.1376   1.4008 H              1 S1                 0.0000
     25 ****        -6.4204   1.8212   0.1190 H              1 S1                 0.0000
     26 ****        -5.5007  -2.3764  -1.1034 H              1 S1                 0.0000
     27 ****        -3.0138  -2.7841  -0.8851 H              1 S1                 0.0000
     28 ****        -0.7723  -0.1558   0.5625 H              1 S1                 0.0000
     29 ****         1.1412  -0.7383   0.3373 H              1 S1                 0.0000
     30 ****         2.2022  -2.2464  -1.9177 H              1 S1                 0.0000
     31 ****         3.1271  -4.0834  -0.7224 H              1 S1                 0.0000
     32 ****         0.6646  -4.0696   1.0466 H              1 S1                 0.0000
     33 ****         1.3005  -5.3914   0.0394 H              1 S1                 0.0000
     34 ****         2.1737  -4.7345   2.7249 H              1 S1                 0.0000
     35 ****         3.0035  -5.8534   1.6393 H              1 S1                 0.0000
     36 ****         2.3574  -2.2886   1.7000 H              1 S1                 0.0000
     37 ****         5.6143  -2.2796  -0.1891 H              1 S1                 0.0000
     38 ****         4.7985  -2.4737  -1.7887 H              1 S1                 0.0000
     39 ****         5.7935   0.0790  -0.8041 H              1 S1                 0.0000
     40 ****         4.4162  -0.0699  -1.9632 H              1 S1                 0.0000
     41 ****         3.0099   0.3966  -0.0261 H              1 S1                 0.0000
     42 ****         4.2945  -0.1695   1.1082 H              1 S1                 0.0000
     43 ****        -6.3604  -0.3059  -0.5411 H              1 S1                 0.0000
     44 ****        -1.6194  -2.7053  -1.6734 LP             1 S1                 0.0000
     45 ****         0.0457  -3.1424  -1.8643 LP             1 S1                 0.0000
     46 ****         4.3797  -4.2447   0.9261 LP             1 S1                 0.0000
     47 ****         4.1123  -3.6591   2.4269 LP             1 S1                 0.0000
@<TRIPOS>BOND
    1    1    2 1     
    2    1   23 1     
    3    1   24 1     
    4    1   25 1     
    5    2   21 ar    
    6    2    3 ar    
    7    3    4 ar    
    8    3   43 1     
    9    4    5 ar    
   10    4   26 1     
   11    5    6 ar    
   12    5   27 1     
   13    6    7 1     
   14    6   21 ar    
   15    7    8 am    
   16    7   28 1     
   17    8    9 2     
   18    8   10 am    
   19   10   11 1     
   20   10   29 1     
   21   11   17 1     
   22   11   12 1     
   23   11   30 1     
   24   12   16 1     
   25   12   13 1     
   26   12   31 1     
   27   13   14 1     
   28   13   32 1     
   29   13   33 1     
   30   14   15 1     
   31   14   34 1     
   32   14   35 1     
   33   15   16 1     
   34   16   17 1     
   35   16   36 1     
   36   17   20 1     
   37   17   18 1     
   38   18   19 1     
   39   18   37 1     
   40   18   38 1     
   41   19   20 1     
   42   19   39 1     
   43   19   40 1     
   44   20   41 1     
   45   20   42 1     
   46   21   22 1     
   47    9   44 1     
   48    9   45 1     
   49   15   46 1     
   50   15   47 1     
@<TRIPOS>SUBSTRUCTURE
      1 S1             1
@<TRIPOS>SET
LONE_PAIRS      STATIC     ATOMS    <user>   **** ""
4 44 45 46 47
DONOR_HYDROGENS      STATIC     ATOMS    <user>   **** ""
3 43 28 29
ATOM$BLUE        STATIC     ATOMS    COLORGROUP SYSTEM
4 44 45 46 47
ATOM$RED        STATIC     ATOMS    COLORGROUP SYSTEM
3 43 28 29
