AV-unprocessed.smi:1236|AV-procd|sdf|5182|dock6
  -GOLD-   22720 4263D 1   1.00000     0.00000
 Structure written by MMmdl.
 40 41  0  0  0  0  0  0  0  0  2 V2000
  147.0380  141.4816  153.6856 C   0  0  0  0  0  0  0  0  0  0  0  0
  147.9158  140.7189  154.6871 C   0  0  1  0  0  0  0  0  0  0  0  0
  148.7650  139.6381  153.9777 C   0  0  0  0  0  0  0  0  0  0  0  0
  147.9800  138.4364  153.5970 N   0  3  0  0  0  0  0  0  0  0  0  0
  147.3510  137.7493  154.7507 C   0  0  0  0  0  0  0  0  0  0  0  0
  146.6394  136.4707  154.2792 C   0  0  0  0  0  0  0  0  0  0  0  0
  145.6700  136.8051  153.2931 O   0  0  0  0  0  0  0  0  0  0  0  0
  146.2608  137.4015  152.1446 C   0  0  0  0  0  0  0  0  0  0  0  0
  146.9738  138.7053  152.5437 C   0  0  0  0  0  0  0  0  0  0  0  0
  148.7577  141.6765  155.4064 N   0  0  0  0  0  0  0  0  0  0  0  0
  149.6786  141.3741  156.3345 C   0  0  0  0  0  0  0  0  0  0  0  0
  149.9416  140.2208  156.6759 O   0  0  0  0  0  0  0  0  0  0  0  0
  150.2683  142.4817  156.8172 N   0  0  0  0  0  0  0  0  0  0  0  0
  151.3242  142.5697  157.7634 C   0  0  0  0  0  0  0  0  0  0  0  0
  151.8156  143.8745  157.9939 C   0  0  0  0  0  0  0  0  0  0  0  0
  152.8653  144.0672  158.9131 C   0  0  0  0  0  0  0  0  0  0  0  0
  153.3980  142.9484  159.5780 C   0  0  0  0  0  0  0  0  0  0  0  0
  152.8525  141.6838  159.2897 C   0  0  0  0  0  0  0  0  0  0  0  0
  151.8472  141.4968  158.4084 N   0  0  0  0  0  0  0  0  0  0  0  0
  146.3675  140.8039  153.1562 H   0  0  0  0  0  0  0  0  0  0  0  0
  147.6416  142.0003  152.9399 H   0  0  0  0  0  0  0  0  0  0  0  0
  146.4203  142.2253  154.1903 H   0  0  0  0  0  0  0  0  0  0  0  0
  147.2390  140.2376  155.3944 H   0  0  0  0  0  0  0  0  0  0  0  0
  149.2539  140.0490  153.0930 H   0  0  0  0  0  0  0  0  0  0  0  0
  149.5673  139.3408  154.6548 H   0  0  0  0  0  0  0  0  0  0  0  0
  148.1020  137.4915  155.4968 H   0  0  0  0  0  0  0  0  0  0  0  0
  146.6370  138.4180  155.2340 H   0  0  0  0  0  0  0  0  0  0  0  0
  147.3554  135.7517  153.8773 H   0  0  0  0  0  0  0  0  0  0  0  0
  146.1388  135.9871  155.1182 H   0  0  0  0  0  0  0  0  0  0  0  0
  146.9579  136.7043  151.6767 H   0  0  0  0  0  0  0  0  0  0  0  0
  145.4791  137.6095  151.4137 H   0  0  0  0  0  0  0  0  0  0  0  0
  146.2493  139.4361  152.9061 H   0  0  0  0  0  0  0  0  0  0  0  0
  147.4588  139.1380  151.6676 H   0  0  0  0  0  0  0  0  0  0  0  0
  148.6108  142.6520  155.1913 H   0  0  0  0  0  0  0  0  0  0  0  0
  149.9345  143.3638  156.4576 H   0  0  0  0  0  0  0  0  0  0  0  0
  151.3952  144.7237  157.4749 H   0  0  0  0  0  0  0  0  0  0  0  0
  153.2538  145.0567  159.1040 H   0  0  0  0  0  0  0  0  0  0  0  0
  154.2032  143.0564  160.2897 H   0  0  0  0  0  0  0  0  0  0  0  0
  153.2332  140.7987  159.7777 H   0  0  0  0  0  0  0  0  0  0  0  0
  148.6394  137.7844  153.1957 H   0  0  0  0  0  0  0  0  0  0  0  0
  1  2  1  0  0  0  0
  1 20  1  0  0  0  0
  1 21  1  0  0  0  0
  1 22  1  0  0  0  0
  2  3  1  0  0  0  0
  2 10  1  0  0  0  0
  2 23  1  0  0  0  0
  3  4  1  0  0  0  0
  3 24  1  0  0  0  0
  3 25  1  0  0  0  0
  4  9  1  0  0  0  0
  4  5  1  0  0  0  0
  4 40  1  0  0  0  0
  5  6  1  0  0  0  0
  5 26  1  0  0  0  0
  5 27  1  0  0  0  0
  6  7  1  0  0  0  0
  6 28  1  0  0  0  0
  6 29  1  0  0  0  0
  7  8  1  0  0  0  0
  8  9  1  0  0  0  0
  8 30  1  0  0  0  0
  8 31  1  0  0  0  0
  9 32  1  0  0  0  0
  9 33  1  0  0  0  0
 10 11  1  0  0  0  0
 10 34  1  0  0  0  0
 11 12  2  0  0  0  0
 11 13  1  0  0  0  0
 13 14  1  0  0  0  0
 13 35  1  0  0  0  0
 14 19  1  0  0  0  0
 14 15  2  0  0  0  0
 15 16  1  0  0  0  0
 15 36  1  0  0  0  0
 16 17  2  0  0  0  0
 16 37  1  0  0  0  0
 17 18  1  0  0  0  0
 17 38  1  0  0  0  0
 18 19  2  0  0  0  0
 18 39  1  0  0  0  0
M  CHG  1   4   1
M  END
> <s_m_source_file>
AV-unprocessed.smi

> <i_m_source_file_index>
1236

> <i_lp_mmshare_version>
43012

> <i_f3d_flags>
0

> <s_epik_input>
W0NIMl0xW0NIMl1PW0NIMl1bQ0gyXU4xW0NIMl1bQ0BASF0oW0NIM10pW05IXUMoPU8pW05IXWMyW2NIXVtjSF1bY0hdW2NIXW4y

> <s_epik_cmdline>
J2VwaWtfcHl0aG9uJywgJy1waCcsICc3LjAnLCAnLXRuJywgJzgnLCAnLW1hJywgJzIwMCcsICctbWV0YWxfYmluZGluZycsICctaW1hZScsICc8aW5maWxlLm1hZT4nLCAnLW9tYWUnLCAnPG91dGZpbGUubWFlPic=

> <r_epik_Ionization_Penalty>
0.602564

> <r_epik_Ionization_Penalty_Charging>
0.602531

> <r_epik_Ionization_Penalty_Neutral>
3.36306e-05

> <r_epik_State_Penalty>
0.617039

> <r_epik_Charging_Adjusted_Penalty>
1.21957

> <i_epik_Tot_Q>
1

> <i_epik_Tot_abs_Q>
1

> <r_epik_Metal_State_Penalty>
0.617041

> <b_epik_Metal_Only>
0

> <s_lp_Force_Field>
OPLS_2005

> <r_lp_Energy>
24.274

> <b_lp_Chiralities_Consistent>
1

> <s_lp_Variant>
AV-unprocessed.smi:1236-4

> <Gold.Version>
5.8.1

> <Gold.Id.Protein>
6NUR|6NUR_protein|mol2

> <Gold.PLP.Fitness>
45.0074

> <Gold.PLP.PLP>
-33.5902

> <Gold.PLP.part.hbond>
-4.0000

> <Gold.PLP.part.metal>
0.0000

> <Gold.PLP.part.buried>
1.7280

> <Gold.PLP.part.nonpolar>
-32.2862

> <Gold.PLP.part.repulsive>
0.4412

> <Gold.PLP.ligand.clash>
0.0000

> <Gold.PLP.ligand.torsion>
0.1697

> <Gold.PLP.Chemscore.Hbond>
3.9095

> <Gold.PLP.Chemscore.CHOScore>
0.0000

> <Gold.PLP.Chemscore.Metal>
0.0000

> <Gold.Chemscore.Hbonds>
donor molecule, donor type, donor heavy atom, donor atom, acceptor molecule, acceptor atom, score
      L1  H     4    40       P1  7948  1.81
      L1  H    10    34       P1  8028  0.76
      L1  H    13    35       P1  8028  1.00

> <Gold.PLP.Chemscore.Internal.Correction>
0.0281

> <Gold.Rescore>
     Score         DG    S(hbond)    S(metal)    S(lipo)     H(rot)  DE(clash)    DE(int)     intcor
     16.65     -20.98       2.70        0.00      89.52       1.56       1.60       2.73       ----

> <Gold.Chemscore.Fitness>
16.6452

> <Gold.Chemscore.DG>
-20.9761

> <Gold.Chemscore.ZeroCoef>
-5.4800

> <Gold.Chemscore.Hbond>
2.6980

> <Gold.Chemscore.Metal>
0.0000

> <Gold.Chemscore.Lipo>
89.5243

> <Gold.Chemscore.Internal_Hbond>
0.0000

> <Gold.Chemscore.DEClash>
1.5992

> <Gold.Chemscore.DEInternal>
2.7316

> <Gold.Chemscore.Rot>
1.5584

> <Gold.Chemscore.Internal.Correction>
   9.000000E+99

> <Gold.Chemscore.Hbonds>
donor molecule, donor type, donor heavy atom, donor atom, acceptor molecule, acceptor atom, score
      L1  H     4    40       P1  7948  0.83
      L1  H    10    34       P1  8028  0.73
      L1  H    13    35       P1  8028  1.00

> <Gold.Chemscore.Hbond.Weighted>
-9.0113

> <Gold.Chemscore.Metal.Weighted>
-0.0000

> <Gold.Chemscore.Lipo.Weighted>
-10.4743

> <Gold.Chemscore.Internal_Hbond.Weighted>
0.0000

> <Gold.Chemscore.DEClash.Weighted>
1.5992

> <Gold.Chemscore.DEInternal.Weighted>
2.7316

> <Gold.Chemscore.Rot.Weighted>
3.9896

> <Gold.Chemscore.Internal.Correction.Weighted>
   9.000000E+99

> <Gold.Protein.RotatedTorsions>
[ 6907 6896 6895 6894 ] final   13.66 input  -60.11 | X-H torsion
[ 7974 7965 7964 7962 ] final   48.25 input  175.53 | X-H torsion
[ 8008 7997 7996 7995 ] final   22.31 input   59.86 | X-H torsion
[ 10167 10162 10161 10158 ] final  160.06 input  -65.29 | X-H torsion
[ 10718 10713 10712 10709 ] final  -52.53 input   66.30 | X-H torsion
[ 10763 10752 10751 10750 ] final -104.22 input  -60.55 | X-H torsion
[ 11005 11000 10999 10996 ] final  -79.87 input  -57.11 | X-H torsion

> <Gold.Protein.ActiveResidues>
 VAL166  LYS551  ARG553  GLY616  TRP617  ASP618  TYR619  PRO620  LYS621  CYS622 
 ASP623  PHE694  ASN695  SER759  ASP760  ASP761  ALA762  ILE779  LEU786  VAL792 
 PHE793  MET794  SER795  GLU796  ALA797  LYS798  CYS799  TRP800  GLU811  SER814 

> <Gold.Protein.RotatedAtoms>
  151.7898  135.0739  160.0385 H   0  0  0  0  0  0  0  0  0  0  0  0  # atno 6907 bound_to 6896
  152.3164  133.5802  159.5723 H   0  0  0  0  0  0  0  0  0  0  0  0  # atno 6908 bound_to 6896
  150.7346  133.9992  159.3674 H   0  0  0  0  0  0  0  0  0  0  0  0  # atno 6909 bound_to 6896
  146.0222  139.4664  142.9890 H   0  0  0  0  0  0  0  0  0  0  0  0  # atno 7974 bound_to 7965
  154.9638  140.3081  155.5019 H   0  0  0  0  0  0  0  0  0  0  0  0  # atno 8008 bound_to 7997
  156.2974  140.2296  156.4664 H   0  0  0  0  0  0  0  0  0  0  0  0  # atno 8009 bound_to 7997
  154.7940  140.0438  157.1211 H   0  0  0  0  0  0  0  0  0  0  0  0  # atno 8010 bound_to 7997
  139.4837  144.4670  151.8628 H   0  0  0  0  0  0  0  0  0  0  0  0  # atno 10167 bound_to 10162
  156.1613  130.4149  149.9788 H   0  0  0  0  0  0  0  0  0  0  0  0  # atno 10718 bound_to 10713
  154.7863  135.4794  153.9953 H   0  0  0  0  0  0  0  0  0  0  0  0  # atno 10763 bound_to 10752
  153.1565  135.6801  153.8812 H   0  0  0  0  0  0  0  0  0  0  0  0  # atno 10764 bound_to 10752
  153.8440  135.3176  155.3406 H   0  0  0  0  0  0  0  0  0  0  0  0  # atno 10765 bound_to 10752
  141.1668  133.7125  156.8188 H   0  0  0  0  0  0  0  0  0  0  0  0  # atno 11005 bound_to 11000
  145.7175  141.0086  143.1420 LP  0  0  0  0  0  0  0  0  0  0  0  0  # atno 17320 bound_to 7965
  144.6994  139.8831  143.7448 LP  0  0  0  0  0  0  0  0  0  0  0  0  # atno 17321 bound_to 7965
  140.4136  144.2336  150.5888 LP  0  0  0  0  0  0  0  0  0  0  0  0  # atno 17342 bound_to 10162
  140.4942  143.2338  151.8774 LP  0  0  0  0  0  0  0  0  0  0  0  0  # atno 17343 bound_to 10162
  156.7617  130.9153  151.3641 LP  0  0  0  0  0  0  0  0  0  0  0  0  # atno 17370 bound_to 10713
  157.6735  130.9072  150.0094 LP  0  0  0  0  0  0  0  0  0  0  0  0  # atno 17371 bound_to 10713
  140.2134  134.8810  157.3300 LP  0  0  0  0  0  0  0  0  0  0  0  0  # atno 17394 bound_to 11000
  140.2062  134.4194  155.7636 LP  0  0  0  0  0  0  0  0  0  0  0  0  # atno 17395 bound_to 11000

$$$$
