AV-unprocessed.smi:3056|AV-procd|sdf|11650|dock5
  -GOLD-   2272017 43D 1   1.00000     0.00000
 Structure written by MMmdl.
 48 49  0  0  0  0  0  0  0  0  2 V2000
  140.9541  136.9713  154.4767 C   0  0  0  0  0  0  0  0  0  0  0  0
  142.2983  136.4623  154.0425 C   0  0  0  0  0  0  0  0  0  0  0  0
  142.9349  135.2446  154.4143 C   0  0  0  0  0  0  0  0  0  0  0  0
  144.1284  135.0995  153.8623 N   0  0  0  0  0  0  0  0  0  0  0  0
  144.2921  136.2071  153.1061 N   0  0  0  0  0  0  0  0  0  0  0  0
  145.5369  136.3991  152.3712 C   0  0  1  0  0  0  0  0  0  0  0  0
  145.3542  135.9437  150.9104 C   0  0  0  0  0  0  0  0  0  0  0  0
  146.0536  137.8585  152.5054 C   0  0  2  0  0  0  0  0  0  0  0  0
  146.3019  138.5212  151.1394 C   0  0  0  0  0  0  0  0  0  0  0  0
  147.3196  137.9031  153.2793 N   0  3  0  0  0  0  0  0  0  0  0  0
  147.7886  139.2493  153.6853 C   0  0  0  0  0  0  0  0  0  0  0  0
  149.2819  139.2982  154.0504 C   0  0  0  0  0  0  0  0  0  0  0  0
  149.9956  138.3337  153.7698 O   0  0  0  0  0  0  0  0  0  0  0  0
  149.7657  140.3963  154.6784 N   0  0  0  0  0  0  0  0  0  0  0  0
  148.9836  141.5577  155.1131 C   0  0  0  0  0  0  0  0  0  0  0  0
  148.9998  141.5957  156.6512 C   0  0  0  0  0  0  0  0  0  0  0  0
  150.3471  141.6529  157.1153 O   0  0  0  0  0  0  0  0  0  0  0  0
  151.1474  140.5540  156.6802 C   0  0  2  0  0  0  0  0  0  0  0  0
  152.5550  140.7246  157.2616 C   0  0  0  0  0  0  0  0  0  0  0  0
  151.1521  140.5130  155.1384 C   0  0  0  0  0  0  0  0  0  0  0  0
  143.2037  137.0516  153.2065 C   0  0  0  0  0  0  0  0  0  0  0  0
  140.3690  136.1980  154.9749 H   0  0  0  0  0  0  0  0  0  0  0  0
  140.3642  137.3238  153.6304 H   0  0  0  0  0  0  0  0  0  0  0  0
  141.0461  137.8037  155.1745 H   0  0  0  0  0  0  0  0  0  0  0  0
  142.5695  134.4690  155.0714 H   0  0  0  0  0  0  0  0  0  0  0  0
  146.2816  135.7357  152.8155 H   0  0  0  0  0  0  0  0  0  0  0  0
  146.3068  135.8845  150.3848 H   0  0  0  0  0  0  0  0  0  0  0  0
  144.7085  136.6237  150.3542 H   0  0  0  0  0  0  0  0  0  0  0  0
  144.9080  134.9494  150.8645 H   0  0  0  0  0  0  0  0  0  0  0  0
  145.2991  138.4553  153.0210 H   0  0  0  0  0  0  0  0  0  0  0  0
  145.3792  138.6348  150.5708 H   0  0  0  0  0  0  0  0  0  0  0  0
  147.0002  137.9404  150.5357 H   0  0  0  0  0  0  0  0  0  0  0  0
  146.7208  139.5207  151.2598 H   0  0  0  0  0  0  0  0  0  0  0  0
  147.1899  137.3435  154.1103 H   0  0  0  0  0  0  0  0  0  0  0  0
  147.5693  139.9753  152.9037 H   0  0  0  0  0  0  0  0  0  0  0  0
  147.2139  139.5378  154.5658 H   0  0  0  0  0  0  0  0  0  0  0  0
  149.4364  142.4661  154.7127 H   0  0  0  0  0  0  0  0  0  0  0  0
  147.9547  141.5592  154.7575 H   0  0  0  0  0  0  0  0  0  0  0  0
  148.4642  142.4732  157.0135 H   0  0  0  0  0  0  0  0  0  0  0  0
  148.4987  140.7200  157.0668 H   0  0  0  0  0  0  0  0  0  0  0  0
  150.7199  139.6284  157.0698 H   0  0  0  0  0  0  0  0  0  0  0  0
  153.2059  139.9033  156.9609 H   0  0  0  0  0  0  0  0  0  0  0  0
  152.5265  140.7436  158.3513 H   0  0  0  0  0  0  0  0  0  0  0  0
  153.0116  141.6554  156.9238 H   0  0  0  0  0  0  0  0  0  0  0  0
  151.7837  139.6948  154.7898 H   0  0  0  0  0  0  0  0  0  0  0  0
  151.5923  141.4261  154.7343 H   0  0  0  0  0  0  0  0  0  0  0  0
  143.1638  137.9965  152.6846 H   0  0  0  0  0  0  0  0  0  0  0  0
  148.0503  137.4842  152.7218 H   0  0  0  0  0  0  0  0  0  0  0  0
  1  2  1  0  0  0  0
  1 22  1  0  0  0  0
  1 23  1  0  0  0  0
  1 24  1  0  0  0  0
  2 21  2  0  0  0  0
  2  3  1  0  0  0  0
  3  4  2  0  0  0  0
  3 25  1  0  0  0  0
  4  5  1  0  0  0  0
  5  6  1  0  0  0  0
  5 21  1  0  0  0  0
  6  7  1  0  0  0  0
  6  8  1  0  0  0  0
  6 26  1  0  0  0  0
  7 27  1  0  0  0  0
  7 28  1  0  0  0  0
  7 29  1  0  0  0  0
  8  9  1  0  0  0  0
  8 10  1  0  0  0  0
  8 30  1  0  0  0  0
  9 31  1  0  0  0  0
  9 32  1  0  0  0  0
  9 33  1  0  0  0  0
 10 11  1  0  0  0  0
 10 34  1  0  0  0  0
 10 48  1  0  0  0  0
 11 12  1  0  0  0  0
 11 35  1  0  0  0  0
 11 36  1  0  0  0  0
 12 13  2  0  0  0  0
 12 14  1  0  0  0  0
 14 20  1  0  0  0  0
 14 15  1  0  0  0  0
 15 16  1  0  0  0  0
 15 37  1  0  0  0  0
 15 38  1  0  0  0  0
 16 17  1  0  0  0  0
 16 39  1  0  0  0  0
 16 40  1  0  0  0  0
 17 18  1  0  0  0  0
 18 19  1  0  0  0  0
 18 20  1  0  0  0  0
 18 41  1  0  0  0  0
 19 42  1  0  0  0  0
 19 43  1  0  0  0  0
 19 44  1  0  0  0  0
 20 45  1  0  0  0  0
 20 46  1  0  0  0  0
 21 47  1  0  0  0  0
M  CHG  1  10   1
M  END
> <s_m_source_file>
AV-unprocessed.smi

> <i_m_source_file_index>
3056

> <i_lp_mmshare_version>
43012

> <i_f3d_flags>
0

> <s_epik_input>
W0NIM11jMVtjSF1ubihbY0hdMSlbQ0BIXShbQ0gzXSlbQ0BIXShbQ0gzXSlbTkhdW0NIMl1DKD1PKU4yW0NIMl1bQ0gyXU9bQ0BASF0oW0NIM10pW0NIMl0y

> <s_epik_cmdline>
J2VwaWtfcHl0aG9uJywgJy1waCcsICc3LjAnLCAnLXRuJywgJzgnLCAnLW1hJywgJzIwMCcsICctbWV0YWxfYmluZGluZycsICctaW1hZScsICc8aW5maWxlLm1hZT4nLCAnLW9tYWUnLCAnPG91dGZpbGUubWFlPic=

> <r_lp_tautomer_probability>
1

> <r_epik_Ionization_Penalty>
0.233715

> <r_epik_Ionization_Penalty_Charging>
0.233698

> <r_epik_Ionization_Penalty_Neutral>
1.68157e-05

> <r_epik_State_Penalty>
0.225221

> <r_epik_Charging_Adjusted_Penalty>
0.458919

> <i_epik_Tot_Q>
1

> <i_epik_Tot_abs_Q>
1

> <r_epik_Metal_State_Penalty>
0.225535

> <b_epik_Metal_Only>
0

> <s_lp_Force_Field>
OPLS_2005

> <r_lp_Energy>
28.2676

> <b_lp_Chiralities_Consistent>
1

> <s_lp_Variant>
AV-unprocessed.smi:3056-6

> <Gold.Version>
5.8.1

> <Gold.Id.Protein>
6NUR|6NUR_protein|mol2

> <Gold.PLP.Fitness>
43.6907

> <Gold.PLP.PLP>
-34.2953

> <Gold.PLP.part.hbond>
-1.0000

> <Gold.PLP.part.metal>
0.0000

> <Gold.PLP.part.buried>
-0.9749

> <Gold.PLP.part.nonpolar>
-33.7592

> <Gold.PLP.part.repulsive>
0.4256

> <Gold.PLP.ligand.clash>
0.0000

> <Gold.PLP.ligand.torsion>
2.3162

> <Gold.PLP.Chemscore.Hbond>
2.0000

> <Gold.PLP.Chemscore.CHOScore>
2.6426

> <Gold.PLP.Chemscore.Metal>
0.0000

> <Gold.Chemscore.Hbonds>
donor molecule, donor type, donor heavy atom, donor atom, acceptor molecule, acceptor atom, score
      L1  H    10    48       P1  7948  2.00
      L1  C     3    25       P1 10957  0.55
      L1  C     3    25       P1 11000  0.47
      L1  C    21    47       P1 10175  1.00

> <Gold.PLP.Chemscore.Internal.Correction>
0.0998

> <Gold.Rescore>
     Score         DG    S(hbond)    S(metal)    S(lipo)     H(rot)  DE(clash)    DE(int)     intcor
     10.52     -14.22       1.00        0.00      84.27       1.74       1.62       2.08       ----

> <Gold.Chemscore.Fitness>
10.5241

> <Gold.Chemscore.DG>
-14.2229

> <Gold.Chemscore.ZeroCoef>
-5.4800

> <Gold.Chemscore.Hbond>
0.9957

> <Gold.Chemscore.Metal>
0.0000

> <Gold.Chemscore.Lipo>
84.2738

> <Gold.Chemscore.Internal_Hbond>
0.0000

> <Gold.Chemscore.DEClash>
1.6151

> <Gold.Chemscore.DEInternal>
2.0837

> <Gold.Chemscore.Rot>
1.7354

> <Gold.Chemscore.Internal.Correction>
   9.000000E+99

> <Gold.Chemscore.Hbonds>
donor molecule, donor type, donor heavy atom, donor atom, acceptor molecule, acceptor atom, score
      L1  H    10    48       P1  7948  1.00

> <Gold.Chemscore.Hbond.Weighted>
-3.3255

> <Gold.Chemscore.Metal.Weighted>
-0.0000

> <Gold.Chemscore.Lipo.Weighted>
-9.8600

> <Gold.Chemscore.Internal_Hbond.Weighted>
0.0000

> <Gold.Chemscore.DEClash.Weighted>
1.6151

> <Gold.Chemscore.DEInternal.Weighted>
2.0837

> <Gold.Chemscore.Rot.Weighted>
4.4426

> <Gold.Chemscore.Internal.Correction.Weighted>
   9.000000E+99

> <Gold.Protein.RotatedTorsions>
[ 6907 6896 6895 6894 ] final  147.76 input  -60.11 | X-H torsion
[ 7974 7965 7964 7962 ] final   13.54 input  175.53 | X-H torsion
[ 8008 7997 7996 7995 ] final  -30.47 input   59.86 | X-H torsion
[ 10167 10162 10161 10158 ] final -147.86 input  -65.29 | X-H torsion
[ 10718 10713 10712 10709 ] final  125.00 input   66.30 | X-H torsion
[ 10763 10752 10751 10750 ] final  107.01 input  -60.55 | X-H torsion
[ 11005 11000 10999 10996 ] final  128.66 input  -57.11 | X-H torsion

> <Gold.Protein.ActiveResidues>
 VAL166  LYS551  ARG553  GLY616  TRP617  ASP618  TYR619  PRO620  LYS621  CYS622 
 ASP623  PHE694  ASN695  SER759  ASP760  ASP761  ALA762  ILE779  LEU786  VAL792 
 PHE793  MET794  SER795  GLU796  ALA797  LYS798  CYS799  TRP800  GLU811  SER814 

> <Gold.Protein.RotatedAtoms>
  152.1506  133.4519  159.4811 H   0  0  0  0  0  0  0  0  0  0  0  0  # atno 6907 bound_to 6896
  150.6895  134.2194  159.4400 H   0  0  0  0  0  0  0  0  0  0  0  0  # atno 6908 bound_to 6896
  152.0091  134.9886  160.0618 H   0  0  0  0  0  0  0  0  0  0  0  0  # atno 6909 bound_to 6896
  146.2327  139.9173  142.8515 H   0  0  0  0  0  0  0  0  0  0  0  0  # atno 7974 bound_to 7965
  154.4249  140.1790  156.1413 H   0  0  0  0  0  0  0  0  0  0  0  0  # atno 8008 bound_to 7997
  155.9989  140.3362  155.6801 H   0  0  0  0  0  0  0  0  0  0  0  0  # atno 8009 bound_to 7997
  155.6270  140.0666  157.2651 H   0  0  0  0  0  0  0  0  0  0  0  0  # atno 8010 bound_to 7997
  139.7583  143.8414  152.2602 H   0  0  0  0  0  0  0  0  0  0  0  0  # atno 10167 bound_to 10162
  157.5539  131.1093  150.8654 H   0  0  0  0  0  0  0  0  0  0  0  0  # atno 10718 bound_to 10713
  153.4008  135.3858  155.1986 H   0  0  0  0  0  0  0  0  0  0  0  0  # atno 10763 bound_to 10752
  154.8729  135.3771  154.4621 H   0  0  0  0  0  0  0  0  0  0  0  0  # atno 10764 bound_to 10752
  153.5118  135.7087  153.5839 H   0  0  0  0  0  0  0  0  0  0  0  0  # atno 10765 bound_to 10752
  139.9572  134.9610  156.9034 H   0  0  0  0  0  0  0  0  0  0  0  0  # atno 11005 bound_to 11000
  145.2170  140.9919  143.4067 LP  0  0  0  0  0  0  0  0  0  0  0  0  # atno 17320 bound_to 7965
  144.9642  139.3948  143.6341 LP  0  0  0  0  0  0  0  0  0  0  0  0  # atno 17321 bound_to 7965
  139.8413  144.7208  150.9327 LP  0  0  0  0  0  0  0  0  0  0  0  0  # atno 17342 bound_to 10162
  140.7805  143.3981  151.1196 LP  0  0  0  0  0  0  0  0  0  0  0  0  # atno 17343 bound_to 10162
  156.9171  130.5302  149.5279 LP  0  0  0  0  0  0  0  0  0  0  0  0  # atno 17370 bound_to 10713
  156.0601  130.5655  150.9175 LP  0  0  0  0  0  0  0  0  0  0  0  0  # atno 17371 bound_to 10713
  140.5581  134.0561  155.7390 LP  0  0  0  0  0  0  0  0  0  0  0  0  # atno 17394 bound_to 11000
  141.1245  133.9405  157.2662 LP  0  0  0  0  0  0  0  0  0  0  0  0  # atno 17395 bound_to 11000

$$$$
