#       Name:                AV-unprocessed.smi:2984
#       Creating user name   scv26
#       Creation time:       Fri Mar 27 16:29:52 2020


#       File generated by GOLD software.
#

@<TRIPOS>MOLECULE
AV-unprocessed.smi:2984
    45    46     1
SMALL
NO_CHARGES


@<TRIPOS>ATOM
      1 ****         0.8131   3.7966  -1.1975 O.2            1 S1                 0.0000
      2 ****         1.4149   2.7337  -1.0360 C.2            1 S1                 0.0000
      3 ****         2.9433   2.7549  -0.8947 C.3            1 S1                 0.0000
      4 ****         3.4055   2.0581   0.3157 N.am           1 S1                 0.0000
      5 ****         3.8697   0.7743   0.0847 N.2            1 S1                 0.0000
      6 ****         4.2781   0.0591   1.0756 C.2            1 S1                 0.0000
      7 ****         4.2759   0.5532   2.4344 C.2            1 S1                 0.0000
      8 ****         4.8327  -0.4545   3.7237 Cl             1 S1                 0.0000
      9 ****         3.8302   1.8166   2.6488 C.2            1 S1                 0.0000
     10 ****         3.8003   2.4780   4.2475 Cl             1 S1                 0.0000
     11 ****         3.3586   2.6620   1.5432 C.2            1 S1                 0.0000
     12 ****         2.9494   3.8133   1.6968 O.2            1 S1                 0.0000
     13 ****         0.8366   1.5156  -0.9771 N.am           1 S1                 0.0000
     14 ****        -0.4755   1.2226  -1.0425 C.2            1 S1                 0.0000
     15 ****        -1.3889   2.0387  -1.1825 O.2            1 S1                 0.0000
     16 ****        -0.6770  -0.0983  -0.9253 N.am           1 S1                 0.0000
     17 ****        -1.9798  -0.7573  -0.9296 C.3            1 S1                 0.0000
     18 ****        -2.6156  -0.7094   0.4756 C.3            1 S1                 0.0000
     19 ****        -3.9525  -1.4675   0.5148 C.3            1 S1                 0.0000
     20 ****        -3.7861  -2.9176   0.0347 C.3            1 S1                 0.0000
     21 ****        -3.1593  -2.9685  -1.3674 C.3            1 S1                 0.0000
     22 ****        -1.8210  -2.2130  -1.4080 C.3            1 S1                 0.0000
     23 ****         3.3756   2.2990  -1.7873 H              1 S1                 0.0000
     24 ****         3.2981   3.7873  -0.8950 H              1 S1                 0.0000
     25 ****         4.6467  -0.9580   0.9421 H              1 S1                 0.0000
     26 ****         1.4632   0.7344  -0.8522 H              1 S1                 0.0000
     27 ****         0.1302  -0.6940  -0.8140 H              1 S1                 0.0000
     28 ****        -2.6372  -0.2412  -1.6321 H              1 S1                 0.0000
     29 ****        -1.9321  -1.1457   1.2055 H              1 S1                 0.0000
     30 ****        -2.7750   0.3249   0.7832 H              1 S1                 0.0000
     31 ****        -4.3571  -1.4554   1.5272 H              1 S1                 0.0000
     32 ****        -4.6814  -0.9556  -0.1150 H              1 S1                 0.0000
     33 ****        -3.1563  -3.4651   0.7370 H              1 S1                 0.0000
     34 ****        -4.7532  -3.4210   0.0289 H              1 S1                 0.0000
     35 ****        -3.0103  -4.0053  -1.6703 H              1 S1                 0.0000
     36 ****        -3.8477  -2.5308  -2.0914 H              1 S1                 0.0000
     37 ****        -1.4208  -2.2317  -2.4225 H              1 S1                 0.0000
     38 ****        -1.0957  -2.7324  -0.7800 H              1 S1                 0.0000
     39 ****         1.3203   4.6576  -1.2350 LP             1 S1                 0.0000
     40 ****        -0.1825   3.7983  -1.2910 LP             1 S1                 0.0000
     41 ****         3.8879   0.4049  -0.8443 LP             1 S1                 0.0000
     42 ****         2.6358   4.3419   0.9080 LP             1 S1                 0.0000
     43 ****         2.9307   4.2196   2.6104 LP             1 S1                 0.0000
     44 ****        -1.1809   3.0139  -1.2581 LP             1 S1                 0.0000
     45 ****        -2.3378   1.7255  -1.2204 LP             1 S1                 0.0000
@<TRIPOS>BOND
    1    1    2 2     
    2    2    3 1     
    3    2   13 1     
    4    3    4 1     
    5    3   23 1     
    6    3   24 1     
    7    4   11 am    
    8    4    5 1     
    9    5    6 2     
   10    6    7 1     
   11    6   25 1     
   12    7    8 1     
   13    7    9 2     
   14    9   10 1     
   15    9   11 1     
   16   11   12 2     
   17   13   14 1     
   18   13   26 1     
   19   14   15 2     
   20   14   16 1     
   21   16   17 1     
   22   16   27 1     
   23   17   22 1     
   24   17   18 1     
   25   17   28 1     
   26   18   19 1     
   27   18   29 1     
   28   18   30 1     
   29   19   20 1     
   30   19   31 1     
   31   19   32 1     
   32   20   21 1     
   33   20   33 1     
   34   20   34 1     
   35   21   22 1     
   36   21   35 1     
   37   21   36 1     
   38   22   37 1     
   39   22   38 1     
   40    1   39 1     
   41    1   40 1     
   42    5   41 1     
   43   12   42 1     
   44   12   43 1     
   45   15   44 1     
   46   15   45 1     
@<TRIPOS>SUBSTRUCTURE
      1 S1             1
@<TRIPOS>SET
LONE_PAIRS      STATIC     ATOMS    <user>   **** ""
7 39 40 41 42 43 44 45
DONOR_HYDROGENS      STATIC     ATOMS    <user>   **** ""
2 26 27
ATOM$BLUE        STATIC     ATOMS    COLORGROUP SYSTEM
7 39 40 41 42 43 44 45
ATOM$RED        STATIC     ATOMS    COLORGROUP SYSTEM
2 26 27
