AV-unprocessed.smi:2453|AV-procd|sdf|9690|dock5
  -GOLD-   2272013323D 1   1.00000     0.00000
 Structure written by MMmdl.
 40 41  0  0  0  0  0  0  0  0  1 V2000
  147.2541  133.3535  152.7592 C   0  0  0  0  0  0  0  0  0  0  0  0
  147.7073  132.9092  154.1388 C   0  0  0  0  0  0  0  0  0  0  0  0
  147.4413  131.5939  154.5772 C   0  0  0  0  0  0  0  0  0  0  0  0
  147.8118  131.1201  155.7846 N   0  0  0  0  0  0  0  0  0  0  0  0
  148.4762  131.9549  156.6095 C   0  0  0  0  0  0  0  0  0  0  0  0
  148.7951  133.2854  156.2750 C   0  0  0  0  0  0  0  0  0  0  0  0
  148.3938  133.7868  155.0129 C   0  0  0  0  0  0  0  0  0  0  0  0
  148.6877  135.1065  154.5659 N   0  0  0  0  0  0  0  0  0  0  0  0
  149.0974  136.1688  155.2806 C   0  0  0  0  0  0  0  0  0  0  0  0
  149.2439  136.1938  156.5025 O   0  0  0  0  0  0  0  0  0  0  0  0
  149.3163  137.2277  154.4875 N   0  0  0  0  0  0  0  0  0  0  0  0
  149.7628  138.5448  154.9388 C   0  0  1  0  0  0  0  0  0  0  0  0
  148.7531  139.1150  155.9584 C   0  0  0  0  0  0  0  0  0  0  0  0
  149.2104  140.4706  156.5155 C   0  0  0  0  0  0  0  0  0  0  0  0
  150.6063  140.3650  157.1439 C   0  0  0  0  0  0  0  0  0  0  0  0
  151.6246  139.8194  156.1316 C   0  0  0  0  0  0  0  0  0  0  0  0
  151.1860  138.4574  155.5505 C   0  0  2  0  0  0  0  0  0  0  0  0
  152.2470  137.8855  154.5831 C   0  0  0  0  0  0  0  0  0  0  0  0
  152.0866  136.4947  154.3913 O   0  0  0  0  0  0  0  0  0  0  0  0
  146.7206  132.5563  152.2408 H   0  0  0  0  0  0  0  0  0  0  0  0
  148.1129  133.6366  152.1502 H   0  0  0  0  0  0  0  0  0  0  0  0
  146.5857  134.2115  152.8363 H   0  0  0  0  0  0  0  0  0  0  0  0
  146.9175  130.8971  153.9392 H   0  0  0  0  0  0  0  0  0  0  0  0
  148.7713  131.5478  157.5652 H   0  0  0  0  0  0  0  0  0  0  0  0
  149.3484  133.8826  156.9828 H   0  0  0  0  0  0  0  0  0  0  0  0
  148.5262  135.2721  153.5836 H   0  0  0  0  0  0  0  0  0  0  0  0
  149.1649  137.1169  153.4957 H   0  0  0  0  0  0  0  0  0  0  0  0
  149.8017  139.2185  154.0805 H   0  0  0  0  0  0  0  0  0  0  0  0
  147.7722  139.2273  155.4948 H   0  0  0  0  0  0  0  0  0  0  0  0
  148.6243  138.4122  156.7828 H   0  0  0  0  0  0  0  0  0  0  0  0
  149.2239  141.2104  155.7140 H   0  0  0  0  0  0  0  0  0  0  0  0
  148.4948  140.8288  157.2559 H   0  0  0  0  0  0  0  0  0  0  0  0
  150.9271  141.3435  157.5024 H   0  0  0  0  0  0  0  0  0  0  0  0
  150.5683  139.7118  158.0167 H   0  0  0  0  0  0  0  0  0  0  0  0
  151.7502  140.5441  155.3262 H   0  0  0  0  0  0  0  0  0  0  0  0
  152.5983  139.7237  156.6131 H   0  0  0  0  0  0  0  0  0  0  0  0
  151.1316  137.7630  156.3908 H   0  0  0  0  0  0  0  0  0  0  0  0
  152.1759  138.3788  153.6132 H   0  0  0  0  0  0  0  0  0  0  0  0
  153.2549  138.0736  154.9532 H   0  0  0  0  0  0  0  0  0  0  0  0
  151.8705  136.3380  153.4846 H   0  0  0  0  0  0  0  0  0  0  0  0
  1  2  1  0  0  0  0
  1 20  1  0  0  0  0
  1 21  1  0  0  0  0
  1 22  1  0  0  0  0
  2  7  1  0  0  0  0
  2  3  2  0  0  0  0
  3  4  1  0  0  0  0
  3 23  1  0  0  0  0
  4  5  2  0  0  0  0
  5  6  1  0  0  0  0
  5 24  1  0  0  0  0
  6  7  2  0  0  0  0
  6 25  1  0  0  0  0
  7  8  1  0  0  0  0
  8  9  1  0  0  0  0
  8 26  1  0  0  0  0
  9 10  2  0  0  0  0
  9 11  1  0  0  0  0
 11 12  1  0  0  0  0
 11 27  1  0  0  0  0
 12 17  1  0  0  0  0
 12 13  1  0  0  0  0
 12 28  1  0  0  0  0
 13 14  1  0  0  0  0
 13 29  1  0  0  0  0
 13 30  1  0  0  0  0
 14 15  1  0  0  0  0
 14 31  1  0  0  0  0
 14 32  1  0  0  0  0
 15 16  1  0  0  0  0
 15 33  1  0  0  0  0
 15 34  1  0  0  0  0
 16 17  1  0  0  0  0
 16 35  1  0  0  0  0
 16 36  1  0  0  0  0
 17 18  1  0  0  0  0
 17 37  1  0  0  0  0
 18 19  1  0  0  0  0
 18 38  1  0  0  0  0
 18 39  1  0  0  0  0
 19 40  1  0  0  0  0
M  END
> <s_m_source_file>
AV-unprocessed.smi

> <i_m_source_file_index>
2453

> <i_lp_mmshare_version>
43012

> <i_f3d_flags>
0

> <s_epik_input>
W0NIM11jMVtjSF1uW2NIXVtjSF1jMVtOSF1DKD1PKVtOSF1bQ0BASF0yW0NIMl1bQ0gyXVtDSDJdW0NIMl1bQ0BIXTJbQ0gyXVtPSF0=

> <s_epik_cmdline>
J2VwaWtfcHl0aG9uJywgJy1waCcsICc3LjAnLCAnLXRuJywgJzgnLCAnLW1hJywgJzIwMCcsICctbWV0YWxfYmluZGluZycsICctaW1hZScsICc8aW5maWxlLm1hZT4nLCAnLW9tYWUnLCAnPG91dGZpbGUubWFlPic=

> <r_epik_Ionization_Penalty>
0.210691

> <r_epik_Ionization_Penalty_Charging>
0

> <r_epik_Ionization_Penalty_Neutral>
0.210691

> <r_epik_State_Penalty>
0.200732

> <r_epik_Charging_Adjusted_Penalty>
0.200732

> <i_epik_Tot_Q>
0

> <i_epik_Tot_abs_Q>
0

> <r_epik_Metal_State_Penalty>
0.147519

> <b_epik_Metal_Only>
0

> <s_lp_Force_Field>
OPLS_2005

> <r_lp_Energy>
20.8004

> <b_lp_Chiralities_Consistent>
1

> <s_lp_Variant>
AV-unprocessed.smi:2453-4

> <Gold.Version>
5.8.1

> <Gold.Id.Protein>
6NUR|6NUR_protein|mol2

> <Gold.PLP.Fitness>
43.3522

> <Gold.PLP.PLP>
-30.0883

> <Gold.PLP.part.hbond>
-4.0000

> <Gold.PLP.part.metal>
0.0000

> <Gold.PLP.part.buried>
-3.6573

> <Gold.PLP.part.nonpolar>
-21.5906

> <Gold.PLP.part.repulsive>
0.1197

> <Gold.PLP.ligand.clash>
0.0000

> <Gold.PLP.ligand.torsion>
0.1869

> <Gold.PLP.Chemscore.Hbond>
3.8640

> <Gold.PLP.Chemscore.CHOScore>
0.6760

> <Gold.PLP.Chemscore.Metal>
0.0000

> <Gold.Chemscore.Hbonds>
donor molecule, donor type, donor heavy atom, donor atom, acceptor molecule, acceptor atom, score
      L1  H     8    26       P1  7948  1.00
      L1  H    11    27       P1  7948  1.00
      L1  H    19    40       P1  7949  0.73

> <Gold.PLP.Chemscore.Internal.Correction>
0.0177

> <Gold.Rescore>
     Score         DG    S(hbond)    S(metal)    S(lipo)     H(rot)  DE(clash)    DE(int)     intcor
     16.33     -19.33       3.42        0.00      59.00       1.75       0.01       2.99       ----

> <Gold.Chemscore.Fitness>
16.3325

> <Gold.Chemscore.DG>
-19.3318

> <Gold.Chemscore.ZeroCoef>
-5.4800

> <Gold.Chemscore.Hbond>
3.4212

> <Gold.Chemscore.Metal>
0.0000

> <Gold.Chemscore.Lipo>
59.0027

> <Gold.Chemscore.Internal_Hbond>
0.0000

> <Gold.Chemscore.DEClash>
0.0106

> <Gold.Chemscore.DEInternal>
2.9887

> <Gold.Chemscore.Rot>
1.7493

> <Gold.Chemscore.Internal.Correction>
   9.000000E+99

> <Gold.Chemscore.Hbonds>
donor molecule, donor type, donor heavy atom, donor atom, acceptor molecule, acceptor atom, score
      L1  H     8    26       P1  7948  0.87
      L1  H    11    27       P1  7948  0.99
      L1  H    19    40       P1  7949  0.72

> <Gold.Chemscore.Hbond.Weighted>
-11.4266

> <Gold.Chemscore.Metal.Weighted>
-0.0000

> <Gold.Chemscore.Lipo.Weighted>
-6.9033

> <Gold.Chemscore.Internal_Hbond.Weighted>
0.0000

> <Gold.Chemscore.DEClash.Weighted>
0.0106

> <Gold.Chemscore.DEInternal.Weighted>
2.9887

> <Gold.Chemscore.Rot.Weighted>
4.4782

> <Gold.Chemscore.Internal.Correction.Weighted>
   9.000000E+99

> <Gold.Protein.RotatedTorsions>
[ 6907 6896 6895 6894 ] final   27.06 input  -60.11 | X-H torsion
[ 7974 7965 7964 7962 ] final  -81.41 input  175.53 | X-H torsion
[ 8008 7997 7996 7995 ] final  -89.30 input   59.86 | X-H torsion
[ 10167 10162 10161 10158 ] final  163.60 input  -65.29 | X-H torsion
[ 10718 10713 10712 10709 ] final  145.71 input   66.30 | X-H torsion
[ 10763 10752 10751 10750 ] final  -93.96 input  -60.55 | X-H torsion
[ 11005 11000 10999 10996 ] final  177.31 input  -57.11 | X-H torsion

> <Gold.Protein.ActiveResidues>
 VAL166  LYS551  ARG553  GLY616  TRP617  ASP618  TYR619  PRO620  LYS621  CYS622 
 ASP623  PHE694  ASN695  SER759  ASP760  ASP761  ALA762  ILE779  LEU786  VAL792 
 PHE793  MET794  SER795  GLU796  ALA797  LYS798  CYS799  TRP800  GLU811  SER814 

> <Gold.Protein.RotatedAtoms>
  151.9967  134.9950  160.0563 H   0  0  0  0  0  0  0  0  0  0  0  0  # atno 6907 bound_to 6896
  152.1558  133.4545  159.4844 H   0  0  0  0  0  0  0  0  0  0  0  0  # atno 6908 bound_to 6896
  150.6881  134.2051  159.4380 H   0  0  0  0  0  0  0  0  0  0  0  0  # atno 6909 bound_to 6896
  145.5470  140.9502  143.1520 H   0  0  0  0  0  0  0  0  0  0  0  0  # atno 7974 bound_to 7965
  154.6849  140.0543  157.0304 H   0  0  0  0  0  0  0  0  0  0  0  0  # atno 8008 bound_to 7997
  155.0898  140.3218  155.4558 H   0  0  0  0  0  0  0  0  0  0  0  0  # atno 8009 bound_to 7997
  156.2708  140.2050  156.6025 H   0  0  0  0  0  0  0  0  0  0  0  0  # atno 8010 bound_to 7997
  139.4876  144.4320  151.9058 H   0  0  0  0  0  0  0  0  0  0  0  0  # atno 10167 bound_to 10162
  157.3419  131.0937  151.1075 H   0  0  0  0  0  0  0  0  0  0  0  0  # atno 10718 bound_to 10713
  154.7009  135.5175  153.8526 H   0  0  0  0  0  0  0  0  0  0  0  0  # atno 10763 bound_to 10752
  153.0703  135.6599  154.0270 H   0  0  0  0  0  0  0  0  0  0  0  0  # atno 10764 bound_to 10752
  154.0129  135.3000  155.3370 H   0  0  0  0  0  0  0  0  0  0  0  0  # atno 10765 bound_to 10752
  140.3827  134.6932  157.4460 H   0  0  0  0  0  0  0  0  0  0  0  0  # atno 11005 bound_to 11000
  144.7548  139.7101  143.7258 LP  0  0  0  0  0  0  0  0  0  0  0  0  # atno 17320 bound_to 7965
  146.1943  139.5200  142.9785 LP  0  0  0  0  0  0  0  0  0  0  0  0  # atno 17321 bound_to 7965
  140.3768  144.2786  150.5913 LP  0  0  0  0  0  0  0  0  0  0  0  0  # atno 17342 bound_to 10162
  140.5269  143.2252  151.8300 LP  0  0  0  0  0  0  0  0  0  0  0  0  # atno 17343 bound_to 10162
  157.2283  130.6513  149.5839 LP  0  0  0  0  0  0  0  0  0  0  0  0  # atno 17370 bound_to 10713
  155.9709  130.4607  150.6082 LP  0  0  0  0  0  0  0  0  0  0  0  0  # atno 17371 bound_to 10713
  140.0466  134.6190  155.8913 LP  0  0  0  0  0  0  0  0  0  0  0  0  # atno 17394 bound_to 11000
  141.1918  133.6573  156.5472 LP  0  0  0  0  0  0  0  0  0  0  0  0  # atno 17395 bound_to 11000

$$$$
