AV-unprocessed.smi:1434|AV-procd|sdf|5854|dock1
  -GOLD-   22720 5523D 1   1.00000     0.00000
 Structure written by MMmdl.
 43 44  0  0  0  0  0  0  0  0  2 V2000
  157.0407  133.2624  161.5128 C   0  0  0  0  0  0  0  0  0  0  0  0
  155.2238  133.0877  161.7740 S   0  0  0  0  0  0  0  0  0  0  0  0
  154.5770  133.7162  160.6092 O   0  0  0  0  0  0  0  0  0  0  0  0
  155.0030  131.6451  161.9559 O   0  0  0  0  0  0  0  0  0  0  0  0
  155.0020  133.8950  163.1692 N   0  5  0  0  0  0  0  0  0  0  0  0
  154.5491  135.2794  163.1727 C   0  0  1  0  0  0  0  0  0  0  0  0
  154.5260  135.8462  164.6166 C   0  0  0  0  0  0  0  0  0  0  0  0
  154.2901  137.3812  164.6771 C   0  0  0  0  0  0  0  0  0  0  0  0
  155.2251  138.1647  163.7255 C   0  0  0  0  0  0  0  0  0  0  0  0
  155.0573  137.5823  162.3760 N   0  0  0  0  0  0  0  0  0  0  0  0
  154.4799  138.2026  161.3134 C   0  0  0  0  0  0  0  0  0  0  0  0
  154.1160  137.6052  160.2994 O   0  0  0  0  0  0  0  0  0  0  0  0
  154.2319  139.5113  161.5009 N   0  0  0  0  0  0  0  0  0  0  0  0
  153.3936  140.3489  160.6460 C   0  0  0  0  0  0  0  0  0  0  0  0
  154.1430  141.6074  160.1618 C   0  0  0  0  0  0  0  0  0  0  0  0
  153.2520  142.8296  160.0038 C   0  0  0  0  0  0  0  0  0  0  0  0
  152.5100  143.3269  161.0973 C   0  0  0  0  0  0  0  0  0  0  0  0
  151.6628  144.4321  160.8874 C   0  0  0  0  0  0  0  0  0  0  0  0
  151.5931  144.9966  159.5999 C   0  0  0  0  0  0  0  0  0  0  0  0
  152.3784  144.4303  158.5762 C   0  0  0  0  0  0  0  0  0  0  0  0
  153.1959  143.3720  158.7668 N   0  0  0  0  0  0  0  0  0  0  0  0
  155.4894  136.1674  162.3117 C   0  0  0  0  0  0  0  0  0  0  0  0
  157.3329  132.6905  160.6329 H   0  0  0  0  0  0  0  0  0  0  0  0
  157.5710  132.8802  162.3846 H   0  0  0  0  0  0  0  0  0  0  0  0
  157.2979  134.3099  161.3609 H   0  0  0  0  0  0  0  0  0  0  0  0
  153.5461  135.3722  162.7554 H   0  0  0  0  0  0  0  0  0  0  0  0
  153.7650  135.3344  165.2066 H   0  0  0  0  0  0  0  0  0  0  0  0
  155.4802  135.6309  165.1001 H   0  0  0  0  0  0  0  0  0  0  0  0
  153.2517  137.6055  164.4260 H   0  0  0  0  0  0  0  0  0  0  0  0
  154.4310  137.7312  165.6999 H   0  0  0  0  0  0  0  0  0  0  0  0
  155.0241  139.2345  163.7830 H   0  0  0  0  0  0  0  0  0  0  0  0
  156.2632  138.0432  164.0384 H   0  0  0  0  0  0  0  0  0  0  0  0
  154.5543  139.9258  162.3631 H   0  0  0  0  0  0  0  0  0  0  0  0
  153.0780  139.7567  159.7870 H   0  0  0  0  0  0  0  0  0  0  0  0
  152.4790  140.6387  161.1658 H   0  0  0  0  0  0  0  0  0  0  0  0
  154.9431  141.8451  160.8642 H   0  0  0  0  0  0  0  0  0  0  0  0
  154.6324  141.4000  159.2092 H   0  0  0  0  0  0  0  0  0  0  0  0
  152.5722  142.8625  162.0702 H   0  0  0  0  0  0  0  0  0  0  0  0
  151.0696  144.8325  161.6963 H   0  0  0  0  0  0  0  0  0  0  0  0
  150.9484  145.8401  159.4013 H   0  0  0  0  0  0  0  0  0  0  0  0
  152.3483  144.8380  157.5768 H   0  0  0  0  0  0  0  0  0  0  0  0
  156.5154  136.0960  162.6766 H   0  0  0  0  0  0  0  0  0  0  0  0
  155.5156  135.7883  161.2889 H   0  0  0  0  0  0  0  0  0  0  0  0
  1  2  1  0  0  0  0
  1 23  1  0  0  0  0
  1 24  1  0  0  0  0
  1 25  1  0  0  0  0
  2  3  2  0  0  0  0
  2  4  2  0  0  0  0
  2  5  1  0  0  0  0
  5  6  1  0  0  0  0
  6 22  1  0  0  0  0
  6  7  1  0  0  0  0
  6 26  1  0  0  0  0
  7  8  1  0  0  0  0
  7 27  1  0  0  0  0
  7 28  1  0  0  0  0
  8  9  1  0  0  0  0
  8 29  1  0  0  0  0
  8 30  1  0  0  0  0
  9 10  1  0  0  0  0
  9 31  1  0  0  0  0
  9 32  1  0  0  0  0
 10 11  1  0  0  0  0
 10 22  1  0  0  0  0
 11 12  2  0  0  0  0
 11 13  1  0  0  0  0
 13 14  1  0  0  0  0
 13 33  1  0  0  0  0
 14 15  1  0  0  0  0
 14 34  1  0  0  0  0
 14 35  1  0  0  0  0
 15 16  1  0  0  0  0
 15 36  1  0  0  0  0
 15 37  1  0  0  0  0
 16 21  1  0  0  0  0
 16 17  2  0  0  0  0
 17 18  1  0  0  0  0
 17 38  1  0  0  0  0
 18 19  2  0  0  0  0
 18 39  1  0  0  0  0
 19 20  1  0  0  0  0
 19 40  1  0  0  0  0
 20 21  2  0  0  0  0
 20 41  1  0  0  0  0
 22 42  1  0  0  0  0
 22 43  1  0  0  0  0
M  CHG  1   5  -1
M  END
> <s_m_source_file>
AV-unprocessed.smi

> <i_m_source_file_index>
1434

> <i_lp_mmshare_version>
43012

> <i_f3d_flags>
0

> <s_epik_input>
W0NIM11TKD1PKSg9TylbTkhdW0NAQEhdMVtDSDJdW0NIMl1bQ0gyXU4oW0NIMl0xKUMoPU8pW05IXVtDSDJdW0NIMl1jMltjSF1bY0hdW2NIXVtjSF1uMg==

> <s_epik_cmdline>
J2VwaWtfcHl0aG9uJywgJy1waCcsICc3LjAnLCAnLXRuJywgJzgnLCAnLW1hJywgJzIwMCcsICctbWV0YWxfYmluZGluZycsICctaW1hZScsICc8aW5maWxlLm1hZT4nLCAnLW9tYWUnLCAnPG91dGZpbGUubWFlPic=

> <r_epik_Ionization_Penalty>
6.57847

> <r_epik_Ionization_Penalty_Charging>
6.53351

> <r_epik_Ionization_Penalty_Neutral>
0.0449527

> <r_epik_State_Penalty>
6.57157

> <r_epik_Charging_Adjusted_Penalty>
13.1051

> <i_epik_Tot_Q>
-1

> <i_epik_Tot_abs_Q>
1

> <r_epik_Metal_State_Penalty>
2.53928

> <b_epik_Metal_Only>
1

> <s_lp_Force_Field>
OPLS_2005

> <r_lp_Energy>
21.2682

> <b_lp_Chiralities_Consistent>
1

> <s_lp_Variant>
AV-unprocessed.smi:1434-6

> <Gold.Version>
5.8.1

> <Gold.Id.Protein>
6NUR|6NUR_protein|mol2

> <Gold.PLP.Fitness>
45.3661

> <Gold.PLP.PLP>
-42.9515

> <Gold.PLP.part.hbond>
-1.0000

> <Gold.PLP.part.metal>
0.0000

> <Gold.PLP.part.buried>
-5.1435

> <Gold.PLP.part.nonpolar>
-37.5385

> <Gold.PLP.part.repulsive>
0.0108

> <Gold.PLP.ligand.clash>
0.0000

> <Gold.PLP.ligand.torsion>
0.8005

> <Gold.PLP.Chemscore.Hbond>
1.0000

> <Gold.PLP.Chemscore.CHOScore>
0.0000

> <Gold.PLP.Chemscore.Metal>
0.0000

> <Gold.Chemscore.Hbonds>
donor molecule, donor type, donor heavy atom, donor atom, acceptor molecule, acceptor atom, score
      P1  H  6896  6909       L1     3  0.73

> <Gold.PLP.Chemscore.Internal.Correction>
1.0155

> <Gold.Rescore>
     Score         DG    S(hbond)    S(metal)    S(lipo)     H(rot)  DE(clash)    DE(int)     intcor
     17.58     -18.33       1.00        0.00     118.14       1.68       0.00       0.75       ----

> <Gold.Chemscore.Fitness>
17.5794

> <Gold.Chemscore.DG>
-18.3324

> <Gold.Chemscore.ZeroCoef>
-5.4800

> <Gold.Chemscore.Hbond>
0.9982

> <Gold.Chemscore.Metal>
0.0000

> <Gold.Chemscore.Lipo>
118.1406

> <Gold.Chemscore.Internal_Hbond>
0.0000

> <Gold.Chemscore.DEClash>
0.0019

> <Gold.Chemscore.DEInternal>
0.7511

> <Gold.Chemscore.Rot>
1.6813

> <Gold.Chemscore.Internal.Correction>
   9.000000E+99

> <Gold.Chemscore.Hbonds>
donor molecule, donor type, donor heavy atom, donor atom, acceptor molecule, acceptor atom, score
      P1  H  6896  6909       L1     3  0.69

> <Gold.Chemscore.Hbond.Weighted>
-3.3341

> <Gold.Chemscore.Metal.Weighted>
-0.0000

> <Gold.Chemscore.Lipo.Weighted>
-13.8225

> <Gold.Chemscore.Internal_Hbond.Weighted>
0.0000

> <Gold.Chemscore.DEClash.Weighted>
0.0019

> <Gold.Chemscore.DEInternal.Weighted>
0.7511

> <Gold.Chemscore.Rot.Weighted>
4.3042

> <Gold.Chemscore.Internal.Correction.Weighted>
   9.000000E+99

> <Gold.Protein.RotatedTorsions>
[ 6907 6896 6895 6894 ] final -146.78 input  -60.11 | X-H torsion
[ 7974 7965 7964 7962 ] final -158.63 input  175.53 | X-H torsion
[ 8008 7997 7996 7995 ] final   77.00 input   59.86 | X-H torsion
[ 10167 10162 10161 10158 ] final  120.34 input  -65.29 | X-H torsion
[ 10718 10713 10712 10709 ] final -149.23 input   66.30 | X-H torsion
[ 10763 10752 10751 10750 ] final  -19.24 input  -60.55 | X-H torsion
[ 11005 11000 10999 10996 ] final  -24.67 input  -57.11 | X-H torsion

> <Gold.Protein.ActiveResidues>
 VAL166  LYS551  ARG553  GLY616  TRP617  ASP618  TYR619  PRO620  LYS621  CYS622 
 ASP623  PHE694  ASN695  SER759  ASP760  ASP761  ALA762  ILE779  LEU786  VAL792 
 PHE793  MET794  SER795  GLU796  ALA797  LYS798  CYS799  TRP800  GLU811  SER814 

> <Gold.Protein.RotatedAtoms>
  151.1464  133.4936  159.2595 H   0  0  0  0  0  0  0  0  0  0  0  0  # atno 6907 bound_to 6896
  151.1600  135.0268  159.8716 H   0  0  0  0  0  0  0  0  0  0  0  0  # atno 6908 bound_to 6896
  152.5463  134.1339  159.8504 H   0  0  0  0  0  0  0  0  0  0  0  0  # atno 6909 bound_to 6896
  144.7498  140.3801  143.6057 H   0  0  0  0  0  0  0  0  0  0  0  0  # atno 7974 bound_to 7965
  155.8354  140.3464  155.5598 H   0  0  0  0  0  0  0  0  0  0  0  0  # atno 8008 bound_to 7997
  155.8198  140.0911  157.1875 H   0  0  0  0  0  0  0  0  0  0  0  0  # atno 8009 bound_to 7997
  154.4004  140.1432  156.3473 H   0  0  0  0  0  0  0  0  0  0  0  0  # atno 8010 bound_to 7997
  139.5988  144.7050  151.3111 H   0  0  0  0  0  0  0  0  0  0  0  0  # atno 10167 bound_to 10162
  156.4305  130.8073  151.2300 H   0  0  0  0  0  0  0  0  0  0  0  0  # atno 10718 bound_to 10713
  153.6018  135.6999  153.5381 H   0  0  0  0  0  0  0  0  0  0  0  0  # atno 10763 bound_to 10752
  153.3091  135.4106  155.1319 H   0  0  0  0  0  0  0  0  0  0  0  0  # atno 10764 bound_to 10752
  154.8581  135.3667  154.5553 H   0  0  0  0  0  0  0  0  0  0  0  0  # atno 10765 bound_to 10752
  140.8867  133.7617  156.0369 H   0  0  0  0  0  0  0  0  0  0  0  0  # atno 11005 bound_to 11000
  145.6987  139.1656  143.2605 LP  0  0  0  0  0  0  0  0  0  0  0  0  # atno 17320 bound_to 7965
  146.1431  140.7030  142.9357 LP  0  0  0  0  0  0  0  0  0  0  0  0  # atno 17321 bound_to 7965
  140.7233  143.7073  150.7797 LP  0  0  0  0  0  0  0  0  0  0  0  0  # atno 17342 bound_to 10162
  140.0645  143.5121  152.2611 LP  0  0  0  0  0  0  0  0  0  0  0  0  # atno 17343 bound_to 10162
  157.7508  131.0200  150.3690 LP  0  0  0  0  0  0  0  0  0  0  0  0  # atno 17370 bound_to 10713
  156.4026  130.3918  149.6949 LP  0  0  0  0  0  0  0  0  0  0  0  0  # atno 17371 bound_to 10713
  140.8397  134.3081  157.5318 LP  0  0  0  0  0  0  0  0  0  0  0  0  # atno 17394 bound_to 11000
  139.8725  134.9409  156.3782 LP  0  0  0  0  0  0  0  0  0  0  0  0  # atno 17395 bound_to 11000

$$$$
