AV-unprocessed.smi:798|AV-procd|sdf|3772|dock4
  -GOLD-   22720 1203D 1   1.00000     0.00000
 Structure written by MMmdl.
 34 36  0  0  0  0  0  0  0  0  1 V2000
  146.0811  137.7397  154.8117 O   0  0  0  0  0  0  0  0  0  0  0  0
  146.8789  137.2388  154.0189 C   0  0  0  0  0  0  0  0  0  0  0  0
  148.0410  137.7927  153.6309 N   0  0  0  0  0  0  0  0  0  0  0  0
  148.5934  139.0434  154.0142 C   0  0  0  0  0  0  0  0  0  0  0  0
  149.8499  139.1979  154.4603 N   0  0  0  0  0  0  0  0  0  0  0  0
  150.1327  140.5226  154.7676 N   0  0  0  0  0  0  0  0  0  0  0  0
  149.0799  141.3138  154.5425 C   0  0  0  0  0  0  0  0  0  0  0  0
  147.6392  140.5179  153.9336 S   0  0  0  0  0  0  0  0  0  0  0  0
  146.6941  136.0499  153.4281 N   0  0  0  0  0  0  0  0  0  0  0  0
  145.5386  135.1681  153.6097 C   0  0  1  0  0  0  0  0  0  0  0  0
  144.2112  135.8351  153.1690 C   0  0  1  0  0  0  0  0  0  0  0  0
  144.3352  136.4629  151.7639 C   0  0  0  0  0  0  0  0  0  0  0  0
  144.4341  135.2261  150.8528 C   0  0  0  0  0  0  0  0  0  0  0  0
  144.3120  134.0522  151.8476 C   0  0  2  0  0  0  0  0  0  0  0  0
  143.3320  134.6264  152.8641 C   0  0  0  0  0  0  0  0  0  0  0  0
  145.5805  133.8924  152.7215 C   0  0  1  0  0  0  0  0  0  0  0  0
  146.8966  133.5993  151.9661 C   0  0  0  0  0  0  0  0  0  0  0  0
  146.7942  132.3840  151.2548 O   0  0  0  0  0  0  0  0  0  0  0  0
  148.5964  137.2572  152.9805 H   0  0  0  0  0  0  0  0  0  0  0  0
  149.1524  142.3737  154.7365 H   0  0  0  0  0  0  0  0  0  0  0  0
  147.4078  135.7240  152.7932 H   0  0  0  0  0  0  0  0  0  0  0  0
  145.4480  134.8629  154.6540 H   0  0  0  0  0  0  0  0  0  0  0  0
  143.8023  136.5195  153.9130 H   0  0  0  0  0  0  0  0  0  0  0  0
  143.4379  137.0353  151.5246 H   0  0  0  0  0  0  0  0  0  0  0  0
  145.1835  137.1380  151.6530 H   0  0  0  0  0  0  0  0  0  0  0  0
  143.6046  135.2141  150.1446 H   0  0  0  0  0  0  0  0  0  0  0  0
  145.3539  135.2040  150.2707 H   0  0  0  0  0  0  0  0  0  0  0  0
  143.9851  133.1215  151.3831 H   0  0  0  0  0  0  0  0  0  0  0  0
  143.1702  133.9789  153.7279 H   0  0  0  0  0  0  0  0  0  0  0  0
  142.3643  134.8903  152.4332 H   0  0  0  0  0  0  0  0  0  0  0  0
  145.4096  133.0395  153.3815 H   0  0  0  0  0  0  0  0  0  0  0  0
  147.1638  134.3975  151.2748 H   0  0  0  0  0  0  0  0  0  0  0  0
  147.7196  133.5079  152.6753 H   0  0  0  0  0  0  0  0  0  0  0  0
  147.6280  132.2019  150.8489 H   0  0  0  0  0  0  0  0  0  0  0  0
  1  2  2  0  0  0  0
  2  3  1  0  0  0  0
  2  9  1  0  0  0  0
  3  4  1  0  0  0  0
  3 19  1  0  0  0  0
  4  8  1  0  0  0  0
  4  5  2  0  0  0  0
  5  6  1  0  0  0  0
  6  7  2  0  0  0  0
  7  8  1  0  0  0  0
  7 20  1  0  0  0  0
  9 10  1  0  0  0  0
  9 21  1  0  0  0  0
 10 16  1  0  0  0  0
 10 11  1  0  0  0  0
 10 22  1  0  0  0  0
 11 15  1  0  0  0  0
 11 12  1  0  0  0  0
 11 23  1  0  0  0  0
 12 13  1  0  0  0  0
 12 24  1  0  0  0  0
 12 25  1  0  0  0  0
 13 14  1  0  0  0  0
 13 26  1  0  0  0  0
 13 27  1  0  0  0  0
 14 15  1  0  0  0  0
 14 16  1  0  0  0  0
 14 28  1  0  0  0  0
 15 29  1  0  0  0  0
 15 30  1  0  0  0  0
 16 17  1  0  0  0  0
 16 31  1  0  0  0  0
 17 18  1  0  0  0  0
 17 32  1  0  0  0  0
 17 33  1  0  0  0  0
 18 34  1  0  0  0  0
M  END
> <s_m_source_file>
AV-unprocessed.smi

> <i_m_source_file_index>
798

> <i_lp_mmshare_version>
43012

> <i_f3d_flags>
0

> <s_epik_input>
W0NIMl0xW0NIMl1bQ0BASF0oW0NIMl0yKVtDQEBIXShbQ0gyXVtPSF0pW0NAQEhdKFtDQEhdMTIpW05IXUMoPU8pW05IXWMzbm5bY0hdczM=

> <s_epik_cmdline>
J2VwaWtfcHl0aG9uJywgJy1waCcsICc3LjAnLCAnLXRuJywgJzgnLCAnLW1hJywgJzIwMCcsICctbWV0YWxfYmluZGluZycsICctaW1hZScsICc8aW5maWxlLm1hZT4nLCAnLW9tYWUnLCAnPG91dGZpbGUubWFlPic=

> <r_lp_tautomer_probability>
1

> <r_epik_Ionization_Penalty>
0.000329046

> <r_epik_Ionization_Penalty_Charging>
0

> <r_epik_Ionization_Penalty_Neutral>
0.000329046

> <r_epik_State_Penalty>
-0

> <r_epik_Charging_Adjusted_Penalty>
0

> <i_epik_Tot_Q>
0

> <i_epik_Tot_abs_Q>
0

> <r_epik_Metal_State_Penalty>
0.173433

> <b_epik_Metal_Only>
0

> <s_lp_Force_Field>
OPLS_2005

> <r_lp_Energy>
50.8233

> <b_lp_Chiralities_Consistent>
1

> <s_lp_Variant>
AV-unprocessed.smi:798-4

> <Gold.Version>
5.8.1

> <Gold.Id.Protein>
6NUR|6NUR_protein|mol2

> <Gold.PLP.Fitness>
37.7401

> <Gold.PLP.PLP>
-24.2095

> <Gold.PLP.part.hbond>
-3.9351

> <Gold.PLP.part.metal>
0.0000

> <Gold.PLP.part.buried>
-1.7261

> <Gold.PLP.part.nonpolar>
-18.7278

> <Gold.PLP.part.repulsive>
0.3462

> <Gold.PLP.ligand.clash>
0.0000

> <Gold.PLP.ligand.torsion>
0.4521

> <Gold.PLP.Chemscore.Hbond>
3.8080

> <Gold.PLP.Chemscore.CHOScore>
1.0000

> <Gold.PLP.Chemscore.Metal>
0.0000

> <Gold.Chemscore.Hbonds>
donor molecule, donor type, donor heavy atom, donor atom, acceptor molecule, acceptor atom, score
      L1  H     3    19       P1  7948  1.00
      L1  H     9    21       P1  7948  0.90
      L1  H    18    34       P1 10747  0.98
      P1  H  7989  7998       L1     6  0.93
      L1  C     7    20       P1  8028  1.00

> <Gold.PLP.Chemscore.Internal.Correction>
0.0108

> <Gold.Rescore>
     Score         DG    S(hbond)    S(metal)    S(lipo)     H(rot)  DE(clash)    DE(int)     intcor
     15.64     -16.21       3.02        0.00      47.96       1.94       0.12       0.45       ----

> <Gold.Chemscore.Fitness>
15.6401

> <Gold.Chemscore.DG>
-16.2087

> <Gold.Chemscore.ZeroCoef>
-5.4800

> <Gold.Chemscore.Hbond>
3.0222

> <Gold.Chemscore.Metal>
0.0000

> <Gold.Chemscore.Lipo>
47.9623

> <Gold.Chemscore.Internal_Hbond>
0.0000

> <Gold.Chemscore.DEClash>
0.1187

> <Gold.Chemscore.DEInternal>
0.4499

> <Gold.Chemscore.Rot>
1.9442

> <Gold.Chemscore.Internal.Correction>
   9.000000E+99

> <Gold.Chemscore.Hbonds>
donor molecule, donor type, donor heavy atom, donor atom, acceptor molecule, acceptor atom, score
      L1  H     3    19       P1  7948  0.95
      L1  H     9    21       P1  7948  0.88
      L1  H    18    34       P1 10747  0.91
      P1  H  7989  7998       L1     6  0.21

> <Gold.Chemscore.Hbond.Weighted>
-10.0941

> <Gold.Chemscore.Metal.Weighted>
-0.0000

> <Gold.Chemscore.Lipo.Weighted>
-5.6116

> <Gold.Chemscore.Internal_Hbond.Weighted>
0.0000

> <Gold.Chemscore.DEClash.Weighted>
0.1187

> <Gold.Chemscore.DEInternal.Weighted>
0.4499

> <Gold.Chemscore.Rot.Weighted>
4.9771

> <Gold.Chemscore.Internal.Correction.Weighted>
   9.000000E+99

> <Gold.Protein.RotatedTorsions>
[ 6907 6896 6895 6894 ] final -126.78 input  -60.11 | X-H torsion
[ 7974 7965 7964 7962 ] final  124.00 input  175.53 | X-H torsion
[ 8008 7997 7996 7995 ] final   63.43 input   59.86 | X-H torsion
[ 10167 10162 10161 10158 ] final -114.07 input  -65.29 | X-H torsion
[ 10718 10713 10712 10709 ] final   28.11 input   66.30 | X-H torsion
[ 10763 10752 10751 10750 ] final   31.22 input  -60.55 | X-H torsion
[ 11005 11000 10999 10996 ] final   84.70 input  -57.11 | X-H torsion

> <Gold.Protein.ActiveResidues>
 VAL166  LYS551  ARG553  GLY616  TRP617  ASP618  TYR619  PRO620  LYS621  CYS622 
 ASP623  PHE694  ASN695  SER759  ASP760  ASP761  ALA762  ILE779  LEU786  VAL792 
 PHE793  MET794  SER795  GLU796  ALA797  LYS798  CYS799  TRP800  GLU811  SER814 

> <Gold.Protein.RotatedAtoms>
  150.9005  133.7125  159.2880 H   0  0  0  0  0  0  0  0  0  0  0  0  # atno 6907 bound_to 6896
  151.4645  135.1039  159.9744 H   0  0  0  0  0  0  0  0  0  0  0  0  # atno 6908 bound_to 6896
  152.4874  133.8360  159.7183 H   0  0  0  0  0  0  0  0  0  0  0  0  # atno 6909 bound_to 6896
  145.0894  139.3598  143.4868 H   0  0  0  0  0  0  0  0  0  0  0  0  # atno 7974 bound_to 7965
  155.6301  140.3496  155.4680 H   0  0  0  0  0  0  0  0  0  0  0  0  # atno 8008 bound_to 7997
  156.0010  140.1213  157.0571 H   0  0  0  0  0  0  0  0  0  0  0  0  # atno 8009 bound_to 7997
  154.4249  140.1100  156.5683 H   0  0  0  0  0  0  0  0  0  0  0  0  # atno 8010 bound_to 7997
  140.1050  143.4579  152.1788 H   0  0  0  0  0  0  0  0  0  0  0  0  # atno 10167 bound_to 10162
  157.2291  130.7015  149.6305 H   0  0  0  0  0  0  0  0  0  0  0  0  # atno 10718 bound_to 10713
  153.0328  135.6444  154.1165 H   0  0  0  0  0  0  0  0  0  0  0  0  # atno 10763 bound_to 10752
  154.0885  135.2868  155.3278 H   0  0  0  0  0  0  0  0  0  0  0  0  # atno 10764 bound_to 10752
  154.6481  135.5436  153.7932 H   0  0  0  0  0  0  0  0  0  0  0  0  # atno 10765 bound_to 10752
  139.8993  134.8235  156.2481 H   0  0  0  0  0  0  0  0  0  0  0  0  # atno 11005 bound_to 11000
  146.3531  140.0721  142.8622 LP  0  0  0  0  0  0  0  0  0  0  0  0  # atno 17320 bound_to 7965
  145.1084  140.9390  143.4671 LP  0  0  0  0  0  0  0  0  0  0  0  0  # atno 17321 bound_to 7965
  139.5650  144.7430  151.4047 LP  0  0  0  0  0  0  0  0  0  0  0  0  # atno 17342 bound_to 10162
  140.6957  143.7754  150.7323 LP  0  0  0  0  0  0  0  0  0  0  0  0  # atno 17343 bound_to 10162
  155.9676  130.4495  150.5660 LP  0  0  0  0  0  0  0  0  0  0  0  0  # atno 17370 bound_to 10713
  157.3497  131.0731  151.1723 LP  0  0  0  0  0  0  0  0  0  0  0  0  # atno 17371 bound_to 10713
  141.0242  133.7024  156.1319 LP  0  0  0  0  0  0  0  0  0  0  0  0  # atno 17394 bound_to 11000
  140.7190  134.4378  157.5576 LP  0  0  0  0  0  0  0  0  0  0  0  0  # atno 17395 bound_to 11000

$$$$
