AV-unprocessed.smi:37|AV-procd|sdf|324|dock4
  -GOLD-   2262016143D 1   1.00000     0.00000
 Structure written by MMmdl.
 43 44  0  0  0  0  0  0  0  0  2 V2000
  146.1732  133.4758  150.7142 C   0  0  0  0  0  0  0  0  0  0  0  0
  146.5276  132.2309  151.5410 C   0  0  0  0  0  0  0  0  0  0  0  0
  146.8530  132.5381  153.0045 C   0  0  0  0  0  0  0  0  0  0  0  0
  147.1744  131.6611  153.8087 O   0  0  0  0  0  0  0  0  0  0  0  0
  146.7417  133.8463  153.2777 O   0  0  0  0  0  0  0  0  0  0  0  0
  146.9789  134.3103  154.5960 C   0  0  0  0  0  0  0  0  0  0  0  0
  148.3506  133.8111  155.0727 C   0  0  1  0  0  0  0  0  0  0  0  0
  149.4133  134.3732  154.3023 O   0  0  0  0  0  0  0  0  0  0  0  0
  150.5273  134.6364  155.1086 C   0  0  1  0  0  0  0  0  0  0  0  0
  150.7700  136.1337  155.1603 N   0  0  0  0  0  0  0  0  0  0  0  0
  149.9303  137.0286  154.5154 C   0  0  0  0  0  0  0  0  0  0  0  0
  150.1379  138.3590  154.5845 C   0  0  0  0  0  0  0  0  0  0  0  0
  149.2982  139.2006  153.9572 F   0  0  0  0  0  0  0  0  0  0  0  0
  151.2734  138.8750  155.3458 C   0  0  0  0  0  0  0  0  0  0  0  0
  151.4555  140.0898  155.4088 O   0  0  0  0  0  0  0  0  0  0  0  0
  152.0915  137.9726  155.9603 N   0  5  0  0  0  0  0  0  0  0  0  0
  151.8836  136.6250  155.8955 C   0  0  0  0  0  0  0  0  0  0  0  0
  152.6143  135.8041  156.4503 O   0  0  0  0  0  0  0  0  0  0  0  0
  150.2048  134.0982  156.5111 C   0  0  2  0  0  0  0  0  0  0  0  0
  150.8215  132.2092  156.6553 Br  0  0  0  0  0  0  0  0  0  0  0  0
  148.6863  134.1369  156.5321 C   0  0  1  0  0  0  0  0  0  0  0  0
  148.2295  135.4445  156.8611 O   0  0  0  0  0  0  0  0  0  0  0  0
  148.6131  136.0455  157.9994 C   0  0  0  0  0  0  0  0  0  0  0  0
  149.3241  135.5503  158.8736 O   0  0  0  0  0  0  0  0  0  0  0  0
  148.0998  137.4804  158.1060 C   0  0  0  0  0  0  0  0  0  0  0  0
  149.2352  138.5127  158.1534 C   0  0  0  0  0  0  0  0  0  0  0  0
  145.9558  133.2005  149.6821 H   0  0  0  0  0  0  0  0  0  0  0  0
  146.9958  134.1917  150.6977 H   0  0  0  0  0  0  0  0  0  0  0  0
  145.2928  133.9807  151.1132 H   0  0  0  0  0  0  0  0  0  0  0  0
  145.6989  131.5231  151.5118 H   0  0  0  0  0  0  0  0  0  0  0  0
  147.3868  131.7285  151.0960 H   0  0  0  0  0  0  0  0  0  0  0  0
  146.9265  135.3990  154.6328 H   0  0  0  0  0  0  0  0  0  0  0  0
  146.1992  133.9219  155.2528 H   0  0  0  0  0  0  0  0  0  0  0  0
  148.3999  132.7281  154.9518 H   0  0  0  0  0  0  0  0  0  0  0  0
  151.4307  134.2167  154.6634 H   0  0  0  0  0  0  0  0  0  0  0  0
  149.0822  136.6743  153.9506 H   0  0  0  0  0  0  0  0  0  0  0  0
  150.6836  134.6678  157.3081 H   0  0  0  0  0  0  0  0  0  0  0  0
  148.2575  133.4019  157.2149 H   0  0  0  0  0  0  0  0  0  0  0  0
  147.4525  137.6844  157.2527 H   0  0  0  0  0  0  0  0  0  0  0  0
  147.4809  137.5654  158.9999 H   0  0  0  0  0  0  0  0  0  0  0  0
  148.8315  139.5250  158.1518 H   0  0  0  0  0  0  0  0  0  0  0  0
  149.8955  138.4184  157.2906 H   0  0  0  0  0  0  0  0  0  0  0  0
  149.8387  138.4025  159.0555 H   0  0  0  0  0  0  0  0  0  0  0  0
  1  2  1  0  0  0  0
  1 27  1  0  0  0  0
  1 28  1  0  0  0  0
  1 29  1  0  0  0  0
  2  3  1  0  0  0  0
  2 30  1  0  0  0  0
  2 31  1  0  0  0  0
  3  4  2  0  0  0  0
  3  5  1  0  0  0  0
  5  6  1  0  0  0  0
  6  7  1  0  0  0  0
  6 32  1  0  0  0  0
  6 33  1  0  0  0  0
  7 21  1  0  0  0  0
  7  8  1  0  0  0  0
  7 34  1  0  0  0  0
  8  9  1  0  0  0  0
  9 10  1  0  0  0  0
  9 19  1  0  0  0  0
  9 35  1  0  0  0  0
 10 17  1  0  0  0  0
 10 11  1  0  0  0  0
 11 12  2  0  0  0  0
 11 36  1  0  0  0  0
 12 13  1  0  0  0  0
 12 14  1  0  0  0  0
 14 15  2  0  0  0  0
 14 16  1  0  0  0  0
 16 17  1  0  0  0  0
 17 18  2  0  0  0  0
 19 20  1  0  0  0  0
 19 21  1  0  0  0  0
 19 37  1  0  0  0  0
 21 22  1  0  0  0  0
 21 38  1  0  0  0  0
 22 23  1  0  0  0  0
 23 24  2  0  0  0  0
 23 25  1  0  0  0  0
 25 26  1  0  0  0  0
 25 39  1  0  0  0  0
 25 40  1  0  0  0  0
 26 41  1  0  0  0  0
 26 42  1  0  0  0  0
 26 43  1  0  0  0  0
M  CHG  1  16  -1
M  END
> <s_m_source_file>
AV-unprocessed.smi

> <i_m_source_file_index>
37

> <i_lp_mmshare_version>
43012

> <i_f3d_flags>
0

> <s_epik_input>
W0NIM11bQ0gyXUMoPU8pT1tDSDJdW0NAQEhdMU9bQ0BASF0objJbY0hdYyhGKWMoPU8pW25IXWMyPU8pW0NAQEhdKEJyKVtDQEhdMU9DKD1PKVtDSDJdW0NIM10=

> <s_epik_cmdline>
J2VwaWtfcHl0aG9uJywgJy1waCcsICc3LjAnLCAnLXRuJywgJzgnLCAnLW1hJywgJzIwMCcsICctbWV0YWxfYmluZGluZycsICctaW1hZScsICc8aW5maWxlLm1hZT4nLCAnLW9tYWUnLCAnPG91dGZpbGUubWFlPic=

> <r_epik_Ionization_Penalty>
1.08158

> <r_epik_Ionization_Penalty_Charging>
9.05154e-09

> <r_epik_Ionization_Penalty_Neutral>
1.08158

> <r_epik_State_Penalty>
1.13706

> <r_epik_Charging_Adjusted_Penalty>
1.13706

> <i_epik_Tot_Q>
-1

> <i_epik_Tot_abs_Q>
1

> <r_epik_Metal_State_Penalty>
0.00343535

> <b_epik_Metal_Only>
0

> <s_epik_Chemistry_Notes>
This compound has an ester and may undergo hydrolysis at high or low pH. This compound contains an acetal/aminal-like group ( X-CH(R)-Y where X, Y are N, S, or O) that may be acid/base labile, releasing an aldehyde.

> <s_lp_Force_Field>
OPLS_2005

> <r_lp_Energy>
30.833

> <b_lp_Chiralities_Consistent>
1

> <s_lp_Variant>
AV-unprocessed.smi:37-22

> <Gold.Version>
5.8.1

> <Gold.Id.Protein>
6NUR|6NUR_protein|mol2

> <Gold.PLP.Fitness>
37.0186

> <Gold.PLP.PLP>
-25.4339

> <Gold.PLP.part.hbond>
-3.0000

> <Gold.PLP.part.metal>
0.0000

> <Gold.PLP.part.buried>
-0.7044

> <Gold.PLP.part.nonpolar>
-23.6812

> <Gold.PLP.part.repulsive>
0.7414

> <Gold.PLP.ligand.clash>
0.0000

> <Gold.PLP.ligand.torsion>
0.1095

> <Gold.PLP.Chemscore.Hbond>
2.8960

> <Gold.PLP.Chemscore.CHOScore>
1.0000

> <Gold.PLP.Chemscore.Metal>
0.0000

> <Gold.Chemscore.Hbonds>
donor molecule, donor type, donor heavy atom, donor atom, acceptor molecule, acceptor atom, score
      P1  H  6896  6908       L1    24  1.00
      P1  H  7989  7998       L1    15  0.91
      P1  H 10752 10764       L1    18  0.99
      L1  C    11    36       P1  7948  0.95

> <Gold.PLP.Chemscore.Internal.Correction>
0.1157

> <Gold.Rescore>
     Score         DG    S(hbond)    S(metal)    S(lipo)     H(rot)  DE(clash)    DE(int)     intcor
      6.70     -11.02       2.62        0.00      44.03       3.27       0.46       3.86       ----

> <Gold.Chemscore.Fitness>
6.6974

> <Gold.Chemscore.DG>
-11.0225

> <Gold.Chemscore.ZeroCoef>
-5.4800

> <Gold.Chemscore.Hbond>
2.6210

> <Gold.Chemscore.Metal>
0.0000

> <Gold.Chemscore.Lipo>
44.0311

> <Gold.Chemscore.Internal_Hbond>
0.0000

> <Gold.Chemscore.DEClash>
0.4625

> <Gold.Chemscore.DEInternal>
3.8625

> <Gold.Chemscore.Rot>
3.2669

> <Gold.Chemscore.Internal.Correction>
   9.000000E+99

> <Gold.Chemscore.Hbonds>
donor molecule, donor type, donor heavy atom, donor atom, acceptor molecule, acceptor atom, score
      P1  H  6896  6908       L1    24  1.00
      P1  H  7989  7998       L1    15  0.63
      P1  H 10752 10764       L1    18  0.40

> <Gold.Chemscore.Hbond.Weighted>
-8.7542

> <Gold.Chemscore.Metal.Weighted>
-0.0000

> <Gold.Chemscore.Lipo.Weighted>
-5.1516

> <Gold.Chemscore.Internal_Hbond.Weighted>
0.0000

> <Gold.Chemscore.DEClash.Weighted>
0.4625

> <Gold.Chemscore.DEInternal.Weighted>
3.8625

> <Gold.Chemscore.Rot.Weighted>
8.3634

> <Gold.Chemscore.Internal.Correction.Weighted>
   9.000000E+99

> <Gold.Protein.RotatedTorsions>
[ 6907 6896 6895 6894 ] final  164.99 input  -60.11 | X-H torsion
[ 7974 7965 7964 7962 ] final   40.95 input  175.53 | X-H torsion
[ 8008 7997 7996 7995 ] final  107.97 input   59.86 | X-H torsion
[ 10167 10162 10161 10158 ] final  -62.11 input  -65.29 | X-H torsion
[ 10718 10713 10712 10709 ] final  -76.28 input   66.30 | X-H torsion
[ 10763 10752 10751 10750 ] final    2.96 input  -60.55 | X-H torsion
[ 11005 11000 10999 10996 ] final  -92.69 input  -57.11 | X-H torsion

> <Gold.Protein.ActiveResidues>
 VAL166  LYS551  ARG553  GLY616  TRP617  ASP618  TYR619  PRO620  LYS621  CYS622 
 ASP623  PHE694  ASN695  SER759  ASP760  ASP761  ALA762  ILE779  LEU786  VAL792 
 PHE793  MET794  SER795  GLU796  ALA797  LYS798  CYS799  TRP800  GLU811  SER814 

> <Gold.Protein.RotatedAtoms>
  151.9013  133.3539  159.3831 H   0  0  0  0  0  0  0  0  0  0  0  0  # atno 6907 bound_to 6896
  150.7079  134.4825  159.5486 H   0  0  0  0  0  0  0  0  0  0  0  0  # atno 6908 bound_to 6896
  152.2414  134.8225  160.0510 H   0  0  0  0  0  0  0  0  0  0  0  0  # atno 6909 bound_to 6896
  146.0863  139.5473  142.9504 H   0  0  0  0  0  0  0  0  0  0  0  0  # atno 7974 bound_to 7965
  156.1867  140.3085  155.9251 H   0  0  0  0  0  0  0  0  0  0  0  0  # atno 8008 bound_to 7997
  155.3266  140.0458  157.3058 H   0  0  0  0  0  0  0  0  0  0  0  0  # atno 8009 bound_to 7997
  154.5403  140.2259  155.8661 H   0  0  0  0  0  0  0  0  0  0  0  0  # atno 8010 bound_to 7997
  140.5961  143.2351  151.6033 H   0  0  0  0  0  0  0  0  0  0  0  0  # atno 10167 bound_to 10162
  156.0180  130.4461  150.3170 H   0  0  0  0  0  0  0  0  0  0  0  0  # atno 10718 bound_to 10713
  153.2892  135.6947  153.7310 H   0  0  0  0  0  0  0  0  0  0  0  0  # atno 10763 bound_to 10752
  153.6267  135.3417  155.3029 H   0  0  0  0  0  0  0  0  0  0  0  0  # atno 10764 bound_to 10752
  154.8519  135.4399  154.1969 H   0  0  0  0  0  0  0  0  0  0  0  0  # atno 10765 bound_to 10752
  141.1516  133.7838  157.0055 H   0  0  0  0  0  0  0  0  0  0  0  0  # atno 11005 bound_to 11000
  145.6123  141.0337  143.1960 LP  0  0  0  0  0  0  0  0  0  0  0  0  # atno 17320 bound_to 7965
  144.7328  139.7674  143.7340 LP  0  0  0  0  0  0  0  0  0  0  0  0  # atno 17321 bound_to 7965
  139.5259  144.3061  152.1033 LP  0  0  0  0  0  0  0  0  0  0  0  0  # atno 17342 bound_to 10162
  140.2233  144.4443  150.6332 LP  0  0  0  0  0  0  0  0  0  0  0  0  # atno 17343 bound_to 10162
  157.1271  131.0262  151.2985 LP  0  0  0  0  0  0  0  0  0  0  0  0  # atno 17370 bound_to 10713
  157.4581  130.7637  149.7211 LP  0  0  0  0  0  0  0  0  0  0  0  0  # atno 17371 bound_to 10713
  140.0912  134.9591  157.1778 LP  0  0  0  0  0  0  0  0  0  0  0  0  # atno 17394 bound_to 11000
  140.3444  134.2668  155.7207 LP  0  0  0  0  0  0  0  0  0  0  0  0  # atno 17395 bound_to 11000

$$$$
