#       Name:                AV-unprocessed.smi:1025
#       Creating user name   scv26
#       Creation time:       Fri Mar 27 02:44:16 2020


#       File generated by GOLD software.
#

@<TRIPOS>MOLECULE
AV-unprocessed.smi:1025
    57    58     1
SMALL
NO_CHARGES


@<TRIPOS>ATOM
      1 ****        -5.5403  -6.1759  -0.7034 C.3            1 S1                 0.0000
      2 ****        -5.6244  -4.7311  -0.5549 N.am           1 S1                 0.0000
      3 ****        -4.5746  -3.9324  -0.3124 C.2            1 S1                 0.0000
      4 ****        -3.4268  -4.3608  -0.1934 O.2            1 S1                 0.0000
      5 ****        -4.8770  -2.4269  -0.1869 C.3            1 S1                 0.0000
      6 ****        -4.2017  -1.5892  -1.2976 C.3            1 S1                 0.0000
      7 ****        -2.6960  -1.3597  -1.0697 C.3            1 S1                 0.0000
      8 ****        -2.4227  -0.7531   0.3202 C.3            1 S1                 0.0000
      9 ****        -0.9879  -0.6021   0.5421 N.am           1 S1                 0.0000
     10 ****        -0.2462   0.4381   0.1366 C.2            1 S1                 0.0000
     11 ****        -0.7040   1.3955  -0.4858 O.2            1 S1                 0.0000
     12 ****         1.0366   0.2896   0.5084 N.am           1 S1                 0.0000
     13 ****         2.1318   1.1730   0.3082 C.ar           1 S1                 0.0000
     14 ****         2.1336   2.3056  -0.5414 C.ar           1 S1                 0.0000
     15 ****         3.2239   3.0912  -0.6714 N.ar           1 S1                 0.0000
     16 ****         4.3286   2.7469   0.0031 C.ar           1 S1                 0.0000
     17 ****         5.5082   3.7347  -0.0277 C.3            1 S1                 0.0000
     18 ****         6.8551   2.9983   0.1619 C.3            1 S1                 0.0000
     19 ****         5.3297   4.7805   1.0883 C.3            1 S1                 0.0000
     20 ****         5.6011   4.4509  -1.3957 C.3            1 S1                 0.0000
     21 ****         4.4193   1.7162   0.8536 N.ar           1 S1                 0.0000
     22 ****         3.3375   0.9218   0.9927 C.ar           1 S1                 0.0000
     23 ****        -3.0262  -1.6313   1.4303 C.3            1 S1                 0.0000
     24 ****        -4.5331  -1.8623   1.2114 C.3            1 S1                 0.0000
     25 ****        -6.5301  -6.5871  -0.9015 H              1 S1                 0.0000
     26 ****        -5.1550  -6.6379   0.2065 H              1 S1                 0.0000
     27 ****        -4.8868  -6.4443  -1.5346 H              1 S1                 0.0000
     28 ****        -6.5380  -4.3099  -0.6418 H              1 S1                 0.0000
     29 ****        -5.9549  -2.3152  -0.3167 H              1 S1                 0.0000
     30 ****        -4.3569  -2.0573  -2.2707 H              1 S1                 0.0000
     31 ****        -4.6976  -0.6195  -1.3545 H              1 S1                 0.0000
     32 ****        -2.1518  -2.2978  -1.1810 H              1 S1                 0.0000
     33 ****        -2.3133  -0.6974  -1.8470 H              1 S1                 0.0000
     34 ****        -2.8970   0.2288   0.3743 H              1 S1                 0.0000
     35 ****        -0.5277  -1.3451   1.0473 H              1 S1                 0.0000
     36 ****         1.2466  -0.5408   1.0427 H              1 S1                 0.0000
     37 ****         1.2809   2.6038  -1.1297 H              1 S1                 0.0000
     38 ****         7.6971   3.6882   0.0952 H              1 S1                 0.0000
     39 ****         6.9992   2.2311  -0.6000 H              1 S1                 0.0000
     40 ****         6.9227   2.5136   1.1364 H              1 S1                 0.0000
     41 ****         5.2938   4.3087   2.0708 H              1 S1                 0.0000
     42 ****         4.4038   5.3423   0.9599 H              1 S1                 0.0000
     43 ****         6.1512   5.4974   1.0979 H              1 S1                 0.0000
     44 ****         6.4621   5.1187  -1.4369 H              1 S1                 0.0000
     45 ****         4.7207   5.0620  -1.5979 H              1 S1                 0.0000
     46 ****         5.7023   3.7353  -2.2126 H              1 S1                 0.0000
     47 ****         3.4344   0.0840   1.6676 H              1 S1                 0.0000
     48 ****        -2.5036  -2.5869   1.4767 H              1 S1                 0.0000
     49 ****        -2.8718  -1.1579   2.4008 H              1 S1                 0.0000
     50 ****        -5.0552  -0.9137   1.3436 H              1 S1                 0.0000
     51 ****        -4.9187  -2.5219   1.9900 H              1 S1                 0.0000
     52 ****        -3.2478  -5.3410  -0.2774 LP             1 S1                 0.0000
     53 ****        -2.6734  -3.7286  -0.0128 LP             1 S1                 0.0000
     54 ****        -1.6772   1.4243  -0.7141 LP             1 S1                 0.0000
     55 ****        -0.1030   2.1450  -0.7634 LP             1 S1                 0.0000
     56 ****         3.2072   3.9045  -1.2530 LP             1 S1                 0.0000
     57 ****         5.2592   1.5416   1.3674 LP             1 S1                 0.0000
@<TRIPOS>BOND
    1    1    2 1     
    2    1   25 1     
    3    1   26 1     
    4    1   27 1     
    5    2    3 am    
    6    2   28 1     
    7    3    4 2     
    8    3    5 1     
    9    5   24 1     
   10    5    6 1     
   11    5   29 1     
   12    6    7 1     
   13    6   30 1     
   14    6   31 1     
   15    7    8 1     
   16    7   32 1     
   17    7   33 1     
   18    8    9 1     
   19    8   23 1     
   20    8   34 1     
   21    9   10 am    
   22    9   35 1     
   23   10   11 2     
   24   10   12 am    
   25   12   13 1     
   26   12   36 1     
   27   13   22 ar    
   28   13   14 ar    
   29   14   15 ar    
   30   14   37 1     
   31   15   16 ar    
   32   16   17 1     
   33   16   21 ar    
   34   17   18 1     
   35   17   19 1     
   36   17   20 1     
   37   18   38 1     
   38   18   39 1     
   39   18   40 1     
   40   19   41 1     
   41   19   42 1     
   42   19   43 1     
   43   20   44 1     
   44   20   45 1     
   45   20   46 1     
   46   21   22 ar    
   47   22   47 1     
   48   23   24 1     
   49   23   48 1     
   50   23   49 1     
   51   24   50 1     
   52   24   51 1     
   53    4   52 1     
   54    4   53 1     
   55   11   54 1     
   56   11   55 1     
   57   15   56 1     
   58   21   57 1     
@<TRIPOS>SUBSTRUCTURE
      1 S1             1
@<TRIPOS>SET
LONE_PAIRS      STATIC     ATOMS    <user>   **** ""
6 52 53 54 55 56 57
DONOR_HYDROGENS      STATIC     ATOMS    <user>   **** ""
3 28 35 36
ATOM$BLUE        STATIC     ATOMS    COLORGROUP SYSTEM
6 52 53 54 55 56 57
ATOM$RED        STATIC     ATOMS    COLORGROUP SYSTEM
3 28 35 36
