AV-unprocessed.smi:1701|AV-procd|sdf|6844|dock8
  -GOLD-   22720 8 23D 1   1.00000     0.00000
 Structure written by MMmdl.
 54 56  0  0  0  0  0  0  0  0  4 V2000
  153.1594  142.4358  161.7106 C   0  0  0  0  0  0  0  0  0  0  0  0
  152.2015  143.2859  160.8627 C   0  0  0  0  0  0  0  0  0  0  0  0
  152.5138  143.2351  159.4342 N   0  0  0  0  0  0  0  0  0  0  0  0
  152.4774  144.5023  158.6995 C   0  0  0  0  0  0  0  0  0  0  0  0
  151.1730  145.2837  158.9221 C   0  0  0  0  0  0  0  0  0  0  0  0
  152.1799  142.0390  158.7538 C   0  0  0  0  0  0  0  0  0  0  0  0
  152.4040  140.7547  159.3077 C   0  0  0  0  0  0  0  0  0  0  0  0
  152.0397  139.6017  158.5830 C   0  0  0  0  0  0  0  0  0  0  0  0
  151.4423  139.7315  157.3132 C   0  0  0  0  0  0  0  0  0  0  0  0
  151.1103  138.5422  156.6105 N   0  0  0  0  0  0  0  0  0  0  0  0
  150.9701  138.3442  155.2762 C   0  0  0  0  0  0  0  0  0  0  0  0
  151.0930  139.3016  154.5145 O   0  0  0  0  0  0  0  0  0  0  0  0
  150.6683  137.0969  154.8022 N   0  5  0  0  0  0  0  0  0  0  0  0
  150.3823  135.8610  155.5527 C   0  0  1  0  0  0  0  0  0  0  0  0
  148.9365  135.8926  156.0845 C   0  0  0  0  0  0  0  0  0  0  0  0
  148.0790  135.1844  155.0211 C   0  0  0  0  0  0  0  0  0  0  0  0
  149.0210  134.7388  153.9732 N   0  3  2  0  0  0  0  0  0  0  0  0
  148.6054  133.5747  153.1497 C   0  0  0  0  0  0  0  0  0  0  0  0
  148.8348  132.2324  153.8641 C   0  0  0  0  0  0  0  0  0  0  0  0
  150.2832  132.1203  154.3521 C   0  0  0  0  0  0  0  0  0  0  0  0
  150.5983  133.2923  155.2890 C   0  0  0  0  0  0  0  0  0  0  0  0
  150.3677  134.6599  154.5859 C   0  0  2  0  0  0  0  0  0  0  0  0
  151.2550  141.0327  156.7921 C   0  0  0  0  0  0  0  0  0  0  0  0
  151.6203  142.1096  157.5204 N   0  3  0  0  0  0  0  0  0  0  0  0
  152.8770  142.4726  162.7630 H   0  0  0  0  0  0  0  0  0  0  0  0
  154.1861  142.7945  161.6326 H   0  0  0  0  0  0  0  0  0  0  0  0
  153.1440  141.3903  161.4014 H   0  0  0  0  0  0  0  0  0  0  0  0
  151.1839  142.9211  161.0044 H   0  0  0  0  0  0  0  0  0  0  0  0
  152.1861  144.3113  161.2278 H   0  0  0  0  0  0  0  0  0  0  0  0
  153.3373  145.1157  158.9712 H   0  0  0  0  0  0  0  0  0  0  0  0
  152.5842  144.3019  157.6329 H   0  0  0  0  0  0  0  0  0  0  0  0
  151.1705  146.2010  158.3330 H   0  0  0  0  0  0  0  0  0  0  0  0
  151.0328  145.5656  159.9653 H   0  0  0  0  0  0  0  0  0  0  0  0
  150.3078  144.6943  158.6168 H   0  0  0  0  0  0  0  0  0  0  0  0
  152.8655  140.6305  160.2752 H   0  0  0  0  0  0  0  0  0  0  0  0
  152.2162  138.6232  159.0054 H   0  0  0  0  0  0  0  0  0  0  0  0
  150.8983  137.7429  157.1894 H   0  0  0  0  0  0  0  0  0  0  0  0
  151.0946  135.6991  156.3628 H   0  0  0  0  0  0  0  0  0  0  0  0
  148.8796  135.3376  157.0214 H   0  0  0  0  0  0  0  0  0  0  0  0
  148.5801  136.9021  156.2950 H   0  0  0  0  0  0  0  0  0  0  0  0
  147.5534  134.3371  155.4640 H   0  0  0  0  0  0  0  0  0  0  0  0
  147.3319  135.8506  154.5883 H   0  0  0  0  0  0  0  0  0  0  0  0
  147.5614  133.6844  152.8546 H   0  0  0  0  0  0  0  0  0  0  0  0
  149.1910  133.5939  152.2299 H   0  0  0  0  0  0  0  0  0  0  0  0
  148.1520  132.1355  154.7090 H   0  0  0  0  0  0  0  0  0  0  0  0
  148.6048  131.4089  153.1874 H   0  0  0  0  0  0  0  0  0  0  0  0
  150.4329  131.1732  154.8715 H   0  0  0  0  0  0  0  0  0  0  0  0
  150.9669  132.1251  153.5023 H   0  0  0  0  0  0  0  0  0  0  0  0
  149.9754  133.1839  156.1802 H   0  0  0  0  0  0  0  0  0  0  0  0
  151.6320  133.2125  155.6304 H   0  0  0  0  0  0  0  0  0  0  0  0
  151.1217  134.7726  153.8044 H   0  0  0  0  0  0  0  0  0  0  0  0
  150.8408  141.2579  155.8208 H   0  0  0  0  0  0  0  0  0  0  0  0
  149.0795  135.5270  153.3436 H   0  0  0  0  0  0  0  0  0  0  0  0
  151.4669  143.0325  157.1146 H   0  0  0  0  0  0  0  0  0  0  0  0
  1  2  1  0  0  0  0
  1 25  1  0  0  0  0
  1 26  1  0  0  0  0
  1 27  1  0  0  0  0
  2  3  1  0  0  0  0
  2 28  1  0  0  0  0
  2 29  1  0  0  0  0
  3  4  1  0  0  0  0
  3  6  1  0  0  0  0
  4  5  1  0  0  0  0
  4 30  1  0  0  0  0
  4 31  1  0  0  0  0
  5 32  1  0  0  0  0
  5 33  1  0  0  0  0
  5 34  1  0  0  0  0
  6 24  1  0  0  0  0
  6  7  2  0  0  0  0
  7  8  1  0  0  0  0
  7 35  1  0  0  0  0
  8  9  2  0  0  0  0
  8 36  1  0  0  0  0
  9 10  1  0  0  0  0
  9 23  1  0  0  0  0
 10 11  1  0  0  0  0
 10 37  1  0  0  0  0
 11 12  2  0  0  0  0
 11 13  1  0  0  0  0
 13 14  1  0  0  0  0
 14 22  1  0  0  0  0
 14 15  1  0  0  0  0
 14 38  1  0  0  0  0
 15 16  1  0  0  0  0
 15 39  1  0  0  0  0
 15 40  1  0  0  0  0
 16 17  1  0  0  0  0
 16 41  1  0  0  0  0
 16 42  1  0  0  0  0
 17 22  1  0  0  0  0
 17 18  1  0  0  0  0
 17 53  1  0  0  0  0
 18 19  1  0  0  0  0
 18 43  1  0  0  0  0
 18 44  1  0  0  0  0
 19 20  1  0  0  0  0
 19 45  1  0  0  0  0
 19 46  1  0  0  0  0
 20 21  1  0  0  0  0
 20 47  1  0  0  0  0
 20 48  1  0  0  0  0
 21 22  1  0  0  0  0
 21 49  1  0  0  0  0
 21 50  1  0  0  0  0
 22 51  1  0  0  0  0
 23 24  2  0  0  0  0
 23 52  1  0  0  0  0
 24 54  1  0  0  0  0
M  CHG  1  13  -1
M  CHG  1  17   1
M  CHG  1  24   1
M  END
> <s_m_source_file>
AV-unprocessed.smi

> <i_m_source_file_index>
1701

> <i_lp_mmshare_version>
43012

> <i_f3d_flags>
0

> <s_epik_input>
W0NIM11bQ0gyXU4oW0NIMl1bQ0gzXSljMVtjSF1bY0hdYyhbY0hdbjEpW05IXUMoPU8pW05IXVtDQEhdKFtDSDJdW0NIMl0yKVtDQEBIXShOMjMpW0NIMl1bQ0gyXVtDSDJdW0NIMl0z

> <s_epik_cmdline>
J2VwaWtfcHl0aG9uJywgJy1waCcsICc3LjAnLCAnLXRuJywgJzgnLCAnLW1hJywgJzIwMCcsICctbWV0YWxfYmluZGluZycsICctaW1hZScsICc8aW5maWxlLm1hZT4nLCAnLW9tYWUnLCAnPG91dGZpbGUubWFlPic=

> <r_lp_tautomer_probability>
0.999994

> <r_epik_Ionization_Penalty>
7.37095

> <r_epik_Ionization_Penalty_Charging>
7.37095

> <r_epik_Ionization_Penalty_Neutral>
3.78969e-06

> <r_epik_State_Penalty>
6.83842

> <r_epik_Charging_Adjusted_Penalty>
14.2094

> <i_epik_Tot_Q>
1

> <i_epik_Tot_abs_Q>
3

> <r_epik_Metal_State_Penalty>
2.78552

> <b_epik_Metal_Only>
1

> <s_lp_Force_Field>
OPLS_2005

> <r_lp_Energy>
52.2686

> <b_lp_Chiralities_Consistent>
1

> <s_lp_Variant>
AV-unprocessed.smi:1701-24

> <Gold.Version>
5.8.1

> <Gold.Id.Protein>
6NUR|6NUR_protein|mol2

> <Gold.PLP.Fitness>
54.5715

> <Gold.PLP.PLP>
-46.7077

> <Gold.PLP.part.hbond>
-1.9801

> <Gold.PLP.part.metal>
0.0000

> <Gold.PLP.part.buried>
-3.8632

> <Gold.PLP.part.nonpolar>
-39.8119

> <Gold.PLP.part.repulsive>
0.3426

> <Gold.PLP.ligand.clash>
0.0000

> <Gold.PLP.ligand.torsion>
1.0550

> <Gold.PLP.Chemscore.Hbond>
2.9913

> <Gold.PLP.Chemscore.CHOScore>
0.0000

> <Gold.PLP.Chemscore.Metal>
0.0000

> <Gold.Chemscore.Hbonds>
donor molecule, donor type, donor heavy atom, donor atom, acceptor molecule, acceptor atom, score
      L1  H    17    53       P1  7948  2.00
      P1  H  7989  7998       L1    12  1.00

> <Gold.PLP.Chemscore.Internal.Correction>
1.0000

> <Gold.Rescore>
     Score         DG    S(hbond)    S(metal)    S(lipo)     H(rot)  DE(clash)    DE(int)     intcor
     17.81     -21.37       1.89        0.00     109.95       1.28       0.27       3.29       ----

> <Gold.Chemscore.Fitness>
17.8084

> <Gold.Chemscore.DG>
-21.3687

> <Gold.Chemscore.ZeroCoef>
-5.4800

> <Gold.Chemscore.Hbond>
1.8896

> <Gold.Chemscore.Metal>
0.0000

> <Gold.Chemscore.Lipo>
109.9489

> <Gold.Chemscore.Internal_Hbond>
0.0000

> <Gold.Chemscore.DEClash>
0.2704

> <Gold.Chemscore.DEInternal>
3.2899

> <Gold.Chemscore.Rot>
1.2838

> <Gold.Chemscore.Internal.Correction>
   9.000000E+99

> <Gold.Chemscore.Hbonds>
donor molecule, donor type, donor heavy atom, donor atom, acceptor molecule, acceptor atom, score
      L1  H    17    53       P1  7948  0.57
      P1  H  7989  7998       L1    12  0.99

> <Gold.Chemscore.Hbond.Weighted>
-6.3112

> <Gold.Chemscore.Metal.Weighted>
-0.0000

> <Gold.Chemscore.Lipo.Weighted>
-12.8640

> <Gold.Chemscore.Internal_Hbond.Weighted>
0.0000

> <Gold.Chemscore.DEClash.Weighted>
0.2704

> <Gold.Chemscore.DEInternal.Weighted>
3.2899

> <Gold.Chemscore.Rot.Weighted>
3.2865

> <Gold.Chemscore.Internal.Correction.Weighted>
   9.000000E+99

> <Gold.Protein.RotatedTorsions>
[ 6907 6896 6895 6894 ] final   47.25 input  -60.11 | X-H torsion
[ 7974 7965 7964 7962 ] final   22.42 input  175.53 | X-H torsion
[ 8008 7997 7996 7995 ] final -131.95 input   59.86 | X-H torsion
[ 10167 10162 10161 10158 ] final   -9.24 input  -65.29 | X-H torsion
[ 10718 10713 10712 10709 ] final  103.90 input   66.30 | X-H torsion
[ 10763 10752 10751 10750 ] final   95.58 input  -60.55 | X-H torsion
[ 11005 11000 10999 10996 ] final -149.63 input  -57.11 | X-H torsion

> <Gold.Protein.ActiveResidues>
 VAL166  LYS551  ARG553  GLY616  TRP617  ASP618  TYR619  PRO620  LYS621  CYS622 
 ASP623  PHE694  ASN695  SER759  ASP760  ASP761  ALA762  ILE779  LEU786  VAL792 
 PHE793  MET794  SER795  GLU796  ALA797  LYS798  CYS799  TRP800  GLU811  SER814 

> <Gold.Protein.RotatedAtoms>
  152.2659  134.7984  160.0422 H   0  0  0  0  0  0  0  0  0  0  0  0  # atno 6907 bound_to 6896
  151.8614  133.3453  159.3713 H   0  0  0  0  0  0  0  0  0  0  0  0  # atno 6908 bound_to 6896
  150.7133  134.5130  159.5660 H   0  0  0  0  0  0  0  0  0  0  0  0  # atno 6909 bound_to 6896
  146.2029  139.7887  142.8748 H   0  0  0  0  0  0  0  0  0  0  0  0  # atno 7974 bound_to 7965
  155.3209  140.0462  157.3039 H   0  0  0  0  0  0  0  0  0  0  0  0  # atno 8008 bound_to 7997
  154.5381  140.2279  155.8654 H   0  0  0  0  0  0  0  0  0  0  0  0  # atno 8009 bound_to 7997
  156.1854  140.3064  155.9235 H   0  0  0  0  0  0  0  0  0  0  0  0  # atno 8010 bound_to 7997
  140.7082  143.5879  150.8924 H   0  0  0  0  0  0  0  0  0  0  0  0  # atno 10167 bound_to 10162
  157.6758  131.0790  150.5625 H   0  0  0  0  0  0  0  0  0  0  0  0  # atno 10718 bound_to 10713
  153.2549  135.4249  155.0835 H   0  0  0  0  0  0  0  0  0  0  0  0  # atno 10763 bound_to 10752
  154.8397  135.3435  154.6461 H   0  0  0  0  0  0  0  0  0  0  0  0  # atno 10764 bound_to 10752
  153.6881  135.7035  153.5155 H   0  0  0  0  0  0  0  0  0  0  0  0  # atno 10765 bound_to 10752
  140.7487  134.3431  157.5131 H   0  0  0  0  0  0  0  0  0  0  0  0  # atno 11005 bound_to 11000
  145.3421  141.0290  143.3387 LP  0  0  0  0  0  0  0  0  0  0  0  0  # atno 17320 bound_to 7965
  144.8725  139.5018  143.6761 LP  0  0  0  0  0  0  0  0  0  0  0  0  # atno 17321 bound_to 7965
  139.9605  143.6169  152.3003 LP  0  0  0  0  0  0  0  0  0  0  0  0  # atno 17342 bound_to 10162
  139.6720  144.7660  151.1765 LP  0  0  0  0  0  0  0  0  0  0  0  0  # atno 17343 bound_to 10162
  156.5928  130.4334  149.5929 LP  0  0  0  0  0  0  0  0  0  0  0  0  # atno 17370 bound_to 10713
  156.2569  130.6940  151.1696 LP  0  0  0  0  0  0  0  0  0  0  0  0  # atno 17371 bound_to 10713
  139.8792  134.9128  156.3069 LP  0  0  0  0  0  0  0  0  0  0  0  0  # atno 17394 bound_to 11000
  140.9770  133.7291  156.0617 LP  0  0  0  0  0  0  0  0  0  0  0  0  # atno 17395 bound_to 11000

$$$$
