AV-unprocessed.smi:1827|AV-procd|sdf|7419|dock4
  -GOLD-   22720 9103D 1   1.00000     0.00000
 Structure written by MMmdl.
 43 44  0  0  0  0  0  0  0  0  1 V2000
  140.6121  137.5755  154.1284 C   0  0  0  0  0  0  0  0  0  0  0  0
  141.7066  136.5444  154.1466 C   0  0  0  0  0  0  0  0  0  0  0  0
  141.3777  135.2688  154.3049 N   0  0  0  0  0  0  0  0  0  0  0  0
  142.5467  134.5990  154.2126 N   0  0  0  0  0  0  0  0  0  0  0  0
  143.6330  135.4166  153.9963 C   0  0  0  0  0  0  0  0  0  0  0  0
  145.0195  134.8854  153.8461 C   0  0  0  0  0  0  0  0  0  0  0  0
  143.1201  136.6812  153.9792 C   0  0  0  0  0  0  0  0  0  0  0  0
  143.8854  137.8524  153.7537 N   0  0  0  0  0  0  0  0  0  0  0  0
  145.1228  138.1044  154.2063 C   0  0  0  0  0  0  0  0  0  0  0  0
  145.8060  137.3193  154.8636 O   0  0  0  0  0  0  0  0  0  0  0  0
  145.5404  139.3227  153.8347 N   0  0  0  0  0  0  0  0  0  0  0  0
  146.8375  139.9043  154.1661 C   0  0  0  0  0  0  0  0  0  0  0  0
  147.9856  139.0064  153.6761 C   0  0  0  0  0  0  0  0  0  0  0  0
  149.3481  139.5452  154.1441 C   0  0  0  0  0  0  0  0  0  0  0  0
  149.3918  139.6416  155.6068 N   0  0  0  0  0  0  0  0  0  0  0  0
  150.7553  140.0367  156.0283 C   0  0  0  0  0  0  0  0  0  0  0  0
  151.8801  139.2025  155.4035 C   0  0  0  0  0  0  0  0  0  0  0  0
  151.8191  137.8782  155.5635 N   0  0  0  0  0  0  0  0  0  0  0  0
  152.7888  139.7476  154.7807 O   0  0  0  0  0  0  0  0  0  0  0  0
  148.3599  140.5732  156.0856 C   0  0  0  0  0  0  0  0  0  0  0  0
  146.9579  140.0793  155.6865 C   0  0  0  0  0  0  0  0  0  0  0  0
  142.5854  133.5926  154.2911 H   0  0  0  0  0  0  0  0  0  0  0  0
  140.8550  138.3982  153.4561 H   0  0  0  0  0  0  0  0  0  0  0  0
  140.4483  137.9899  155.1232 H   0  0  0  0  0  0  0  0  0  0  0  0
  139.6674  137.1489  153.7895 H   0  0  0  0  0  0  0  0  0  0  0  0
  145.7079  135.6666  153.5238 H   0  0  0  0  0  0  0  0  0  0  0  0
  145.0499  134.0856  153.1060 H   0  0  0  0  0  0  0  0  0  0  0  0
  145.3840  134.4858  154.7924 H   0  0  0  0  0  0  0  0  0  0  0  0
  143.4866  138.5271  153.1178 H   0  0  0  0  0  0  0  0  0  0  0  0
  144.9124  139.8950  153.2896 H   0  0  0  0  0  0  0  0  0  0  0  0
  146.9228  140.8861  153.6962 H   0  0  0  0  0  0  0  0  0  0  0  0
  147.8503  137.9898  154.0491 H   0  0  0  0  0  0  0  0  0  0  0  0
  147.9740  138.9396  152.5876 H   0  0  0  0  0  0  0  0  0  0  0  0
  150.1304  138.8700  153.7945 H   0  0  0  0  0  0  0  0  0  0  0  0
  149.5450  140.5189  153.6918 H   0  0  0  0  0  0  0  0  0  0  0  0
  150.9353  141.0739  155.7417 H   0  0  0  0  0  0  0  0  0  0  0  0
  150.8286  140.0004  157.1171 H   0  0  0  0  0  0  0  0  0  0  0  0
  152.5378  137.2884  155.1702 H   0  0  0  0  0  0  0  0  0  0  0  0
  151.0520  137.4719  156.0793 H   0  0  0  0  0  0  0  0  0  0  0  0
  148.3883  140.6617  157.1714 H   0  0  0  0  0  0  0  0  0  0  0  0
  148.5389  141.5715  155.6825 H   0  0  0  0  0  0  0  0  0  0  0  0
  146.2054  140.7845  156.0410 H   0  0  0  0  0  0  0  0  0  0  0  0
  146.7542  139.1321  156.1887 H   0  0  0  0  0  0  0  0  0  0  0  0
  1  2  1  0  0  0  0
  1 23  1  0  0  0  0
  1 24  1  0  0  0  0
  1 25  1  0  0  0  0
  2  7  1  0  0  0  0
  2  3  2  0  0  0  0
  3  4  1  0  0  0  0
  4 22  1  0  0  0  0
  4  5  1  0  0  0  0
  5  6  1  0  0  0  0
  5  7  2  0  0  0  0
  6 26  1  0  0  0  0
  6 27  1  0  0  0  0
  6 28  1  0  0  0  0
  7  8  1  0  0  0  0
  8  9  1  0  0  0  0
  8 29  1  0  0  0  0
  9 10  2  0  0  0  0
  9 11  1  0  0  0  0
 11 12  1  0  0  0  0
 11 30  1  0  0  0  0
 12 21  1  0  0  0  0
 12 13  1  0  0  0  0
 12 31  1  0  0  0  0
 13 14  1  0  0  0  0
 13 32  1  0  0  0  0
 13 33  1  0  0  0  0
 14 15  1  0  0  0  0
 14 34  1  0  0  0  0
 14 35  1  0  0  0  0
 15 16  1  0  0  0  0
 15 20  1  0  0  0  0
 16 17  1  0  0  0  0
 16 36  1  0  0  0  0
 16 37  1  0  0  0  0
 17 18  1  0  0  0  0
 17 19  2  0  0  0  0
 18 38  1  0  0  0  0
 18 39  1  0  0  0  0
 20 21  1  0  0  0  0
 20 40  1  0  0  0  0
 20 41  1  0  0  0  0
 21 42  1  0  0  0  0
 21 43  1  0  0  0  0
M  END
> <s_m_source_file>
AV-unprocessed.smi

> <i_m_source_file_index>
1827

> <i_lp_mmshare_version>
43012

> <i_f3d_flags>
0

> <s_epik_input>
W0NIM11jMW5bbkhdYyhbQ0gzXSljMVtOSF1DKD1PKVtOSF1bQ0hdMltDSDJdW0NIMl1OKFtDSDJdW0NIMl0yKVtDSDJdQyg9TylbTkgyXQ==

> <s_epik_cmdline>
J2VwaWtfcHl0aG9uJywgJy1waCcsICc3LjAnLCAnLXRuJywgJzgnLCAnLW1hJywgJzIwMCcsICctbWV0YWxfYmluZGluZycsICctaW1hZScsICc8aW5maWxlLm1hZT4nLCAnLW9tYWUnLCAnPG91dGZpbGUubWFlPic=

> <r_lp_tautomer_probability>
0.5

> <r_epik_Ionization_Penalty>
0.165173

> <r_epik_Ionization_Penalty_Charging>
0

> <r_epik_Ionization_Penalty_Neutral>
0.165173

> <r_epik_State_Penalty>
0.154069

> <r_epik_Charging_Adjusted_Penalty>
0.154069

> <i_epik_Tot_Q>
0

> <i_epik_Tot_abs_Q>
0

> <r_epik_Metal_State_Penalty>
0.171338

> <b_epik_Metal_Only>
0

> <s_lp_Force_Field>
OPLS_2005

> <r_lp_Energy>
14.0389

> <b_lp_Chiralities_Consistent>
1

> <s_lp_Variant>
AV-unprocessed.smi:1827-1

> <Gold.Version>
5.8.1

> <Gold.Id.Protein>
6NUR|6NUR_protein|mol2

> <Gold.PLP.Fitness>
38.6629

> <Gold.PLP.PLP>
-23.5285

> <Gold.PLP.part.hbond>
-6.0755

> <Gold.PLP.part.metal>
0.0000

> <Gold.PLP.part.buried>
-3.2571

> <Gold.PLP.part.nonpolar>
-14.5541

> <Gold.PLP.part.repulsive>
0.3788

> <Gold.PLP.ligand.clash>
0.0000

> <Gold.PLP.ligand.torsion>
0.3383

> <Gold.PLP.Chemscore.Hbond>
5.1719

> <Gold.PLP.Chemscore.CHOScore>
0.0000

> <Gold.PLP.Chemscore.Metal>
0.0000

> <Gold.Chemscore.Hbonds>
donor molecule, donor type, donor heavy atom, donor atom, acceptor molecule, acceptor atom, score
      L1  H     4    22       P1 10957  1.00
      L1  H     8    29       P1 10175  0.88
      L1  H    11    30       P1 10175  1.00
      P1  H  7989  7998       L1    19  0.46
      P1  H  7997  8008       L1    19  0.96
      P1  H 11000 11005       L1     3  0.83

> <Gold.PLP.Chemscore.Internal.Correction>
0.2952

> <Gold.Rescore>
     Score         DG    S(hbond)    S(metal)    S(lipo)     H(rot)  DE(clash)    DE(int)     intcor
     19.00     -20.70       4.59        0.00      41.91       1.96       0.01       1.69       ----

> <Gold.Chemscore.Fitness>
18.9967

> <Gold.Chemscore.DG>
-20.6974

> <Gold.Chemscore.ZeroCoef>
-5.4800

> <Gold.Chemscore.Hbond>
4.5914

> <Gold.Chemscore.Metal>
0.0000

> <Gold.Chemscore.Lipo>
41.9115

> <Gold.Chemscore.Internal_Hbond>
0.0000

> <Gold.Chemscore.DEClash>
0.0130

> <Gold.Chemscore.DEInternal>
1.6877

> <Gold.Chemscore.Rot>
1.9616

> <Gold.Chemscore.Internal.Correction>
   9.000000E+99

> <Gold.Chemscore.Hbonds>
donor molecule, donor type, donor heavy atom, donor atom, acceptor molecule, acceptor atom, score
      L1  H     4    22       P1 10957  1.00
      L1  H     8    29       P1 10175  0.82
      L1  H    11    30       P1 10175  0.98
      P1  H  7989  7998       L1    19  0.11
      P1  H  7997  8008       L1    19  0.86
      P1  H 11000 11005       L1     3  0.28

> <Gold.Chemscore.Hbond.Weighted>
-15.3354

> <Gold.Chemscore.Metal.Weighted>
-0.0000

> <Gold.Chemscore.Lipo.Weighted>
-4.9036

> <Gold.Chemscore.Internal_Hbond.Weighted>
0.0000

> <Gold.Chemscore.DEClash.Weighted>
0.0130

> <Gold.Chemscore.DEInternal.Weighted>
1.6877

> <Gold.Chemscore.Rot.Weighted>
5.0216

> <Gold.Chemscore.Internal.Correction.Weighted>
   9.000000E+99

> <Gold.Protein.RotatedTorsions>
[ 6907 6896 6895 6894 ] final  -19.92 input  -60.11 | X-H torsion
[ 7974 7965 7964 7962 ] final    5.00 input  175.53 | X-H torsion
[ 8008 7997 7996 7995 ] final  -12.45 input   59.86 | X-H torsion
[ 10167 10162 10161 10158 ] final  -37.76 input  -65.29 | X-H torsion
[ 10718 10713 10712 10709 ] final  -15.06 input   66.30 | X-H torsion
[ 10763 10752 10751 10750 ] final  -18.48 input  -60.55 | X-H torsion
[ 11005 11000 10999 10996 ] final   21.57 input  -57.11 | X-H torsion

> <Gold.Protein.ActiveResidues>
 VAL166  LYS551  ARG553  GLY616  TRP617  ASP618  TYR619  PRO620  LYS621  CYS622 
 ASP623  PHE694  ASN695  SER759  ASP760  ASP761  ALA762  ILE779  LEU786  VAL792 
 PHE793  MET794  SER795  GLU796  ALA797  LYS798  CYS799  TRP800  GLU811  SER814 

> <Gold.Protein.RotatedAtoms>
  151.2558  135.0637  159.9079 H   0  0  0  0  0  0  0  0  0  0  0  0  # atno 6907 bound_to 6896
  152.5373  134.0283  159.8023 H   0  0  0  0  0  0  0  0  0  0  0  0  # atno 6908 bound_to 6896
  151.0498  133.5584  159.2674 H   0  0  0  0  0  0  0  0  0  0  0  0  # atno 6909 bound_to 6896
  146.2442  140.0450  142.8379 H   0  0  0  0  0  0  0  0  0  0  0  0  # atno 7974 bound_to 7965
  154.5376  140.2275  155.8696 H   0  0  0  0  0  0  0  0  0  0  0  0  # atno 8008 bound_to 7997
  156.1827  140.3096  155.9141 H   0  0  0  0  0  0  0  0  0  0  0  0  # atno 8009 bound_to 7997
  155.3323  140.0446  157.3033 H   0  0  0  0  0  0  0  0  0  0  0  0  # atno 8010 bound_to 7997
  140.7110  143.3321  151.2546 H   0  0  0  0  0  0  0  0  0  0  0  0  # atno 10167 bound_to 10162
  156.6071  130.4839  149.6216 H   0  0  0  0  0  0  0  0  0  0  0  0  # atno 10718 bound_to 10713
  153.5899  135.7002  153.5427 H   0  0  0  0  0  0  0  0  0  0  0  0  # atno 10763 bound_to 10752
  153.3187  135.4080  155.1398 H   0  0  0  0  0  0  0  0  0  0  0  0  # atno 10764 bound_to 10752
  154.8602  135.3690  154.5431 H   0  0  0  0  0  0  0  0  0  0  0  0  # atno 10765 bound_to 10752
  140.3901  134.1828  155.7662 H   0  0  0  0  0  0  0  0  0  0  0  0  # atno 11005 bound_to 11000
  145.1035  140.9360  143.4699 LP  0  0  0  0  0  0  0  0  0  0  0  0  # atno 17320 bound_to 7965
  145.0648  139.3077  143.5862 LP  0  0  0  0  0  0  0  0  0  0  0  0  # atno 17321 bound_to 7965
  139.6806  143.9861  152.2806 LP  0  0  0  0  0  0  0  0  0  0  0  0  # atno 17342 bound_to 10162
  139.9490  144.6633  150.8191 LP  0  0  0  0  0  0  0  0  0  0  0  0  # atno 17343 bound_to 10162
  156.2421  130.6857  151.1565 LP  0  0  0  0  0  0  0  0  0  0  0  0  # atno 17370 bound_to 10713
  157.7264  131.0646  150.5910 LP  0  0  0  0  0  0  0  0  0  0  0  0  # atno 17371 bound_to 10713
  141.1894  133.8240  157.0960 LP  0  0  0  0  0  0  0  0  0  0  0  0  # atno 17394 bound_to 11000
  140.0413  134.9853  157.0966 LP  0  0  0  0  0  0  0  0  0  0  0  0  # atno 17395 bound_to 11000

$$$$
