AV-unprocessed.smi:3140|AV-procd|sdf|11959|dock9
  -GOLD-   2272017363D 1   1.00000     0.00000
 Structure written by MMmdl.
 38 39  0  0  0  0  0  0  0  0  2 V2000
  144.7068  135.7370  152.2822 C   0  0  0  0  0  0  0  0  0  0  0  0
  144.0185  137.1040  152.3952 C   0  0  1  0  0  0  0  0  0  0  0  0
  143.3683  137.2743  153.7857 C   0  0  0  0  0  0  0  0  0  0  0  0
  141.9171  137.2833  153.7358 N   0  0  0  0  0  0  0  0  0  0  0  0
  141.0835  138.2265  153.1724 C   0  0  0  0  0  0  0  0  0  0  0  0
  139.7999  137.8163  153.3934 C   0  0  0  0  0  0  0  0  0  0  0  0
  139.9520  136.5931  154.1044 C   0  0  0  0  0  0  0  0  0  0  0  0
  141.2209  136.2767  154.3077 N   0  0  0  0  0  0  0  0  0  0  0  0
  145.0063  138.1750  152.1295 N   0  3  0  0  0  0  0  0  0  0  0  0
  146.1824  138.1719  153.0239 C   0  0  0  0  0  0  0  0  0  0  0  0
  146.8304  139.5631  153.0846 C   0  0  0  0  0  0  0  0  0  0  0  0
  148.0666  139.5443  153.8612 N   0  0  0  0  0  0  0  0  0  0  0  0
  148.5720  138.3064  154.4304 C   0  0  0  0  0  0  0  0  0  0  0  0
  149.9618  138.6609  154.9796 C   0  0  0  0  0  0  0  0  0  0  0  0
  150.0164  140.1921  155.0160 C   0  0  0  0  0  0  0  0  0  0  0  0
  148.8196  140.6052  154.1764 C   0  0  0  0  0  0  0  0  0  0  0  0
  148.6031  141.7706  153.8475 O   0  0  0  0  0  0  0  0  0  0  0  0
  143.9955  134.9255  152.4385 H   0  0  0  0  0  0  0  0  0  0  0  0
  145.5023  135.6280  153.0202 H   0  0  0  0  0  0  0  0  0  0  0  0
  145.1477  135.5995  151.2942 H   0  0  0  0  0  0  0  0  0  0  0  0
  143.2394  137.1380  151.6317 H   0  0  0  0  0  0  0  0  0  0  0  0
  143.6731  136.4573  154.4412 H   0  0  0  0  0  0  0  0  0  0  0  0
  143.7127  138.1948  154.2607 H   0  0  0  0  0  0  0  0  0  0  0  0
  141.4678  139.1034  152.6721 H   0  0  0  0  0  0  0  0  0  0  0  0
  138.8895  138.3141  153.0935 H   0  0  0  0  0  0  0  0  0  0  0  0
  139.1838  135.9326  154.4794 H   0  0  0  0  0  0  0  0  0  0  0  0
  145.3201  138.0837  151.1733 H   0  0  0  0  0  0  0  0  0  0  0  0
  145.8711  137.8552  154.0203 H   0  0  0  0  0  0  0  0  0  0  0  0
  146.9088  137.4397  152.6730 H   0  0  0  0  0  0  0  0  0  0  0  0
  147.0486  139.9201  152.0765 H   0  0  0  0  0  0  0  0  0  0  0  0
  146.1360  140.2812  153.5232 H   0  0  0  0  0  0  0  0  0  0  0  0
  147.9069  137.9812  155.2316 H   0  0  0  0  0  0  0  0  0  0  0  0
  148.6220  137.5139  153.6827 H   0  0  0  0  0  0  0  0  0  0  0  0
  150.1316  138.2218  155.9634 H   0  0  0  0  0  0  0  0  0  0  0  0
  150.7367  138.2796  154.3131 H   0  0  0  0  0  0  0  0  0  0  0  0
  149.8950  140.5709  156.0314 H   0  0  0  0  0  0  0  0  0  0  0  0
  150.9473  140.5828  154.6040 H   0  0  0  0  0  0  0  0  0  0  0  0
  144.5452  139.0677  152.2323 H   0  0  0  0  0  0  0  0  0  0  0  0
  1  2  1  0  0  0  0
  1 18  1  0  0  0  0
  1 19  1  0  0  0  0
  1 20  1  0  0  0  0
  2  3  1  0  0  0  0
  2  9  1  0  0  0  0
  2 21  1  0  0  0  0
  3  4  1  0  0  0  0
  3 22  1  0  0  0  0
  3 23  1  0  0  0  0
  4  8  1  0  0  0  0
  4  5  1  0  0  0  0
  5  6  2  0  0  0  0
  5 24  1  0  0  0  0
  6  7  1  0  0  0  0
  6 25  1  0  0  0  0
  7  8  2  0  0  0  0
  7 26  1  0  0  0  0
  9 10  1  0  0  0  0
  9 27  1  0  0  0  0
  9 38  1  0  0  0  0
 10 11  1  0  0  0  0
 10 28  1  0  0  0  0
 10 29  1  0  0  0  0
 11 12  1  0  0  0  0
 11 30  1  0  0  0  0
 11 31  1  0  0  0  0
 12 16  1  0  0  0  0
 12 13  1  0  0  0  0
 13 14  1  0  0  0  0
 13 32  1  0  0  0  0
 13 33  1  0  0  0  0
 14 15  1  0  0  0  0
 14 34  1  0  0  0  0
 14 35  1  0  0  0  0
 15 16  1  0  0  0  0
 15 36  1  0  0  0  0
 15 37  1  0  0  0  0
 16 17  2  0  0  0  0
M  CHG  1   9   1
M  END
> <s_m_source_file>
AV-unprocessed.smi

> <i_m_source_file_index>
3140

> <i_lp_mmshare_version>
43012

> <i_f3d_flags>
0

> <s_epik_input>
bjFbY0hdW2NIXVtjSF1uMVtDSDJdW0NAQEhdKFtDSDNdKVtOSF1bQ0gyXVtDSDJdTjJbQ0gyXVtDSDJdW0NIMl1DMj1P

> <s_epik_cmdline>
J2VwaWtfcHl0aG9uJywgJy1waCcsICc3LjAnLCAnLXRuJywgJzgnLCAnLW1hJywgJzIwMCcsICctbWV0YWxfYmluZGluZycsICctaW1hZScsICc8aW5maWxlLm1hZT4nLCAnLW9tYWUnLCAnPG91dGZpbGUubWFlPic=

> <r_lp_tautomer_probability>
1

> <r_epik_Ionization_Penalty>
0.00826299

> <r_epik_Ionization_Penalty_Charging>
0.00825899

> <r_epik_Ionization_Penalty_Neutral>
3.99893e-06

> <r_epik_State_Penalty>
0.00621436

> <r_epik_Charging_Adjusted_Penalty>
0.0144734

> <i_epik_Tot_Q>
1

> <i_epik_Tot_abs_Q>
1

> <r_epik_Metal_State_Penalty>
0.00621472

> <b_epik_Metal_Only>
0

> <s_lp_Force_Field>
OPLS_2005

> <r_lp_Energy>
19.0418

> <b_lp_Chiralities_Consistent>
1

> <s_lp_Variant>
AV-unprocessed.smi:3140-2

> <Gold.Version>
5.8.1

> <Gold.Id.Protein>
6NUR|6NUR_protein|mol2

> <Gold.PLP.Fitness>
43.7703

> <Gold.PLP.PLP>
-31.0697

> <Gold.PLP.part.hbond>
-3.1356

> <Gold.PLP.part.metal>
0.0000

> <Gold.PLP.part.buried>
-1.1862

> <Gold.PLP.part.nonpolar>
-26.6607

> <Gold.PLP.part.repulsive>
0.2613

> <Gold.PLP.ligand.clash>
0.0000

> <Gold.PLP.ligand.torsion>
0.9120

> <Gold.PLP.Chemscore.Hbond>
2.8296

> <Gold.PLP.Chemscore.CHOScore>
2.0000

> <Gold.PLP.Chemscore.Metal>
0.0000

> <Gold.Chemscore.Hbonds>
donor molecule, donor type, donor heavy atom, donor atom, acceptor molecule, acceptor atom, score
      L1  H     9    27       P1 10171  0.25
      L1  H     9    38       P1 10175  2.00
      P1  H  8011  8017       L1    17  0.54
      L1  C     5    24       P1 10160  1.00
      L1  C     5    24       P1 10175  1.00

> <Gold.PLP.Chemscore.Internal.Correction>
0.0357

> <Gold.Rescore>
     Score         DG    S(hbond)    S(metal)    S(lipo)     H(rot)  DE(clash)    DE(int)     intcor
     11.60     -13.58       1.82        0.00      62.32       2.06       1.18       0.80       ----

> <Gold.Chemscore.Fitness>
11.5978

> <Gold.Chemscore.DG>
-13.5781

> <Gold.Chemscore.ZeroCoef>
-5.4800

> <Gold.Chemscore.Hbond>
1.8173

> <Gold.Chemscore.Metal>
0.0000

> <Gold.Chemscore.Lipo>
62.3153

> <Gold.Chemscore.Internal_Hbond>
0.0000

> <Gold.Chemscore.DEClash>
1.1845

> <Gold.Chemscore.DEInternal>
0.7958

> <Gold.Chemscore.Rot>
2.0557

> <Gold.Chemscore.Internal.Correction>
   9.000000E+99

> <Gold.Chemscore.Hbonds>
donor molecule, donor type, donor heavy atom, donor atom, acceptor molecule, acceptor atom, score
      L1  H     9    27       P1 10171  0.24
      L1  H     9    38       P1 10175  1.00
      P1  H  8011  8017       L1    17  0.46

> <Gold.Chemscore.Hbond.Weighted>
-6.0698

> <Gold.Chemscore.Metal.Weighted>
-0.0000

> <Gold.Chemscore.Lipo.Weighted>
-7.2909

> <Gold.Chemscore.Internal_Hbond.Weighted>
0.0000

> <Gold.Chemscore.DEClash.Weighted>
1.1845

> <Gold.Chemscore.DEInternal.Weighted>
0.7958

> <Gold.Chemscore.Rot.Weighted>
5.2627

> <Gold.Chemscore.Internal.Correction.Weighted>
   9.000000E+99

> <Gold.Protein.RotatedTorsions>
[ 6907 6896 6895 6894 ] final -175.09 input  -60.11 | X-H torsion
[ 7974 7965 7964 7962 ] final  -43.72 input  175.53 | X-H torsion
[ 8008 7997 7996 7995 ] final  -86.82 input   59.86 | X-H torsion
[ 10167 10162 10161 10158 ] final -155.03 input  -65.29 | X-H torsion
[ 10718 10713 10712 10709 ] final   -4.80 input   66.30 | X-H torsion
[ 10763 10752 10751 10750 ] final   36.12 input  -60.55 | X-H torsion
[ 11005 11000 10999 10996 ] final    7.49 input  -57.11 | X-H torsion

> <Gold.Protein.ActiveResidues>
 VAL166  LYS551  ARG553  GLY616  TRP617  ASP618  TYR619  PRO620  LYS621  CYS622 
 ASP623  PHE694  ASN695  SER759  ASP760  ASP761  ALA762  ILE779  LEU786  VAL792 
 PHE793  MET794  SER795  GLU796  ALA797  LYS798  CYS799  TRP800  GLU811  SER814 

> <Gold.Protein.RotatedAtoms>
  151.5830  133.3375  159.3011 H   0  0  0  0  0  0  0  0  0  0  0  0  # atno 6907 bound_to 6896
  150.8303  134.7556  159.6859 H   0  0  0  0  0  0  0  0  0  0  0  0  # atno 6908 bound_to 6896
  152.4387  134.5641  159.9954 H   0  0  0  0  0  0  0  0  0  0  0  0  # atno 6909 bound_to 6896
  145.9991  140.7095  142.9279 H   0  0  0  0  0  0  0  0  0  0  0  0  # atno 7974 bound_to 7965
  154.6562  140.0573  157.0012 H   0  0  0  0  0  0  0  0  0  0  0  0  # atno 8008 bound_to 7997
  155.1296  140.3255  155.4459 H   0  0  0  0  0  0  0  0  0  0  0  0  # atno 8009 bound_to 7997
  156.2598  140.1983  156.6416 H   0  0  0  0  0  0  0  0  0  0  0  0  # atno 8010 bound_to 7997
  139.6964  143.9335  152.2409 H   0  0  0  0  0  0  0  0  0  0  0  0  # atno 10167 bound_to 10162
  156.7559  130.5254  149.5794 H   0  0  0  0  0  0  0  0  0  0  0  0  # atno 10718 bound_to 10713
  153.0090  135.6314  154.1935 H   0  0  0  0  0  0  0  0  0  0  0  0  # atno 10763 bound_to 10752
  154.1678  135.2820  155.3091 H   0  0  0  0  0  0  0  0  0  0  0  0  # atno 10764 bound_to 10752
  154.5932  135.5611  153.7359 H   0  0  0  0  0  0  0  0  0  0  0  0  # atno 10765 bound_to 10752
  140.5476  134.0314  155.7925 H   0  0  0  0  0  0  0  0  0  0  0  0  # atno 11005 bound_to 11000
  144.6913  140.3202  143.7233 LP  0  0  0  0  0  0  0  0  0  0  0  0  # atno 17320 bound_to 7965
  145.7515  139.1795  143.2319 LP  0  0  0  0  0  0  0  0  0  0  0  0  # atno 17321 bound_to 7965
  139.9165  144.6825  150.8507 LP  0  0  0  0  0  0  0  0  0  0  0  0  # atno 17342 bound_to 10162
  140.7697  143.3405  151.2217 LP  0  0  0  0  0  0  0  0  0  0  0  0  # atno 17343 bound_to 10162
  156.1370  130.6218  151.0415 LP  0  0  0  0  0  0  0  0  0  0  0  0  # atno 17370 bound_to 10713
  157.6756  131.0851  150.7502 LP  0  0  0  0  0  0  0  0  0  0  0  0  # atno 17371 bound_to 10713
  141.1190  133.9492  157.2766 LP  0  0  0  0  0  0  0  0  0  0  0  0  # atno 17394 bound_to 11000
  139.9471  135.0182  156.8886 LP  0  0  0  0  0  0  0  0  0  0  0  0  # atno 17395 bound_to 11000

$$$$
