AV-unprocessed.smi:1019|AV-procd|sdf|4443|dock7
  -GOLD-   22720 2403D 1   1.00000     0.00000
 Structure written by MMmdl.
 44 46  0  0  0  0  0  0  0  0  2 V2000
  145.8762  135.3971  153.5492 C   0  0  0  0  0  0  0  0  0  0  0  0
  146.0240  136.2803  152.3684 N   0  3  1  0  0  0  0  0  0  0  0  0
  145.2843  135.7798  151.1810 C   0  0  0  0  0  0  0  0  0  0  0  0
  145.2820  134.2631  151.1150 C   0  0  0  0  0  0  0  0  0  0  0  0
  146.5039  133.5574  151.1154 C   0  0  0  0  0  0  0  0  0  0  0  0
  146.5080  132.1501  151.0592 C   0  0  0  0  0  0  0  0  0  0  0  0
  145.2913  131.4435  151.0003 C   0  0  0  0  0  0  0  0  0  0  0  0
  144.0698  132.1447  150.9964 C   0  0  0  0  0  0  0  0  0  0  0  0
  144.0645  133.5519  151.0524 C   0  0  0  0  0  0  0  0  0  0  0  0
  145.7183  137.6981  152.6891 C   0  0  0  0  0  0  0  0  0  0  0  0
  146.9959  138.5386  152.8826 C   0  0  2  0  0  0  0  0  0  0  0  0
  147.5461  138.8270  151.6110 O   0  0  0  0  0  0  0  0  0  0  0  0
  148.0428  137.8022  153.7405 C   0  0  0  0  0  0  0  0  0  0  0  0
  149.0569  138.6977  154.2684 N   0  0  0  0  0  0  0  0  0  0  0  0
  150.3656  138.7150  153.9502 C   0  0  0  0  0  0  0  0  0  0  0  0
  151.1291  139.6188  154.5569 N   0  0  0  0  0  0  0  0  0  0  0  0
  150.2083  140.2671  155.3619 C   0  0  0  0  0  0  0  0  0  0  0  0
  150.3767  141.3384  156.2681 C   0  0  0  0  0  0  0  0  0  0  0  0
  149.2755  141.8426  156.9909 C   0  0  0  0  0  0  0  0  0  0  0  0
  147.9919  141.2847  156.8199 C   0  0  0  0  0  0  0  0  0  0  0  0
  147.7992  140.2161  155.9233 C   0  0  0  0  0  0  0  0  0  0  0  0
  148.9007  139.7158  155.2037 C   0  0  0  0  0  0  0  0  0  0  0  0
  144.8389  135.3633  153.8846 H   0  0  0  0  0  0  0  0  0  0  0  0
  146.4919  135.7520  154.3763 H   0  0  0  0  0  0  0  0  0  0  0  0
  146.1974  134.3799  153.3259 H   0  0  0  0  0  0  0  0  0  0  0  0
  144.2626  136.1634  151.1869 H   0  0  0  0  0  0  0  0  0  0  0  0
  145.7393  136.1460  150.2611 H   0  0  0  0  0  0  0  0  0  0  0  0
  147.4409  134.0936  151.1614 H   0  0  0  0  0  0  0  0  0  0  0  0
  147.4446  131.6120  151.0612 H   0  0  0  0  0  0  0  0  0  0  0  0
  145.2948  130.3642  150.9577 H   0  0  0  0  0  0  0  0  0  0  0  0
  143.1368  131.6022  150.9505 H   0  0  0  0  0  0  0  0  0  0  0  0
  143.1232  134.0819  151.0508 H   0  0  0  0  0  0  0  0  0  0  0  0
  145.0942  138.1185  151.8987 H   0  0  0  0  0  0  0  0  0  0  0  0
  145.1259  137.7570  153.6039 H   0  0  0  0  0  0  0  0  0  0  0  0
  146.7567  139.4861  153.3655 H   0  0  0  0  0  0  0  0  0  0  0  0
  148.2351  139.4659  151.7148 H   0  0  0  0  0  0  0  0  0  0  0  0
  147.5578  137.3051  154.5817 H   0  0  0  0  0  0  0  0  0  0  0  0
  148.5336  137.0201  153.1597 H   0  0  0  0  0  0  0  0  0  0  0  0
  150.7825  138.0211  153.2346 H   0  0  0  0  0  0  0  0  0  0  0  0
  151.3552  141.7736  156.4076 H   0  0  0  0  0  0  0  0  0  0  0  0
  149.4163  142.6621  157.6803 H   0  0  0  0  0  0  0  0  0  0  0  0
  147.1549  141.6787  157.3777 H   0  0  0  0  0  0  0  0  0  0  0  0
  146.8169  139.7881  155.7919 H   0  0  0  0  0  0  0  0  0  0  0  0
  147.0049  136.2631  152.1261 H   0  0  0  0  0  0  0  0  0  0  0  0
  1  2  1  0  0  0  0
  1 23  1  0  0  0  0
  1 24  1  0  0  0  0
  1 25  1  0  0  0  0
  2  3  1  0  0  0  0
  2 10  1  0  0  0  0
  2 44  1  0  0  0  0
  3  4  1  0  0  0  0
  3 26  1  0  0  0  0
  3 27  1  0  0  0  0
  4  9  1  0  0  0  0
  4  5  2  0  0  0  0
  5  6  1  0  0  0  0
  5 28  1  0  0  0  0
  6  7  2  0  0  0  0
  6 29  1  0  0  0  0
  7  8  1  0  0  0  0
  7 30  1  0  0  0  0
  8  9  2  0  0  0  0
  8 31  1  0  0  0  0
  9 32  1  0  0  0  0
 10 11  1  0  0  0  0
 10 33  1  0  0  0  0
 10 34  1  0  0  0  0
 11 12  1  0  0  0  0
 11 13  1  0  0  0  0
 11 35  1  0  0  0  0
 12 36  1  0  0  0  0
 13 14  1  0  0  0  0
 13 37  1  0  0  0  0
 13 38  1  0  0  0  0
 14 22  1  0  0  0  0
 14 15  1  0  0  0  0
 15 16  2  0  0  0  0
 15 39  1  0  0  0  0
 16 17  1  0  0  0  0
 17 22  2  0  0  0  0
 17 18  1  0  0  0  0
 18 19  2  0  0  0  0
 18 40  1  0  0  0  0
 19 20  1  0  0  0  0
 19 41  1  0  0  0  0
 20 21  2  0  0  0  0
 20 42  1  0  0  0  0
 21 22  1  0  0  0  0
 21 43  1  0  0  0  0
M  CHG  1   2   1
M  END
> <s_m_source_file>
AV-unprocessed.smi

> <i_m_source_file_index>
1019

> <i_lp_mmshare_version>
43012

> <i_f3d_flags>
0

> <s_epik_input>
W2NIXTFbY0hdW2NIXVtjSF1bY0hdYzFbQ0gyXU4oW0NIM10pW0NIMl1bQ0BIXShbT0hdKVtDSDJdbihbY0hdbjIpYyhjMjMpW2NIXVtjSF1bY0hdW2NIXTM=

> <s_epik_cmdline>
J2VwaWtfcHl0aG9uJywgJy1waCcsICc3LjAnLCAnLXRuJywgJzgnLCAnLW1hJywgJzIwMCcsICctbWV0YWxfYmluZGluZycsICctaW1hZScsICc8aW5maWxlLm1hZT4nLCAnLW9tYWUnLCAnPG91dGZpbGUubWFlPic=

> <r_epik_Ionization_Penalty>
0.0996557

> <r_epik_Ionization_Penalty_Charging>
0.0475377

> <r_epik_Ionization_Penalty_Neutral>
0.0521179

> <r_epik_State_Penalty>
0.0851777

> <r_epik_Charging_Adjusted_Penalty>
0.132715

> <i_epik_Tot_Q>
1

> <i_epik_Tot_abs_Q>
1

> <r_epik_Metal_State_Penalty>
0.0423478

> <b_epik_Metal_Only>
0

> <s_lp_Force_Field>
OPLS_2005

> <r_lp_Energy>
15.2714

> <b_lp_Chiralities_Consistent>
1

> <s_lp_Variant>
AV-unprocessed.smi:1019-1

> <Gold.Version>
5.8.1

> <Gold.Id.Protein>
6NUR|6NUR_protein|mol2

> <Gold.PLP.Fitness>
50.0635

> <Gold.PLP.PLP>
-35.2042

> <Gold.PLP.part.hbond>
-4.5751

> <Gold.PLP.part.metal>
0.0000

> <Gold.PLP.part.buried>
3.4574

> <Gold.PLP.part.nonpolar>
-33.9174

> <Gold.PLP.part.repulsive>
0.1441

> <Gold.PLP.ligand.clash>
0.0000

> <Gold.PLP.ligand.torsion>
1.1795

> <Gold.PLP.Chemscore.Hbond>
4.7800

> <Gold.PLP.Chemscore.CHOScore>
0.8754

> <Gold.PLP.Chemscore.Metal>
0.0000

> <Gold.Chemscore.Hbonds>
donor molecule, donor type, donor heavy atom, donor atom, acceptor molecule, acceptor atom, score
      L1  H     2    44       P1  7948  2.00
      L1  H    12    36       P1  7957  0.90
      P1  H  7954  7966       L1    12  0.86
      P1  H  7989  7998       L1    16  1.00
      L1  C    15    39       P1  7948  0.09
      L1  C    15    39       P1  7949  0.49

> <Gold.PLP.Chemscore.Internal.Correction>
0.2520

> <Gold.Rescore>
     Score         DG    S(hbond)    S(metal)    S(lipo)     H(rot)  DE(clash)    DE(int)     intcor
     16.12     -20.39       2.75        0.00     100.77       2.36       3.01       1.26       ----

> <Gold.Chemscore.Fitness>
16.1238

> <Gold.Chemscore.DG>
-20.3927

> <Gold.Chemscore.ZeroCoef>
-5.4800

> <Gold.Chemscore.Hbond>
2.7450

> <Gold.Chemscore.Metal>
0.0000

> <Gold.Chemscore.Lipo>
100.7701

> <Gold.Chemscore.Internal_Hbond>
0.0000

> <Gold.Chemscore.DEClash>
3.0084

> <Gold.Chemscore.DEInternal>
1.2606

> <Gold.Chemscore.Rot>
2.3616

> <Gold.Chemscore.Internal.Correction>
   9.000000E+99

> <Gold.Chemscore.Hbonds>
donor molecule, donor type, donor heavy atom, donor atom, acceptor molecule, acceptor atom, score
      L1  H     2    44       P1  7948  0.99
      L1  H    12    36       P1  7957  0.84
      P1  H  7954  7966       L1    12  0.20
      P1  H  7989  7998       L1    16  0.33

> <Gold.Chemscore.Hbond.Weighted>
-9.1684

> <Gold.Chemscore.Metal.Weighted>
-0.0000

> <Gold.Chemscore.Lipo.Weighted>
-11.7901

> <Gold.Chemscore.Internal_Hbond.Weighted>
0.0000

> <Gold.Chemscore.DEClash.Weighted>
3.0084

> <Gold.Chemscore.DEInternal.Weighted>
1.2606

> <Gold.Chemscore.Rot.Weighted>
6.0457

> <Gold.Chemscore.Internal.Correction.Weighted>
   9.000000E+99

> <Gold.Protein.RotatedTorsions>
[ 6907 6896 6895 6894 ] final  150.77 input  -60.11 | X-H torsion
[ 7974 7965 7964 7962 ] final   41.77 input  175.53 | X-H torsion
[ 8008 7997 7996 7995 ] final  142.09 input   59.86 | X-H torsion
[ 10167 10162 10161 10158 ] final  -12.65 input  -65.29 | X-H torsion
[ 10718 10713 10712 10709 ] final  143.78 input   66.30 | X-H torsion
[ 10763 10752 10751 10750 ] final   23.35 input  -60.55 | X-H torsion
[ 11005 11000 10999 10996 ] final  -28.95 input  -57.11 | X-H torsion

> <Gold.Protein.ActiveResidues>
 VAL166  LYS551  ARG553  GLY616  TRP617  ASP618  TYR619  PRO620  LYS621  CYS622 
 ASP623  PHE694  ASN695  SER759  ASP760  ASP761  ALA762  ILE779  LEU786  VAL792 
 PHE793  MET794  SER795  GLU796  ALA797  LYS798  CYS799  TRP800  GLU811  SER814 

> <Gold.Protein.RotatedAtoms>
  152.1098  133.4294  159.4625 H   0  0  0  0  0  0  0  0  0  0  0  0  # atno 6907 bound_to 6896
  150.6867  134.2661  159.4578 H   0  0  0  0  0  0  0  0  0  0  0  0  # atno 6908 bound_to 6896
  152.0529  134.9642  160.0625 H   0  0  0  0  0  0  0  0  0  0  0  0  # atno 6909 bound_to 6896
  146.0796  139.5377  142.9545 H   0  0  0  0  0  0  0  0  0  0  0  0  # atno 7974 bound_to 7965
  156.2955  140.2298  156.4671 H   0  0  0  0  0  0  0  0  0  0  0  0  # atno 8008 bound_to 7997
  154.7968  140.0451  157.1263 H   0  0  0  0  0  0  0  0  0  0  0  0  # atno 8009 bound_to 7997
  154.9580  140.3050  155.5047 H   0  0  0  0  0  0  0  0  0  0  0  0  # atno 8010 bound_to 7997
  140.7166  143.5509  150.9302 H   0  0  0  0  0  0  0  0  0  0  0  0  # atno 10167 bound_to 10162
  157.3649  131.0970  151.0881 H   0  0  0  0  0  0  0  0  0  0  0  0  # atno 10718 bound_to 10713
  153.0845  135.6629  153.9978 H   0  0  0  0  0  0  0  0  0  0  0  0  # atno 10763 bound_to 10752
  153.9591  135.2976  155.3436 H   0  0  0  0  0  0  0  0  0  0  0  0  # atno 10764 bound_to 10752
  154.7250  135.5148  153.8944 H   0  0  0  0  0  0  0  0  0  0  0  0  # atno 10765 bound_to 10752
  140.9253  133.7372  156.0859 H   0  0  0  0  0  0  0  0  0  0  0  0  # atno 11005 bound_to 11000
  145.6242  141.0317  143.1898 LP  0  0  0  0  0  0  0  0  0  0  0  0  # atno 17320 bound_to 7965
  144.7284  139.7801  143.7356 LP  0  0  0  0  0  0  0  0  0  0  0  0  # atno 17321 bound_to 7965
  139.9233  143.6579  152.3092 LP  0  0  0  0  0  0  0  0  0  0  0  0  # atno 17342 bound_to 10162
  139.7004  144.7636  151.1283 LP  0  0  0  0  0  0  0  0  0  0  0  0  # atno 17343 bound_to 10162
  157.2007  130.6393  149.5737 LP  0  0  0  0  0  0  0  0  0  0  0  0  # atno 17370 bound_to 10713
  155.9744  130.4692  150.6386 LP  0  0  0  0  0  0  0  0  0  0  0  0  # atno 17371 bound_to 10713
  140.7934  134.3592  157.5459 LP  0  0  0  0  0  0  0  0  0  0  0  0  # atno 17394 bound_to 11000
  139.8784  134.9154  156.3129 LP  0  0  0  0  0  0  0  0  0  0  0  0  # atno 17395 bound_to 11000

$$$$
