AV-unprocessed.smi:1218|AV-procd|sdf|5109|dock3
  -GOLD-   22720 4163D 1   1.00000     0.00000
 Structure written by MMmdl.
 45 46  0  0  0  0  0  0  0  0  2 V2000
  151.5541  145.3484  159.9075 C   0  0  0  0  0  0  0  0  0  0  0  0
  152.6971  144.4544  159.3975 C   0  0  0  0  0  0  0  0  0  0  0  0
  152.9222  144.6773  157.8945 C   0  0  0  0  0  0  0  0  0  0  0  0
  152.4350  142.9609  159.6901 C   0  0  0  0  0  0  0  0  0  0  0  0
  151.7195  142.2652  158.5896 N   0  3  2  0  0  0  0  0  0  0  0  0
  150.3435  142.7710  158.3596 C   0  0  0  0  0  0  0  0  0  0  0  0
  149.6861  142.0247  157.1874 C   0  0  0  0  0  0  0  0  0  0  0  0
  149.6944  140.6280  157.4498 O   0  0  0  0  0  0  0  0  0  0  0  0
  151.0157  140.1103  157.5702 C   0  0  2  0  0  0  0  0  0  0  0  0
  150.9225  138.5846  157.7479 C   0  0  0  0  0  0  0  0  0  0  0  0
  149.5713  138.1732  158.1097 N   0  0  0  0  0  0  0  0  0  0  0  0
  149.2617  137.3673  159.1368 C   0  0  0  0  0  0  0  0  0  0  0  0
  150.0958  136.9225  159.9253 O   0  0  0  0  0  0  0  0  0  0  0  0
  147.7895  136.9827  159.2817 C   0  0  0  0  0  0  0  0  0  0  0  0
  147.5168  136.4931  160.6207 N   0  0  0  0  0  0  0  0  0  0  0  0
  147.2745  135.1967  161.0258 C   0  0  0  0  0  0  0  0  0  0  0  0
  147.0615  135.2258  162.3743 C   0  0  0  0  0  0  0  0  0  0  0  0
  147.1940  136.6027  162.7082 C   0  0  0  0  0  0  0  0  0  0  0  0
  147.4637  137.3594  161.6567 N   0  0  0  0  0  0  0  0  0  0  0  0
  151.7044  140.7934  158.7671 C   0  0  0  0  0  0  0  0  0  0  0  0
  150.6062  145.0899  159.4340 H   0  0  0  0  0  0  0  0  0  0  0  0
  151.7545  146.3991  159.6949 H   0  0  0  0  0  0  0  0  0  0  0  0
  151.4241  145.2559  160.9858 H   0  0  0  0  0  0  0  0  0  0  0  0
  153.6138  144.7635  159.8986 H   0  0  0  0  0  0  0  0  0  0  0  0
  152.0419  144.3972  157.3147 H   0  0  0  0  0  0  0  0  0  0  0  0
  153.7626  144.0851  157.5310 H   0  0  0  0  0  0  0  0  0  0  0  0
  153.1430  145.7235  157.6801 H   0  0  0  0  0  0  0  0  0  0  0  0
  153.3961  142.4734  159.8618 H   0  0  0  0  0  0  0  0  0  0  0  0
  151.8668  142.8437  160.6143 H   0  0  0  0  0  0  0  0  0  0  0  0
  149.7484  142.6378  159.2645 H   0  0  0  0  0  0  0  0  0  0  0  0
  150.3570  143.8378  158.1403 H   0  0  0  0  0  0  0  0  0  0  0  0
  148.6545  142.3544  157.0635 H   0  0  0  0  0  0  0  0  0  0  0  0
  150.2026  142.2352  156.2493 H   0  0  0  0  0  0  0  0  0  0  0  0
  151.5767  140.3331  156.6605 H   0  0  0  0  0  0  0  0  0  0  0  0
  151.2299  138.0740  156.8338 H   0  0  0  0  0  0  0  0  0  0  0  0
  151.6054  138.2545  158.5313 H   0  0  0  0  0  0  0  0  0  0  0  0
  148.8211  138.4875  157.5107 H   0  0  0  0  0  0  0  0  0  0  0  0
  147.1600  137.8521  159.0880 H   0  0  0  0  0  0  0  0  0  0  0  0
  147.5154  136.2184  158.5523 H   0  0  0  0  0  0  0  0  0  0  0  0
  147.2730  134.3720  160.3283 H   0  0  0  0  0  0  0  0  0  0  0  0
  146.8443  134.3906  163.0234 H   0  0  0  0  0  0  0  0  0  0  0  0
  147.1016  137.0714  163.6769 H   0  0  0  0  0  0  0  0  0  0  0  0
  152.7273  140.4251  158.8582 H   0  0  0  0  0  0  0  0  0  0  0  0
  151.1883  140.5427  159.6954 H   0  0  0  0  0  0  0  0  0  0  0  0
  152.2466  142.4421  157.7462 H   0  0  0  0  0  0  0  0  0  0  0  0
  1  2  1  0  0  0  0
  1 21  1  0  0  0  0
  1 22  1  0  0  0  0
  1 23  1  0  0  0  0
  2  3  1  0  0  0  0
  2  4  1  0  0  0  0
  2 24  1  0  0  0  0
  3 25  1  0  0  0  0
  3 26  1  0  0  0  0
  3 27  1  0  0  0  0
  4  5  1  0  0  0  0
  4 28  1  0  0  0  0
  4 29  1  0  0  0  0
  5 20  1  0  0  0  0
  5  6  1  0  0  0  0
  5 45  1  0  0  0  0
  6  7  1  0  0  0  0
  6 30  1  0  0  0  0
  6 31  1  0  0  0  0
  7  8  1  0  0  0  0
  7 32  1  0  0  0  0
  7 33  1  0  0  0  0
  8  9  1  0  0  0  0
  9 10  1  0  0  0  0
  9 20  1  0  0  0  0
  9 34  1  0  0  0  0
 10 11  1  0  0  0  0
 10 35  1  0  0  0  0
 10 36  1  0  0  0  0
 11 12  1  0  0  0  0
 11 37  1  0  0  0  0
 12 13  2  0  0  0  0
 12 14  1  0  0  0  0
 14 15  1  0  0  0  0
 14 38  1  0  0  0  0
 14 39  1  0  0  0  0
 15 19  1  0  0  0  0
 15 16  1  0  0  0  0
 16 17  2  0  0  0  0
 16 40  1  0  0  0  0
 17 18  1  0  0  0  0
 17 41  1  0  0  0  0
 18 19  2  0  0  0  0
 18 42  1  0  0  0  0
 20 43  1  0  0  0  0
 20 44  1  0  0  0  0
M  CHG  1   5   1
M  END
> <s_m_source_file>
AV-unprocessed.smi

> <i_m_source_file_index>
1218

> <i_lp_mmshare_version>
43012

> <i_f3d_flags>
0

> <s_epik_input>
W0NIM11bQ0hdKFtDSDNdKVtDSDJdTjFbQ0gyXVtDSDJdT1tDQEhdKFtDSDJdMSlbQ0gyXVtOSF1DKD1PKVtDSDJdbjJbY0hdW2NIXVtjSF1uMg==

> <s_epik_cmdline>
J2VwaWtfcHl0aG9uJywgJy1waCcsICc3LjAnLCAnLXRuJywgJzgnLCAnLW1hJywgJzIwMCcsICctbWV0YWxfYmluZGluZycsICctaW1hZScsICc8aW5maWxlLm1hZT4nLCAnLW9tYWUnLCAnPG91dGZpbGUubWFlPic=

> <r_lp_tautomer_probability>
1

> <r_epik_Ionization_Penalty>
0.0995066

> <r_epik_Ionization_Penalty_Charging>
0.0994921

> <r_epik_Ionization_Penalty_Neutral>
1.44634e-05

> <r_epik_State_Penalty>
0.0895432

> <r_epik_Charging_Adjusted_Penalty>
0.189035

> <i_epik_Tot_Q>
1

> <i_epik_Tot_abs_Q>
1

> <r_epik_Metal_State_Penalty>
0.0895432

> <b_epik_Metal_Only>
0

> <s_lp_Force_Field>
OPLS_2005

> <r_lp_Energy>
17.6202

> <b_lp_Chiralities_Consistent>
1

> <s_lp_Variant>
AV-unprocessed.smi:1218-4

> <Gold.Version>
5.8.1

> <Gold.Id.Protein>
6NUR|6NUR_protein|mol2

> <Gold.PLP.Fitness>
49.8589

> <Gold.PLP.PLP>
-44.5262

> <Gold.PLP.part.hbond>
-3.7435

> <Gold.PLP.part.metal>
0.0000

> <Gold.PLP.part.buried>
-5.2918

> <Gold.PLP.part.nonpolar>
-35.1846

> <Gold.PLP.part.repulsive>
0.2017

> <Gold.PLP.ligand.clash>
0.0000

> <Gold.PLP.ligand.torsion>
1.4829

> <Gold.PLP.Chemscore.Hbond>
2.7296

> <Gold.PLP.Chemscore.CHOScore>
0.0000

> <Gold.PLP.Chemscore.Metal>
0.0000

> <Gold.Chemscore.Hbonds>
donor molecule, donor type, donor heavy atom, donor atom, acceptor molecule, acceptor atom, score
      P1  H  6896  6907       L1    13  0.76
      P1  H  6931  6943       L1    19  0.85
      P1  H  6934  6947       L1    19  0.78

> <Gold.PLP.Chemscore.Internal.Correction>
0.1098

> <Gold.Rescore>
     Score         DG    S(hbond)    S(metal)    S(lipo)     H(rot)  DE(clash)    DE(int)     intcor
     19.01     -20.72       2.28        0.00     108.15       1.96       0.03       1.68       ----

> <Gold.Chemscore.Fitness>
19.0118

> <Gold.Chemscore.DG>
-20.7236

> <Gold.Chemscore.ZeroCoef>
-5.4800

> <Gold.Chemscore.Hbond>
2.2796

> <Gold.Chemscore.Metal>
0.0000

> <Gold.Chemscore.Lipo>
108.1481

> <Gold.Chemscore.Internal_Hbond>
0.0000

> <Gold.Chemscore.DEClash>
0.0298

> <Gold.Chemscore.DEInternal>
1.6820

> <Gold.Chemscore.Rot>
1.9624

> <Gold.Chemscore.Internal.Correction>
   9.000000E+99

> <Gold.Chemscore.Hbonds>
donor molecule, donor type, donor heavy atom, donor atom, acceptor molecule, acceptor atom, score
      P1  H  6896  6907       L1    13  0.74
      P1  H  6931  6943       L1    19  0.54
      P1  H  6934  6947       L1    19  0.47

> <Gold.Chemscore.Hbond.Weighted>
-7.6140

> <Gold.Chemscore.Metal.Weighted>
-0.0000

> <Gold.Chemscore.Lipo.Weighted>
-12.6533

> <Gold.Chemscore.Internal_Hbond.Weighted>
0.0000

> <Gold.Chemscore.DEClash.Weighted>
0.0298

> <Gold.Chemscore.DEInternal.Weighted>
1.6820

> <Gold.Chemscore.Rot.Weighted>
5.0237

> <Gold.Chemscore.Internal.Correction.Weighted>
   9.000000E+99

> <Gold.Protein.RotatedTorsions>
[ 6907 6896 6895 6894 ] final  -39.59 input  -60.11 | X-H torsion
[ 7974 7965 7964 7962 ] final  129.72 input  175.53 | X-H torsion
[ 8008 7997 7996 7995 ] final  172.24 input   59.86 | X-H torsion
[ 10167 10162 10161 10158 ] final   54.28 input  -65.29 | X-H torsion
[ 10718 10713 10712 10709 ] final  -77.43 input   66.30 | X-H torsion
[ 10763 10752 10751 10750 ] final  -31.89 input  -60.55 | X-H torsion
[ 11005 11000 10999 10996 ] final  107.42 input  -57.11 | X-H torsion

> <Gold.Protein.ActiveResidues>
 VAL166  LYS551  ARG553  GLY616  TRP617  ASP618  TYR619  PRO620  LYS621  CYS622 
 ASP623  PHE694  ASN695  SER759  ASP760  ASP761  ALA762  ILE779  LEU786  VAL792 
 PHE793  MET794  SER795  GLU796  ALA797  LYS798  CYS799  TRP800  GLU811  SER814 

> <Gold.Protein.RotatedAtoms>
  150.9886  134.9225  159.7885 H   0  0  0  0  0  0  0  0  0  0  0  0  # atno 6907 bound_to 6896
  152.5244  134.3313  159.9194 H   0  0  0  0  0  0  0  0  0  0  0  0  # atno 6908 bound_to 6896
  151.3319  133.3956  159.2698 H   0  0  0  0  0  0  0  0  0  0  0  0  # atno 6909 bound_to 6896
  145.0257  139.4091  143.5175 H   0  0  0  0  0  0  0  0  0  0  0  0  # atno 7974 bound_to 7965
  156.1194  140.1491  156.9227 H   0  0  0  0  0  0  0  0  0  0  0  0  # atno 8008 bound_to 7997
  154.4824  140.0875  156.7450 H   0  0  0  0  0  0  0  0  0  0  0  0  # atno 8009 bound_to 7997
  155.4456  140.3433  155.4297 H   0  0  0  0  0  0  0  0  0  0  0  0  # atno 8010 bound_to 7997
  140.2318  144.3678  150.6411 H   0  0  0  0  0  0  0  0  0  0  0  0  # atno 10167 bound_to 10162
  156.0145  130.4491  150.3344 H   0  0  0  0  0  0  0  0  0  0  0  0  # atno 10718 bound_to 10713
  153.8048  135.6887  153.4850 H   0  0  0  0  0  0  0  0  0  0  0  0  # atno 10763 bound_to 10752
  153.1665  135.4559  154.9843 H   0  0  0  0  0  0  0  0  0  0  0  0  # atno 10764 bound_to 10752
  154.7992  135.3331  154.7534 H   0  0  0  0  0  0  0  0  0  0  0  0  # atno 10765 bound_to 10752
  139.8828  134.9400  156.5816 H   0  0  0  0  0  0  0  0  0  0  0  0  # atno 11005 bound_to 11000
  146.3492  139.9779  142.8699 LP  0  0  0  0  0  0  0  0  0  0  0  0  # atno 17320 bound_to 7965
  145.1837  140.9779  143.4251 LP  0  0  0  0  0  0  0  0  0  0  0  0  # atno 17321 bound_to 7965
  140.6179  143.2174  151.6754 LP  0  0  0  0  0  0  0  0  0  0  0  0  # atno 17342 bound_to 10162
  139.5107  144.3533  152.0632 LP  0  0  0  0  0  0  0  0  0  0  0  0  # atno 17343 bound_to 10162
  157.1441  131.0304  151.2915 LP  0  0  0  0  0  0  0  0  0  0  0  0  # atno 17370 bound_to 10713
  157.4447  130.7564  149.7099 LP  0  0  0  0  0  0  0  0  0  0  0  0  # atno 17371 bound_to 10713
  140.8022  133.8496  155.8737 LP  0  0  0  0  0  0  0  0  0  0  0  0  # atno 17394 bound_to 11000
  140.9582  134.1690  157.4675 LP  0  0  0  0  0  0  0  0  0  0  0  0  # atno 17395 bound_to 11000

$$$$
