AV-unprocessed.smi:3142|AV-procd|sdf|11971|dock1
  -GOLD-   2272017373D 1   1.00000     0.00000
 Structure written by MMmdl.
 36 38  0  0  0  0  0  0  0  0  1 V2000
  151.0724  137.8835  158.8182 C   0  0  0  0  0  0  0  0  0  0  0  0
  151.1056  139.1869  157.9971 C   0  0  1  0  0  0  0  0  0  0  0  0
  152.2957  140.0884  158.3579 C   0  0  0  0  0  0  0  0  0  0  0  0
  153.4500  139.6659  158.2815 O   0  0  0  0  0  0  0  0  0  0  0  0
  151.9926  141.3382  158.7432 N   0  0  0  0  0  0  0  0  0  0  0  0
  152.9509  142.3780  159.1011 C   0  0  0  0  0  0  0  0  0  0  0  0
  153.8231  141.9879  160.2835 C   0  0  0  0  0  0  0  0  0  0  0  0
  153.6666  140.6501  160.9678 C   0  0  0  0  0  0  0  0  0  0  0  0
  153.2670  141.9178  161.6864 C   0  0  0  0  0  0  0  0  0  0  0  0
  152.2552  143.6992  159.3722 C   0  0  0  0  0  0  0  0  0  0  0  0
  151.1165  144.1725  158.5013 C   0  0  0  0  0  0  0  0  0  0  0  0
  152.4461  144.8926  158.4664 C   0  0  0  0  0  0  0  0  0  0  0  0
  151.1000  138.9179  156.5659 N   0  0  0  0  0  0  0  0  0  0  0  0
  151.1904  137.6833  155.9305 C   0  0  0  0  0  0  0  0  0  0  0  0
  151.1720  137.9327  154.5771 C   0  0  0  0  0  0  0  0  0  0  0  0
  151.0857  139.3046  154.3549 N   0  0  0  0  0  0  0  0  0  0  0  0
  151.0527  139.8214  155.5762 C   0  0  0  0  0  0  0  0  0  0  0  0
  151.0315  138.0934  159.8875 H   0  0  0  0  0  0  0  0  0  0  0  0
  151.9499  137.2621  158.6362 H   0  0  0  0  0  0  0  0  0  0  0  0
  150.1920  137.2903  158.5690 H   0  0  0  0  0  0  0  0  0  0  0  0
  150.1938  139.7394  158.2315 H   0  0  0  0  0  0  0  0  0  0  0  0
  151.0169  141.5960  158.7740 H   0  0  0  0  0  0  0  0  0  0  0  0
  153.6098  142.5397  158.2453 H   0  0  0  0  0  0  0  0  0  0  0  0
  154.8462  142.3503  160.2004 H   0  0  0  0  0  0  0  0  0  0  0  0
  152.8649  139.9945  160.6343 H   0  0  0  0  0  0  0  0  0  0  0  0
  154.5724  140.1470  161.2996 H   0  0  0  0  0  0  0  0  0  0  0  0
  153.9068  142.2623  162.4964 H   0  0  0  0  0  0  0  0  0  0  0  0
  152.2029  142.0985  161.8245 H   0  0  0  0  0  0  0  0  0  0  0  0
  152.1588  143.9264  160.4326 H   0  0  0  0  0  0  0  0  0  0  0  0
  150.8516  143.5651  157.6381 H   0  0  0  0  0  0  0  0  0  0  0  0
  150.2843  144.6725  158.9926 H   0  0  0  0  0  0  0  0  0  0  0  0
  152.5010  145.8734  158.9340 H   0  0  0  0  0  0  0  0  0  0  0  0
  153.0568  144.7660  157.5749 H   0  0  0  0  0  0  0  0  0  0  0  0
  151.2596  136.7550  156.4783 H   0  0  0  0  0  0  0  0  0  0  0  0
  151.2211  137.2362  153.7532 H   0  0  0  0  0  0  0  0  0  0  0  0
  150.9944  140.8852  155.7547 H   0  0  0  0  0  0  0  0  0  0  0  0
  1  2  1  0  0  0  0
  1 18  1  0  0  0  0
  1 19  1  0  0  0  0
  1 20  1  0  0  0  0
  2  3  1  0  0  0  0
  2 13  1  0  0  0  0
  2 21  1  0  0  0  0
  3  4  2  0  0  0  0
  3  5  1  0  0  0  0
  5  6  1  0  0  0  0
  5 22  1  0  0  0  0
  6  7  1  0  0  0  0
  6 10  1  0  0  0  0
  6 23  1  0  0  0  0
  7  9  1  0  0  0  0
  7  8  1  0  0  0  0
  7 24  1  0  0  0  0
  8  9  1  0  0  0  0
  8 25  1  0  0  0  0
  8 26  1  0  0  0  0
  9 27  1  0  0  0  0
  9 28  1  0  0  0  0
 10 12  1  0  0  0  0
 10 11  1  0  0  0  0
 10 29  1  0  0  0  0
 11 12  1  0  0  0  0
 11 30  1  0  0  0  0
 11 31  1  0  0  0  0
 12 32  1  0  0  0  0
 12 33  1  0  0  0  0
 13 17  1  0  0  0  0
 13 14  1  0  0  0  0
 14 15  2  0  0  0  0
 14 34  1  0  0  0  0
 15 16  1  0  0  0  0
 15 35  1  0  0  0  0
 16 17  2  0  0  0  0
 17 36  1  0  0  0  0
M  END
> <s_m_source_file>
AV-unprocessed.smi

> <i_m_source_file_index>
3142

> <i_lp_mmshare_version>
43012

> <i_f3d_flags>
0

> <s_epik_input>
W2NIXTFuW2NIXVtjSF1uMVtDQEhdKFtDSDNdKUMoPU8pW05IXVtDSF0oW0NIXTJbQ0gyXVtDSDJdMilbQ0hdM1tDSDJdW0NIMl0z

> <s_epik_cmdline>
J2VwaWtfcHl0aG9uJywgJy1waCcsICc3LjAnLCAnLXRuJywgJzgnLCAnLW1hJywgJzIwMCcsICctbWV0YWxfYmluZGluZycsICctaW1hZScsICc8aW5maWxlLm1hZT4nLCAnLW9tYWUnLCAnPG91dGZpbGUubWFlPic=

> <r_lp_tautomer_probability>
1

> <r_epik_Ionization_Penalty>
0.32285

> <r_epik_Ionization_Penalty_Charging>
0.32285

> <r_epik_Ionization_Penalty_Neutral>
3.37967e-08

> <r_epik_State_Penalty>
0.317502

> <r_epik_Charging_Adjusted_Penalty>
0.640352

> <i_epik_Tot_Q>
0

> <i_epik_Tot_abs_Q>
0

> <r_epik_Metal_State_Penalty>
0.20415

> <b_epik_Metal_Only>
0

> <s_lp_Force_Field>
OPLS_2005

> <r_lp_Energy>
29.1263

> <b_lp_Chiralities_Consistent>
1

> <s_lp_Variant>
AV-unprocessed.smi:3142-2

> <Gold.Version>
5.8.1

> <Gold.Id.Protein>
6NUR|6NUR_protein|mol2

> <Gold.PLP.Fitness>
47.0425

> <Gold.PLP.PLP>
-40.0292

> <Gold.PLP.part.hbond>
-2.0000

> <Gold.PLP.part.metal>
0.0000

> <Gold.PLP.part.buried>
-3.8443

> <Gold.PLP.part.nonpolar>
-33.9062

> <Gold.PLP.part.repulsive>
0.2446

> <Gold.PLP.ligand.clash>
0.0000

> <Gold.PLP.ligand.torsion>
1.7774

> <Gold.PLP.Chemscore.Hbond>
2.0000

> <Gold.PLP.Chemscore.CHOScore>
0.7657

> <Gold.PLP.Chemscore.Metal>
0.0000

> <Gold.Chemscore.Hbonds>
donor molecule, donor type, donor heavy atom, donor atom, acceptor molecule, acceptor atom, score
      P1  H  7989  7998       L1    16  0.85
      P1  H  7997  8008       L1     4  1.00
      L1  C    15    35       P1  7949  0.87

> <Gold.PLP.Chemscore.Internal.Correction>
2.2709

> <Gold.Rescore>
     Score         DG    S(hbond)    S(metal)    S(lipo)     H(rot)  DE(clash)    DE(int)     intcor
     17.19     -19.40       1.95        0.00     103.93       1.85       0.04       2.18       ----

> <Gold.Chemscore.Fitness>
17.1889

> <Gold.Chemscore.DG>
-19.4022

> <Gold.Chemscore.ZeroCoef>
-5.4800

> <Gold.Chemscore.Hbond>
1.9461

> <Gold.Chemscore.Metal>
0.0000

> <Gold.Chemscore.Lipo>
103.9280

> <Gold.Chemscore.Internal_Hbond>
0.0000

> <Gold.Chemscore.DEClash>
0.0358

> <Gold.Chemscore.DEInternal>
2.1774

> <Gold.Chemscore.Rot>
1.8505

> <Gold.Chemscore.Internal.Correction>
   9.000000E+99

> <Gold.Chemscore.Hbonds>
donor molecule, donor type, donor heavy atom, donor atom, acceptor molecule, acceptor atom, score
      P1  H  7989  7998       L1    16  0.15
      P1  H  7997  8008       L1     4  1.00

> <Gold.Chemscore.Hbond.Weighted>
-6.4999

> <Gold.Chemscore.Metal.Weighted>
-0.0000

> <Gold.Chemscore.Lipo.Weighted>
-12.1596

> <Gold.Chemscore.Internal_Hbond.Weighted>
0.0000

> <Gold.Chemscore.DEClash.Weighted>
0.0358

> <Gold.Chemscore.DEInternal.Weighted>
2.1774

> <Gold.Chemscore.Rot.Weighted>
4.7373

> <Gold.Chemscore.Internal.Correction.Weighted>
   9.000000E+99

> <Gold.Protein.RotatedTorsions>
[ 6907 6896 6895 6894 ] final  -78.17 input  -60.11 | X-H torsion
[ 7974 7965 7964 7962 ] final  -74.11 input  175.53 | X-H torsion
[ 8008 7997 7996 7995 ] final  -86.39 input   59.86 | X-H torsion
[ 10167 10162 10161 10158 ] final  176.53 input  -65.29 | X-H torsion
[ 10718 10713 10712 10709 ] final   71.96 input   66.30 | X-H torsion
[ 10763 10752 10751 10750 ] final  -36.79 input  -60.55 | X-H torsion
[ 11005 11000 10999 10996 ] final  -29.50 input  -57.11 | X-H torsion

> <Gold.Protein.ActiveResidues>
 VAL166  LYS551  ARG553  GLY616  TRP617  ASP618  TYR619  PRO620  LYS621  CYS622 
 ASP623  PHE694  ASN695  SER759  ASP760  ASP761  ALA762  ILE779  LEU786  VAL792 
 PHE793  MET794  SER795  GLU796  ALA797  LYS798  CYS799  TRP800  GLU811  SER814 

> <Gold.Protein.RotatedAtoms>
  150.6979  134.4312  159.5249 H   0  0  0  0  0  0  0  0  0  0  0  0  # atno 6907 bound_to 6896
  152.2039  134.8560  160.0514 H   0  0  0  0  0  0  0  0  0  0  0  0  # atno 6908 bound_to 6896
  151.9471  133.3620  159.4023 H   0  0  0  0  0  0  0  0  0  0  0  0  # atno 6909 bound_to 6896
  145.6433  140.9304  143.1024 H   0  0  0  0  0  0  0  0  0  0  0  0  # atno 7974 bound_to 7965
  154.6513  140.0579  156.9959 H   0  0  0  0  0  0  0  0  0  0  0  0  # atno 8008 bound_to 7997
  155.1367  140.3261  155.4443 H   0  0  0  0  0  0  0  0  0  0  0  0  # atno 8009 bound_to 7997
  156.2577  140.1971  156.6484 H   0  0  0  0  0  0  0  0  0  0  0  0  # atno 8010 bound_to 7997
  139.5218  144.2905  152.0468 H   0  0  0  0  0  0  0  0  0  0  0  0  # atno 10167 bound_to 10162
  157.6477  130.9554  150.0861 H   0  0  0  0  0  0  0  0  0  0  0  0  # atno 10718 bound_to 10713
  153.8856  135.6817  153.4764 H   0  0  0  0  0  0  0  0  0  0  0  0  # atno 10763 bound_to 10752
  153.1209  135.4740  154.9192 H   0  0  0  0  0  0  0  0  0  0  0  0  # atno 10764 bound_to 10752
  154.7647  135.3221  154.8261 H   0  0  0  0  0  0  0  0  0  0  0  0  # atno 10765 bound_to 10752
  140.9302  133.7343  156.0925 H   0  0  0  0  0  0  0  0  0  0  0  0  # atno 11005 bound_to 11000
  144.7149  139.8233  143.7402 LP  0  0  0  0  0  0  0  0  0  0  0  0  # atno 17320 bound_to 7965
  146.1263  139.4289  143.0197 LP  0  0  0  0  0  0  0  0  0  0  0  0  # atno 17321 bound_to 7965
  140.2356  144.4323  150.6281 LP  0  0  0  0  0  0  0  0  0  0  0  0  # atno 17342 bound_to 10162
  140.6326  143.2190  151.6464 LP  0  0  0  0  0  0  0  0  0  0  0  0  # atno 17343 bound_to 10162
  156.1824  130.3650  149.9018 LP  0  0  0  0  0  0  0  0  0  0  0  0  # atno 17370 bound_to 10713
  156.6967  130.8917  151.3594 LP  0  0  0  0  0  0  0  0  0  0  0  0  # atno 17371 bound_to 10713
  140.7873  134.3657  157.5473 LP  0  0  0  0  0  0  0  0  0  0  0  0  # atno 17394 bound_to 11000
  139.8794  134.9118  156.3047 LP  0  0  0  0  0  0  0  0  0  0  0  0  # atno 17395 bound_to 11000

$$$$
