AV-unprocessed.smi:848|AV-procd|sdf|3939|dock3
  -GOLD-   22720 1403D 1   1.00000     0.00000
 Structure written by MMmdl.
 46 48  0  0  0  0  0  0  0  0  1 V2000
  147.1788  132.2704  161.1518 C   0  0  0  0  0  0  0  0  0  0  0  0
  147.6518  133.7088  161.1052 C   0  0  0  0  0  0  0  0  0  0  0  0
  147.3979  134.5765  162.1861 C   0  0  0  0  0  0  0  0  0  0  0  0
  147.8394  135.9128  162.1372 C   0  0  0  0  0  0  0  0  0  0  0  0
  147.5613  136.8412  163.3015 C   0  0  0  0  0  0  0  0  0  0  0  0
  148.5396  136.3771  161.0052 C   0  0  0  0  0  0  0  0  0  0  0  0
  148.8046  135.5215  159.9164 C   0  0  0  0  0  0  0  0  0  0  0  0
  149.4989  136.0602  158.8544 O   0  0  0  0  0  0  0  0  0  0  0  0
  150.3896  137.1386  159.1072 C   0  0  0  0  0  0  0  0  0  0  0  0
  149.8532  138.4007  158.4129 C   0  0  2  0  0  0  0  0  0  0  0  0
  148.5174  138.1617  158.0139 O   0  0  0  0  0  0  0  0  0  0  0  0
  150.6953  138.7748  157.1754 C   0  0  0  0  0  0  0  0  0  0  0  0
  150.7426  140.2109  156.9321 N   0  0  0  0  0  0  0  0  0  0  0  0
  150.2374  140.8966  155.8755 C   0  0  0  0  0  0  0  0  0  0  0  0
  149.5106  140.1949  154.7628 C   0  0  0  0  0  0  0  0  0  0  0  0
  149.5724  140.8678  153.5212 O   0  0  0  0  0  0  0  0  0  0  0  0
  150.4231  142.2187  155.9045 N   0  0  0  0  0  0  0  0  0  0  0  0
  151.1089  142.4064  157.0880 C   0  0  0  0  0  0  0  0  0  0  0  0
  151.5971  143.5888  157.6886 C   0  0  0  0  0  0  0  0  0  0  0  0
  152.2753  143.5345  158.9239 C   0  0  0  0  0  0  0  0  0  0  0  0
  152.4743  142.2999  159.5749 C   0  0  0  0  0  0  0  0  0  0  0  0
  151.9976  141.1097  158.9928 C   0  0  0  0  0  0  0  0  0  0  0  0
  151.3219  141.1693  157.7589 C   0  0  0  0  0  0  0  0  0  0  0  0
  148.3520  134.1792  159.9755 C   0  0  0  0  0  0  0  0  0  0  0  0
  146.5283  132.0923  162.0085 H   0  0  0  0  0  0  0  0  0  0  0  0
  148.0321  131.5957  161.2244 H   0  0  0  0  0  0  0  0  0  0  0  0
  146.6220  132.0245  160.2470 H   0  0  0  0  0  0  0  0  0  0  0  0
  146.8633  134.2194  163.0545 H   0  0  0  0  0  0  0  0  0  0  0  0
  147.8242  137.8716  163.0604 H   0  0  0  0  0  0  0  0  0  0  0  0
  148.1398  136.5355  164.1734 H   0  0  0  0  0  0  0  0  0  0  0  0
  146.5033  136.8140  163.5639 H   0  0  0  0  0  0  0  0  0  0  0  0
  148.8804  137.4016  160.9668 H   0  0  0  0  0  0  0  0  0  0  0  0
  150.4238  137.3094  160.1845 H   0  0  0  0  0  0  0  0  0  0  0  0
  151.4037  136.9121  158.7728 H   0  0  0  0  0  0  0  0  0  0  0  0
  149.8613  139.2329  159.1173 H   0  0  0  0  0  0  0  0  0  0  0  0
  148.5025  137.4063  157.4465 H   0  0  0  0  0  0  0  0  0  0  0  0
  151.7150  138.4047  157.2851 H   0  0  0  0  0  0  0  0  0  0  0  0
  150.2954  138.2863  156.2857 H   0  0  0  0  0  0  0  0  0  0  0  0
  149.9273  139.1970  154.6310 H   0  0  0  0  0  0  0  0  0  0  0  0
  148.4630  140.0787  155.0409 H   0  0  0  0  0  0  0  0  0  0  0  0
  149.3665  140.2524  152.8346 H   0  0  0  0  0  0  0  0  0  0  0  0
  151.4489  144.5393  157.1977 H   0  0  0  0  0  0  0  0  0  0  0  0
  152.6442  144.4445  159.3737 H   0  0  0  0  0  0  0  0  0  0  0  0
  152.9940  142.2672  160.5213 H   0  0  0  0  0  0  0  0  0  0  0  0
  152.1516  140.1630  159.4883 H   0  0  0  0  0  0  0  0  0  0  0  0
  148.5320  133.4897  159.1649 H   0  0  0  0  0  0  0  0  0  0  0  0
  1  2  1  0  0  0  0
  1 25  1  0  0  0  0
  1 26  1  0  0  0  0
  1 27  1  0  0  0  0
  2 24  1  0  0  0  0
  2  3  2  0  0  0  0
  3  4  1  0  0  0  0
  3 28  1  0  0  0  0
  4  5  1  0  0  0  0
  4  6  2  0  0  0  0
  5 29  1  0  0  0  0
  5 30  1  0  0  0  0
  5 31  1  0  0  0  0
  6  7  1  0  0  0  0
  6 32  1  0  0  0  0
  7  8  1  0  0  0  0
  7 24  2  0  0  0  0
  8  9  1  0  0  0  0
  9 10  1  0  0  0  0
  9 33  1  0  0  0  0
  9 34  1  0  0  0  0
 10 11  1  0  0  0  0
 10 12  1  0  0  0  0
 10 35  1  0  0  0  0
 11 36  1  0  0  0  0
 12 13  1  0  0  0  0
 12 37  1  0  0  0  0
 12 38  1  0  0  0  0
 13 23  1  0  0  0  0
 13 14  1  0  0  0  0
 14 15  1  0  0  0  0
 14 17  2  0  0  0  0
 15 16  1  0  0  0  0
 15 39  1  0  0  0  0
 15 40  1  0  0  0  0
 16 41  1  0  0  0  0
 17 18  1  0  0  0  0
 18 23  2  0  0  0  0
 18 19  1  0  0  0  0
 19 20  2  0  0  0  0
 19 42  1  0  0  0  0
 20 21  1  0  0  0  0
 20 43  1  0  0  0  0
 21 22  2  0  0  0  0
 21 44  1  0  0  0  0
 22 23  1  0  0  0  0
 22 45  1  0  0  0  0
 24 46  1  0  0  0  0
M  END
> <s_m_source_file>
AV-unprocessed.smi

> <i_m_source_file_index>
848

> <i_lp_mmshare_version>
43012

> <i_f3d_flags>
0

> <s_epik_input>
W0NIM11jMVtjSF1jKFtDSDNdKVtjSF1jKFtjSF0xKU9bQ0gyXVtDQEhdKFtPSF0pW0NIMl1uKGMobjIpW0NIMl1bT0hdKWMoYzIzKVtjSF1bY0hdW2NIXVtjSF0z

> <s_epik_cmdline>
J2VwaWtfcHl0aG9uJywgJy1waCcsICc3LjAnLCAnLXRuJywgJzgnLCAnLW1hJywgJzIwMCcsICctbWV0YWxfYmluZGluZycsICctaW1hZScsICc8aW5maWxlLm1hZT4nLCAnLW9tYWUnLCAnPG91dGZpbGUubWFlPic=

> <r_lp_tautomer_probability>
1

> <r_epik_Ionization_Penalty>
0.0554234

> <r_epik_Ionization_Penalty_Charging>
0

> <r_epik_Ionization_Penalty_Neutral>
0.0554234

> <r_epik_State_Penalty>
0.0476717

> <r_epik_Charging_Adjusted_Penalty>
0.0476717

> <i_epik_Tot_Q>
0

> <i_epik_Tot_abs_Q>
0

> <r_epik_Metal_State_Penalty>
4.96399e-05

> <b_epik_Metal_Only>
0

> <s_lp_Force_Field>
OPLS_2005

> <r_lp_Energy>
17.4445

> <b_lp_Chiralities_Consistent>
1

> <s_lp_Variant>
AV-unprocessed.smi:848-1

> <Gold.Version>
5.8.1

> <Gold.Id.Protein>
6NUR|6NUR_protein|mol2

> <Gold.PLP.Fitness>
49.3106

> <Gold.PLP.PLP>
-48.3905

> <Gold.PLP.part.hbond>
-3.5093

> <Gold.PLP.part.metal>
0.0000

> <Gold.PLP.part.buried>
-2.9165

> <Gold.PLP.part.nonpolar>
-42.6498

> <Gold.PLP.part.repulsive>
0.9724

> <Gold.PLP.ligand.clash>
1.3097

> <Gold.PLP.ligand.torsion>
2.1974

> <Gold.PLP.Chemscore.Hbond>
2.1348

> <Gold.PLP.Chemscore.CHOScore>
0.0000

> <Gold.PLP.Chemscore.Metal>
0.0000

> <Gold.Chemscore.Hbonds>
donor molecule, donor type, donor heavy atom, donor atom, acceptor molecule, acceptor atom, score
      L1  H    16    41       P1  7957  0.78
      P1  H  7989  7998       L1    16  0.24
      P1  H  8011  8017       L1    16  0.75

> <Gold.PLP.Chemscore.Internal.Correction>
0.2202

> <Gold.Rescore>
     Score         DG    S(hbond)    S(metal)    S(lipo)     H(rot)  DE(clash)    DE(int)     intcor
     13.68     -16.13       0.89        0.00     130.28       2.96       0.44       2.02       ----

> <Gold.Chemscore.Fitness>
13.6776

> <Gold.Chemscore.DG>
-16.1319

> <Gold.Chemscore.ZeroCoef>
-5.4800

> <Gold.Chemscore.Hbond>
0.8914

> <Gold.Chemscore.Metal>
0.0000

> <Gold.Chemscore.Lipo>
130.2759

> <Gold.Chemscore.Internal_Hbond>
0.0000

> <Gold.Chemscore.DEClash>
0.4380

> <Gold.Chemscore.DEInternal>
2.0163

> <Gold.Chemscore.Rot>
2.9561

> <Gold.Chemscore.Internal.Correction>
   9.000000E+99

> <Gold.Chemscore.Hbonds>
donor molecule, donor type, donor heavy atom, donor atom, acceptor molecule, acceptor atom, score
      L1  H    16    41       P1  7957  0.78
      P1  H  7989  7998       L1    16  0.01
      P1  H  8011  8017       L1    16  0.09

> <Gold.Chemscore.Hbond.Weighted>
-2.9772

> <Gold.Chemscore.Metal.Weighted>
-0.0000

> <Gold.Chemscore.Lipo.Weighted>
-15.2423

> <Gold.Chemscore.Internal_Hbond.Weighted>
0.0000

> <Gold.Chemscore.DEClash.Weighted>
0.4380

> <Gold.Chemscore.DEInternal.Weighted>
2.0163

> <Gold.Chemscore.Rot.Weighted>
7.5677

> <Gold.Chemscore.Internal.Correction.Weighted>
   9.000000E+99

> <Gold.Protein.RotatedTorsions>
[ 6907 6896 6895 6894 ] final   46.54 input  -60.11 | X-H torsion
[ 7974 7965 7964 7962 ] final  -37.51 input  175.53 | X-H torsion
[ 8008 7997 7996 7995 ] final -116.80 input   59.86 | X-H torsion
[ 10167 10162 10161 10158 ] final   46.59 input  -65.29 | X-H torsion
[ 10718 10713 10712 10709 ] final -125.89 input   66.30 | X-H torsion
[ 10763 10752 10751 10750 ] final   91.00 input  -60.55 | X-H torsion
[ 11005 11000 10999 10996 ] final  -97.15 input  -57.11 | X-H torsion

> <Gold.Protein.ActiveResidues>
 VAL166  LYS551  ARG553  GLY616  TRP617  ASP618  TYR619  PRO620  LYS621  CYS622 
 ASP623  PHE694  ASN695  SER759  ASP760  ASP761  ALA762  ILE779  LEU786  VAL792 
 PHE793  MET794  SER795  GLU796  ALA797  LYS798  CYS799  TRP800  GLU811  SER814 

> <Gold.Protein.RotatedAtoms>
  152.2576  134.8068  160.0435 H   0  0  0  0  0  0  0  0  0  0  0  0  # atno 6907 bound_to 6896
  151.8726  133.3473  159.3748 H   0  0  0  0  0  0  0  0  0  0  0  0  # atno 6908 bound_to 6896
  150.7105  134.5025  159.5612 H   0  0  0  0  0  0  0  0  0  0  0  0  # atno 6909 bound_to 6896
  146.0568  140.6404  142.9016 H   0  0  0  0  0  0  0  0  0  0  0  0  # atno 7974 bound_to 7965
  155.0736  140.0393  157.2616 H   0  0  0  0  0  0  0  0  0  0  0  0  # atno 8008 bound_to 7997
  154.6963  140.2664  155.6738 H   0  0  0  0  0  0  0  0  0  0  0  0  # atno 8009 bound_to 7997
  156.2745  140.2749  156.1558 H   0  0  0  0  0  0  0  0  0  0  0  0  # atno 8010 bound_to 7997
  140.3124  144.2804  150.6197 H   0  0  0  0  0  0  0  0  0  0  0  0  # atno 10167 bound_to 10162
  156.1716  130.6671  151.0187 H   0  0  0  0  0  0  0  0  0  0  0  0  # atno 10718 bound_to 10713
  153.2035  135.4413  155.0295 H   0  0  0  0  0  0  0  0  0  0  0  0  # atno 10763 bound_to 10752
  154.8160  135.3315  154.7176 H   0  0  0  0  0  0  0  0  0  0  0  0  # atno 10764 bound_to 10752
  153.7619  135.6991  153.4979 H   0  0  0  0  0  0  0  0  0  0  0  0  # atno 10765 bound_to 10752
  141.1388  133.8149  157.0667 H   0  0  0  0  0  0  0  0  0  0  0  0  # atno 11005 bound_to 11000
  144.7153  140.4186  143.7049 LP  0  0  0  0  0  0  0  0  0  0  0  0  # atno 17320 bound_to 7965
  145.6629  139.1584  143.2798 LP  0  0  0  0  0  0  0  0  0  0  0  0  # atno 17321 bound_to 7965
  140.5556  143.2199  151.7852 LP  0  0  0  0  0  0  0  0  0  0  0  0  # atno 17342 bound_to 10162
  139.4891  144.4417  151.9756 LP  0  0  0  0  0  0  0  0  0  0  0  0  # atno 17343 bound_to 10162
  157.6806  131.0839  150.7378 LP  0  0  0  0  0  0  0  0  0  0  0  0  # atno 17370 bound_to 10713
  156.7437  130.4747  149.5472 LP  0  0  0  0  0  0  0  0  0  0  0  0  # atno 17371 bound_to 10713
  140.0537  134.9792  157.1182 LP  0  0  0  0  0  0  0  0  0  0  0  0  # atno 17394 bound_to 11000
  140.3951  134.2142  155.7165 LP  0  0  0  0  0  0  0  0  0  0  0  0  # atno 17395 bound_to 11000

$$$$
