AV-unprocessed.smi:2722|AV-procd|sdf|10504|dock6
  -GOLD-   2272014543D 1   1.00000     0.00000
 Structure written by MMmdl.
 27 27  0  0  0  0  0  0  0  0  2 V2000
  149.7535  138.7790  155.1427 C   0  0  0  0  0  0  0  0  0  0  0  0
  150.9943  139.2848  155.9123 C   0  0  1  0  0  0  0  0  0  0  0  0
  151.2134  140.6121  155.4711 O   0  0  0  0  0  0  0  0  0  0  0  0
  150.7513  139.3597  157.4526 C   0  0  0  0  0  0  0  0  0  0  0  0
  151.6766  140.2279  158.2095 N   0  0  0  0  0  0  0  0  0  0  0  0
  151.3374  141.5921  158.3202 C   0  0  0  0  0  0  0  0  0  0  0  0
  152.0915  142.4869  158.9849 C   0  0  0  0  0  0  0  0  0  0  0  0
  151.6947  143.9527  159.0517 C   0  0  0  0  0  0  0  0  0  0  0  0
  152.3524  144.6476  158.1239 F   0  0  0  0  0  0  0  0  0  0  0  0
  150.3871  144.1169  158.8488 F   0  0  0  0  0  0  0  0  0  0  0  0
  152.0017  144.4644  160.2436 F   0  0  0  0  0  0  0  0  0  0  0  0
  153.3031  141.9806  159.5990 C   0  0  0  0  0  0  0  0  0  0  0  0
  153.6320  140.6765  159.5224 C   0  0  0  0  0  0  0  0  0  0  0  0
  152.7866  139.7106  158.8162 C   0  0  0  0  0  0  0  0  0  0  0  0
  153.0609  138.5110  158.7809 O   0  0  0  0  0  0  0  0  0  0  0  0
  152.2431  138.4416  155.5625 C   0  0  0  0  0  0  0  0  0  0  0  0
  153.2199  139.0536  155.0743 O   0  0  0  0  0  0  0  0  0  0  0  0
  152.2251  137.2148  155.8091 O   0  5  0  0  0  0  0  0  0  0  0  0
  149.5049  137.7487  155.3961 H   0  0  0  0  0  0  0  0  0  0  0  0
  149.9104  138.8178  154.0638 H   0  0  0  0  0  0  0  0  0  0  0  0
  148.8770  139.3882  155.3649 H   0  0  0  0  0  0  0  0  0  0  0  0
  152.0670  140.8814  155.7749 H   0  0  0  0  0  0  0  0  0  0  0  0
  149.7347  139.7144  157.6327 H   0  0  0  0  0  0  0  0  0  0  0  0
  150.7495  138.3525  157.8732 H   0  0  0  0  0  0  0  0  0  0  0  0
  150.4231  141.8722  157.8170 H   0  0  0  0  0  0  0  0  0  0  0  0
  153.9596  142.6539  160.1294 H   0  0  0  0  0  0  0  0  0  0  0  0
  154.5419  140.3324  159.9916 H   0  0  0  0  0  0  0  0  0  0  0  0
  1  2  1  0  0  0  0
  1 19  1  0  0  0  0
  1 20  1  0  0  0  0
  1 21  1  0  0  0  0
  2  3  1  0  0  0  0
  2  4  1  0  0  0  0
  2 16  1  0  0  0  0
  3 22  1  0  0  0  0
  4  5  1  0  0  0  0
  4 23  1  0  0  0  0
  4 24  1  0  0  0  0
  5 14  1  0  0  0  0
  5  6  1  0  0  0  0
  6  7  2  0  0  0  0
  6 25  1  0  0  0  0
  7  8  1  0  0  0  0
  7 12  1  0  0  0  0
  8  9  1  0  0  0  0
  8 10  1  0  0  0  0
  8 11  1  0  0  0  0
 12 13  2  0  0  0  0
 12 26  1  0  0  0  0
 13 14  1  0  0  0  0
 13 27  1  0  0  0  0
 14 15  2  0  0  0  0
 16 17  2  0  0  0  0
 16 18  1  0  0  0  0
M  CHG  1  18  -1
M  END
> <s_m_source_file>
AV-unprocessed.smi

> <i_m_source_file_index>
2722

> <i_lp_mmshare_version>
43012

> <i_f3d_flags>
0

> <s_epik_input>
Tz1DKFtPSF0pW0NAXShbQ0gzXSkoW09IXSlbQ0gyXW4xW2NIXWMoQyhGKShGKUYpW2NIXVtjSF1jMT1P

> <s_epik_cmdline>
J2VwaWtfcHl0aG9uJywgJy1waCcsICc3LjAnLCAnLXRuJywgJzgnLCAnLW1hJywgJzIwMCcsICctbWV0YWxfYmluZGluZycsICctaW1hZScsICc8aW5maWxlLm1hZT4nLCAnLW9tYWUnLCAnPG91dGZpbGUubWFlPic=

> <r_lp_tautomer_probability>
1

> <r_epik_Ionization_Penalty>
0.000391429

> <r_epik_Ionization_Penalty_Charging>
0.000383902

> <r_epik_Ionization_Penalty_Neutral>
7.52792e-06

> <r_epik_State_Penalty>
0.000234534

> <r_epik_Charging_Adjusted_Penalty>
0.000618436

> <i_epik_Tot_Q>
-1

> <i_epik_Tot_abs_Q>
1

> <r_epik_Metal_State_Penalty>
-0

> <b_epik_Metal_Only>
0

> <s_lp_Force_Field>
OPLS_2005

> <r_lp_Energy>
15.2908

> <b_lp_Chiralities_Consistent>
1

> <s_lp_Variant>
AV-unprocessed.smi:2722-1

> <Gold.Version>
5.8.1

> <Gold.Id.Protein>
6NUR|6NUR_protein|mol2

> <Gold.PLP.Fitness>
50.5966

> <Gold.PLP.PLP>
-40.5820

> <Gold.PLP.part.hbond>
-3.0000

> <Gold.PLP.part.metal>
0.0000

> <Gold.PLP.part.buried>
-5.0642

> <Gold.PLP.part.nonpolar>
-33.0129

> <Gold.PLP.part.repulsive>
0.0218

> <Gold.PLP.ligand.clash>
0.0376

> <Gold.PLP.ligand.torsion>
1.5701

> <Gold.PLP.Chemscore.Hbond>
4.3520

> <Gold.PLP.Chemscore.CHOScore>
0.0000

> <Gold.PLP.Chemscore.Metal>
0.0000

> <Gold.Chemscore.Hbonds>
donor molecule, donor type, donor heavy atom, donor atom, acceptor molecule, acceptor atom, score
      P1  H  7989  7998       L1     3  0.59
      P1  H  7997  8008       L1    17  2.00
      P1  H 10752 10763       L1    18  1.43

> <Gold.PLP.Chemscore.Internal.Correction>
0.1364

> <Gold.Rescore>
     Score         DG    S(hbond)    S(metal)    S(lipo)     H(rot)  DE(clash)    DE(int)     intcor
     11.69     -13.54       2.16        0.00      64.96       2.63       0.01       1.84       ----

> <Gold.Chemscore.Fitness>
11.6916

> <Gold.Chemscore.DG>
-13.5372

> <Gold.Chemscore.ZeroCoef>
-5.4800

> <Gold.Chemscore.Hbond>
2.1563

> <Gold.Chemscore.Metal>
0.0000

> <Gold.Chemscore.Lipo>
64.9604

> <Gold.Chemscore.Internal_Hbond>
0.0000

> <Gold.Chemscore.DEClash>
0.0106

> <Gold.Chemscore.DEInternal>
1.8350

> <Gold.Chemscore.Rot>
2.6348

> <Gold.Chemscore.Internal.Correction>
   9.000000E+99

> <Gold.Chemscore.Hbonds>
donor molecule, donor type, donor heavy atom, donor atom, acceptor molecule, acceptor atom, score
      P1  H  7989  7998       L1     3  0.05
      P1  H  7997  8008       L1    17  0.94
      P1  H 10752 10763       L1    18  0.68

> <Gold.Chemscore.Hbond.Weighted>
-7.2020

> <Gold.Chemscore.Metal.Weighted>
-0.0000

> <Gold.Chemscore.Lipo.Weighted>
-7.6004

> <Gold.Chemscore.Internal_Hbond.Weighted>
0.0000

> <Gold.Chemscore.DEClash.Weighted>
0.0106

> <Gold.Chemscore.DEInternal.Weighted>
1.8350

> <Gold.Chemscore.Rot.Weighted>
6.7451

> <Gold.Chemscore.Internal.Correction.Weighted>
   9.000000E+99

> <Gold.Protein.RotatedTorsions>
[ 6907 6896 6895 6894 ] final -146.81 input  -60.11 | X-H torsion
[ 7974 7965 7964 7962 ] final  -69.28 input  175.53 | X-H torsion
[ 8008 7997 7996 7995 ] final    0.00 input   59.86 | X-H torsion
[ 10167 10162 10161 10158 ] final -175.37 input  -65.29 | X-H torsion
[ 10718 10713 10712 10709 ] final   15.75 input   66.30 | X-H torsion
[ 10763 10752 10751 10750 ] final   70.73 input  -60.55 | X-H torsion
[ 11005 11000 10999 10996 ] final  112.71 input  -57.11 | X-H torsion

> <Gold.Protein.ActiveResidues>
 VAL166  LYS551  ARG553  GLY616  TRP617  ASP618  TYR619  PRO620  LYS621  CYS622 
 ASP623  PHE694  ASN695  SER759  ASP760  ASP761  ALA762  ILE779  LEU786  VAL792 
 PHE793  MET794  SER795  GLU796  ALA797  LYS798  CYS799  TRP800  GLU811  SER814 

> <Gold.Protein.RotatedAtoms>
  151.1469  133.4934  159.2595 H   0  0  0  0  0  0  0  0  0  0  0  0  # atno 6907 bound_to 6896
  151.1596  135.0266  159.8714 H   0  0  0  0  0  0  0  0  0  0  0  0  # atno 6908 bound_to 6896
  152.5463  134.1344  159.8506 H   0  0  0  0  0  0  0  0  0  0  0  0  # atno 6909 bound_to 6896
  145.7057  140.9098  143.0707 H   0  0  0  0  0  0  0  0  0  0  0  0  # atno 7974 bound_to 7965
  154.6631  140.2595  155.7088 H   0  0  0  0  0  0  0  0  0  0  0  0  # atno 8008 bound_to 7997
  156.2627  140.2844  156.1032 H   0  0  0  0  0  0  0  0  0  0  0  0  # atno 8009 bound_to 7997
  155.1279  140.0378  157.2757 H   0  0  0  0  0  0  0  0  0  0  0  0  # atno 8010 bound_to 7997
  139.5584  144.1930  152.1198 H   0  0  0  0  0  0  0  0  0  0  0  0  # atno 10167 bound_to 10162
  157.0579  130.6297  149.5780 H   0  0  0  0  0  0  0  0  0  0  0  0  # atno 10718 bound_to 10713
  153.0358  135.5163  154.7485 H   0  0  0  0  0  0  0  0  0  0  0  0  # atno 10763 bound_to 10752
  154.6463  135.2919  155.0044 H   0  0  0  0  0  0  0  0  0  0  0  0  # atno 10764 bound_to 10752
  154.0944  135.6645  153.4910 H   0  0  0  0  0  0  0  0  0  0  0  0  # atno 10765 bound_to 10752
  139.8934  134.9535  156.6627 H   0  0  0  0  0  0  0  0  0  0  0  0  # atno 11005 bound_to 11000
  144.6956  139.9008  143.7458 LP  0  0  0  0  0  0  0  0  0  0  0  0  # atno 17320 bound_to 7965
  146.0757  139.3745  143.0495 LP  0  0  0  0  0  0  0  0  0  0  0  0  # atno 17321 bound_to 7965
  140.1439  144.5177  150.6727 LP  0  0  0  0  0  0  0  0  0  0  0  0  # atno 17342 bound_to 10162
  140.6861  143.2350  151.5257 LP  0  0  0  0  0  0  0  0  0  0  0  0  # atno 17343 bound_to 10162
  155.9987  130.5062  150.7581 LP  0  0  0  0  0  0  0  0  0  0  0  0  # atno 17370 bound_to 10713
  157.4978  131.0916  151.0351 LP  0  0  0  0  0  0  0  0  0  0  0  0  # atno 17371 bound_to 10713
  140.7434  133.8958  155.8295 LP  0  0  0  0  0  0  0  0  0  0  0  0  # atno 17394 bound_to 11000
  141.0059  134.1087  157.4271 LP  0  0  0  0  0  0  0  0  0  0  0  0  # atno 17395 bound_to 11000

$$$$
