AV-unprocessed.smi:1869|AV-procd|sdf|7592|dock5
  -GOLD-   22720 9303D 1   1.00000     0.00000
 Structure written by MMmdl.
 39 40  0  0  0  0  0  0  0  0  1 V2000
  155.4096  141.7408  166.9869 C   0  0  0  0  0  0  0  0  0  0  0  0
  154.5931  142.8637  166.7047 O   0  0  0  0  0  0  0  0  0  0  0  0
  154.9598  143.5129  165.4986 C   0  0  0  0  0  0  0  0  0  0  0  0
  154.5342  142.6442  164.3110 C   0  0  0  0  0  0  0  0  0  0  0  0
  153.3755  143.2187  163.7138 O   0  0  0  0  0  0  0  0  0  0  0  0
  153.0612  142.8711  162.4162 C   0  0  0  0  0  0  0  0  0  0  0  0
  153.6334  141.7027  161.8752 C   0  0  0  0  0  0  0  0  0  0  0  0
  153.3158  141.3376  160.5531 C   0  0  0  0  0  0  0  0  0  0  0  0
  152.4250  142.1520  159.8145 C   0  0  0  0  0  0  0  0  0  0  0  0
  152.0428  141.9008  158.4694 N   0  0  0  0  0  0  0  0  0  0  0  0
  152.3785  140.8617  157.6788 C   0  0  0  0  0  0  0  0  0  0  0  0
  153.0991  139.9352  158.0516 O   0  0  0  0  0  0  0  0  0  0  0  0
  151.8375  140.9106  156.4336 N   0  0  0  0  0  0  0  0  0  0  0  0
  150.7960  141.8453  155.9743 C   0  0  0  0  0  0  0  0  0  0  0  0
  149.4277  141.1477  156.0473 C   0  0  0  0  0  0  0  0  0  0  0  0
  149.3713  139.7092  154.9333 S   0  0  0  0  0  0  0  0  0  0  0  0
  150.9136  138.8773  155.4270 C   0  0  0  0  0  0  0  0  0  0  0  0
  152.0950  139.8625  155.4382 C   0  0  0  0  0  0  0  0  0  0  0  0
  151.9213  143.3105  160.4409 C   0  0  0  0  0  0  0  0  0  0  0  0
  152.2209  143.6657  161.7080 N   0  0  0  0  0  0  0  0  0  0  0  0
  155.0903  141.2822  167.9228 H   0  0  0  0  0  0  0  0  0  0  0  0
  156.4561  142.0295  167.0933 H   0  0  0  0  0  0  0  0  0  0  0  0
  155.3314  140.9891  166.2002 H   0  0  0  0  0  0  0  0  0  0  0  0
  154.4525  144.4772  165.4432 H   0  0  0  0  0  0  0  0  0  0  0  0
  156.0335  143.7043  165.4664 H   0  0  0  0  0  0  0  0  0  0  0  0
  155.3528  142.5610  163.5939 H   0  0  0  0  0  0  0  0  0  0  0  0
  154.2971  141.6409  164.6682 H   0  0  0  0  0  0  0  0  0  0  0  0
  154.3078  141.0980  162.4635 H   0  0  0  0  0  0  0  0  0  0  0  0
  153.7693  140.4543  160.1307 H   0  0  0  0  0  0  0  0  0  0  0  0
  151.3754  142.5507  158.0803 H   0  0  0  0  0  0  0  0  0  0  0  0
  150.7727  142.7752  156.5425 H   0  0  0  0  0  0  0  0  0  0  0  0
  151.0001  142.1530  154.9476 H   0  0  0  0  0  0  0  0  0  0  0  0
  149.2203  140.8195  157.0665 H   0  0  0  0  0  0  0  0  0  0  0  0
  148.6330  141.8386  155.7656 H   0  0  0  0  0  0  0  0  0  0  0  0
  150.7784  138.4343  156.4146 H   0  0  0  0  0  0  0  0  0  0  0  0
  151.1069  138.0586  154.7340 H   0  0  0  0  0  0  0  0  0  0  0  0
  152.2266  140.3048  154.4498 H   0  0  0  0  0  0  0  0  0  0  0  0
  153.0234  139.3253  155.6377 H   0  0  0  0  0  0  0  0  0  0  0  0
  151.2511  143.9722  159.9115 H   0  0  0  0  0  0  0  0  0  0  0  0
  1  2  1  0  0  0  0
  1 21  1  0  0  0  0
  1 22  1  0  0  0  0
  1 23  1  0  0  0  0
  2  3  1  0  0  0  0
  3  4  1  0  0  0  0
  3 24  1  0  0  0  0
  3 25  1  0  0  0  0
  4  5  1  0  0  0  0
  4 26  1  0  0  0  0
  4 27  1  0  0  0  0
  5  6  1  0  0  0  0
  6 20  1  0  0  0  0
  6  7  2  0  0  0  0
  7  8  1  0  0  0  0
  7 28  1  0  0  0  0
  8  9  2  0  0  0  0
  8 29  1  0  0  0  0
  9 10  1  0  0  0  0
  9 19  1  0  0  0  0
 10 11  1  0  0  0  0
 10 30  1  0  0  0  0
 11 12  2  0  0  0  0
 11 13  1  0  0  0  0
 13 18  1  0  0  0  0
 13 14  1  0  0  0  0
 14 15  1  0  0  0  0
 14 31  1  0  0  0  0
 14 32  1  0  0  0  0
 15 16  1  0  0  0  0
 15 33  1  0  0  0  0
 15 34  1  0  0  0  0
 16 17  1  0  0  0  0
 17 18  1  0  0  0  0
 17 35  1  0  0  0  0
 17 36  1  0  0  0  0
 18 37  1  0  0  0  0
 18 38  1  0  0  0  0
 19 20  2  0  0  0  0
 19 39  1  0  0  0  0
M  END
> <s_m_source_file>
AV-unprocessed.smi

> <i_m_source_file_index>
1869

> <i_lp_mmshare_version>
43012

> <i_f3d_flags>
0

> <s_epik_input>
W0NIM11PW0NIMl1bQ0gyXU9jMVtjSF1bY0hdYyhbY0hdbjEpW05IXUMoPU8pTjJbQ0gyXVtDSDJdU1tDSDJdW0NIMl0y

> <s_epik_cmdline>
J2VwaWtfcHl0aG9uJywgJy1waCcsICc3LjAnLCAnLXRuJywgJzgnLCAnLW1hJywgJzIwMCcsICctbWV0YWxfYmluZGluZycsICctaW1hZScsICc8aW5maWxlLm1hZT4nLCAnLW9tYWUnLCAnPG91dGZpbGUubWFlPic=

> <r_lp_tautomer_probability>
1

> <r_epik_Ionization_Penalty>
6.51674e-05

> <r_epik_Ionization_Penalty_Charging>
0

> <r_epik_Ionization_Penalty_Neutral>
6.51674e-05

> <r_epik_State_Penalty>
-0

> <r_epik_Charging_Adjusted_Penalty>
0

> <i_epik_Tot_Q>
0

> <i_epik_Tot_abs_Q>
0

> <r_epik_Metal_State_Penalty>
-0

> <b_epik_Metal_Only>
0

> <s_lp_Force_Field>
OPLS_2005

> <r_lp_Energy>
28.6984

> <b_lp_Chiralities_Consistent>
1

> <s_lp_Variant>
AV-unprocessed.smi:1869-1

> <Gold.Version>
5.8.1

> <Gold.Id.Protein>
6NUR|6NUR_protein|mol2

> <Gold.PLP.Fitness>
45.9946

> <Gold.PLP.PLP>
-44.3952

> <Gold.PLP.part.hbond>
-2.0000

> <Gold.PLP.part.metal>
0.0000

> <Gold.PLP.part.buried>
-5.9119

> <Gold.PLP.part.nonpolar>
-35.2497

> <Gold.PLP.part.repulsive>
0.4101

> <Gold.PLP.ligand.clash>
0.0000

> <Gold.PLP.ligand.torsion>
0.7352

> <Gold.PLP.Chemscore.Hbond>
0.9913

> <Gold.PLP.Chemscore.CHOScore>
0.0000

> <Gold.PLP.Chemscore.Metal>
0.0000

> <Gold.Chemscore.Hbonds>
donor molecule, donor type, donor heavy atom, donor atom, acceptor molecule, acceptor atom, score
      P1  H  7997  8008       L1    12  1.00

> <Gold.PLP.Chemscore.Internal.Correction>
0.0961

> <Gold.Rescore>
     Score         DG    S(hbond)    S(metal)    S(lipo)     H(rot)  DE(clash)    DE(int)     intcor
     13.04     -15.34       0.85        0.00      95.06       1.61       0.10       2.21       ----

> <Gold.Chemscore.Fitness>
13.0365

> <Gold.Chemscore.DG>
-15.3384

> <Gold.Chemscore.ZeroCoef>
-5.4800

> <Gold.Chemscore.Hbond>
0.8541

> <Gold.Chemscore.Metal>
0.0000

> <Gold.Chemscore.Lipo>
95.0570

> <Gold.Chemscore.Internal_Hbond>
0.0000

> <Gold.Chemscore.DEClash>
0.0968

> <Gold.Chemscore.DEInternal>
2.2051

> <Gold.Chemscore.Rot>
1.6078

> <Gold.Chemscore.Internal.Correction>
   9.000000E+99

> <Gold.Chemscore.Hbonds>
donor molecule, donor type, donor heavy atom, donor atom, acceptor molecule, acceptor atom, score
      P1  H  7997  8008       L1    12  0.58

> <Gold.Chemscore.Hbond.Weighted>
-2.8528

> <Gold.Chemscore.Metal.Weighted>
-0.0000

> <Gold.Chemscore.Lipo.Weighted>
-11.1217

> <Gold.Chemscore.Internal_Hbond.Weighted>
0.0000

> <Gold.Chemscore.DEClash.Weighted>
0.0968

> <Gold.Chemscore.DEInternal.Weighted>
2.2051

> <Gold.Chemscore.Rot.Weighted>
4.1161

> <Gold.Chemscore.Internal.Correction.Weighted>
   9.000000E+99

> <Gold.Protein.RotatedTorsions>
[ 6907 6896 6895 6894 ] final  -18.92 input  -60.11 | X-H torsion
[ 7974 7965 7964 7962 ] final -171.41 input  175.53 | X-H torsion
[ 8008 7997 7996 7995 ] final  -90.99 input   59.86 | X-H torsion
[ 10167 10162 10161 10158 ] final   76.36 input  -65.29 | X-H torsion
[ 10718 10713 10712 10709 ] final  -32.10 input   66.30 | X-H torsion
[ 10763 10752 10751 10750 ] final  -69.83 input  -60.55 | X-H torsion
[ 11005 11000 10999 10996 ] final   63.98 input  -57.11 | X-H torsion

> <Gold.Protein.ActiveResidues>
 VAL166  LYS551  ARG553  GLY616  TRP617  ASP618  TYR619  PRO620  LYS621  CYS622 
 ASP623  PHE694  ASN695  SER759  ASP760  ASP761  ALA762  ILE779  LEU786  VAL792 
 PHE793  MET794  SER795  GLU796  ALA797  LYS798  CYS799  TRP800  GLU811  SER814 

> <Gold.Protein.RotatedAtoms>
  151.2710  135.0684  159.9133 H   0  0  0  0  0  0  0  0  0  0  0  0  # atno 6907 bound_to 6896
  152.5350  134.0131  159.7957 H   0  0  0  0  0  0  0  0  0  0  0  0  # atno 6908 bound_to 6896
  151.0369  133.5690  159.2686 H   0  0  0  0  0  0  0  0  0  0  0  0  # atno 6909 bound_to 6896
  144.7157  140.1926  143.6347 H   0  0  0  0  0  0  0  0  0  0  0  0  # atno 7974 bound_to 7965
  154.7053  140.0524  157.0498 H   0  0  0  0  0  0  0  0  0  0  0  0  # atno 8008 bound_to 7997
  155.0628  140.3191  155.4636 H   0  0  0  0  0  0  0  0  0  0  0  0  # atno 8009 bound_to 7997
  156.2773  140.2095  156.5755 H   0  0  0  0  0  0  0  0  0  0  0  0  # atno 8010 bound_to 7997
  139.9931  144.5742  150.7801 H   0  0  0  0  0  0  0  0  0  0  0  0  # atno 10167 bound_to 10162
  156.3791  130.4353  149.7483 H   0  0  0  0  0  0  0  0  0  0  0  0  # atno 10718 bound_to 10713
  154.4090  135.6013  153.5942 H   0  0  0  0  0  0  0  0  0  0  0  0  # atno 10763 bound_to 10752
  152.9790  135.5925  154.4092 H   0  0  0  0  0  0  0  0  0  0  0  0  # atno 10764 bound_to 10752
  154.3902  135.2842  155.2137 H   0  0  0  0  0  0  0  0  0  0  0  0  # atno 10765 bound_to 10752
  139.9989  134.6474  155.9964 H   0  0  0  0  0  0  0  0  0  0  0  0  # atno 11005 bound_to 11000
  145.8754  139.2294  143.1636 LP  0  0  0  0  0  0  0  0  0  0  0  0  # atno 17320 bound_to 7965
  146.0045  140.8490  143.0002 LP  0  0  0  0  0  0  0  0  0  0  0  0  # atno 17321 bound_to 7965
  140.7447  143.2865  151.3450 LP  0  0  0  0  0  0  0  0  0  0  0  0  # atno 17342 bound_to 10162
  139.6325  144.0693  152.2488 LP  0  0  0  0  0  0  0  0  0  0  0  0  # atno 17343 bound_to 10162
  156.4581  130.7938  151.2959 LP  0  0  0  0  0  0  0  0  0  0  0  0  # atno 17370 bound_to 10713
  157.7491  131.0074  150.3190 LP  0  0  0  0  0  0  0  0  0  0  0  0  # atno 17371 bound_to 10713
  141.1626  133.6538  156.4370 LP  0  0  0  0  0  0  0  0  0  0  0  0  # atno 17394 bound_to 11000
  140.4766  134.6703  157.5153 LP  0  0  0  0  0  0  0  0  0  0  0  0  # atno 17395 bound_to 11000

$$$$
