AV-unprocessed.smi:1278|AV-procd|sdf|5348|dock8
  -GOLD-   22720 4483D 1   1.00000     0.00000
 Structure written by MMmdl.
 39 40  0  0  0  0  0  0  0  0  2 V2000
  145.5878  143.5506  153.5245 C   0  0  0  0  0  0  0  0  0  0  0  0
  146.6819  142.9096  154.3965 C   0  0  1  0  0  0  0  0  0  0  0  0
  146.2037  142.6063  155.8285 C   0  0  0  0  0  0  0  0  0  0  0  0
  145.2667  141.3906  155.8578 C   0  0  0  0  0  0  0  0  0  0  0  0
  145.9138  140.1773  155.1715 C   0  0  0  0  0  0  0  0  0  0  0  0
  146.3225  140.5033  153.7809 N   0  3  2  0  0  0  0  0  0  0  0  0
  146.8062  139.3100  153.0426 C   0  0  0  0  0  0  0  0  0  0  0  0
  145.8732  138.0960  153.2167 C   0  0  0  0  0  0  0  0  0  0  0  0
  146.3528  136.9400  152.4680 N   0  0  0  0  0  0  0  0  0  0  0  0
  145.5856  135.9134  152.0732 C   0  0  0  0  0  0  0  0  0  0  0  0
  144.3809  135.8388  152.3177 O   0  0  0  0  0  0  0  0  0  0  0  0
  146.3003  135.0005  151.3926 N   0  0  0  0  0  0  0  0  0  0  0  0
  145.8477  133.7826  150.8203 C   0  0  0  0  0  0  0  0  0  0  0  0
  146.6530  132.8481  150.3013 N   0  0  0  0  0  0  0  0  0  0  0  0
  145.9368  131.7543  149.8083 C   0  0  0  0  0  0  0  0  0  0  0  0
  144.5778  131.8743  149.9604 C   0  0  0  0  0  0  0  0  0  0  0  0
  144.1403  133.3750  150.7324 S   0  0  0  0  0  0  0  0  0  0  0  0
  147.2775  141.6444  153.7451 C   0  0  0  0  0  0  0  0  0  0  0  0
  144.7455  142.8774  153.3654 H   0  0  0  0  0  0  0  0  0  0  0  0
  145.9797  143.8224  152.5440 H   0  0  0  0  0  0  0  0  0  0  0  0
  145.2027  144.4604  153.9858 H   0  0  0  0  0  0  0  0  0  0  0  0
  147.4833  143.6459  154.4723 H   0  0  0  0  0  0  0  0  0  0  0  0
  147.0694  142.4022  156.4602 H   0  0  0  0  0  0  0  0  0  0  0  0
  145.7095  143.4769  156.2615 H   0  0  0  0  0  0  0  0  0  0  0  0
  145.0156  141.1425  156.8894 H   0  0  0  0  0  0  0  0  0  0  0  0
  144.3246  141.6331  155.3653 H   0  0  0  0  0  0  0  0  0  0  0  0
  146.7831  139.8401  155.7384 H   0  0  0  0  0  0  0  0  0  0  0  0
  145.2001  139.3526  155.1646 H   0  0  0  0  0  0  0  0  0  0  0  0
  146.9360  139.5536  151.9869 H   0  0  0  0  0  0  0  0  0  0  0  0
  147.7939  139.0391  153.4182 H   0  0  0  0  0  0  0  0  0  0  0  0
  145.7738  137.8390  154.2730 H   0  0  0  0  0  0  0  0  0  0  0  0
  144.8699  138.3207  152.8571 H   0  0  0  0  0  0  0  0  0  0  0  0
  147.3330  136.9250  152.2256 H   0  0  0  0  0  0  0  0  0  0  0  0
  147.2816  135.1997  151.2651 H   0  0  0  0  0  0  0  0  0  0  0  0
  146.4764  130.9312  149.3637 H   0  0  0  0  0  0  0  0  0  0  0  0
  143.8108  131.1735  149.6658 H   0  0  0  0  0  0  0  0  0  0  0  0
  147.5675  141.8725  152.7200 H   0  0  0  0  0  0  0  0  0  0  0  0
  148.1920  141.3575  154.2668 H   0  0  0  0  0  0  0  0  0  0  0  0
  145.4825  140.8068  153.3087 H   0  0  0  0  0  0  0  0  0  0  0  0
  1  2  1  0  0  0  0
  1 19  1  0  0  0  0
  1 20  1  0  0  0  0
  1 21  1  0  0  0  0
  2 18  1  0  0  0  0
  2  3  1  0  0  0  0
  2 22  1  0  0  0  0
  3  4  1  0  0  0  0
  3 23  1  0  0  0  0
  3 24  1  0  0  0  0
  4  5  1  0  0  0  0
  4 25  1  0  0  0  0
  4 26  1  0  0  0  0
  5  6  1  0  0  0  0
  5 27  1  0  0  0  0
  5 28  1  0  0  0  0
  6  7  1  0  0  0  0
  6 18  1  0  0  0  0
  6 39  1  0  0  0  0
  7  8  1  0  0  0  0
  7 29  1  0  0  0  0
  7 30  1  0  0  0  0
  8  9  1  0  0  0  0
  8 31  1  0  0  0  0
  8 32  1  0  0  0  0
  9 10  1  0  0  0  0
  9 33  1  0  0  0  0
 10 11  2  0  0  0  0
 10 12  1  0  0  0  0
 12 13  1  0  0  0  0
 12 34  1  0  0  0  0
 13 17  1  0  0  0  0
 13 14  2  0  0  0  0
 14 15  1  0  0  0  0
 15 16  2  0  0  0  0
 15 35  1  0  0  0  0
 16 17  1  0  0  0  0
 16 36  1  0  0  0  0
 18 37  1  0  0  0  0
 18 38  1  0  0  0  0
M  CHG  1   6   1
M  END
> <s_m_source_file>
AV-unprocessed.smi

> <i_m_source_file_index>
1278

> <i_lp_mmshare_version>
43012

> <i_f3d_flags>
0

> <s_epik_input>
W0NIM11bQ0BASF0xW0NIMl1bQ0gyXVtDSDJdTihbQ0gyXTEpW0NIMl1bQ0gyXVtOSF1DKD1PKVtOSF1jMm5bY0hdW2NIXXMy

> <s_epik_cmdline>
J2VwaWtfcHl0aG9uJywgJy1waCcsICc3LjAnLCAnLXRuJywgJzgnLCAnLW1hJywgJzIwMCcsICctbWV0YWxfYmluZGluZycsICctaW1hZScsICc8aW5maWxlLm1hZT4nLCAnLW9tYWUnLCAnPG91dGZpbGUubWFlPic=

> <r_lp_tautomer_probability>
0.999

> <r_epik_Ionization_Penalty>
0.00222194

> <r_epik_Ionization_Penalty_Charging>
0.00208169

> <r_epik_Ionization_Penalty_Neutral>
0.000140251

> <r_epik_State_Penalty>
0.00142585

> <r_epik_Charging_Adjusted_Penalty>
0.00350754

> <i_epik_Tot_Q>
1

> <i_epik_Tot_abs_Q>
1

> <r_epik_Metal_State_Penalty>
0.0570424

> <b_epik_Metal_Only>
0

> <s_lp_Force_Field>
OPLS_2005

> <r_lp_Energy>
16.7193

> <b_lp_Chiralities_Consistent>
1

> <s_lp_Variant>
AV-unprocessed.smi:1278-2

> <Gold.Version>
5.8.1

> <Gold.Id.Protein>
6NUR|6NUR_protein|mol2

> <Gold.PLP.Fitness>
45.0262

> <Gold.PLP.PLP>
-32.3169

> <Gold.PLP.part.hbond>
-3.0000

> <Gold.PLP.part.metal>
0.0000

> <Gold.PLP.part.buried>
-4.1602

> <Gold.PLP.part.nonpolar>
-26.5718

> <Gold.PLP.part.repulsive>
0.7721

> <Gold.PLP.ligand.clash>
0.0000

> <Gold.PLP.ligand.torsion>
0.2299

> <Gold.PLP.Chemscore.Hbond>
4.0000

> <Gold.PLP.Chemscore.CHOScore>
0.3838

> <Gold.PLP.Chemscore.Metal>
0.0000

> <Gold.Chemscore.Hbonds>
donor molecule, donor type, donor heavy atom, donor atom, acceptor molecule, acceptor atom, score
      L1  H     6    39       P1 10175  2.00
      L1  H     9    33       P1  7948  1.00
      L1  H    12    34       P1  7948  1.00
      L1  C    15    35       P1 10747  0.47

> <Gold.PLP.Chemscore.Internal.Correction>
0.0178

> <Gold.Rescore>
     Score         DG    S(hbond)    S(metal)    S(lipo)     H(rot)  DE(clash)    DE(int)     intcor
     15.34     -17.27       2.18        0.00      73.64       1.60       0.53       1.41       ----

> <Gold.Chemscore.Fitness>
15.3369

> <Gold.Chemscore.DG>
-17.2693

> <Gold.Chemscore.ZeroCoef>
-5.4800

> <Gold.Chemscore.Hbond>
2.1767

> <Gold.Chemscore.Metal>
0.0000

> <Gold.Chemscore.Lipo>
73.6356

> <Gold.Chemscore.Internal_Hbond>
0.0000

> <Gold.Chemscore.DEClash>
0.5264

> <Gold.Chemscore.DEInternal>
1.4059

> <Gold.Chemscore.Rot>
1.6001

> <Gold.Chemscore.Internal.Correction>
   9.000000E+99

> <Gold.Chemscore.Hbonds>
donor molecule, donor type, donor heavy atom, donor atom, acceptor molecule, acceptor atom, score
      L1  H     6    39       P1 10175  0.70
      L1  H     9    33       P1  7948  0.99
      L1  H    12    34       P1  7948  0.65

> <Gold.Chemscore.Hbond.Weighted>
-7.2702

> <Gold.Chemscore.Metal.Weighted>
-0.0000

> <Gold.Chemscore.Lipo.Weighted>
-8.6154

> <Gold.Chemscore.Internal_Hbond.Weighted>
0.0000

> <Gold.Chemscore.DEClash.Weighted>
0.5264

> <Gold.Chemscore.DEInternal.Weighted>
1.4059

> <Gold.Chemscore.Rot.Weighted>
4.0963

> <Gold.Chemscore.Internal.Correction.Weighted>
   9.000000E+99

> <Gold.Protein.RotatedTorsions>
[ 6907 6896 6895 6894 ] final  172.46 input  -60.11 | X-H torsion
[ 7974 7965 7964 7962 ] final -168.00 input  175.53 | X-H torsion
[ 8008 7997 7996 7995 ] final -162.15 input   59.86 | X-H torsion
[ 10167 10162 10161 10158 ] final  100.44 input  -65.29 | X-H torsion
[ 10718 10713 10712 10709 ] final  128.15 input   66.30 | X-H torsion
[ 10763 10752 10751 10750 ] final   84.90 input  -60.55 | X-H torsion
[ 11005 11000 10999 10996 ] final  132.04 input  -57.11 | X-H torsion

> <Gold.Protein.ActiveResidues>
 VAL166  LYS551  ARG553  GLY616  TRP617  ASP618  TYR619  PRO620  LYS621  CYS622 
 ASP623  PHE694  ASN695  SER759  ASP760  ASP761  ALA762  ILE779  LEU786  VAL792 
 PHE793  MET794  SER795  GLU796  ALA797  LYS798  CYS799  TRP800  GLU811  SER814 

> <Gold.Protein.RotatedAtoms>
  151.7840  133.3352  159.3479 H   0  0  0  0  0  0  0  0  0  0  0  0  # atno 6907 bound_to 6896
  150.7416  134.5905  159.5994 H   0  0  0  0  0  0  0  0  0  0  0  0  # atno 6908 bound_to 6896
  152.3257  134.7326  160.0354 H   0  0  0  0  0  0  0  0  0  0  0  0  # atno 6909 bound_to 6896
  144.7211  140.2435  143.6288 H   0  0  0  0  0  0  0  0  0  0  0  0  # atno 7974 bound_to 7965
  155.8026  140.0894  157.1949 H   0  0  0  0  0  0  0  0  0  0  0  0  # atno 8008 bound_to 7997
  154.3981  140.1469  156.3351 H   0  0  0  0  0  0  0  0  0  0  0  0  # atno 8009 bound_to 7997
  155.8447  140.3437  155.5657 H   0  0  0  0  0  0  0  0  0  0  0  0  # atno 8010 bound_to 7997
  139.7527  144.6979  151.0408 H   0  0  0  0  0  0  0  0  0  0  0  0  # atno 10167 bound_to 10162
  157.5270  131.1098  150.9067 H   0  0  0  0  0  0  0  0  0  0  0  0  # atno 10718 bound_to 10713
  153.1425  135.4637  154.9517 H   0  0  0  0  0  0  0  0  0  0  0  0  # atno 10763 bound_to 10752
  154.7759  135.3173  154.8096 H   0  0  0  0  0  0  0  0  0  0  0  0  # atno 10764 bound_to 10752
  153.8616  135.6912  153.4836 H   0  0  0  0  0  0  0  0  0  0  0  0  # atno 10765 bound_to 10752
  139.9766  134.9561  156.9525 H   0  0  0  0  0  0  0  0  0  0  0  0  # atno 11005 bound_to 11000
  145.8297  139.2080  143.1890 LP  0  0  0  0  0  0  0  0  0  0  0  0  # atno 17320 bound_to 7965
  146.0442  140.8135  142.9814 LP  0  0  0  0  0  0  0  0  0  0  0  0  # atno 17321 bound_to 7965
  140.7799  143.4789  151.0044 LP  0  0  0  0  0  0  0  0  0  0  0  0  # atno 17342 bound_to 10162
  139.8477  143.7480  152.3179 LP  0  0  0  0  0  0  0  0  0  0  0  0  # atno 17343 bound_to 10162
  156.9660  130.5473  149.5288 LP  0  0  0  0  0  0  0  0  0  0  0  0  # atno 17370 bound_to 10713
  156.0394  130.5478  150.8734 LP  0  0  0  0  0  0  0  0  0  0  0  0  # atno 17371 bound_to 10713
  140.5182  134.0934  155.7286 LP  0  0  0  0  0  0  0  0  0  0  0  0  # atno 17394 bound_to 11000
  141.1442  133.9084  157.2254 LP  0  0  0  0  0  0  0  0  0  0  0  0  # atno 17395 bound_to 11000

$$$$
