AV-unprocessed.smi:112|AV-procd|sdf|1084|dock10
  -GOLD-   2262018183D 1   1.00000     0.00000
 Structure written by MMmdl.
 54 57  0  0  0  0  0  0  0  0  3 V2000
  152.0349  144.1140  161.6910 C   0  0  0  0  0  0  0  0  0  0  0  0
  152.6130  142.9511  160.9002 C   0  0  0  0  0  0  0  0  0  0  0  0
  152.1864  142.6474  159.6533 C   0  0  0  0  0  0  0  0  0  0  0  0
  152.6843  141.5974  158.9056 N   0  0  0  0  0  0  0  0  0  0  0  0
  152.1873  141.3665  157.4959 C   0  0  1  0  0  0  0  0  0  0  0  0
  151.7002  139.9414  157.2649 C   0  0  0  0  0  0  0  0  0  0  0  0
  150.7442  140.1860  156.1178 C   0  0  1  0  0  0  0  0  0  0  0  0
  149.8223  139.1241  155.9717 O   0  0  0  0  0  0  0  0  0  0  0  0
  150.1219  141.5589  156.4567 C   0  0  1  0  0  0  0  0  0  0  0  0
  148.8168  141.5045  157.2780 C   0  0  0  0  0  0  0  0  0  0  0  0
  148.6103  142.7379  157.9329 O   0  0  0  0  0  0  0  0  0  0  0  0
  151.1071  142.2147  157.2634 O   0  0  0  0  0  0  0  0  0  0  0  0
  153.7310  140.8076  159.4274 C   0  0  0  0  0  0  0  0  0  0  0  0
  154.2116  139.8749  158.7798 O   0  0  0  0  0  0  0  0  0  0  0  0
  154.2050  141.1023  160.7266 N   0  0  0  0  0  0  0  0  0  0  0  0
  155.2827  140.2606  161.2960 C   0  0  0  0  0  0  0  0  0  0  0  0
  154.8240  138.8364  161.6796 C   0  0  0  0  0  0  0  0  0  0  0  0
  154.4185  138.0834  160.7934 O   0  0  0  0  0  0  0  0  0  0  0  0
  154.8909  138.4791  162.9864 N   0  0  0  0  0  0  0  0  0  0  0  0
  154.4556  137.1661  163.4936 C   0  0  0  0  0  0  0  0  0  0  0  0
  154.6929  137.1902  165.0195 C   0  0  0  0  0  0  0  0  0  0  0  0
  155.2714  138.5545  165.2516 C   0  0  0  0  0  0  0  0  0  0  0  0
  155.6787  139.0944  166.4833 C   0  0  0  0  0  0  0  0  0  0  0  0
  156.2109  140.4073  166.5128 C   0  0  0  0  0  0  0  0  0  0  0  0
  156.6499  141.0070  167.7884 N   0  3  0  0  0  0  0  0  0  0  0  0
  157.2309  142.0869  167.7541 O   0  0  0  0  0  0  0  0  0  0  0  0
  156.4146  140.3989  168.8276 O   0  5  0  0  0  0  0  0  0  0  0  0
  156.3165  141.1366  165.2986 C   0  0  0  0  0  0  0  0  0  0  0  0
  155.9010  140.5786  164.0698 C   0  0  0  0  0  0  0  0  0  0  0  0
  155.3723  139.2694  164.0640 C   0  0  0  0  0  0  0  0  0  0  0  0
  153.6740  142.1519  161.5165 C   0  0  0  0  0  0  0  0  0  0  0  0
  154.0976  142.3573  162.6557 O   0  0  0  0  0  0  0  0  0  0  0  0
  151.2530  144.6327  161.1355 H   0  0  0  0  0  0  0  0  0  0  0  0
  152.8140  144.8397  161.9273 H   0  0  0  0  0  0  0  0  0  0  0  0
  151.6000  143.7612  162.6269 H   0  0  0  0  0  0  0  0  0  0  0  0
  151.4173  143.2655  159.2161 H   0  0  0  0  0  0  0  0  0  0  0  0
  152.9786  141.6349  156.7963 H   0  0  0  0  0  0  0  0  0  0  0  0
  152.5274  139.2735  157.0235 H   0  0  0  0  0  0  0  0  0  0  0  0
  151.1722  139.5629  158.1402 H   0  0  0  0  0  0  0  0  0  0  0  0
  151.3173  140.2749  155.1935 H   0  0  0  0  0  0  0  0  0  0  0  0
  150.1602  138.5185  155.3296 H   0  0  0  0  0  0  0  0  0  0  0  0
  149.9556  142.1170  155.5342 H   0  0  0  0  0  0  0  0  0  0  0  0
  147.9537  141.3515  156.6306 H   0  0  0  0  0  0  0  0  0  0  0  0
  148.8250  140.6892  158.0004 H   0  0  0  0  0  0  0  0  0  0  0  0
  148.7533  143.4355  157.3116 H   0  0  0  0  0  0  0  0  0  0  0  0
  156.1167  140.1916  160.5965 H   0  0  0  0  0  0  0  0  0  0  0  0
  155.7135  140.7389  162.1766 H   0  0  0  0  0  0  0  0  0  0  0  0
  153.3994  136.9981  163.2790 H   0  0  0  0  0  0  0  0  0  0  0  0
  155.0318  136.3626  163.0327 H   0  0  0  0  0  0  0  0  0  0  0  0
  153.7633  137.0707  165.5765 H   0  0  0  0  0  0  0  0  0  0  0  0
  155.3962  136.4186  165.3341 H   0  0  0  0  0  0  0  0  0  0  0  0
  155.5829  138.5062  167.3839 H   0  0  0  0  0  0  0  0  0  0  0  0
  156.7208  142.1381  165.2975 H   0  0  0  0  0  0  0  0  0  0  0  0
  156.0007  141.1659  163.1708 H   0  0  0  0  0  0  0  0  0  0  0  0
  1  2  1  0  0  0  0
  1 33  1  0  0  0  0
  1 34  1  0  0  0  0
  1 35  1  0  0  0  0
  2 31  1  0  0  0  0
  2  3  2  0  0  0  0
  3  4  1  0  0  0  0
  3 36  1  0  0  0  0
  4  5  1  0  0  0  0
  4 13  1  0  0  0  0
  5 12  1  0  0  0  0
  5  6  1  0  0  0  0
  5 37  1  0  0  0  0
  6  7  1  0  0  0  0
  6 38  1  0  0  0  0
  6 39  1  0  0  0  0
  7  8  1  0  0  0  0
  7  9  1  0  0  0  0
  7 40  1  0  0  0  0
  8 41  1  0  0  0  0
  9 10  1  0  0  0  0
  9 12  1  0  0  0  0
  9 42  1  0  0  0  0
 10 11  1  0  0  0  0
 10 43  1  0  0  0  0
 10 44  1  0  0  0  0
 11 45  1  0  0  0  0
 13 14  2  0  0  0  0
 13 15  1  0  0  0  0
 15 16  1  0  0  0  0
 15 31  1  0  0  0  0
 16 17  1  0  0  0  0
 16 46  1  0  0  0  0
 16 47  1  0  0  0  0
 17 18  2  0  0  0  0
 17 19  1  0  0  0  0
 19 30  1  0  0  0  0
 19 20  1  0  0  0  0
 20 21  1  0  0  0  0
 20 48  1  0  0  0  0
 20 49  1  0  0  0  0
 21 22  1  0  0  0  0
 21 50  1  0  0  0  0
 21 51  1  0  0  0  0
 22 30  2  0  0  0  0
 22 23  1  0  0  0  0
 23 24  2  0  0  0  0
 23 52  1  0  0  0  0
 24 25  1  0  0  0  0
 24 28  1  0  0  0  0
 25 26  2  0  0  0  0
 25 27  1  0  0  0  0
 28 29  2  0  0  0  0
 28 53  1  0  0  0  0
 29 30  1  0  0  0  0
 29 54  1  0  0  0  0
 31 32  2  0  0  0  0
M  CHG  1  25   1
M  CHG  1  27  -1
M  END
> <s_m_source_file>
AV-unprocessed.smi

> <i_m_source_file_index>
112

> <i_lp_mmshare_version>
43012

> <i_f3d_flags>
0

> <s_epik_input>
W09IXVtDSDJdW0NAQEhdKE8xKVtDQEhdKFtPSF0pW0NIMl1bQ0BIXTFuKFtjSF1jMltDSDNdKWMoPU8pbihjMj1PKVtDSDJdQyg9TylOKFtDSDJdW0NIMl0zKWMoYzM0KVtjSF1bY0hdYyhbY0hdNClbTitdKD1PKVtPLV0=

> <s_epik_cmdline>
J2VwaWtfcHl0aG9uJywgJy1waCcsICc3LjAnLCAnLXRuJywgJzgnLCAnLW1hJywgJzIwMCcsICctbWV0YWxfYmluZGluZycsICctaW1hZScsICc8aW5maWxlLm1hZT4nLCAnLW9tYWUnLCAnPG91dGZpbGUubWFlPic=

> <r_lp_tautomer_probability>
1

> <r_epik_Ionization_Penalty>
2.5696e-07

> <r_epik_Ionization_Penalty_Charging>
1.04886e-08

> <r_epik_Ionization_Penalty_Neutral>
2.46472e-07

> <r_epik_State_Penalty>
-0

> <r_epik_Charging_Adjusted_Penalty>
1.04886e-08

> <i_epik_Tot_Q>
0

> <i_epik_Tot_abs_Q>
2

> <r_epik_Metal_State_Penalty>
-0

> <b_epik_Metal_Only>
0

> <s_epik_Chemistry_Notes>
This compound contains an acetal/aminal-like group ( X-CH(R)-Y where X, Y are N, S, or O) that may be acid/base labile, releasing an aldehyde.

> <s_lp_Force_Field>
OPLS_2005

> <r_lp_Energy>
61.1797

> <b_lp_Chiralities_Consistent>
1

> <s_lp_Variant>
AV-unprocessed.smi:112-2

> <Gold.Version>
5.8.1

> <Gold.Id.Protein>
6NUR|6NUR_protein|mol2

> <Gold.PLP.Fitness>
56.1498

> <Gold.PLP.PLP>
-55.5168

> <Gold.PLP.part.hbond>
-4.3166

> <Gold.PLP.part.metal>
0.0000

> <Gold.PLP.part.buried>
-5.6444

> <Gold.PLP.part.nonpolar>
-44.4049

> <Gold.PLP.part.repulsive>
0.1721

> <Gold.PLP.ligand.clash>
4.5717

> <Gold.PLP.ligand.torsion>
0.4151

> <Gold.PLP.Chemscore.Hbond>
2.0000

> <Gold.PLP.Chemscore.CHOScore>
0.0000

> <Gold.PLP.Chemscore.Metal>
0.0000

> <Gold.Chemscore.Hbonds>
donor molecule, donor type, donor heavy atom, donor atom, acceptor molecule, acceptor atom, score
      L1  H    11    45       P1  8028  0.88
      P1  H  7997  8010       L1    14  0.56

> <Gold.PLP.Chemscore.Internal.Correction>
0.0349

> <Gold.Rescore>
     Score         DG    S(hbond)    S(metal)    S(lipo)     H(rot)  DE(clash)    DE(int)     intcor
      7.38     -12.93       0.95        0.00     108.63       3.29       0.16       5.40       ----

> <Gold.Chemscore.Fitness>
7.3751

> <Gold.Chemscore.DG>
-12.9321

> <Gold.Chemscore.ZeroCoef>
-5.4800

> <Gold.Chemscore.Hbond>
0.9488

> <Gold.Chemscore.Metal>
0.0000

> <Gold.Chemscore.Lipo>
108.6308

> <Gold.Chemscore.Internal_Hbond>
0.0000

> <Gold.Chemscore.DEClash>
0.1591

> <Gold.Chemscore.DEInternal>
5.3980

> <Gold.Chemscore.Rot>
3.2916

> <Gold.Chemscore.Internal.Correction>
   9.000000E+99

> <Gold.Chemscore.Hbonds>
donor molecule, donor type, donor heavy atom, donor atom, acceptor molecule, acceptor atom, score
      L1  H    11    45       P1  8028  0.22
      P1  H  7997  8010       L1    14  0.55

> <Gold.Chemscore.Hbond.Weighted>
-3.1688

> <Gold.Chemscore.Metal.Weighted>
-0.0000

> <Gold.Chemscore.Lipo.Weighted>
-12.7098

> <Gold.Chemscore.Internal_Hbond.Weighted>
0.0000

> <Gold.Chemscore.DEClash.Weighted>
0.1591

> <Gold.Chemscore.DEInternal.Weighted>
5.3980

> <Gold.Chemscore.Rot.Weighted>
8.4265

> <Gold.Chemscore.Internal.Correction.Weighted>
   9.000000E+99

> <Gold.Protein.RotatedTorsions>
[ 6907 6896 6895 6894 ] final -160.40 input  -60.11 | X-H torsion
[ 7974 7965 7964 7962 ] final -100.47 input  175.53 | X-H torsion
[ 8008 7997 7996 7995 ] final   43.99 input   59.86 | X-H torsion
[ 10167 10162 10161 10158 ] final  119.39 input  -65.29 | X-H torsion
[ 10718 10713 10712 10709 ] final  -28.11 input   66.30 | X-H torsion
[ 10763 10752 10751 10750 ] final  107.67 input  -60.55 | X-H torsion
[ 11005 11000 10999 10996 ] final  109.83 input  -57.11 | X-H torsion

> <Gold.Protein.ActiveResidues>
 VAL166  LYS551  ARG553  GLY616  TRP617  ASP618  TYR619  PRO620  LYS621  CYS622 
 ASP623  PHE694  ASN695  SER759  ASP760  ASP761  ALA762  ILE779  LEU786  VAL792 
 PHE793  MET794  SER795  GLU796  ALA797  LYS798  CYS799  TRP800  GLU811  SER814 

> <Gold.Protein.RotatedAtoms>
  151.3486  133.3934  159.2677 H   0  0  0  0  0  0  0  0  0  0  0  0  # atno 6907 bound_to 6896
  150.9820  134.9174  159.7860 H   0  0  0  0  0  0  0  0  0  0  0  0  # atno 6908 bound_to 6896
  152.5220  134.3450  159.9283 H   0  0  0  0  0  0  0  0  0  0  0  0  # atno 6909 bound_to 6896
  145.2942  140.9360  143.2860 H   0  0  0  0  0  0  0  0  0  0  0  0  # atno 7974 bound_to 7965
  155.3119  140.3391  155.4243 H   0  0  0  0  0  0  0  0  0  0  0  0  # atno 8008 bound_to 7997
  156.1951  140.1712  156.8052 H   0  0  0  0  0  0  0  0  0  0  0  0  # atno 8009 bound_to 7997
  154.5489  140.0709  156.8619 H   0  0  0  0  0  0  0  0  0  0  0  0  # atno 8010 bound_to 7997
  139.6049  144.7067  151.2976 H   0  0  0  0  0  0  0  0  0  0  0  0  # atno 10167 bound_to 10162
  156.4294  130.4442  149.7127 H   0  0  0  0  0  0  0  0  0  0  0  0  # atno 10718 bound_to 10713
  153.4099  135.3837  155.2043 H   0  0  0  0  0  0  0  0  0  0  0  0  # atno 10763 bound_to 10752
  154.8737  135.3791  154.4514 H   0  0  0  0  0  0  0  0  0  0  0  0  # atno 10764 bound_to 10752
  153.5021  135.7088  153.5888 H   0  0  0  0  0  0  0  0  0  0  0  0  # atno 10765 bound_to 10752
  139.8870  134.9468  156.6186 H   0  0  0  0  0  0  0  0  0  0  0  0  # atno 11005 bound_to 11000
  144.9147  139.4485  143.6570 LP  0  0  0  0  0  0  0  0  0  0  0  0  # atno 17320 bound_to 7965
  146.3174  139.7975  142.8972 LP  0  0  0  0  0  0  0  0  0  0  0  0  # atno 17321 bound_to 7965
  140.7277  143.6955  150.7887 LP  0  0  0  0  0  0  0  0  0  0  0  0  # atno 17342 bound_to 10162
  140.0538  143.5223  152.2661 LP  0  0  0  0  0  0  0  0  0  0  0  0  # atno 17343 bound_to 10162
  156.4036  130.7687  151.2696 LP  0  0  0  0  0  0  0  0  0  0  0  0  # atno 17370 bound_to 10713
  157.7508  131.0232  150.3825 LP  0  0  0  0  0  0  0  0  0  0  0  0  # atno 17371 bound_to 10713
  140.7756  133.8702  155.8526 LP  0  0  0  0  0  0  0  0  0  0  0  0  # atno 17394 bound_to 11000
  140.9804  134.1413  157.4499 LP  0  0  0  0  0  0  0  0  0  0  0  0  # atno 17395 bound_to 11000

$$$$
