#       Name:                AV-unprocessed.smi:1468
#       Creating user name   scv26
#       Creation time:       Fri Mar 27 06:04:27 2020


#       File generated by GOLD software.
#

@<TRIPOS>MOLECULE
AV-unprocessed.smi:1468
    38    39     1
SMALL
NO_CHARGES


@<TRIPOS>ATOM
      1 ****        -0.2295   2.8258   0.3654 O.2            1 S1                 0.0000
      2 ****         0.4633   1.8104   0.4255 C.2            1 S1                 0.0000
      3 ****         1.9885   1.9251   0.3886 C.3            1 S1                 0.0000
      4 ****         2.5456   1.2846  -0.7903 N.pl3          1 S1                 0.0000
      5 ****         2.5152   1.7195  -2.0980 C.2            1 S1                 0.0000
      6 ****         3.1726   0.7890  -2.8502 C.2            1 S1                 0.0000
      7 ****         3.5821  -0.1955  -1.9046 C.2            1 S1                 0.0000
      8 ****         4.3573  -1.4630  -2.1512 C.3            1 S1                 0.0000
      9 ****         4.6285  -1.5944  -3.4497 F              1 S1                 0.0000
     10 ****         5.5052  -1.4325  -1.4743 F              1 S1                 0.0000
     11 ****         3.6454  -2.5173  -1.7532 F              1 S1                 0.0000
     12 ****         3.2006   0.1097  -0.6714 N.2            1 S1                 0.0000
     13 ****        -0.0446   0.5725   0.5371 N.am           1 S1                 0.0000
     14 ****        -1.4653   0.2456   0.6070 C.3            1 S1                 0.0000
     15 ****        -1.9756   0.3605   2.0582 C.3            1 S1                 0.0000
     16 ****        -3.4530  -0.0492   2.1678 C.3            1 S1                 0.0000
     17 ****        -3.6810  -1.4650   1.6160 C.3            1 S1                 0.0000
     18 ****        -3.1764  -1.5845   0.1691 C.3            1 S1                 0.0000
     19 ****        -1.6986  -1.1742   0.0570 C.3            1 S1                 0.0000
     20 ****         2.2840   2.9751   0.3845 H              1 S1                 0.0000
     21 ****         2.4127   1.4758   1.2881 H              1 S1                 0.0000
     22 ****         2.0330   2.6441  -2.3803 H              1 S1                 0.0000
     23 ****         3.3389   0.8093  -3.9170 H              1 S1                 0.0000
     24 ****         0.6035  -0.2012   0.5775 H              1 S1                 0.0000
     25 ****        -2.0236   0.9447  -0.0192 H              1 S1                 0.0000
     26 ****        -1.3760  -0.2749   2.7117 H              1 S1                 0.0000
     27 ****        -1.8520   1.3811   2.4222 H              1 S1                 0.0000
     28 ****        -3.7764   0.0017   3.2079 H              1 S1                 0.0000
     29 ****        -4.0695   0.6620   1.6168 H              1 S1                 0.0000
     30 ****        -3.1634  -2.1904   2.2452 H              1 S1                 0.0000
     31 ****        -4.7411  -1.7159   1.6624 H              1 S1                 0.0000
     32 ****        -3.3060  -2.6072  -0.1861 H              1 S1                 0.0000
     33 ****        -3.7813  -0.9520  -0.4819 H              1 S1                 0.0000
     34 ****        -1.3809  -1.2280  -0.9851 H              1 S1                 0.0000
     35 ****        -1.0833  -1.8896   0.6047 H              1 S1                 0.0000
     36 ****         0.2047   3.7237   0.2926 LP             1 S1                 0.0000
     37 ****        -1.2265   2.7529   0.3894 LP             1 S1                 0.0000
     38 ****         3.3627  -0.4156   0.1640 LP             1 S1                 0.0000
@<TRIPOS>BOND
    1    1    2 2     
    2    2    3 1     
    3    2   13 am    
    4    3    4 1     
    5    3   20 1     
    6    3   21 1     
    7    4   12 1     
    8    4    5 1     
    9    5    6 2     
   10    5   22 1     
   11    6    7 1     
   12    6   23 1     
   13    7    8 1     
   14    7   12 2     
   15    8    9 1     
   16    8   10 1     
   17    8   11 1     
   18   13   14 1     
   19   13   24 1     
   20   14   19 1     
   21   14   15 1     
   22   14   25 1     
   23   15   16 1     
   24   15   26 1     
   25   15   27 1     
   26   16   17 1     
   27   16   28 1     
   28   16   29 1     
   29   17   18 1     
   30   17   30 1     
   31   17   31 1     
   32   18   19 1     
   33   18   32 1     
   34   18   33 1     
   35   19   34 1     
   36   19   35 1     
   37    1   36 1     
   38    1   37 1     
   39   12   38 1     
@<TRIPOS>SUBSTRUCTURE
      1 S1             1
@<TRIPOS>SET
LONE_PAIRS      STATIC     ATOMS    <user>   **** ""
3 36 37 38
DONOR_HYDROGENS      STATIC     ATOMS    <user>   **** ""
1 24
ATOM$BLUE        STATIC     ATOMS    COLORGROUP SYSTEM
3 36 37 38
ATOM$RED        STATIC     ATOMS    COLORGROUP SYSTEM
1 24
