#       Name:                AV-unprocessed.smi:249
#       Creating user name   scv26
#       Creation time:       Thu Mar 26 21:04:42 2020


#       File generated by GOLD software.
#

@<TRIPOS>MOLECULE
AV-unprocessed.smi:249
    71    74     1
SMALL
NO_CHARGES


@<TRIPOS>ATOM
      1 ****        -5.5400  -4.2985   2.2755 C.3            1 S1                 0.0000
      2 ****        -4.9683  -3.8147   0.9325 C.3            1 S1                 0.0000
      3 ****        -4.3792  -2.4456   0.9983 N.4            1 S1                 1.0000
      4 ****        -3.1658  -2.4116   1.8661 C.3            1 S1                 0.0000
      5 ****        -2.6167  -0.9896   2.0422 C.3            1 S1                 0.0000
      6 ****        -2.2912  -0.3708   0.6770 C.3            1 S1                 0.0000
      7 ****        -1.7106   0.9720   0.7913 N.pl3          1 S1                 0.0000
      8 ****        -2.4764   2.0500   1.4159 C.3            1 S1                 0.0000
      9 ****        -0.3635   1.0087   0.9578 C.ar           1 S1                 0.0000
     10 ****         0.1590   1.5407   2.0947 N.ar           1 S1                 0.0000
     11 ****         1.4814   1.5609   2.2831 C.ar           1 S1                 0.0000
     12 ****         2.4452   1.1155   1.4758 N.ar           1 S1                 0.0000
     13 ****         1.9310   0.5967   0.3240 C.ar           1 S1                 0.0000
     14 ****         0.5497   0.4979  -0.0075 C.ar           1 S1                 0.0000
     15 ****         0.4033  -0.0988  -1.2537 N.2            1 S1                 0.0000
     16 ****         1.6267  -0.3509  -1.6305 C.2            1 S1                 0.0000
     17 ****         2.6104   0.0610  -0.7588 N.pl3          1 S1                 0.0000
     18 ****         4.0464  -0.1135  -0.9306 C.3            1 S1                 0.0000
     19 ****         4.8796   1.1968  -0.8275 C.3            1 S1                 0.0000
     20 ****         6.2954   0.8550  -0.3048 C.3            1 S1                 0.0000
     21 ****         6.2525   0.4481   1.0477 O.3            1 S1                 0.0000
     22 ****         4.9843   1.9997  -2.1611 C.3            1 S1                 0.0000
     23 ****         3.6810   2.2835  -2.8944 C.3            1 S1                 0.0000
     24 ****         3.1091   3.4752  -2.1347 C.3            1 S1                 0.0000
     25 ****         4.2437   4.1906  -1.6582 O.3            1 S1                 0.0000
     26 ****         5.4306   3.4534  -1.9375 C.3            1 S1                 0.0000
     27 ****        -3.5557  -0.3982  -0.1925 C.3            1 S1                 0.0000
     28 ****        -4.1152  -1.8301  -0.3450 C.3            1 S1                 0.0000
     29 ****        -5.3661  -1.7730  -1.2473 C.3            1 S1                 0.0000
     30 ****        -6.0923  -5.2286   2.1393 H              1 S1                 0.0000
     31 ****        -6.2297  -3.5671   2.6977 H              1 S1                 0.0000
     32 ****        -4.7632  -4.5010   3.0118 H              1 S1                 0.0000
     33 ****        -4.2273  -4.5215   0.5559 H              1 S1                 0.0000
     34 ****        -5.8013  -3.8394   0.2341 H              1 S1                 0.0000
     35 ****        -3.3894  -2.8024   2.8571 H              1 S1                 0.0000
     36 ****        -2.3965  -3.0579   1.4399 H              1 S1                 0.0000
     37 ****        -3.3489  -0.3813   2.5746 H              1 S1                 0.0000
     38 ****        -1.7219  -1.0180   2.6654 H              1 S1                 0.0000
     39 ****        -1.5653  -1.0255   0.1955 H              1 S1                 0.0000
     40 ****        -1.9821   3.0109   1.2663 H              1 S1                 0.0000
     41 ****        -2.5819   1.8850   2.4887 H              1 S1                 0.0000
     42 ****        -3.4724   2.1311   0.9828 H              1 S1                 0.0000
     43 ****         1.8152   1.9952   3.2139 H              1 S1                 0.0000
     44 ****         1.8474  -0.8354  -2.5706 H              1 S1                 0.0000
     45 ****         4.3533  -0.8261  -0.1647 H              1 S1                 0.0000
     46 ****         4.2373  -0.6068  -1.8846 H              1 S1                 0.0000
     47 ****         4.4210   1.8527  -0.0884 H              1 S1                 0.0000
     48 ****         6.7474   0.0650  -0.9055 H              1 S1                 0.0000
     49 ****         6.9674   1.7096  -0.3591 H              1 S1                 0.0000
     50 ****         7.1322   0.2511   1.3313 H              1 S1                 0.0000
     51 ****         5.6751   1.4814  -2.8274 H              1 S1                 0.0000
     52 ****         3.9084   2.5910  -3.9162 H              1 S1                 0.0000
     53 ****         2.9980   1.4444  -2.9768 H              1 S1                 0.0000
     54 ****         2.4758   4.1020  -2.7627 H              1 S1                 0.0000
     55 ****         2.5185   3.1417  -1.2807 H              1 S1                 0.0000
     56 ****         6.1627   3.5867  -1.1425 H              1 S1                 0.0000
     57 ****         5.8709   3.8528  -2.8525 H              1 S1                 0.0000
     58 ****        -4.3285   0.2396   0.2376 H              1 S1                 0.0000
     59 ****        -3.3230   0.0154  -1.1749 H              1 S1                 0.0000
     60 ****        -3.3625  -2.4377  -0.8504 H              1 S1                 0.0000
     61 ****        -5.1760  -1.1726  -2.1377 H              1 S1                 0.0000
     62 ****        -6.2140  -1.3264  -0.7271 H              1 S1                 0.0000
     63 ****        -5.6640  -2.7562  -1.6095 H              1 S1                 0.0000
     64 ****        -5.0706  -1.8592   1.4438 H              1 S1                 0.0000
     65 ****        -0.4492   1.9184   2.7928 LP             1 S1                 0.0000
     66 ****         3.4215   1.1567   1.6882 LP             1 S1                 0.0000
     67 ****        -0.4445  -0.2909  -1.7480 LP             1 S1                 0.0000
     68 ****         5.6795  -0.3667   1.1364 LP             1 S1                 0.0000
     69 ****         5.8744   1.1841   1.6091 LP             1 S1                 0.0000
     70 ****         4.1609   4.3251  -0.6708 LP             1 S1                 0.0000
     71 ****         4.2905   5.0800  -2.1130 LP             1 S1                 0.0000
@<TRIPOS>BOND
    1    1    2 1     
    2    1   30 1     
    3    1   31 1     
    4    1   32 1     
    5    2    3 1     
    6    2   33 1     
    7    2   34 1     
    8    3   28 1     
    9    3    4 1     
   10    3   64 1     
   11    4    5 1     
   12    4   35 1     
   13    4   36 1     
   14    5    6 1     
   15    5   37 1     
   16    5   38 1     
   17    6    7 1     
   18    6   27 1     
   19    6   39 1     
   20    7    8 1     
   21    7    9 1     
   22    8   40 1     
   23    8   41 1     
   24    8   42 1     
   25    9   14 ar    
   26    9   10 ar    
   27   10   11 ar    
   28   11   12 ar    
   29   11   43 1     
   30   12   13 ar    
   31   13   17 1     
   32   13   14 ar    
   33   14   15 1     
   34   15   16 2     
   35   16   17 1     
   36   16   44 1     
   37   17   18 1     
   38   18   19 1     
   39   18   45 1     
   40   18   46 1     
   41   19   20 1     
   42   19   22 1     
   43   19   47 1     
   44   20   21 1     
   45   20   48 1     
   46   20   49 1     
   47   21   50 1     
   48   22   26 1     
   49   22   23 1     
   50   22   51 1     
   51   23   24 1     
   52   23   52 1     
   53   23   53 1     
   54   24   25 1     
   55   24   54 1     
   56   24   55 1     
   57   25   26 1     
   58   26   56 1     
   59   26   57 1     
   60   27   28 1     
   61   27   58 1     
   62   27   59 1     
   63   28   29 1     
   64   28   60 1     
   65   29   61 1     
   66   29   62 1     
   67   29   63 1     
   68   10   65 1     
   69   12   66 1     
   70   15   67 1     
   71   21   68 1     
   72   21   69 1     
   73   25   70 1     
   74   25   71 1     
@<TRIPOS>SUBSTRUCTURE
      1 S1             1
@<TRIPOS>SET
LONE_PAIRS      STATIC     ATOMS    <user>   **** ""
7 65 66 67 68 69 70 71
DONOR_HYDROGENS      STATIC     ATOMS    <user>   **** ""
2 64 50
ATOM$BLUE        STATIC     ATOMS    COLORGROUP SYSTEM
7 65 66 67 68 69 70 71
ATOM$RED        STATIC     ATOMS    COLORGROUP SYSTEM
2 64 50
