AV-unprocessed.smi:2855|AV-procd|sdf|10992|dock6
  -GOLD-   2272015443D 1   1.00000     0.00000
 Structure written by MMmdl.
 46 47  0  0  0  0  0  0  0  0  2 V2000
  146.7648  133.1064  151.0169 C   0  0  0  0  0  0  0  0  0  0  0  0
  146.1821  134.3930  151.6184 C   0  0  1  0  0  0  0  0  0  0  0  0
  144.7109  134.5867  151.2202 C   0  0  0  0  0  0  0  0  0  0  0  0
  144.1223  135.8726  151.8213 C   0  0  0  0  0  0  0  0  0  0  0  0
  144.2454  135.9198  153.3662 C   0  0  2  0  0  0  0  0  0  0  0  0
  143.6181  137.2180  153.9646 C   0  0  0  0  0  0  0  0  0  0  0  0
  143.7471  137.2959  155.4983 C   0  0  0  0  0  0  0  0  0  0  0  0
  142.1346  137.3860  153.5833 C   0  0  0  0  0  0  0  0  0  0  0  0
  145.7266  135.6884  153.7832 C   0  0  2  0  0  0  0  0  0  0  0  0
  146.5366  136.8553  153.4462 N   0  0  0  0  0  0  0  0  0  0  0  0
  147.0092  137.7808  154.2962 C   0  0  0  0  0  0  0  0  0  0  0  0
  146.8369  137.7237  155.5132 O   0  0  0  0  0  0  0  0  0  0  0  0
  147.7965  138.9592  153.6972 C   0  0  0  0  0  0  0  0  0  0  0  0
  149.1589  139.1164  154.2411 N   0  0  0  0  0  0  0  0  0  0  0  0
  149.9358  137.9548  154.3962 C   0  0  0  0  0  0  0  0  0  0  0  0
  151.2040  138.0032  154.8467 C   0  0  0  0  0  0  0  0  0  0  0  0
  151.7696  139.3050  155.1782 C   0  0  0  0  0  0  0  0  0  0  0  0
  152.9265  139.3684  155.5891 O   0  0  0  0  0  0  0  0  0  0  0  0
  150.9757  140.4031  155.0114 N   0  5  0  0  0  0  0  0  0  0  0  0
  149.6888  140.3394  154.5487 C   0  0  0  0  0  0  0  0  0  0  0  0
  148.9958  141.3443  154.3883 O   0  0  0  0  0  0  0  0  0  0  0  0
  146.3128  134.4074  153.1518 C   0  0  0  0  0  0  0  0  0  0  0  0
  146.2339  132.2241  151.3755 H   0  0  0  0  0  0  0  0  0  0  0  0
  147.8167  132.9925  151.2804 H   0  0  0  0  0  0  0  0  0  0  0  0
  146.6976  133.1167  149.9287 H   0  0  0  0  0  0  0  0  0  0  0  0
  146.7556  135.2294  151.2160 H   0  0  0  0  0  0  0  0  0  0  0  0
  144.6214  134.6205  150.1339 H   0  0  0  0  0  0  0  0  0  0  0  0
  144.1221  133.7301  151.5513 H   0  0  0  0  0  0  0  0  0  0  0  0
  144.6184  136.7400  151.3829 H   0  0  0  0  0  0  0  0  0  0  0  0
  143.0794  135.9321  151.5145 H   0  0  0  0  0  0  0  0  0  0  0  0
  143.6746  135.0769  153.7593 H   0  0  0  0  0  0  0  0  0  0  0  0
  144.1489  138.0788  153.5555 H   0  0  0  0  0  0  0  0  0  0  0  0
  143.3121  136.4189  155.9784 H   0  0  0  0  0  0  0  0  0  0  0  0
  143.2376  138.1761  155.8910 H   0  0  0  0  0  0  0  0  0  0  0  0
  144.7865  137.3759  155.8161 H   0  0  0  0  0  0  0  0  0  0  0  0
  141.5474  136.5170  153.8816 H   0  0  0  0  0  0  0  0  0  0  0  0
  141.9997  137.5344  152.5128 H   0  0  0  0  0  0  0  0  0  0  0  0
  141.7012  138.2597  154.0708 H   0  0  0  0  0  0  0  0  0  0  0  0
  145.7635  135.5504  154.8644 H   0  0  0  0  0  0  0  0  0  0  0  0
  146.7271  136.9963  152.4644 H   0  0  0  0  0  0  0  0  0  0  0  0
  147.8322  138.8405  152.6130 H   0  0  0  0  0  0  0  0  0  0  0  0
  147.2202  139.8702  153.8640 H   0  0  0  0  0  0  0  0  0  0  0  0
  149.4450  137.0332  154.1193 H   0  0  0  0  0  0  0  0  0  0  0  0
  151.7893  137.1020  154.9556 H   0  0  0  0  0  0  0  0  0  0  0  0
  145.7946  133.5411  153.5652 H   0  0  0  0  0  0  0  0  0  0  0  0
  147.3589  134.2937  153.4387 H   0  0  0  0  0  0  0  0  0  0  0  0
  1  2  1  0  0  0  0
  1 23  1  0  0  0  0
  1 24  1  0  0  0  0
  1 25  1  0  0  0  0
  2 22  1  0  0  0  0
  2  3  1  0  0  0  0
  2 26  1  0  0  0  0
  3  4  1  0  0  0  0
  3 27  1  0  0  0  0
  3 28  1  0  0  0  0
  4  5  1  0  0  0  0
  4 29  1  0  0  0  0
  4 30  1  0  0  0  0
  5  6  1  0  0  0  0
  5  9  1  0  0  0  0
  5 31  1  0  0  0  0
  6  7  1  0  0  0  0
  6  8  1  0  0  0  0
  6 32  1  0  0  0  0
  7 33  1  0  0  0  0
  7 34  1  0  0  0  0
  7 35  1  0  0  0  0
  8 36  1  0  0  0  0
  8 37  1  0  0  0  0
  8 38  1  0  0  0  0
  9 10  1  0  0  0  0
  9 22  1  0  0  0  0
  9 39  1  0  0  0  0
 10 11  1  0  0  0  0
 10 40  1  0  0  0  0
 11 12  2  0  0  0  0
 11 13  1  0  0  0  0
 13 14  1  0  0  0  0
 13 41  1  0  0  0  0
 13 42  1  0  0  0  0
 14 20  1  0  0  0  0
 14 15  1  0  0  0  0
 15 16  2  0  0  0  0
 15 43  1  0  0  0  0
 16 17  1  0  0  0  0
 16 44  1  0  0  0  0
 17 18  2  0  0  0  0
 17 19  1  0  0  0  0
 19 20  1  0  0  0  0
 20 21  2  0  0  0  0
 22 45  1  0  0  0  0
 22 46  1  0  0  0  0
M  CHG  1  19  -1
M  END
> <s_m_source_file>
AV-unprocessed.smi

> <i_m_source_file_index>
2855

> <i_lp_mmshare_version>
43012

> <i_f3d_flags>
0

> <s_epik_input>
W0NIM11bQ0BASF0xW0NIMl1bQ0gyXVtDQEBIXShbQ0hdKFtDSDNdKVtDSDNdKVtDQEhdKFtDSDJdMSlbTkhdQyg9TylbQ0gyXW4yW2NIXVtjSF1jKD1PKVtuSF1jMj1P

> <s_epik_cmdline>
J2VwaWtfcHl0aG9uJywgJy1waCcsICc3LjAnLCAnLXRuJywgJzgnLCAnLW1hJywgJzIwMCcsICctbWV0YWxfYmluZGluZycsICctaW1hZScsICc8aW5maWxlLm1hZT4nLCAnLW9tYWUnLCAnPG91dGZpbGUubWFlPic=

> <r_lp_tautomer_probability>
0.999537

> <r_epik_Ionization_Penalty>
3.12102

> <r_epik_Ionization_Penalty_Charging>
2.9581e-08

> <r_epik_Ionization_Penalty_Neutral>
3.12102

> <r_epik_State_Penalty>
3.12011

> <r_epik_Charging_Adjusted_Penalty>
3.12011

> <i_epik_Tot_Q>
-1

> <i_epik_Tot_abs_Q>
1

> <r_epik_Metal_State_Penalty>
0.463583

> <b_epik_Metal_Only>
1

> <s_lp_Force_Field>
OPLS_2005

> <r_lp_Energy>
20.8659

> <b_lp_Chiralities_Consistent>
1

> <s_lp_Variant>
AV-unprocessed.smi:2855-16

> <Gold.Version>
5.8.1

> <Gold.Id.Protein>
6NUR|6NUR_protein|mol2

> <Gold.PLP.Fitness>
41.5936

> <Gold.PLP.PLP>
-33.3160

> <Gold.PLP.part.hbond>
-4.3092

> <Gold.PLP.part.metal>
0.0000

> <Gold.PLP.part.buried>
2.1044

> <Gold.PLP.part.nonpolar>
-29.4353

> <Gold.PLP.part.repulsive>
0.2704

> <Gold.PLP.ligand.clash>
0.0000

> <Gold.PLP.ligand.torsion>
0.3984

> <Gold.PLP.Chemscore.Hbond>
2.0800

> <Gold.PLP.Chemscore.CHOScore>
0.9322

> <Gold.PLP.Chemscore.Metal>
0.0000

> <Gold.Chemscore.Hbonds>
donor molecule, donor type, donor heavy atom, donor atom, acceptor molecule, acceptor atom, score
      L1  H    10    40       P1  7948  0.01
      P1  H  7989  7998       L1    19  0.60
      P1  H  7997  8010       L1    18  1.00
      L1  C    15    43       P1  7948  0.94

> <Gold.PLP.Chemscore.Internal.Correction>
0.0378

> <Gold.Rescore>
     Score         DG    S(hbond)    S(metal)    S(lipo)     H(rot)  DE(clash)    DE(int)     intcor
     10.79     -11.14       1.00        0.00      59.38       1.81       0.13       0.23       ----

> <Gold.Chemscore.Fitness>
10.7900

> <Gold.Chemscore.DG>
-11.1434

> <Gold.Chemscore.ZeroCoef>
-5.4800

> <Gold.Chemscore.Hbond>
1.0029

> <Gold.Chemscore.Metal>
0.0000

> <Gold.Chemscore.Lipo>
59.3762

> <Gold.Chemscore.Internal_Hbond>
0.0000

> <Gold.Chemscore.DEClash>
0.1271

> <Gold.Chemscore.DEInternal>
0.2263

> <Gold.Chemscore.Rot>
1.8100

> <Gold.Chemscore.Internal.Correction>
   9.000000E+99

> <Gold.Chemscore.Hbonds>
donor molecule, donor type, donor heavy atom, donor atom, acceptor molecule, acceptor atom, score
      L1  H    10    40       P1  7948  0.02
      P1  H  7989  7998       L1    19  0.01
      P1  H  7997  8010       L1    18  1.00
      P1  H  8011  8017       L1    21  0.02

> <Gold.Chemscore.Hbond.Weighted>
-3.3498

> <Gold.Chemscore.Metal.Weighted>
-0.0000

> <Gold.Chemscore.Lipo.Weighted>
-6.9470

> <Gold.Chemscore.Internal_Hbond.Weighted>
0.0000

> <Gold.Chemscore.DEClash.Weighted>
0.1271

> <Gold.Chemscore.DEInternal.Weighted>
0.2263

> <Gold.Chemscore.Rot.Weighted>
4.6335

> <Gold.Chemscore.Internal.Correction.Weighted>
   9.000000E+99

> <Gold.Protein.RotatedTorsions>
[ 6907 6896 6895 6894 ] final -127.76 input  -60.11 | X-H torsion
[ 7974 7965 7964 7962 ] final  -25.17 input  175.53 | X-H torsion
[ 8008 7997 7996 7995 ] final  100.52 input   59.86 | X-H torsion
[ 10167 10162 10161 10158 ] final   61.02 input  -65.29 | X-H torsion
[ 10718 10713 10712 10709 ] final  173.62 input   66.30 | X-H torsion
[ 10763 10752 10751 10750 ] final -109.61 input  -60.55 | X-H torsion
[ 11005 11000 10999 10996 ] final   46.08 input  -57.11 | X-H torsion

> <Gold.Protein.ActiveResidues>
 VAL166  LYS551  ARG553  GLY616  TRP617  ASP618  TYR619  PRO620  LYS621  CYS622 
 ASP623  PHE694  ASN695  SER759  ASP760  ASP761  ALA762  ILE779  LEU786  VAL792 
 PHE793  MET794  SER795  GLU796  ALA797  LYS798  CYS799  TRP800  GLU811  SER814 

> <Gold.Protein.RotatedAtoms>
  150.9106  133.7002  159.2855 H   0  0  0  0  0  0  0  0  0  0  0  0  # atno 6907 bound_to 6896
  151.4490  135.1026  159.9702 H   0  0  0  0  0  0  0  0  0  0  0  0  # atno 6908 bound_to 6896
  152.4928  133.8497  159.7250 H   0  0  0  0  0  0  0  0  0  0  0  0  # atno 6909 bound_to 6896
  146.1508  140.4850  142.8612 H   0  0  0  0  0  0  0  0  0  0  0  0  # atno 7974 bound_to 7965
  156.1211  140.3212  155.8210 H   0  0  0  0  0  0  0  0  0  0  0  0  # atno 8008 bound_to 7997
  155.4503  140.0532  157.3019 H   0  0  0  0  0  0  0  0  0  0  0  0  # atno 8009 bound_to 7997
  154.4828  140.2060  155.9737 H   0  0  0  0  0  0  0  0  0  0  0  0  # atno 8010 bound_to 7997
  140.1593  144.4386  150.6718 H   0  0  0  0  0  0  0  0  0  0  0  0  # atno 10167 bound_to 10162
  156.9616  131.0062  151.2926 H   0  0  0  0  0  0  0  0  0  0  0  0  # atno 10718 bound_to 10713
  154.8203  135.4594  154.0759 H   0  0  0  0  0  0  0  0  0  0  0  0  # atno 10763 bound_to 10752
  153.2118  135.6883  153.8111 H   0  0  0  0  0  0  0  0  0  0  0  0  # atno 10764 bound_to 10752
  153.7559  135.3291  155.3306 H   0  0  0  0  0  0  0  0  0  0  0  0  # atno 10765 bound_to 10752
  140.1401  134.4594  155.8456 H   0  0  0  0  0  0  0  0  0  0  0  0  # atno 11005 bound_to 11000
  144.7902  140.6016  143.6547 LP  0  0  0  0  0  0  0  0  0  0  0  0  # atno 17320 bound_to 7965
  145.4827  139.1494  143.3753 LP  0  0  0  0  0  0  0  0  0  0  0  0  # atno 17321 bound_to 7965
  140.6653  143.2266  151.5757 LP  0  0  0  0  0  0  0  0  0  0  0  0  # atno 17342 bound_to 10162
  139.5389  144.2704  152.1309 LP  0  0  0  0  0  0  0  0  0  0  0  0  # atno 17343 bound_to 10162
  157.5654  130.8274  149.8320 LP  0  0  0  0  0  0  0  0  0  0  0  0  # atno 17370 bound_to 10713
  156.0320  130.3762  150.1663 LP  0  0  0  0  0  0  0  0  0  0  0  0  # atno 17371 bound_to 10713
  141.2184  133.6830  156.7230 LP  0  0  0  0  0  0  0  0  0  0  0  0  # atno 17394 bound_to 11000
  140.2733  134.8375  157.3867 LP  0  0  0  0  0  0  0  0  0  0  0  0  # atno 17395 bound_to 11000

$$$$
