#       Name:                AV-unprocessed.smi:483
#       Creating user name   scv26
#       Creation time:       Thu Mar 26 23:11:25 2020


#       File generated by GOLD software.
#

@<TRIPOS>MOLECULE
AV-unprocessed.smi:483
    52    52     1
SMALL
NO_CHARGES


@<TRIPOS>ATOM
      1 ****        -1.3283   2.0891   0.8560 C.3            1 S1                 0.0000
      2 ****        -2.8416   2.0361   1.1149 C.3            1 S1                 0.0000
      3 ****        -3.6973   1.8875  -0.1568 C.3            1 S1                 0.0000
      4 ****        -3.4240   0.6330  -0.8511 N.am           1 S1                 0.0000
      5 ****        -2.6563   0.5006  -1.9438 C.2            1 S1                 0.0000
      6 ****        -2.1402   1.4544  -2.5288 O.2            1 S1                 0.0000
      7 ****        -2.4085  -0.9365  -2.4301 C.3            1 S1                 0.0000
      8 ****        -2.8815  -1.0633  -3.8883 C.3            1 S1                 0.0000
      9 ****        -0.9732  -1.2071  -2.3870 N.am           1 S1                 0.0000
     10 ****        -0.2872  -1.5218  -1.2764 C.2            1 S1                 0.0000
     11 ****        -0.8250  -1.7303  -0.1879 O.2            1 S1                 0.0000
     12 ****         1.2386  -1.6037  -1.4143 C.3            1 S1                 0.0000
     13 ****         1.9280  -0.9778  -0.2763 N.am           1 S1                 0.0000
     14 ****         2.4391  -1.8762   0.6399 N.2            1 S1                 0.0000
     15 ****         3.0212  -1.4756   1.7222 C.2            1 S1                 0.0000
     16 ****         3.5306  -2.5446   2.6510 C.3            1 S1                 0.0000
     17 ****         3.1520  -0.0462   1.9871 C.2            1 S1                 0.0000
     18 ****         3.8382   0.3663   3.2820 C.3            1 S1                 0.0000
     19 ****         2.6589   0.8262   1.0729 C.2            1 S1                 0.0000
     20 ****         2.7310   2.2407   1.2496 C.1            1 S1                 0.0000
     21 ****         2.7858   3.3854   1.4133 N.1            1 S1                 0.0000
     22 ****         2.0077   0.3798  -0.1601 C.2            1 S1                 0.0000
     23 ****         1.5607   1.1456  -1.0157 O.2            1 S1                 0.0000
     24 ****        -0.7816   2.2706   1.7815 H              1 S1                 0.0000
     25 ****        -1.0741   2.8866   0.1575 H              1 S1                 0.0000
     26 ****        -0.9619   1.1506   0.4410 H              1 S1                 0.0000
     27 ****        -3.0597   1.2158   1.7997 H              1 S1                 0.0000
     28 ****        -3.1409   2.9483   1.6321 H              1 S1                 0.0000
     29 ****        -4.7528   1.8938   0.1154 H              1 S1                 0.0000
     30 ****        -3.5498   2.7466  -0.8133 H              1 S1                 0.0000
     31 ****        -3.8014  -0.2068  -0.4364 H              1 S1                 0.0000
     32 ****        -2.9493  -1.6531  -1.8083 H              1 S1                 0.0000
     33 ****        -3.9472  -0.8484  -3.9773 H              1 S1                 0.0000
     34 ****        -2.7231  -2.0759  -4.2605 H              1 S1                 0.0000
     35 ****        -2.3476  -0.3829  -4.5536 H              1 S1                 0.0000
     36 ****        -0.4553  -1.0567  -3.2405 H              1 S1                 0.0000
     37 ****         1.5158  -2.6558  -1.5006 H              1 S1                 0.0000
     38 ****         1.5601  -1.1351  -2.3467 H              1 S1                 0.0000
     39 ****         4.6148  -2.4878   2.7477 H              1 S1                 0.0000
     40 ****         3.2835  -3.5456   2.2940 H              1 S1                 0.0000
     41 ****         3.0952  -2.4346   3.6444 H              1 S1                 0.0000
     42 ****         3.9491   1.4470   3.3639 H              1 S1                 0.0000
     43 ****         4.8362  -0.0685   3.3448 H              1 S1                 0.0000
     44 ****         3.2607   0.0286   4.1432 H              1 S1                 0.0000
     45 ****        -2.2851   2.3850  -2.1926 LP             1 S1                 0.0000
     46 ****        -1.5764   1.2979  -3.3398 LP             1 S1                 0.0000
     47 ****        -1.8193  -1.6682  -0.1014 LP             1 S1                 0.0000
     48 ****        -0.2672  -1.9615   0.6092 LP             1 S1                 0.0000
     49 ****         2.3571  -2.8568   0.4622 LP             1 S1                 0.0000
     50 ****         2.8332   4.3743   1.5547 LP             1 S1                 0.0000
     51 ****         1.1189   0.7780  -1.8340 LP             1 S1                 0.0000
     52 ****         1.6398   2.1348  -0.8918 LP             1 S1                 0.0000
@<TRIPOS>BOND
    1    1    2 1     
    2    1   24 1     
    3    1   25 1     
    4    1   26 1     
    5    2    3 1     
    6    2   27 1     
    7    2   28 1     
    8    3    4 1     
    9    3   29 1     
   10    3   30 1     
   11    4    5 am    
   12    4   31 1     
   13    5    6 2     
   14    5    7 1     
   15    7    8 1     
   16    7    9 1     
   17    7   32 1     
   18    8   33 1     
   19    8   34 1     
   20    8   35 1     
   21    9   10 am    
   22    9   36 1     
   23   10   11 2     
   24   10   12 1     
   25   12   13 1     
   26   12   37 1     
   27   12   38 1     
   28   13   22 am    
   29   13   14 1     
   30   14   15 2     
   31   15   16 1     
   32   15   17 1     
   33   16   39 1     
   34   16   40 1     
   35   16   41 1     
   36   17   18 1     
   37   17   19 2     
   38   18   42 1     
   39   18   43 1     
   40   18   44 1     
   41   19   20 1     
   42   19   22 1     
   43   20   21 3     
   44   22   23 2     
   45    6   45 1     
   46    6   46 1     
   47   11   47 1     
   48   11   48 1     
   49   14   49 1     
   50   21   50 1     
   51   23   51 1     
   52   23   52 1     
@<TRIPOS>SUBSTRUCTURE
      1 S1             1
@<TRIPOS>SET
LONE_PAIRS      STATIC     ATOMS    <user>   **** ""
8 45 46 47 48 49 50 51 52
DONOR_HYDROGENS      STATIC     ATOMS    <user>   **** ""
2 31 36
ATOM$BLUE        STATIC     ATOMS    COLORGROUP SYSTEM
8 45 46 47 48 49 50 51 52
ATOM$RED        STATIC     ATOMS    COLORGROUP SYSTEM
2 31 36
