AV-unprocessed.smi:3329|AV-procd|sdf|12797|dock10
  -GOLD-   2272019153D 1   1.00000     0.00000
 Structure written by MMmdl.
 41 42  0  0  0  0  0  0  0  0  1 V2000
  146.9579  140.8687  153.5305 C   0  0  0  0  0  0  0  0  0  0  0  0
  148.3458  140.3751  153.8218 C   0  0  0  0  0  0  0  0  0  0  0  0
  149.4467  141.1133  154.3425 C   0  0  0  0  0  0  0  0  0  0  0  0
  150.5379  140.3784  154.4853 N   0  0  0  0  0  0  0  0  0  0  0  0
  150.1738  139.1501  154.0603 N   0  0  0  0  0  0  0  0  0  0  0  0
  151.1360  138.0660  154.0797 C   0  0  0  0  0  0  0  0  0  0  0  0
  150.6997  136.9392  155.0273 C   0  0  0  0  0  0  0  0  0  0  0  0
  149.6055  136.1965  154.4215 N   0  0  0  0  0  0  0  0  0  0  0  0
  149.5784  134.8172  154.9157 C   0  0  0  0  0  0  0  0  0  0  0  0
  148.2696  134.1234  154.5449 C   0  0  0  0  0  0  0  0  0  0  0  0
  147.8693  133.1743  155.2175 O   0  0  0  0  0  0  0  0  0  0  0  0
  147.6141  134.6179  153.4808 N   0  0  0  0  0  0  0  0  0  0  0  0
  146.3404  134.1667  152.9136 C   0  0  1  0  0  0  0  0  0  0  0  0
  145.2852  134.0638  154.0332 C   0  0  0  0  0  0  0  0  0  0  0  0
  145.8885  135.2091  151.9732 C   0  0  0  0  0  0  0  0  0  0  0  0
  145.5325  136.0290  151.2379 N   0  0  0  0  0  0  0  0  0  0  0  0
  146.4416  132.8256  152.1780 C   0  0  0  0  0  0  0  0  0  0  0  0
  145.2404  132.1255  151.5832 C   0  0  0  0  0  0  0  0  0  0  0  0
  145.9456  131.5307  152.7825 C   0  0  0  0  0  0  0  0  0  0  0  0
  148.8574  139.1195  153.6532 C   0  0  0  0  0  0  0  0  0  0  0  0
  146.7863  141.8636  153.9418 H   0  0  0  0  0  0  0  0  0  0  0  0
  146.1991  140.2113  153.9555 H   0  0  0  0  0  0  0  0  0  0  0  0
  146.7695  140.9274  152.4585 H   0  0  0  0  0  0  0  0  0  0  0  0
  149.4840  142.1563  154.6212 H   0  0  0  0  0  0  0  0  0  0  0  0
  151.2471  137.6862  153.0630 H   0  0  0  0  0  0  0  0  0  0  0  0
  152.1069  138.4659  154.3766 H   0  0  0  0  0  0  0  0  0  0  0  0
  151.5374  136.2683  155.2247 H   0  0  0  0  0  0  0  0  0  0  0  0
  150.3805  137.3576  155.9831 H   0  0  0  0  0  0  0  0  0  0  0  0
  149.7019  136.2263  153.4164 H   0  0  0  0  0  0  0  0  0  0  0  0
  150.4261  134.2616  154.5101 H   0  0  0  0  0  0  0  0  0  0  0  0
  149.6780  134.8096  156.0022 H   0  0  0  0  0  0  0  0  0  0  0  0
  148.0446  135.4001  153.0090 H   0  0  0  0  0  0  0  0  0  0  0  0
  144.3021  133.8308  153.6229 H   0  0  0  0  0  0  0  0  0  0  0  0
  145.1946  135.0028  154.5806 H   0  0  0  0  0  0  0  0  0  0  0  0
  145.5258  133.2818  154.7538 H   0  0  0  0  0  0  0  0  0  0  0  0
  147.3627  132.7198  151.6088 H   0  0  0  0  0  0  0  0  0  0  0  0
  144.2563  132.5610  151.7427 H   0  0  0  0  0  0  0  0  0  0  0  0
  145.3765  131.6299  150.6242 H   0  0  0  0  0  0  0  0  0  0  0  0
  146.5508  130.6412  152.6198 H   0  0  0  0  0  0  0  0  0  0  0  0
  145.4298  131.5693  153.7396 H   0  0  0  0  0  0  0  0  0  0  0  0
  148.3975  138.2153  153.2827 H   0  0  0  0  0  0  0  0  0  0  0  0
  1  2  1  0  0  0  0
  1 21  1  0  0  0  0
  1 22  1  0  0  0  0
  1 23  1  0  0  0  0
  2 20  2  0  0  0  0
  2  3  1  0  0  0  0
  3  4  2  0  0  0  0
  3 24  1  0  0  0  0
  4  5  1  0  0  0  0
  5  6  1  0  0  0  0
  5 20  1  0  0  0  0
  6  7  1  0  0  0  0
  6 25  1  0  0  0  0
  6 26  1  0  0  0  0
  7  8  1  0  0  0  0
  7 27  1  0  0  0  0
  7 28  1  0  0  0  0
  8  9  1  0  0  0  0
  8 29  1  0  0  0  0
  9 10  1  0  0  0  0
  9 30  1  0  0  0  0
  9 31  1  0  0  0  0
 10 11  2  0  0  0  0
 10 12  1  0  0  0  0
 12 13  1  0  0  0  0
 12 32  1  0  0  0  0
 13 14  1  0  0  0  0
 13 15  1  0  0  0  0
 13 17  1  0  0  0  0
 14 33  1  0  0  0  0
 14 34  1  0  0  0  0
 14 35  1  0  0  0  0
 15 16  3  0  0  0  0
 17 19  1  0  0  0  0
 17 18  1  0  0  0  0
 17 36  1  0  0  0  0
 18 19  1  0  0  0  0
 18 37  1  0  0  0  0
 18 38  1  0  0  0  0
 19 39  1  0  0  0  0
 19 40  1  0  0  0  0
 20 41  1  0  0  0  0
M  END
> <s_m_source_file>
AV-unprocessed.smi

> <i_m_source_file_index>
3329

> <i_lp_mmshare_version>
43012

> <i_f3d_flags>
0

> <s_epik_input>
W0NIM11jMVtjSF1ubihbY0hdMSlbQ0gyXVtDSDJdW05IXVtDSDJdQyg9TylbTkhdW0NAQF0oW0NIM10pKEMjTilbQ0hdMltDSDJdW0NIMl0y

> <s_epik_cmdline>
J2VwaWtfcHl0aG9uJywgJy1waCcsICc3LjAnLCAnLXRuJywgJzgnLCAnLW1hJywgJzIwMCcsICctbWV0YWxfYmluZGluZycsICctaW1hZScsICc8aW5maWxlLm1hZT4nLCAnLW9tYWUnLCAnPG91dGZpbGUubWFlPic=

> <r_lp_tautomer_probability>
1

> <r_epik_Ionization_Penalty>
0.481866

> <r_epik_Ionization_Penalty_Charging>
0

> <r_epik_Ionization_Penalty_Neutral>
0.481866

> <r_epik_State_Penalty>
0.48398

> <r_epik_Charging_Adjusted_Penalty>
0.48398

> <i_epik_Tot_Q>
0

> <i_epik_Tot_abs_Q>
0

> <r_epik_Metal_State_Penalty>
0.5042

> <b_epik_Metal_Only>
0

> <s_lp_Force_Field>
OPLS_2005

> <r_lp_Energy>
12.8497

> <b_lp_Chiralities_Consistent>
1

> <s_lp_Variant>
AV-unprocessed.smi:3329-3

> <Gold.Version>
5.8.1

> <Gold.Id.Protein>
6NUR|6NUR_protein|mol2

> <Gold.PLP.Fitness>
44.8649

> <Gold.PLP.PLP>
-33.4829

> <Gold.PLP.part.hbond>
-3.0999

> <Gold.PLP.part.metal>
0.0000

> <Gold.PLP.part.buried>
-2.0533

> <Gold.PLP.part.nonpolar>
-28.5365

> <Gold.PLP.part.repulsive>
0.3392

> <Gold.PLP.ligand.clash>
0.0000

> <Gold.PLP.ligand.torsion>
1.7034

> <Gold.PLP.Chemscore.Hbond>
3.0000

> <Gold.PLP.Chemscore.CHOScore>
1.3883

> <Gold.PLP.Chemscore.Metal>
0.0000

> <Gold.Chemscore.Hbonds>
donor molecule, donor type, donor heavy atom, donor atom, acceptor molecule, acceptor atom, score
      L1  H     8    29       P1  7948  1.00
      L1  H    12    32       P1  7948  1.00
      P1  H  7989  7998       L1     4  1.00
      L1  C     3    24       P1  8028  0.28
      L1  C    20    41       P1  7948  1.00

> <Gold.PLP.Chemscore.Internal.Correction>
1.6238

> <Gold.Rescore>
     Score         DG    S(hbond)    S(metal)    S(lipo)     H(rot)  DE(clash)    DE(int)     intcor
     13.53     -15.29       2.34        0.00      67.66       2.31       0.09       1.68       ----

> <Gold.Chemscore.Fitness>
13.5294

> <Gold.Chemscore.DG>
-15.2930

> <Gold.Chemscore.ZeroCoef>
-5.4800

> <Gold.Chemscore.Hbond>
2.3408

> <Gold.Chemscore.Metal>
0.0000

> <Gold.Chemscore.Lipo>
67.6587

> <Gold.Chemscore.Internal_Hbond>
0.0000

> <Gold.Chemscore.DEClash>
0.0886

> <Gold.Chemscore.DEInternal>
1.6750

> <Gold.Chemscore.Rot>
2.3129

> <Gold.Chemscore.Internal.Correction>
   9.000000E+99

> <Gold.Chemscore.Hbonds>
donor molecule, donor type, donor heavy atom, donor atom, acceptor molecule, acceptor atom, score
      L1  H     8    29       P1  7948  0.24
      L1  H    12    32       P1  7948  0.99
      P1  H  7989  7998       L1     4  0.36

> <Gold.Chemscore.Hbond.Weighted>
-7.8181

> <Gold.Chemscore.Metal.Weighted>
-0.0000

> <Gold.Chemscore.Lipo.Weighted>
-7.9161

> <Gold.Chemscore.Internal_Hbond.Weighted>
0.0000

> <Gold.Chemscore.DEClash.Weighted>
0.0886

> <Gold.Chemscore.DEInternal.Weighted>
1.6750

> <Gold.Chemscore.Rot.Weighted>
5.9211

> <Gold.Chemscore.Internal.Correction.Weighted>
   9.000000E+99

> <Gold.Protein.RotatedTorsions>
[ 6907 6896 6895 6894 ] final  129.32 input  -60.11 | X-H torsion
[ 7974 7965 7964 7962 ] final  166.54 input  175.53 | X-H torsion
[ 8008 7997 7996 7995 ] final  102.36 input   59.86 | X-H torsion
[ 10167 10162 10161 10158 ] final  -29.95 input  -65.29 | X-H torsion
[ 10718 10713 10712 10709 ] final   -7.98 input   66.30 | X-H torsion
[ 10763 10752 10751 10750 ] final   48.31 input  -60.55 | X-H torsion
[ 11005 11000 10999 10996 ] final -154.57 input  -57.11 | X-H torsion

> <Gold.Protein.ActiveResidues>
 VAL166  LYS551  ARG553  GLY616  TRP617  ASP618  TYR619  PRO620  LYS621  CYS622 
 ASP623  PHE694  ASN695  SER759  ASP760  ASP761  ALA762  ILE779  LEU786  VAL792 
 PHE793  MET794  SER795  GLU796  ALA797  LYS798  CYS799  TRP800  GLU811  SER814 

> <Gold.Protein.RotatedAtoms>
  152.3635  133.6326  159.6032 H   0  0  0  0  0  0  0  0  0  0  0  0  # atno 6907 bound_to 6896
  150.7617  133.9386  159.3458 H   0  0  0  0  0  0  0  0  0  0  0  0  # atno 6908 bound_to 6896
  151.7220  135.0893  160.0337 H   0  0  0  0  0  0  0  0  0  0  0  0  # atno 6909 bound_to 6896
  144.7458  139.8630  143.6382 H   0  0  0  0  0  0  0  0  0  0  0  0  # atno 7974 bound_to 7965
  156.1386  140.3182  155.8459 H   0  0  0  0  0  0  0  0  0  0  0  0  # atno 8008 bound_to 7997
  155.4198  140.0511  157.3043 H   0  0  0  0  0  0  0  0  0  0  0  0  # atno 8009 bound_to 7997
  154.4957  140.2110  155.9465 H   0  0  0  0  0  0  0  0  0  0  0  0  # atno 8010 bound_to 7997
  140.7255  143.3887  151.1468 H   0  0  0  0  0  0  0  0  0  0  0  0  # atno 10167 bound_to 10162
  156.7094  130.5117  149.5896 H   0  0  0  0  0  0  0  0  0  0  0  0  # atno 10718 bound_to 10713
  152.9793  135.5948  154.3905 H   0  0  0  0  0  0  0  0  0  0  0  0  # atno 10763 bound_to 10752
  154.3561  135.2767  155.2347 H   0  0  0  0  0  0  0  0  0  0  0  0  # atno 10764 bound_to 10752
  154.4365  135.6023  153.6157 H   0  0  0  0  0  0  0  0  0  0  0  0  # atno 10765 bound_to 10752
  140.6959  134.3991  157.5215 H   0  0  0  0  0  0  0  0  0  0  0  0  # atno 11005 bound_to 11000
  146.1334  139.4375  143.0154 LP  0  0  0  0  0  0  0  0  0  0  0  0  # atno 17320 bound_to 7965
  145.7128  141.0101  143.1444 LP  0  0  0  0  0  0  0  0  0  0  0  0  # atno 17321 bound_to 7965
  139.7489  143.8809  152.3071 LP  0  0  0  0  0  0  0  0  0  0  0  0  # atno 17342 bound_to 10162
  139.8656  144.7095  150.9048 LP  0  0  0  0  0  0  0  0  0  0  0  0  # atno 17343 bound_to 10162
  156.1672  130.6413  151.0793 LP  0  0  0  0  0  0  0  0  0  0  0  0  # atno 17370 bound_to 10713
  157.6942  131.0800  150.7018 LP  0  0  0  0  0  0  0  0  0  0  0  0  # atno 17371 bound_to 10713
  139.8910  134.8790  156.2340 LP  0  0  0  0  0  0  0  0  0  0  0  0  # atno 17394 bound_to 11000
  141.0204  133.7045  156.1258 LP  0  0  0  0  0  0  0  0  0  0  0  0  # atno 17395 bound_to 11000

$$$$
