AV-unprocessed.smi:40|AV-procd|sdf|376|dock9
  -GOLD-   2262016223D 1   1.00000     0.00000
 Structure written by MMmdl.
 47 48  0  0  0  0  0  0  0  0  1 V2000
  152.2787  143.8828  158.8674 C   0  0  0  0  0  0  0  0  0  0  0  0
  152.6115  142.9901  160.0683 C   0  0  0  0  0  0  0  0  0  0  0  0
  153.5885  141.8624  159.7090 C   0  0  0  0  0  0  0  0  0  0  0  0
  152.8777  140.6023  159.1868 C   0  0  0  0  0  0  0  0  0  0  0  0
  153.8381  139.4332  158.9257 C   0  0  0  0  0  0  0  0  0  0  0  0
  153.3851  138.7140  157.7917 O   0  0  0  0  0  0  0  0  0  0  0  0
  152.4829  137.7240  157.9135 C   0  0  0  0  0  0  0  0  0  0  0  0
  152.1214  137.2478  158.9891 O   0  0  0  0  0  0  0  0  0  0  0  0
  151.9678  137.3208  156.6152 N   0  0  0  0  0  0  0  0  0  0  0  0
  151.0506  136.3614  156.3411 C   0  0  0  0  0  0  0  0  0  0  0  0
  150.6378  135.5041  157.2599 N   0  0  0  0  0  0  0  0  0  0  0  0
  149.7150  134.5199  157.0370 C   0  0  0  0  0  0  0  0  0  0  0  0
  149.4153  133.7524  157.9473 O   0  0  0  0  0  0  0  0  0  0  0  0
  149.1377  134.4447  155.7420 N   0  0  0  0  0  0  0  0  0  0  0  0
  148.1648  133.3454  155.3403 C   0  0  1  0  0  0  0  0  0  0  0  0
  147.0208  133.9266  154.7944 O   0  0  0  0  0  0  0  0  0  0  0  0
  146.9885  133.7702  153.3832 C   0  0  2  0  0  0  0  0  0  0  0  0
  145.5333  133.6657  152.9125 C   0  0  0  0  0  0  0  0  0  0  0  0
  147.8254  132.5154  153.0903 C   0  0  1  0  0  0  0  0  0  0  0  0
  148.6078  132.7230  151.9316 O   0  0  0  0  0  0  0  0  0  0  0  0
  148.7209  132.3296  154.3201 C   0  0  2  0  0  0  0  0  0  0  0  0
  148.5962  131.0071  154.8041 O   0  0  0  0  0  0  0  0  0  0  0  0
  149.5550  135.3441  154.7696 C   0  0  0  0  0  0  0  0  0  0  0  0
  150.4760  136.3007  155.0163 C   0  0  0  0  0  0  0  0  0  0  0  0
  150.8522  137.1593  154.0527 F   0  0  0  0  0  0  0  0  0  0  0  0
  147.8867  132.8629  156.2780 H   0  0  0  0  0  0  0  0  0  0  0  0
  147.4362  134.6566  152.9348 H   0  0  0  0  0  0  0  0  0  0  0  0
  147.1776  131.6497  152.9410 H   0  0  0  0  0  0  0  0  0  0  0  0
  149.7763  132.5139  154.1191 H   0  0  0  0  0  0  0  0  0  0  0  0
  151.5832  144.6726  159.1524 H   0  0  0  0  0  0  0  0  0  0  0  0
  151.8163  143.3066  158.0650 H   0  0  0  0  0  0  0  0  0  0  0  0
  153.1754  144.3566  158.4670 H   0  0  0  0  0  0  0  0  0  0  0  0
  153.0325  143.5998  160.8685 H   0  0  0  0  0  0  0  0  0  0  0  0
  151.6875  142.5620  160.4588 H   0  0  0  0  0  0  0  0  0  0  0  0
  154.2831  142.2300  158.9541 H   0  0  0  0  0  0  0  0  0  0  0  0
  154.1913  141.6070  160.5813 H   0  0  0  0  0  0  0  0  0  0  0  0
  152.1244  140.2885  159.9101 H   0  0  0  0  0  0  0  0  0  0  0  0
  152.3402  140.8373  158.2674 H   0  0  0  0  0  0  0  0  0  0  0  0
  154.8511  139.7997  158.7547 H   0  0  0  0  0  0  0  0  0  0  0  0
  153.8670  138.7740  159.7945 H   0  0  0  0  0  0  0  0  0  0  0  0
  152.3687  137.8179  155.8334 H   0  0  0  0  0  0  0  0  0  0  0  0
  145.4817  133.5334  151.8316 H   0  0  0  0  0  0  0  0  0  0  0  0
  144.9772  134.5690  153.1642 H   0  0  0  0  0  0  0  0  0  0  0  0
  145.0258  132.8209  153.3791 H   0  0  0  0  0  0  0  0  0  0  0  0
  148.5868  131.9327  151.4125 H   0  0  0  0  0  0  0  0  0  0  0  0
  147.8306  130.6157  154.4123 H   0  0  0  0  0  0  0  0  0  0  0  0
  149.1403  135.2934  153.7731 H   0  0  0  0  0  0  0  0  0  0  0  0
  1  2  1  0  0  0  0
  1 30  1  0  0  0  0
  1 31  1  0  0  0  0
  1 32  1  0  0  0  0
  2  3  1  0  0  0  0
  2 33  1  0  0  0  0
  2 34  1  0  0  0  0
  3  4  1  0  0  0  0
  3 35  1  0  0  0  0
  3 36  1  0  0  0  0
  4  5  1  0  0  0  0
  4 37  1  0  0  0  0
  4 38  1  0  0  0  0
  5  6  1  0  0  0  0
  5 39  1  0  0  0  0
  5 40  1  0  0  0  0
  6  7  1  0  0  0  0
  7  8  2  0  0  0  0
  7  9  1  0  0  0  0
  9 10  1  0  0  0  0
  9 41  1  0  0  0  0
 10 24  1  0  0  0  0
 10 11  2  0  0  0  0
 11 12  1  0  0  0  0
 12 13  2  0  0  0  0
 12 14  1  0  0  0  0
 14 15  1  0  0  0  0
 14 23  1  0  0  0  0
 15 26  1  0  0  0  0
 15 21  1  0  0  0  0
 15 16  1  0  0  0  0
 16 17  1  0  0  0  0
 17 27  1  0  0  0  0
 17 18  1  0  0  0  0
 17 19  1  0  0  0  0
 18 42  1  0  0  0  0
 18 43  1  0  0  0  0
 18 44  1  0  0  0  0
 19 28  1  0  0  0  0
 19 20  1  0  0  0  0
 19 21  1  0  0  0  0
 20 45  1  0  0  0  0
 21 29  1  0  0  0  0
 21 22  1  0  0  0  0
 22 46  1  0  0  0  0
 23 24  2  0  0  0  0
 23 47  1  0  0  0  0
 24 25  1  0  0  0  0
M  END
> <s_m_source_file>
AV-unprocessed.smi

> <i_m_source_file_index>
40

> <i_lp_mmshare_version>
43012

> <i_f3d_flags>
0

> <s_epik_input>
W0NIM11bQ0gyXVtDSDJdW0NIMl1bQ0gyXU9DKD1PKVtOSF1jMW5jKD1PKW4oW2NIXWMxRilbQ0BASF0yT1tDQEhdKFtDSDNdKVtDQEBIXShbT0hdKVtDQEhdMltPSF0=

> <s_epik_cmdline>
J2VwaWtfcHl0aG9uJywgJy1waCcsICc3LjAnLCAnLXRuJywgJzgnLCAnLW1hJywgJzIwMCcsICctbWV0YWxfYmluZGluZycsICctaW1hZScsICc8aW5maWxlLm1hZT4nLCAnLW9tYWUnLCAnPG91dGZpbGUubWFlPic=

> <r_lp_tautomer_probability>
1

> <r_epik_Ionization_Penalty>
2.29506e-06

> <r_epik_Ionization_Penalty_Charging>
8.26867e-09

> <r_epik_Ionization_Penalty_Neutral>
2.2868e-06

> <r_epik_State_Penalty>
-0

> <r_epik_Charging_Adjusted_Penalty>
8.26867e-09

> <i_epik_Tot_Q>
0

> <i_epik_Tot_abs_Q>
0

> <r_epik_Metal_State_Penalty>
-0

> <b_epik_Metal_Only>
0

> <s_epik_Chemistry_Notes>
This compound has an ester and may undergo hydrolysis at high or low pH. This compound contains an acetal/aminal-like group ( X-CH(R)-Y where X, Y are N, S, or O) that may be acid/base labile, releasing an aldehyde.

> <s_lp_Force_Field>
OPLS_2005

> <r_lp_Energy>
21.8092

> <b_lp_Chiralities_Consistent>
1

> <s_lp_Variant>
AV-unprocessed.smi:40-10

> <Gold.Version>
5.8.1

> <Gold.Id.Protein>
6NUR|6NUR_protein|mol2

> <Gold.PLP.Fitness>
43.8673

> <Gold.PLP.PLP>
-33.4281

> <Gold.PLP.part.hbond>
-4.7353

> <Gold.PLP.part.metal>
0.0000

> <Gold.PLP.part.buried>
-0.1412

> <Gold.PLP.part.nonpolar>
-28.5502

> <Gold.PLP.part.repulsive>
0.1590

> <Gold.PLP.ligand.clash>
0.0000

> <Gold.PLP.ligand.torsion>
0.7963

> <Gold.PLP.Chemscore.Hbond>
2.9913

> <Gold.PLP.Chemscore.CHOScore>
1.0000

> <Gold.PLP.Chemscore.Metal>
0.0000

> <Gold.Chemscore.Hbonds>
donor molecule, donor type, donor heavy atom, donor atom, acceptor molecule, acceptor atom, score
      L1  H    20    45       P1 10747  1.00
      P1  H  6896  6908       L1    13  1.00
      P1  H  6896  6909       L1     8  0.18
      L1  C    23    47       P1  7948  1.00

> <Gold.PLP.Chemscore.Internal.Correction>
0.0580

> <Gold.Rescore>
     Score         DG    S(hbond)    S(metal)    S(lipo)     H(rot)  DE(clash)    DE(int)     intcor
     10.04     -12.30       2.24        0.00      75.25       3.70       0.05       2.21       ----

> <Gold.Chemscore.Fitness>
10.0365

> <Gold.Chemscore.DG>
-12.2983

> <Gold.Chemscore.ZeroCoef>
-5.4800

> <Gold.Chemscore.Hbond>
2.2380

> <Gold.Chemscore.Metal>
0.0000

> <Gold.Chemscore.Lipo>
75.2509

> <Gold.Chemscore.Internal_Hbond>
0.0000

> <Gold.Chemscore.DEClash>
0.0509

> <Gold.Chemscore.DEInternal>
2.2108

> <Gold.Chemscore.Rot>
3.6957

> <Gold.Chemscore.Internal.Correction>
   9.000000E+99

> <Gold.Chemscore.Hbonds>
donor molecule, donor type, donor heavy atom, donor atom, acceptor molecule, acceptor atom, score
      L1  H    20    45       P1 10747  0.98
      P1  H  6896  6908       L1    13  0.70
      P1  H  6896  6909       L1     8  0.18

> <Gold.Chemscore.Hbond.Weighted>
-7.4749

> <Gold.Chemscore.Metal.Weighted>
-0.0000

> <Gold.Chemscore.Lipo.Weighted>
-8.8044

> <Gold.Chemscore.Internal_Hbond.Weighted>
0.0000

> <Gold.Chemscore.DEClash.Weighted>
0.0509

> <Gold.Chemscore.DEInternal.Weighted>
2.2108

> <Gold.Chemscore.Rot.Weighted>
9.4610

> <Gold.Chemscore.Internal.Correction.Weighted>
   9.000000E+99

> <Gold.Protein.RotatedTorsions>
[ 6907 6896 6895 6894 ] final  121.10 input  -60.11 | X-H torsion
[ 7974 7965 7964 7962 ] final -158.93 input  175.53 | X-H torsion
[ 8008 7997 7996 7995 ] final   90.21 input   59.86 | X-H torsion
[ 10167 10162 10161 10158 ] final   50.07 input  -65.29 | X-H torsion
[ 10718 10713 10712 10709 ] final  -29.83 input   66.30 | X-H torsion
[ 10763 10752 10751 10750 ] final -172.98 input  -60.55 | X-H torsion
[ 11005 11000 10999 10996 ] final  -23.88 input  -57.11 | X-H torsion

> <Gold.Protein.ActiveResidues>
 VAL166  LYS551  ARG553  GLY616  TRP617  ASP618  TYR619  PRO620  LYS621  CYS622 
 ASP623  PHE694  ASN695  SER759  ASP760  ASP761  ALA762  ILE779  LEU786  VAL792 
 PHE793  MET794  SER795  GLU796  ALA797  LYS798  CYS799  TRP800  GLU811  SER814 

> <Gold.Protein.RotatedAtoms>
  152.4348  133.7340  159.6603 H   0  0  0  0  0  0  0  0  0  0  0  0  # atno 6907 bound_to 6896
  150.8230  133.8209  159.3137 H   0  0  0  0  0  0  0  0  0  0  0  0  # atno 6908 bound_to 6896
  151.5886  135.1057  160.0085 H   0  0  0  0  0  0  0  0  0  0  0  0  # atno 6909 bound_to 6896
  144.7485  140.3757  143.6066 H   0  0  0  0  0  0  0  0  0  0  0  0  # atno 7974 bound_to 7965
  156.0092  140.3352  155.6924 H   0  0  0  0  0  0  0  0  0  0  0  0  # atno 8008 bound_to 7997
  155.6181  140.0672  157.2704 H   0  0  0  0  0  0  0  0  0  0  0  0  # atno 8009 bound_to 7997
  154.4275  140.1781  156.1331 H   0  0  0  0  0  0  0  0  0  0  0  0  # atno 8010 bound_to 7997
  140.2763  144.3208  150.6276 H   0  0  0  0  0  0  0  0  0  0  0  0  # atno 10167 bound_to 10162
  156.4075  130.4402  149.7277 H   0  0  0  0  0  0  0  0  0  0  0  0  # atno 10718 bound_to 10713
  154.6132  135.2867  155.0409 H   0  0  0  0  0  0  0  0  0  0  0  0  # atno 10763 bound_to 10752
  154.1632  135.6485  153.4995 H   0  0  0  0  0  0  0  0  0  0  0  0  # atno 10764 bound_to 10752
  153.0204  135.5383  154.6893 H   0  0  0  0  0  0  0  0  0  0  0  0  # atno 10765 bound_to 10752
  140.8793  133.7665  156.0282 H   0  0  0  0  0  0  0  0  0  0  0  0  # atno 11005 bound_to 11000
  145.7031  139.1666  143.2582 LP  0  0  0  0  0  0  0  0  0  0  0  0  # atno 17320 bound_to 7965
  146.1401  140.7069  142.9371 LP  0  0  0  0  0  0  0  0  0  0  0  0  # atno 17321 bound_to 7965
  140.5848  143.2170  151.7361 LP  0  0  0  0  0  0  0  0  0  0  0  0  # atno 17342 bound_to 10162
  139.4975  144.4026  152.0165 LP  0  0  0  0  0  0  0  0  0  0  0  0  # atno 17343 bound_to 10162
  156.4269  130.7796  151.2815 LP  0  0  0  0  0  0  0  0  0  0  0  0  # atno 17370 bound_to 10713
  157.7506  131.0166  150.3551 LP  0  0  0  0  0  0  0  0  0  0  0  0  # atno 17371 bound_to 10713
  140.8480  134.2987  157.5287 LP  0  0  0  0  0  0  0  0  0  0  0  0  # atno 17394 bound_to 11000
  139.8718  134.9452  156.3904 LP  0  0  0  0  0  0  0  0  0  0  0  0  # atno 17395 bound_to 11000

$$$$
