#       Name:                AV-unprocessed.smi:367
#       Creating user name   scv26
#       Creation time:       Thu Mar 26 22:37:19 2020


#       File generated by GOLD software.
#

@<TRIPOS>MOLECULE
AV-unprocessed.smi:367
    29    29     1
SMALL
NO_CHARGES


@<TRIPOS>ATOM
      1 ****        -3.4550  -0.6223   0.2378 C.3            1 S1                 0.0000
      2 ****        -1.9434  -0.6710   0.1856 C.2            1 S1                 0.0000
      3 ****        -1.3433   0.5739   0.2776 N.pl3          1 S1                 0.0000
      4 ****         0.0387   0.6303   0.2425 C.2            1 S1                 0.0000
      5 ****         0.6158   2.0307   0.3549 C.3            1 S1                 0.0000
      6 ****         0.7852  -0.4961   0.1149 C.2            1 S1                 0.0000
      7 ****         2.3142  -0.4752   0.0715 C.3            1 S1                 0.0000
      8 ****         2.9082  -0.1233  -1.2974 C.2            1 S1                 0.0000
      9 ****         4.0827   0.3049  -1.3031 O.co2          1 S1                 0.0000
     10 ****         2.1953  -0.2887  -2.3123 O.co2          1 S1                -1.0000
     11 ****         0.0854  -1.7990   0.0138 C.2            1 S1                 0.0000
     12 ****         0.7036  -2.8551  -0.1135 O.2            1 S1                 0.0000
     13 ****        -1.3183  -1.8023   0.0639 N.2            1 S1                 0.0000
     14 ****        -1.8586   1.4373   0.3677 H              1 S1                 0.0000
     15 ****        -3.8781  -1.6276   0.2366 H              1 S1                 0.0000
     16 ****        -3.8460  -0.0860  -0.6271 H              1 S1                 0.0000
     17 ****        -3.7893  -0.1135   1.1424 H              1 S1                 0.0000
     18 ****         1.2343   2.1167   1.2484 H              1 S1                 0.0000
     19 ****        -0.1686   2.7859   0.4168 H              1 S1                 0.0000
     20 ****         1.2320   2.2594  -0.5148 H              1 S1                 0.0000
     21 ****         2.7280  -1.4307   0.3945 H              1 S1                 0.0000
     22 ****         2.6762   0.2513   0.7994 H              1 S1                 0.0000
     23 ****         4.5230   0.5455  -2.1681 LP             1 S1                 0.0000
     24 ****         4.5820   0.4068  -0.4426 LP             1 S1                 0.0000
     25 ****         2.5581  -0.0725  -3.2188 LP             1 S1                 0.0000
     26 ****         1.2629  -0.6371  -2.2170 LP             1 S1                 0.0000
     27 ****         1.7029  -2.8481  -0.1510 LP             1 S1                 0.0000
     28 ****         0.2068  -3.7204  -0.1794 LP             1 S1                 0.0000
     29 ****        -1.8273  -2.6611   0.0068 LP             1 S1                 0.0000
@<TRIPOS>BOND
    1    1   15 1     
    2    1   16 1     
    3    1   17 1     
    4    1    2 1     
    5    2    3 1     
    6    2   13 2     
    7    3    4 1     
    8    3   14 1     
    9    4    6 2     
   10    4    5 1     
   11    5   18 1     
   12    5   19 1     
   13    5   20 1     
   14    6   11 1     
   15    6    7 1     
   16    7    8 1     
   17    7   21 1     
   18    7   22 1     
   19    8    9 ar    
   20    8   10 ar    
   21   11   12 2     
   22   11   13 1     
   23    9   23 1     
   24    9   24 1     
   25   10   25 1     
   26   10   26 1     
   27   12   27 1     
   28   12   28 1     
   29   13   29 1     
@<TRIPOS>SUBSTRUCTURE
      1 S1             1
@<TRIPOS>SET
LONE_PAIRS      STATIC     ATOMS    <user>   **** ""
7 23 24 25 26 27 28 29
DONOR_HYDROGENS      STATIC     ATOMS    <user>   **** ""
1 14
ATOM$BLUE        STATIC     ATOMS    COLORGROUP SYSTEM
7 23 24 25 26 27 28 29
ATOM$RED        STATIC     ATOMS    COLORGROUP SYSTEM
1 14
