AV-unprocessed.smi:310|AV-procd|sdf|2296|dock8
  -GOLD-   2262022193D 1   1.00000     0.00000
 Structure written by MMmdl.
 40 42  0  0  0  0  0  0  0  0  2 V2000
  150.2117  129.9645  154.5382 C   0  0  0  0  0  0  0  0  0  0  0  0
  150.0717  131.4274  154.7872 C   0  0  0  0  0  0  0  0  0  0  0  0
  149.3505  132.4081  154.1678 C   0  0  0  0  0  0  0  0  0  0  0  0
  149.6823  133.5742  154.9105 C   0  0  0  0  0  0  0  0  0  0  0  0
  149.2104  134.8110  154.6902 N   0  5  0  0  0  0  0  0  0  0  0  0
  149.9363  135.8921  155.0583 C   0  0  0  0  0  0  0  0  0  0  0  0
  150.5292  136.0435  156.1292 O   0  0  0  0  0  0  0  0  0  0  0  0
  149.9771  136.8577  154.1283 N   0  0  0  0  0  0  0  0  0  0  0  0
  150.6777  138.1340  154.2444 C   0  0  0  0  0  0  0  0  0  0  0  0
  152.0837  137.9317  154.8566 C   0  0  0  0  0  0  0  0  0  0  0  0
  152.7487  139.2825  155.1729 C   0  0  0  0  0  0  0  0  0  0  0  0
  151.8676  140.0471  156.0662 N   0  0  0  0  0  0  0  0  0  0  0  0
  152.1003  140.3248  157.3736 C   0  0  0  0  0  0  0  0  0  0  0  0
  153.0842  139.8851  157.9712 O   0  0  0  0  0  0  0  0  0  0  0  0
  151.1183  141.2196  158.0690 C   0  0  0  0  0  0  0  0  0  0  0  0
  150.8696  142.6036  157.4956 C   0  0  0  0  0  0  0  0  0  0  0  0
  151.6780  142.4467  158.7568 C   0  0  0  0  0  0  0  0  0  0  0  0
  150.6143  140.4073  155.3921 C   0  0  0  0  0  0  0  0  0  0  0  0
  149.8332  139.1163  155.0846 C   0  0  0  0  0  0  0  0  0  0  0  0
  150.5180  133.3201  155.9035 N   0  0  0  0  0  0  0  0  0  0  0  0
  150.7780  131.9465  155.8272 O   0  0  0  0  0  0  0  0  0  0  0  0
  149.2469  129.4653  154.6257 H   0  0  0  0  0  0  0  0  0  0  0  0
  150.8952  129.5067  155.2536 H   0  0  0  0  0  0  0  0  0  0  0  0
  150.5989  129.7803  153.5360 H   0  0  0  0  0  0  0  0  0  0  0  0
  148.6940  132.3100  153.3164 H   0  0  0  0  0  0  0  0  0  0  0  0
  149.4772  136.6898  153.2675 H   0  0  0  0  0  0  0  0  0  0  0  0
  150.7935  138.5699  153.2501 H   0  0  0  0  0  0  0  0  0  0  0  0
  152.0094  137.3440  155.7727 H   0  0  0  0  0  0  0  0  0  0  0  0
  152.7133  137.3606  154.1735 H   0  0  0  0  0  0  0  0  0  0  0  0
  153.7527  139.1309  155.5670 H   0  0  0  0  0  0  0  0  0  0  0  0
  152.8924  139.8446  154.2491 H   0  0  0  0  0  0  0  0  0  0  0  0
  150.2510  140.7390  158.5178 H   0  0  0  0  0  0  0  0  0  0  0  0
  151.4054  142.9159  156.6011 H   0  0  0  0  0  0  0  0  0  0  0  0
  149.8595  142.9979  157.5835 H   0  0  0  0  0  0  0  0  0  0  0  0
  151.2187  142.7362  159.6997 H   0  0  0  0  0  0  0  0  0  0  0  0
  152.7493  142.6291  158.6902 H   0  0  0  0  0  0  0  0  0  0  0  0
  149.9921  141.0824  155.9809 H   0  0  0  0  0  0  0  0  0  0  0  0
  150.8373  140.9412  154.4671 H   0  0  0  0  0  0  0  0  0  0  0  0
  148.9074  139.3566  154.5610 H   0  0  0  0  0  0  0  0  0  0  0  0
  149.5431  138.6441  156.0247 H   0  0  0  0  0  0  0  0  0  0  0  0
  1  2  1  0  0  0  0
  1 22  1  0  0  0  0
  1 23  1  0  0  0  0
  1 24  1  0  0  0  0
  2 21  1  0  0  0  0
  2  3  2  0  0  0  0
  3  4  1  0  0  0  0
  3 25  1  0  0  0  0
  4  5  1  0  0  0  0
  4 20  2  0  0  0  0
  5  6  1  0  0  0  0
  6  7  2  0  0  0  0
  6  8  1  0  0  0  0
  8  9  1  0  0  0  0
  8 26  1  0  0  0  0
  9 19  1  0  0  0  0
  9 10  1  0  0  0  0
  9 27  1  0  0  0  0
 10 11  1  0  0  0  0
 10 28  1  0  0  0  0
 10 29  1  0  0  0  0
 11 12  1  0  0  0  0
 11 30  1  0  0  0  0
 11 31  1  0  0  0  0
 12 13  1  0  0  0  0
 12 18  1  0  0  0  0
 13 14  2  0  0  0  0
 13 15  1  0  0  0  0
 15 17  1  0  0  0  0
 15 16  1  0  0  0  0
 15 32  1  0  0  0  0
 16 17  1  0  0  0  0
 16 33  1  0  0  0  0
 16 34  1  0  0  0  0
 17 35  1  0  0  0  0
 17 36  1  0  0  0  0
 18 19  1  0  0  0  0
 18 37  1  0  0  0  0
 18 38  1  0  0  0  0
 19 39  1  0  0  0  0
 19 40  1  0  0  0  0
 20 21  1  0  0  0  0
M  CHG  1   5  -1
M  END
> <s_m_source_file>
AV-unprocessed.smi

> <i_m_source_file_index>
310

> <i_lp_mmshare_version>
43012

> <i_f3d_flags>
0

> <s_epik_input>
W0NIM11jMVtjSF1jKG5vMSlbTkhdQyg9TylbTkhdW0NIXTJbQ0gyXVtDSDJdTihbQ0gyXVtDSDJdMilDKD1PKVtDSF0zW0NIMl1bQ0gyXTM=

> <s_epik_cmdline>
J2VwaWtfcHl0aG9uJywgJy1waCcsICc3LjAnLCAnLXRuJywgJzgnLCAnLW1hJywgJzIwMCcsICctbWV0YWxfYmluZGluZycsICctaW1hZScsICc8aW5maWxlLm1hZT4nLCAnLW9tYWUnLCAnPG91dGZpbGUubWFlPic=

> <r_lp_tautomer_probability>
1

> <r_epik_Ionization_Penalty>
6.54503

> <r_epik_Ionization_Penalty_Charging>
6.5449

> <r_epik_Ionization_Penalty_Neutral>
0.000132868

> <r_epik_State_Penalty>
6.54489

> <r_epik_Charging_Adjusted_Penalty>
13.0898

> <i_epik_Tot_Q>
-1

> <i_epik_Tot_abs_Q>
1

> <r_epik_Metal_State_Penalty>
2.47073

> <b_epik_Metal_Only>
1

> <s_lp_Force_Field>
OPLS_2005

> <r_lp_Energy>
23.2172

> <b_lp_Chiralities_Consistent>
1

> <s_lp_Variant>
AV-unprocessed.smi:310-2

> <Gold.Version>
5.8.1

> <Gold.Id.Protein>
6NUR|6NUR_protein|mol2

> <Gold.PLP.Fitness>
41.2881

> <Gold.PLP.PLP>
-36.8575

> <Gold.PLP.part.hbond>
-2.9405

> <Gold.PLP.part.metal>
0.0000

> <Gold.PLP.part.buried>
-0.9498

> <Gold.PLP.part.nonpolar>
-32.4665

> <Gold.PLP.part.repulsive>
0.2391

> <Gold.PLP.ligand.clash>
0.0000

> <Gold.PLP.ligand.torsion>
0.8362

> <Gold.PLP.Chemscore.Hbond>
1.9913

> <Gold.PLP.Chemscore.CHOScore>
0.0000

> <Gold.PLP.Chemscore.Metal>
0.0000

> <Gold.Chemscore.Hbonds>
donor molecule, donor type, donor heavy atom, donor atom, acceptor molecule, acceptor atom, score
      L1  H     8    26       P1  7948  1.00
      P1  H  7997  8010       L1    14  1.00

> <Gold.PLP.Chemscore.Internal.Correction>
0.1293

> <Gold.Rescore>
     Score         DG    S(hbond)    S(metal)    S(lipo)     H(rot)  DE(clash)    DE(int)     intcor
     13.32     -16.77       1.89        0.00      69.82       1.25       0.02       3.43       ----

> <Gold.Chemscore.Fitness>
13.3185

> <Gold.Chemscore.DG>
-16.7657

> <Gold.Chemscore.ZeroCoef>
-5.4800

> <Gold.Chemscore.Hbond>
1.8907

> <Gold.Chemscore.Metal>
0.0000

> <Gold.Chemscore.Lipo>
69.8183

> <Gold.Chemscore.Internal_Hbond>
0.0000

> <Gold.Chemscore.DEClash>
0.0174

> <Gold.Chemscore.DEInternal>
3.4298

> <Gold.Chemscore.Rot>
1.2493

> <Gold.Chemscore.Internal.Correction>
   9.000000E+99

> <Gold.Chemscore.Hbonds>
donor molecule, donor type, donor heavy atom, donor atom, acceptor molecule, acceptor atom, score
      L1  H     8    26       P1  7948  0.70
      P1  H  7997  8010       L1    14  0.37

> <Gold.Chemscore.Hbond.Weighted>
-6.3151

> <Gold.Chemscore.Metal.Weighted>
-0.0000

> <Gold.Chemscore.Lipo.Weighted>
-8.1687

> <Gold.Chemscore.Internal_Hbond.Weighted>
0.0000

> <Gold.Chemscore.DEClash.Weighted>
0.0174

> <Gold.Chemscore.DEInternal.Weighted>
3.4298

> <Gold.Chemscore.Rot.Weighted>
3.1981

> <Gold.Chemscore.Internal.Correction.Weighted>
   9.000000E+99

> <Gold.Protein.RotatedTorsions>
[ 6907 6896 6895 6894 ] final  138.55 input  -60.11 | X-H torsion
[ 7974 7965 7964 7962 ] final   62.32 input  175.53 | X-H torsion
[ 8008 7997 7996 7995 ] final   54.59 input   59.86 | X-H torsion
[ 10167 10162 10161 10158 ] final   41.02 input  -65.29 | X-H torsion
[ 10718 10713 10712 10709 ] final  -99.04 input   66.30 | X-H torsion
[ 10763 10752 10751 10750 ] final  111.52 input  -60.55 | X-H torsion
[ 11005 11000 10999 10996 ] final   25.29 input  -57.11 | X-H torsion

> <Gold.Protein.ActiveResidues>
 VAL166  LYS551  ARG553  GLY616  TRP617  ASP618  TYR619  PRO620  LYS621  CYS622 
 ASP623  PHE694  ASN695  SER759  ASP760  ASP761  ALA762  ILE779  LEU786  VAL792 
 PHE793  MET794  SER795  GLU796  ALA797  LYS798  CYS799  TRP800  GLU811  SER814 

> <Gold.Protein.RotatedAtoms>
  152.2652  133.5333  159.5405 H   0  0  0  0  0  0  0  0  0  0  0  0  # atno 6907 bound_to 6896
  150.7139  134.0774  159.3894 H   0  0  0  0  0  0  0  0  0  0  0  0  # atno 6908 bound_to 6896
  151.8690  135.0496  160.0528 H   0  0  0  0  0  0  0  0  0  0  0  0  # atno 6909 bound_to 6896
  145.8747  139.3402  143.0741 H   0  0  0  0  0  0  0  0  0  0  0  0  # atno 7974 bound_to 7965
  155.4872  140.3470  155.4349 H   0  0  0  0  0  0  0  0  0  0  0  0  # atno 8008 bound_to 7997
  156.1001  140.1433  156.9507 H   0  0  0  0  0  0  0  0  0  0  0  0  # atno 8009 bound_to 7997
  154.4688  140.0908  156.7068 H   0  0  0  0  0  0  0  0  0  0  0  0  # atno 8010 bound_to 7997
  140.3684  144.2136  150.6134 H   0  0  0  0  0  0  0  0  0  0  0  0  # atno 10167 bound_to 10162
  156.0123  130.5265  150.6612 H   0  0  0  0  0  0  0  0  0  0  0  0  # atno 10718 bound_to 10713
  153.4646  135.3714  155.2357 H   0  0  0  0  0  0  0  0  0  0  0  0  # atno 10763 bound_to 10752
  154.8757  135.3917  154.3884 H   0  0  0  0  0  0  0  0  0  0  0  0  # atno 10764 bound_to 10752
  153.4463  135.7085  153.6201 H   0  0  0  0  0  0  0  0  0  0  0  0  # atno 10765 bound_to 10752
  140.3494  134.2245  155.7681 H   0  0  0  0  0  0  0  0  0  0  0  0  # atno 11005 bound_to 11000
  145.9095  140.9190  143.0461 LP  0  0  0  0  0  0  0  0  0  0  0  0  # atno 17320 bound_to 7965
  144.6726  140.1140  143.7453 LP  0  0  0  0  0  0  0  0  0  0  0  0  # atno 17321 bound_to 7965
  140.5057  143.2305  151.8611 LP  0  0  0  0  0  0  0  0  0  0  0  0  # atno 17342 bound_to 10162
  139.4806  144.5008  151.9063 LP  0  0  0  0  0  0  0  0  0  0  0  0  # atno 17343 bound_to 10162
  157.4354  131.0854  151.0997 LP  0  0  0  0  0  0  0  0  0  0  0  0  # atno 17370 bound_to 10713
  157.1557  130.6203  149.5595 LP  0  0  0  0  0  0  0  0  0  0  0  0  # atno 17371 bound_to 10713
  141.2016  133.7958  157.0431 LP  0  0  0  0  0  0  0  0  0  0  0  0  # atno 17394 bound_to 11000
  140.0715  134.9699  157.1476 LP  0  0  0  0  0  0  0  0  0  0  0  0  # atno 17395 bound_to 11000

$$$$
