#       Name:                AV-unprocessed.smi:2913
#       Creating user name   scv26
#       Creation time:       Fri Mar 27 16:07:34 2020


#       File generated by GOLD software.
#

@<TRIPOS>MOLECULE
AV-unprocessed.smi:2913
    47    48     1
SMALL
NO_CHARGES


@<TRIPOS>ATOM
      1 ****        -2.0226  -3.1512  -0.9435 C.3            1 S1                 0.0000
      2 ****        -2.8327  -1.8654  -0.9253 C.2            1 S1                 0.0000
      3 ****        -4.1824  -1.9203  -0.9759 C.2            1 S1                 0.0000
      4 ****        -5.0251  -0.7236  -0.9629 C.2            1 S1                 0.0000
      5 ****        -6.2541  -0.7842  -1.0054 O.2            1 S1                 0.0000
      6 ****        -4.3593   0.4622  -0.9027 N.am           1 S1                 0.0000
      7 ****        -5.1113   1.7199  -0.8943 C.3            1 S1                 0.0000
      8 ****        -2.9570   0.5339  -0.8511 C.2            1 S1                 0.0000
      9 ****        -2.1736  -0.5675  -0.8518 C.2            1 S1                 0.0000
     10 ****        -0.7691  -0.5419  -0.8128 N.am           1 S1                 0.0000
     11 ****         0.0626   0.4788  -0.5326 C.2            1 S1                 0.0000
     12 ****        -0.2758   1.6158  -0.2054 O.2            1 S1                 0.0000
     13 ****         1.3415   0.0881  -0.6336 N.am           1 S1                 0.0000
     14 ****         2.5174   0.9138  -0.3630 C.3            1 S1                 0.0000
     15 ****         3.3568   1.0255  -1.6441 C.3            1 S1                 0.0000
     16 ****         3.3234   0.3154   0.8068 C.3            1 S1                 0.0000
     17 ****         2.5311   0.1372   2.1049 C.3            1 S1                 0.0000
     18 ****         3.6291   0.1686   3.1419 C.3            1 S1                 0.0000
     19 ****         4.5517   1.2422   2.5750 C.3            1 S1                 0.0000
     20 ****         4.4098   1.1707   1.1585 O.3            1 S1                 0.0000
     21 ****        -2.6633  -4.0329  -0.9828 H              1 S1                 0.0000
     22 ****        -1.4070  -3.2243  -0.0464 H              1 S1                 0.0000
     23 ****        -1.3669  -3.1738  -1.8143 H              1 S1                 0.0000
     24 ****        -4.6714  -2.8822  -1.0288 H              1 S1                 0.0000
     25 ****        -4.4688   2.5991  -0.8361 H              1 S1                 0.0000
     26 ****        -5.7871   1.7565  -0.0388 H              1 S1                 0.0000
     27 ****        -5.7081   1.8141  -1.8026 H              1 S1                 0.0000
     28 ****        -2.5818   1.5441  -0.8246 H              1 S1                 0.0000
     29 ****        -0.3297  -1.4288  -1.0107 H              1 S1                 0.0000
     30 ****         1.5202  -0.8675  -0.9054 H              1 S1                 0.0000
     31 ****         2.2119   1.9222  -0.0788 H              1 S1                 0.0000
     32 ****         4.2275   1.6633  -1.4902 H              1 S1                 0.0000
     33 ****         2.7743   1.4589  -2.4579 H              1 S1                 0.0000
     34 ****         3.7142   0.0491  -1.9727 H              1 S1                 0.0000
     35 ****         3.7448  -0.6489   0.5176 H              1 S1                 0.0000
     36 ****         1.8499   0.9756   2.2589 H              1 S1                 0.0000
     37 ****         1.9489  -0.7844   2.1270 H              1 S1                 0.0000
     38 ****         3.2689   0.3999   4.1447 H              1 S1                 0.0000
     39 ****         4.1434  -0.7930   3.1735 H              1 S1                 0.0000
     40 ****         4.2308   2.2312   2.9043 H              1 S1                 0.0000
     41 ****         5.5889   1.1040   2.8802 H              1 S1                 0.0000
     42 ****        -6.7096  -1.6733  -1.0506 LP             1 S1                 0.0000
     43 ****        -6.7968   0.0557  -0.9946 LP             1 S1                 0.0000
     44 ****        -1.2459   1.8461  -0.1284 LP             1 S1                 0.0000
     45 ****         0.4193   2.3095  -0.0165 LP             1 S1                 0.0000
     46 ****         4.2365   2.0875   0.7986 LP             1 S1                 0.0000
     47 ****         5.2539   0.8106   0.7612 LP             1 S1                 0.0000
@<TRIPOS>BOND
    1    1    2 1     
    2    1   21 1     
    3    1   22 1     
    4    1   23 1     
    5    2    9 1     
    6    2    3 2     
    7    3    4 1     
    8    3   24 1     
    9    4    5 2     
   10    4    6 am    
   11    6    7 1     
   12    6    8 1     
   13    7   25 1     
   14    7   26 1     
   15    7   27 1     
   16    8    9 2     
   17    8   28 1     
   18    9   10 1     
   19   10   11 am    
   20   10   29 1     
   21   11   12 2     
   22   11   13 am    
   23   13   14 1     
   24   13   30 1     
   25   14   15 1     
   26   14   16 1     
   27   14   31 1     
   28   15   32 1     
   29   15   33 1     
   30   15   34 1     
   31   16   20 1     
   32   16   17 1     
   33   16   35 1     
   34   17   18 1     
   35   17   36 1     
   36   17   37 1     
   37   18   19 1     
   38   18   38 1     
   39   18   39 1     
   40   19   20 1     
   41   19   40 1     
   42   19   41 1     
   43    5   42 1     
   44    5   43 1     
   45   12   44 1     
   46   12   45 1     
   47   20   46 1     
   48   20   47 1     
@<TRIPOS>SUBSTRUCTURE
      1 S1             1
@<TRIPOS>SET
LONE_PAIRS      STATIC     ATOMS    <user>   **** ""
6 42 43 44 45 46 47
DONOR_HYDROGENS      STATIC     ATOMS    <user>   **** ""
2 29 30
ATOM$BLUE        STATIC     ATOMS    COLORGROUP SYSTEM
6 42 43 44 45 46 47
ATOM$RED        STATIC     ATOMS    COLORGROUP SYSTEM
2 29 30
