AV-unprocessed.smi:3264|AV-procd|sdf|12495|dock7
  -GOLD-   2272018393D 1   1.00000     0.00000
 Structure written by MMmdl.
 32 33  0  0  0  0  0  0  0  0  1 V2000
  152.7895  143.2170  162.2212 C   0  0  0  0  0  0  0  0  0  0  0  0
  152.3208  143.5447  160.8449 C   0  0  0  0  0  0  0  0  0  0  0  0
  152.1914  142.6389  159.8719 N   0  0  0  0  0  0  0  0  0  0  0  0
  151.7405  143.1983  158.6721 C   0  0  0  0  0  0  0  0  0  0  0  0
  151.5351  142.3271  157.4701 C   0  0  0  0  0  0  0  0  0  0  0  0
  150.4852  141.2345  157.7150 C   0  0  0  0  0  0  0  0  0  0  0  0
  149.6799  141.0231  156.5197 N   0  0  0  0  0  0  0  0  0  0  0  0
  150.1499  140.5547  155.3547 C   0  0  0  0  0  0  0  0  0  0  0  0
  151.3298  140.2490  155.1781 O   0  0  0  0  0  0  0  0  0  0  0  0
  149.1210  140.3969  154.2286 C   0  0  1  0  0  0  0  0  0  0  0  0
  147.8614  139.5944  154.6097 C   0  0  0  0  0  0  0  0  0  0  0  0
  146.7536  140.6298  154.5857 C   0  0  0  0  0  0  0  0  0  0  0  0
  147.2756  141.6263  153.5610 C   0  0  0  0  0  0  0  0  0  0  0  0
  148.6592  141.6963  153.8653 O   0  0  0  0  0  0  0  0  0  0  0  0
  151.5250  144.5515  158.7534 C   0  0  0  0  0  0  0  0  0  0  0  0
  151.8841  145.1726  160.3410 S   0  0  0  0  0  0  0  0  0  0  0  0
  152.9482  142.1434  162.3287 H   0  0  0  0  0  0  0  0  0  0  0  0
  152.0474  143.5357  162.9534 H   0  0  0  0  0  0  0  0  0  0  0  0
  153.7283  143.7314  162.4265 H   0  0  0  0  0  0  0  0  0  0  0  0
  151.2298  142.9376  156.6194 H   0  0  0  0  0  0  0  0  0  0  0  0
  152.4808  141.8657  157.1821 H   0  0  0  0  0  0  0  0  0  0  0  0
  150.9704  140.2958  157.9862 H   0  0  0  0  0  0  0  0  0  0  0  0
  149.8439  141.5204  158.5508 H   0  0  0  0  0  0  0  0  0  0  0  0
  148.6967  141.2447  156.5818 H   0  0  0  0  0  0  0  0  0  0  0  0
  149.5936  139.9352  153.3597 H   0  0  0  0  0  0  0  0  0  0  0  0
  147.6730  138.8311  153.8536 H   0  0  0  0  0  0  0  0  0  0  0  0
  147.9226  139.0847  155.5721 H   0  0  0  0  0  0  0  0  0  0  0  0
  145.7819  140.2127  154.3205 H   0  0  0  0  0  0  0  0  0  0  0  0
  146.6677  141.1099  155.5613 H   0  0  0  0  0  0  0  0  0  0  0  0
  147.1412  141.2510  152.5452 H   0  0  0  0  0  0  0  0  0  0  0  0
  146.7965  142.6025  153.6376 H   0  0  0  0  0  0  0  0  0  0  0  0
  151.1768  145.2185  157.9787 H   0  0  0  0  0  0  0  0  0  0  0  0
  1  2  1  0  0  0  0
  1 17  1  0  0  0  0
  1 18  1  0  0  0  0
  1 19  1  0  0  0  0
  2 16  1  0  0  0  0
  2  3  2  0  0  0  0
  3  4  1  0  0  0  0
  4  5  1  0  0  0  0
  4 15  2  0  0  0  0
  5  6  1  0  0  0  0
  5 20  1  0  0  0  0
  5 21  1  0  0  0  0
  6  7  1  0  0  0  0
  6 22  1  0  0  0  0
  6 23  1  0  0  0  0
  7  8  1  0  0  0  0
  7 24  1  0  0  0  0
  8  9  2  0  0  0  0
  8 10  1  0  0  0  0
 10 14  1  0  0  0  0
 10 11  1  0  0  0  0
 10 25  1  0  0  0  0
 11 12  1  0  0  0  0
 11 26  1  0  0  0  0
 11 27  1  0  0  0  0
 12 13  1  0  0  0  0
 12 28  1  0  0  0  0
 12 29  1  0  0  0  0
 13 14  1  0  0  0  0
 13 30  1  0  0  0  0
 13 31  1  0  0  0  0
 15 16  1  0  0  0  0
 15 32  1  0  0  0  0
M  END
> <s_m_source_file>
AV-unprocessed.smi

> <i_m_source_file_index>
3264

> <i_lp_mmshare_version>
43012

> <i_f3d_flags>
0

> <s_epik_input>
W0NIM11jMW5jKFtjSF1zMSlbQ0gyXVtDSDJdW05IXUMoPU8pW0NAQEhdMltDSDJdW0NIMl1bQ0gyXU8y

> <s_epik_cmdline>
J2VwaWtfcHl0aG9uJywgJy1waCcsICc3LjAnLCAnLXRuJywgJzgnLCAnLW1hJywgJzIwMCcsICctbWV0YWxfYmluZGluZycsICctaW1hZScsICc8aW5maWxlLm1hZT4nLCAnLW9tYWUnLCAnPG91dGZpbGUubWFlPic=

> <r_epik_Ionization_Penalty>
0.00112246

> <r_epik_Ionization_Penalty_Charging>
0

> <r_epik_Ionization_Penalty_Neutral>
0.00112246

> <r_epik_State_Penalty>
0.000737392

> <r_epik_Charging_Adjusted_Penalty>
0.000737392

> <i_epik_Tot_Q>
0

> <i_epik_Tot_abs_Q>
0

> <r_epik_Metal_State_Penalty>
-0

> <b_epik_Metal_Only>
0

> <s_lp_Force_Field>
OPLS_2005

> <r_lp_Energy>
13.6214

> <b_lp_Chiralities_Consistent>
1

> <s_lp_Variant>
AV-unprocessed.smi:3264-2

> <Gold.Version>
5.8.1

> <Gold.Id.Protein>
6NUR|6NUR_protein|mol2

> <Gold.PLP.Fitness>
40.3647

> <Gold.PLP.PLP>
-36.3041

> <Gold.PLP.part.hbond>
-2.0000

> <Gold.PLP.part.metal>
0.0000

> <Gold.PLP.part.buried>
-6.4019

> <Gold.PLP.part.nonpolar>
-27.2727

> <Gold.PLP.part.repulsive>
0.2491

> <Gold.PLP.ligand.clash>
0.0000

> <Gold.PLP.ligand.torsion>
0.3633

> <Gold.PLP.Chemscore.Hbond>
1.5920

> <Gold.PLP.Chemscore.CHOScore>
0.0000

> <Gold.PLP.Chemscore.Metal>
0.0000

> <Gold.Chemscore.Hbonds>
donor molecule, donor type, donor heavy atom, donor atom, acceptor molecule, acceptor atom, score
      P1  H  7989  7998       L1     9  1.00
      P1  H  8011  8017       L1    14  0.59

> <Gold.PLP.Chemscore.Internal.Correction>
0.0112

> <Gold.Rescore>
     Score         DG    S(hbond)    S(metal)    S(lipo)     H(rot)  DE(clash)    DE(int)     intcor
     15.96     -16.73       1.15        0.00      96.42       1.52       0.23       0.54       ----

> <Gold.Chemscore.Fitness>
15.9648

> <Gold.Chemscore.DG>
-16.7320

> <Gold.Chemscore.ZeroCoef>
-5.4800

> <Gold.Chemscore.Hbond>
1.1532

> <Gold.Chemscore.Metal>
0.0000

> <Gold.Chemscore.Lipo>
96.4176

> <Gold.Chemscore.Internal_Hbond>
0.0000

> <Gold.Chemscore.DEClash>
0.2285

> <Gold.Chemscore.DEInternal>
0.5386

> <Gold.Chemscore.Rot>
1.5159

> <Gold.Chemscore.Internal.Correction>
   9.000000E+99

> <Gold.Chemscore.Hbonds>
donor molecule, donor type, donor heavy atom, donor atom, acceptor molecule, acceptor atom, score
      P1  H  7989  7998       L1     9  0.33
      P1  H  8011  8017       L1    14  0.35

> <Gold.Chemscore.Hbond.Weighted>
-3.8518

> <Gold.Chemscore.Metal.Weighted>
-0.0000

> <Gold.Chemscore.Lipo.Weighted>
-11.2809

> <Gold.Chemscore.Internal_Hbond.Weighted>
0.0000

> <Gold.Chemscore.DEClash.Weighted>
0.2285

> <Gold.Chemscore.DEInternal.Weighted>
0.5386

> <Gold.Chemscore.Rot.Weighted>
3.8807

> <Gold.Chemscore.Internal.Correction.Weighted>
   9.000000E+99

> <Gold.Protein.RotatedTorsions>
[ 6907 6896 6895 6894 ] final -155.62 input  -60.11 | X-H torsion
[ 7974 7965 7964 7962 ] final   33.46 input  175.53 | X-H torsion
[ 8008 7997 7996 7995 ] final  -67.09 input   59.86 | X-H torsion
[ 10167 10162 10161 10158 ] final -103.85 input  -65.29 | X-H torsion
[ 10718 10713 10712 10709 ] final  -86.36 input   66.30 | X-H torsion
[ 10763 10752 10751 10750 ] final -146.93 input  -60.55 | X-H torsion
[ 11005 11000 10999 10996 ] final -123.82 input  -57.11 | X-H torsion

> <Gold.Protein.ActiveResidues>
 VAL166  LYS551  ARG553  GLY616  TRP617  ASP618  TYR619  PRO620  LYS621  CYS622 
 ASP623  PHE694  ASN695  SER759  ASP760  ASP761  ALA762  ILE779  LEU786  VAL792 
 PHE793  MET794  SER795  GLU796  ALA797  LYS798  CYS799  TRP800  GLU811  SER814 

> <Gold.Protein.RotatedAtoms>
  151.2752  133.4236  159.2623 H   0  0  0  0  0  0  0  0  0  0  0  0  # atno 6907 bound_to 6896
  151.0409  134.9607  159.8171 H   0  0  0  0  0  0  0  0  0  0  0  0  # atno 6908 bound_to 6896
  152.5365  134.2710  159.9024 H   0  0  0  0  0  0  0  0  0  0  0  0  # atno 6909 bound_to 6896
  146.1419  139.6394  142.9157 H   0  0  0  0  0  0  0  0  0  0  0  0  # atno 7974 bound_to 7965
  154.4777  140.0899  156.7301 H   0  0  0  0  0  0  0  0  0  0  0  0  # atno 8008 bound_to 7997
  155.4553  140.3459  155.4287 H   0  0  0  0  0  0  0  0  0  0  0  0  # atno 8009 bound_to 7997
  156.1142  140.1456  156.9284 H   0  0  0  0  0  0  0  0  0  0  0  0  # atno 8010 bound_to 7997
  140.2156  143.3714  152.1014 H   0  0  0  0  0  0  0  0  0  0  0  0  # atno 10167 bound_to 10162
  155.9990  130.4762  150.4703 H   0  0  0  0  0  0  0  0  0  0  0  0  # atno 10718 bound_to 10713
  154.8312  135.3373  154.6738 H   0  0  0  0  0  0  0  0  0  0  0  0  # atno 10763 bound_to 10752
  153.7358  135.6949  153.4983 H   0  0  0  0  0  0  0  0  0  0  0  0  # atno 10764 bound_to 10752
  153.2279  135.4426  155.0514 H   0  0  0  0  0  0  0  0  0  0  0  0  # atno 10765 bound_to 10752
  140.9889  134.0567  157.3678 H   0  0  0  0  0  0  0  0  0  0  0  0  # atno 11005 bound_to 11000
  145.5027  141.0437  143.2531 LP  0  0  0  0  0  0  0  0  0  0  0  0  # atno 17320 bound_to 7965
  144.7802  139.6542  143.7157 LP  0  0  0  0  0  0  0  0  0  0  0  0  # atno 17321 bound_to 7965
  139.5163  144.6976  151.5586 LP  0  0  0  0  0  0  0  0  0  0  0  0  # atno 17342 bound_to 10162
  140.6292  143.9108  150.6591 LP  0  0  0  0  0  0  0  0  0  0  0  0  # atno 17343 bound_to 10162
  157.2719  131.0589  151.2254 LP  0  0  0  0  0  0  0  0  0  0  0  0  # atno 17370 bound_to 10713
  157.3332  130.6995  149.6337 LP  0  0  0  0  0  0  0  0  0  0  0  0  # atno 17371 bound_to 10713
  139.8983  135.0154  156.7143 LP  0  0  0  0  0  0  0  0  0  0  0  0  # atno 17394 bound_to 11000
  140.7071  133.9256  155.8060 LP  0  0  0  0  0  0  0  0  0  0  0  0  # atno 17395 bound_to 11000

$$$$
