AV-unprocessed.smi:1744|AV-procd|sdf|7027|dock9
  -GOLD-   22720 8243D 1   1.00000     0.00000
 Structure written by MMmdl.
 43 44  0  0  0  0  0  0  0  0  3 V2000
  151.8770  144.3825  160.6685 C   0  0  0  0  0  0  0  0  0  0  0  0
  152.5033  144.3023  159.2710 C   0  0  0  0  0  0  0  0  0  0  0  0
  151.9576  143.2033  158.4981 N   0  0  0  0  0  0  0  0  0  0  0  0
  151.3140  143.2550  157.2778 C   0  0  0  0  0  0  0  0  0  0  0  0
  150.9985  141.9663  156.9689 C   0  0  0  0  0  0  0  0  0  0  0  0
  150.3223  141.5588  155.7921 N   0  0  0  0  0  0  0  0  0  0  0  0
  149.2113  140.8092  155.7120 C   0  0  0  0  0  0  0  0  0  0  0  0
  148.6031  140.3388  156.6732 O   0  0  0  0  0  0  0  0  0  0  0  0
  148.8420  140.6214  154.4370 N   0  0  0  0  0  0  0  0  0  0  0  0
  147.6901  139.8370  154.0016 C   0  0  2  0  0  0  0  0  0  0  0  0
  147.7685  138.4021  154.5544 C   0  0  0  0  0  0  0  0  0  0  0  0
  146.6245  137.5310  154.0104 C   0  0  0  0  0  0  0  0  0  0  0  0
  146.6175  137.5217  152.5261 N   0  3  1  0  0  0  0  0  0  0  0  0
  145.6220  136.5700  151.9704 C   0  0  0  0  0  0  0  0  0  0  0  0
  144.2599  136.7520  152.6486 C   0  0  0  0  0  0  0  0  0  0  0  0
  143.6700  137.9177  152.3145 N   0  5  0  0  0  0  0  0  0  0  0  0
  143.8350  135.8790  153.4017 O   0  0  0  0  0  0  0  0  0  0  0  0
  146.4940  138.8962  151.9709 C   0  0  0  0  0  0  0  0  0  0  0  0
  147.6381  139.7961  152.4658 C   0  0  0  0  0  0  0  0  0  0  0  0
  151.4762  141.1781  158.0540 C   0  0  0  0  0  0  0  0  0  0  0  0
  152.0538  141.9368  158.9735 N   0  0  0  0  0  0  0  0  0  0  0  0
  152.3181  145.1957  161.2452 H   0  0  0  0  0  0  0  0  0  0  0  0
  152.0339  143.4571  161.2232 H   0  0  0  0  0  0  0  0  0  0  0  0
  150.8030  144.5615  160.6109 H   0  0  0  0  0  0  0  0  0  0  0  0
  152.3369  145.2323  158.7256 H   0  0  0  0  0  0  0  0  0  0  0  0
  153.5827  144.1701  159.3508 H   0  0  0  0  0  0  0  0  0  0  0  0
  151.1450  144.1812  156.7487 H   0  0  0  0  0  0  0  0  0  0  0  0
  150.7331  141.8613  154.9211 H   0  0  0  0  0  0  0  0  0  0  0  0
  149.4037  141.0457  153.7132 H   0  0  0  0  0  0  0  0  0  0  0  0
  146.7742  140.3091  154.3628 H   0  0  0  0  0  0  0  0  0  0  0  0
  148.7245  137.9517  154.2829 H   0  0  0  0  0  0  0  0  0  0  0  0
  147.7321  138.4146  155.6444 H   0  0  0  0  0  0  0  0  0  0  0  0
  146.7429  136.5134  154.3844 H   0  0  0  0  0  0  0  0  0  0  0  0
  145.6640  137.8956  154.3778 H   0  0  0  0  0  0  0  0  0  0  0  0
  145.4904  136.7375  150.8999 H   0  0  0  0  0  0  0  0  0  0  0  0
  145.9740  135.5433  152.0832 H   0  0  0  0  0  0  0  0  0  0  0  0
  143.9209  138.3680  151.4264 H   0  0  0  0  0  0  0  0  0  0  0  0
  146.5122  138.8675  150.8811 H   0  0  0  0  0  0  0  0  0  0  0  0
  145.5308  139.3210  152.2580 H   0  0  0  0  0  0  0  0  0  0  0  0
  147.5117  140.8042  152.0687 H   0  0  0  0  0  0  0  0  0  0  0  0
  148.5846  139.4243  152.0702 H   0  0  0  0  0  0  0  0  0  0  0  0
  151.4280  140.1111  158.2123 H   0  0  0  0  0  0  0  0  0  0  0  0
  147.5178  137.1659  152.2363 H   0  0  0  0  0  0  0  0  0  0  0  0
  1  2  1  0  0  0  0
  1 22  1  0  0  0  0
  1 23  1  0  0  0  0
  1 24  1  0  0  0  0
  2  3  1  0  0  0  0
  2 25  1  0  0  0  0
  2 26  1  0  0  0  0
  3 21  1  0  0  0  0
  3  4  1  0  0  0  0
  4  5  2  0  0  0  0
  4 27  1  0  0  0  0
  5  6  1  0  0  0  0
  5 20  1  0  0  0  0
  6  7  1  0  0  0  0
  6 28  1  0  0  0  0
  7  8  2  0  0  0  0
  7  9  1  0  0  0  0
  9 10  1  0  0  0  0
  9 29  1  0  0  0  0
 10 19  1  0  0  0  0
 10 11  1  0  0  0  0
 10 30  1  0  0  0  0
 11 12  1  0  0  0  0
 11 31  1  0  0  0  0
 11 32  1  0  0  0  0
 12 13  1  0  0  0  0
 12 33  1  0  0  0  0
 12 34  1  0  0  0  0
 13 14  1  0  0  0  0
 13 18  1  0  0  0  0
 13 43  1  0  0  0  0
 14 15  1  0  0  0  0
 14 35  1  0  0  0  0
 14 36  1  0  0  0  0
 15 16  1  0  0  0  0
 15 17  2  0  0  0  0
 16 37  1  0  0  0  0
 18 19  1  0  0  0  0
 18 38  1  0  0  0  0
 18 39  1  0  0  0  0
 19 40  1  0  0  0  0
 19 41  1  0  0  0  0
 20 21  2  0  0  0  0
 20 42  1  0  0  0  0
M  CHG  1  13   1
M  CHG  1  16  -1
M  END
> <s_m_source_file>
AV-unprocessed.smi

> <i_m_source_file_index>
1744

> <i_lp_mmshare_version>
43012

> <i_f3d_flags>
0

> <s_epik_input>
W0NIM11bQ0gyXW4xW2NIXWMoW2NIXW4xKVtOSF1DKD1PKVtOSF1bQ0hdMltDSDJdW0NIMl1OKFtDSDJdW0NIMl0yKVtDSDJdQyg9TylbTkgyXQ==

> <s_epik_cmdline>
J2VwaWtfcHl0aG9uJywgJy1waCcsICc3LjAnLCAnLXRuJywgJzgnLCAnLW1hJywgJzIwMCcsICctbWV0YWxfYmluZGluZycsICctaW1hZScsICc8aW5maWxlLm1hZT4nLCAnLW9tYWUnLCAnPG91dGZpbGUubWFlPic=

> <r_lp_tautomer_probability>
1

> <r_epik_Ionization_Penalty>
5.72895

> <r_epik_Ionization_Penalty_Charging>
5.7288

> <r_epik_Ionization_Penalty_Neutral>
0.000148676

> <r_epik_State_Penalty>
6.54882

> <r_epik_Charging_Adjusted_Penalty>
12.2776

> <i_epik_Tot_Q>
0

> <i_epik_Tot_abs_Q>
2

> <r_epik_Metal_State_Penalty>
2.51309

> <b_epik_Metal_Only>
1

> <s_lp_Force_Field>
OPLS_2005

> <r_lp_Energy>
12.1226

> <b_lp_Chiralities_Consistent>
1

> <s_lp_Variant>
AV-unprocessed.smi:1744-4

> <Gold.Version>
5.8.1

> <Gold.Id.Protein>
6NUR|6NUR_protein|mol2

> <Gold.PLP.Fitness>
43.9251

> <Gold.PLP.PLP>
-33.8116

> <Gold.PLP.part.hbond>
-2.9371

> <Gold.PLP.part.metal>
0.0000

> <Gold.PLP.part.buried>
-0.9179

> <Gold.PLP.part.nonpolar>
-31.3137

> <Gold.PLP.part.repulsive>
0.4089

> <Gold.PLP.ligand.clash>
0.0000

> <Gold.PLP.ligand.torsion>
0.7079

> <Gold.PLP.Chemscore.Hbond>
3.0000

> <Gold.PLP.Chemscore.CHOScore>
0.8293

> <Gold.PLP.Chemscore.Metal>
0.0000

> <Gold.Chemscore.Hbonds>
donor molecule, donor type, donor heavy atom, donor atom, acceptor molecule, acceptor atom, score
      L1  H    13    43       P1  7948  2.00
      L1  H    16    37       P1 10171  1.00
      L1  C     4    27       P1  8028  0.84

> <Gold.PLP.Chemscore.Internal.Correction>
0.0412

> <Gold.Rescore>
     Score         DG    S(hbond)    S(metal)    S(lipo)     H(rot)  DE(clash)    DE(int)     intcor
     14.21     -16.82       1.97        0.00      88.36       2.18       1.80       0.81       ----

> <Gold.Chemscore.Fitness>
14.2124

> <Gold.Chemscore.DG>
-16.8212

> <Gold.Chemscore.ZeroCoef>
-5.4800

> <Gold.Chemscore.Hbond>
1.9738

> <Gold.Chemscore.Metal>
0.0000

> <Gold.Chemscore.Lipo>
88.3584

> <Gold.Chemscore.Internal_Hbond>
0.0000

> <Gold.Chemscore.DEClash>
1.7988

> <Gold.Chemscore.DEInternal>
0.8099

> <Gold.Chemscore.Rot>
2.1833

> <Gold.Chemscore.Internal.Correction>
   9.000000E+99

> <Gold.Chemscore.Hbonds>
donor molecule, donor type, donor heavy atom, donor atom, acceptor molecule, acceptor atom, score
      L1  H    13    43       P1  7948  1.00
      L1  H    16    37       P1 10171  0.96

> <Gold.Chemscore.Hbond.Weighted>
-6.5924

> <Gold.Chemscore.Metal.Weighted>
-0.0000

> <Gold.Chemscore.Lipo.Weighted>
-10.3379

> <Gold.Chemscore.Internal_Hbond.Weighted>
0.0000

> <Gold.Chemscore.DEClash.Weighted>
1.7988

> <Gold.Chemscore.DEInternal.Weighted>
0.8099

> <Gold.Chemscore.Rot.Weighted>
5.5892

> <Gold.Chemscore.Internal.Correction.Weighted>
   9.000000E+99

> <Gold.Protein.RotatedTorsions>
[ 6907 6896 6895 6894 ] final  152.67 input  -60.11 | X-H torsion
[ 7974 7965 7964 7962 ] final  -96.85 input  175.53 | X-H torsion
[ 8008 7997 7996 7995 ] final  -79.20 input   59.86 | X-H torsion
[ 10167 10162 10161 10158 ] final  -12.00 input  -65.29 | X-H torsion
[ 10718 10713 10712 10709 ] final   56.00 input   66.30 | X-H torsion
[ 10763 10752 10751 10750 ] final -102.23 input  -60.55 | X-H torsion
[ 11005 11000 10999 10996 ] final  111.44 input  -57.11 | X-H torsion

> <Gold.Protein.ActiveResidues>
 VAL166  LYS551  ARG553  GLY616  TRP617  ASP618  TYR619  PRO620  LYS621  CYS622 
 ASP623  PHE694  ASN695  SER759  ASP760  ASP761  ALA762  ILE779  LEU786  VAL792 
 PHE793  MET794  SER795  GLU796  ALA797  LYS798  CYS799  TRP800  GLU811  SER814 

> <Gold.Protein.RotatedAtoms>
  152.0835  133.4164  159.4511 H   0  0  0  0  0  0  0  0  0  0  0  0  # atno 6907 bound_to 6896
  150.6862  134.2955  159.4693 H   0  0  0  0  0  0  0  0  0  0  0  0  # atno 6908 bound_to 6896
  152.0799  134.9477  160.0624 H   0  0  0  0  0  0  0  0  0  0  0  0  # atno 6909 bound_to 6896
  145.3415  140.9460  143.2605 H   0  0  0  0  0  0  0  0  0  0  0  0  # atno 7974 bound_to 7965
  154.5762  140.0682  156.9038 H   0  0  0  0  0  0  0  0  0  0  0  0  # atno 8008 bound_to 7997
  155.2544  140.3354  155.4261 H   0  0  0  0  0  0  0  0  0  0  0  0  # atno 8009 bound_to 7997
  156.2156  140.1777  156.7582 H   0  0  0  0  0  0  0  0  0  0  0  0  # atno 8010 bound_to 7997
  140.7151  143.5579  150.9228 H   0  0  0  0  0  0  0  0  0  0  0  0  # atno 10167 bound_to 10162
  157.5393  130.8686  149.8799 H   0  0  0  0  0  0  0  0  0  0  0  0  # atno 10718 bound_to 10713
  154.7718  135.4868  153.9664 H   0  0  0  0  0  0  0  0  0  0  0  0  # atno 10763 bound_to 10752
  153.1377  135.6766  153.9083 H   0  0  0  0  0  0  0  0  0  0  0  0  # atno 10764 bound_to 10752
  153.8767  135.3137  155.3422 H   0  0  0  0  0  0  0  0  0  0  0  0  # atno 10765 bound_to 10752
  139.8904  134.9508  156.6433 H   0  0  0  0  0  0  0  0  0  0  0  0  # atno 11005 bound_to 11000
  144.8787  139.4935  143.6733 LP  0  0  0  0  0  0  0  0  0  0  0  0  # atno 17320 bound_to 7965
  146.3005  139.7413  142.9094 LP  0  0  0  0  0  0  0  0  0  0  0  0  # atno 17321 bound_to 7965
  139.9304  143.6500  152.3077 LP  0  0  0  0  0  0  0  0  0  0  0  0  # atno 17342 bound_to 10162
  139.6949  144.7642  151.1374 LP  0  0  0  0  0  0  0  0  0  0  0  0  # atno 17343 bound_to 10162
  156.0484  130.3723  150.1261 LP  0  0  0  0  0  0  0  0  0  0  0  0  # atno 17370 bound_to 10713
  156.9442  130.9754  151.3510 LP  0  0  0  0  0  0  0  0  0  0  0  0  # atno 17371 bound_to 10713
  140.7577  133.8844  155.8394 LP  0  0  0  0  0  0  0  0  0  0  0  0  # atno 17394 bound_to 11000
  140.9948  134.1229  157.4374 LP  0  0  0  0  0  0  0  0  0  0  0  0  # atno 17395 bound_to 11000

$$$$
