AV-unprocessed.smi:1055|AV-procd|sdf|4626|dock10
  -GOLD-   22720 3133D 1   1.00000     0.00000
 Structure written by MMmdl.
 51 52  0  0  0  0  0  0  0  0  2 V2000
  145.9462  133.9330  152.9897 C   0  0  0  0  0  0  0  0  0  0  0  0
  145.6510  134.3353  151.7424 C   0  0  0  0  0  0  0  0  0  0  0  0
  145.7424  133.3978  150.5531 C   0  0  0  0  0  0  0  0  0  0  0  0
  145.2116  135.7585  151.4357 C   0  0  0  0  0  0  0  0  0  0  0  0
  146.1915  136.7591  151.9277 N   0  3  2  0  0  0  0  0  0  0  0  0
  146.1284  136.9243  153.4024 C   0  0  0  0  0  0  0  0  0  0  0  0
  147.2387  137.8603  153.9078 C   0  0  0  0  0  0  0  0  0  0  0  0
  147.1708  139.2295  153.2071 C   0  0  1  0  0  0  0  0  0  0  0  0
  148.2757  140.0889  153.6225 N   0  0  0  0  0  0  0  0  0  0  0  0
  148.6363  140.3208  154.8931 C   0  0  0  0  0  0  0  0  0  0  0  0
  148.0718  139.8110  155.8606 O   0  0  0  0  0  0  0  0  0  0  0  0
  149.6641  141.1845  154.9576 N   0  0  0  0  0  0  0  0  0  0  0  0
  150.3305  141.6767  156.1122 C   0  0  0  0  0  0  0  0  0  0  0  0
  150.5087  140.8009  157.1998 C   0  0  0  0  0  0  0  0  0  0  0  0
  151.1499  141.2664  158.3634 C   0  0  0  0  0  0  0  0  0  0  0  0
  151.5937  142.6111  158.4182 C   0  0  0  0  0  0  0  0  0  0  0  0
  152.2454  143.1275  159.5616 N   0  0  0  0  0  0  0  0  0  0  0  0
  152.8913  142.2267  160.5081 C   0  0  0  0  0  0  0  0  0  0  0  0
  152.2464  144.5660  159.8093 C   0  0  0  0  0  0  0  0  0  0  0  0
  151.4058  143.4556  157.3747 N   0  0  0  0  0  0  0  0  0  0  0  0
  150.7926  143.0052  156.2601 C   0  0  0  0  0  0  0  0  0  0  0  0
  147.2095  139.0258  151.6844 C   0  0  0  0  0  0  0  0  0  0  0  0
  146.0994  138.0662  151.2235 C   0  0  0  0  0  0  0  0  0  0  0  0
  146.2598  132.9193  153.1927 H   0  0  0  0  0  0  0  0  0  0  0  0
  145.8791  134.6105  153.8286 H   0  0  0  0  0  0  0  0  0  0  0  0
  146.4433  133.7900  149.8158 H   0  0  0  0  0  0  0  0  0  0  0  0
  144.7687  133.2849  150.0761 H   0  0  0  0  0  0  0  0  0  0  0  0
  146.0870  132.4078  150.8536 H   0  0  0  0  0  0  0  0  0  0  0  0
  145.0558  135.8919  150.3637 H   0  0  0  0  0  0  0  0  0  0  0  0
  144.2442  135.9159  151.9147 H   0  0  0  0  0  0  0  0  0  0  0  0
  145.1497  137.3151  153.6846 H   0  0  0  0  0  0  0  0  0  0  0  0
  146.2327  135.9522  153.8857 H   0  0  0  0  0  0  0  0  0  0  0  0
  147.1476  137.9827  154.9878 H   0  0  0  0  0  0  0  0  0  0  0  0
  148.2114  137.3992  153.7304 H   0  0  0  0  0  0  0  0  0  0  0  0
  146.2273  139.7157  153.4637 H   0  0  0  0  0  0  0  0  0  0  0  0
  148.7934  140.5538  152.8909 H   0  0  0  0  0  0  0  0  0  0  0  0
  149.9664  141.5836  154.0811 H   0  0  0  0  0  0  0  0  0  0  0  0
  150.1634  139.7788  157.1454 H   0  0  0  0  0  0  0  0  0  0  0  0
  151.2874  140.5835  159.1879 H   0  0  0  0  0  0  0  0  0  0  0  0
  152.1664  141.5299  160.9301 H   0  0  0  0  0  0  0  0  0  0  0  0
  153.3436  142.7759  161.3342 H   0  0  0  0  0  0  0  0  0  0  0  0
  153.6810  141.6575  160.0169 H   0  0  0  0  0  0  0  0  0  0  0  0
  151.2266  144.9366  159.9184 H   0  0  0  0  0  0  0  0  0  0  0  0
  152.7215  145.0966  158.9835 H   0  0  0  0  0  0  0  0  0  0  0  0
  152.7908  144.8136  160.7208 H   0  0  0  0  0  0  0  0  0  0  0  0
  150.6592  143.7469  155.4881 H   0  0  0  0  0  0  0  0  0  0  0  0
  147.1006  139.9844  151.1755 H   0  0  0  0  0  0  0  0  0  0  0  0
  148.1799  138.6262  151.3863 H   0  0  0  0  0  0  0  0  0  0  0  0
  146.1838  137.9219  150.1463 H   0  0  0  0  0  0  0  0  0  0  0  0
  145.1198  138.5107  151.4063 H   0  0  0  0  0  0  0  0  0  0  0  0
  147.1061  136.3818  151.7247 H   0  0  0  0  0  0  0  0  0  0  0  0
  1  2  2  0  0  0  0
  1 24  1  0  0  0  0
  1 25  1  0  0  0  0
  2  3  1  0  0  0  0
  2  4  1  0  0  0  0
  3 26  1  0  0  0  0
  3 27  1  0  0  0  0
  3 28  1  0  0  0  0
  4  5  1  0  0  0  0
  4 29  1  0  0  0  0
  4 30  1  0  0  0  0
  5 23  1  0  0  0  0
  5  6  1  0  0  0  0
  5 51  1  0  0  0  0
  6  7  1  0  0  0  0
  6 31  1  0  0  0  0
  6 32  1  0  0  0  0
  7  8  1  0  0  0  0
  7 33  1  0  0  0  0
  7 34  1  0  0  0  0
  8  9  1  0  0  0  0
  8 22  1  0  0  0  0
  8 35  1  0  0  0  0
  9 10  1  0  0  0  0
  9 36  1  0  0  0  0
 10 11  2  0  0  0  0
 10 12  1  0  0  0  0
 12 13  1  0  0  0  0
 12 37  1  0  0  0  0
 13 21  1  0  0  0  0
 13 14  2  0  0  0  0
 14 15  1  0  0  0  0
 14 38  1  0  0  0  0
 15 16  2  0  0  0  0
 15 39  1  0  0  0  0
 16 17  1  0  0  0  0
 16 20  1  0  0  0  0
 17 18  1  0  0  0  0
 17 19  1  0  0  0  0
 18 40  1  0  0  0  0
 18 41  1  0  0  0  0
 18 42  1  0  0  0  0
 19 43  1  0  0  0  0
 19 44  1  0  0  0  0
 19 45  1  0  0  0  0
 20 21  2  0  0  0  0
 21 46  1  0  0  0  0
 22 23  1  0  0  0  0
 22 47  1  0  0  0  0
 22 48  1  0  0  0  0
 23 49  1  0  0  0  0
 23 50  1  0  0  0  0
M  CHG  1   5   1
M  END
> <s_m_source_file>
AV-unprocessed.smi

> <i_m_source_file_index>
1055

> <i_lp_mmshare_version>
43012

> <i_f3d_flags>
0

> <s_epik_input>
W0NIMl09QyhbQ0gzXSlbQ0gyXU4xW0NIMl1bQ0gyXVtDSF0oW0NIMl1bQ0gyXTEpW05IXUMoPU8pW05IXWMyW2NIXVtjSF1jKE4oW0NIM10pW0NIM10pbltjSF0y

> <s_epik_cmdline>
J2VwaWtfcHl0aG9uJywgJy1waCcsICc3LjAnLCAnLXRuJywgJzgnLCAnLW1hJywgJzIwMCcsICctbWV0YWxfYmluZGluZycsICctaW1hZScsICc8aW5maWxlLm1hZT4nLCAnLW9tYWUnLCAnPG91dGZpbGUubWFlPic=

> <r_lp_tautomer_probability>
1

> <r_epik_Ionization_Penalty>
0.534133

> <r_epik_Ionization_Penalty_Charging>
0.0193505

> <r_epik_Ionization_Penalty_Neutral>
0.514782

> <r_epik_State_Penalty>
0.557749

> <r_epik_Charging_Adjusted_Penalty>
0.5771

> <i_epik_Tot_Q>
1

> <i_epik_Tot_abs_Q>
1

> <r_epik_Metal_State_Penalty>
0.306227

> <b_epik_Metal_Only>
0

> <s_lp_Force_Field>
OPLS_2005

> <r_lp_Energy>
20.3338

> <b_lp_Chiralities_Consistent>
1

> <s_lp_Variant>
AV-unprocessed.smi:1055-3

> <Gold.Version>
5.8.1

> <Gold.Id.Protein>
6NUR|6NUR_protein|mol2

> <Gold.PLP.Fitness>
45.9716

> <Gold.PLP.PLP>
-36.9633

> <Gold.PLP.part.hbond>
-2.0000

> <Gold.PLP.part.metal>
0.0000

> <Gold.PLP.part.buried>
5.7474

> <Gold.PLP.part.nonpolar>
-40.9022

> <Gold.PLP.part.repulsive>
0.4187

> <Gold.PLP.ligand.clash>
0.0000

> <Gold.PLP.ligand.torsion>
0.7648

> <Gold.PLP.Chemscore.Hbond>
2.7176

> <Gold.PLP.Chemscore.CHOScore>
0.7863

> <Gold.PLP.Chemscore.Metal>
0.0000

> <Gold.Chemscore.Hbonds>
donor molecule, donor type, donor heavy atom, donor atom, acceptor molecule, acceptor atom, score
      L1  H     5    51       P1  7948  2.00
      L1  H     9    36       P1  7957  0.74
      L1  C    21    46       P1  8028  0.63

> <Gold.PLP.Chemscore.Internal.Correction>
0.0263

> <Gold.Rescore>
     Score         DG    S(hbond)    S(metal)    S(lipo)     H(rot)  DE(clash)    DE(int)     intcor
     13.53     -20.77       1.88        0.00     106.16       1.33       4.36       2.87       ----

> <Gold.Chemscore.Fitness>
13.5332

> <Gold.Chemscore.DG>
-20.7695

> <Gold.Chemscore.ZeroCoef>
-5.4800

> <Gold.Chemscore.Hbond>
1.8758

> <Gold.Chemscore.Metal>
0.0000

> <Gold.Chemscore.Lipo>
106.1572

> <Gold.Chemscore.Internal_Hbond>
0.0000

> <Gold.Chemscore.DEClash>
4.3621

> <Gold.Chemscore.DEInternal>
2.8742

> <Gold.Chemscore.Rot>
1.3266

> <Gold.Chemscore.Internal.Correction>
   9.000000E+99

> <Gold.Chemscore.Hbonds>
donor molecule, donor type, donor heavy atom, donor atom, acceptor molecule, acceptor atom, score
      L1  H     5    51       P1  7948  0.99
      L1  H     9    36       P1  7957  0.72

> <Gold.Chemscore.Hbond.Weighted>
-6.2653

> <Gold.Chemscore.Metal.Weighted>
-0.0000

> <Gold.Chemscore.Lipo.Weighted>
-12.4204

> <Gold.Chemscore.Internal_Hbond.Weighted>
0.0000

> <Gold.Chemscore.DEClash.Weighted>
4.3621

> <Gold.Chemscore.DEInternal.Weighted>
2.8742

> <Gold.Chemscore.Rot.Weighted>
3.3962

> <Gold.Chemscore.Internal.Correction.Weighted>
   9.000000E+99

> <Gold.Protein.RotatedTorsions>
[ 6907 6896 6895 6894 ] final   15.72 input  -60.11 | X-H torsion
[ 7974 7965 7964 7962 ] final  166.26 input  175.53 | X-H torsion
[ 8008 7997 7996 7995 ] final  103.78 input   59.86 | X-H torsion
[ 10167 10162 10161 10158 ] final   79.34 input  -65.29 | X-H torsion
[ 10718 10713 10712 10709 ] final  -67.79 input   66.30 | X-H torsion
[ 10763 10752 10751 10750 ] final  -80.69 input  -60.55 | X-H torsion
[ 11005 11000 10999 10996 ] final -134.68 input  -57.11 | X-H torsion

> <Gold.Protein.ActiveResidues>
 VAL166  LYS551  ARG553  GLY616  TRP617  ASP618  TYR619  PRO620  LYS621  CYS622 
 ASP623  PHE694  ASN695  SER759  ASP760  ASP761  ALA762  ILE779  LEU786  VAL792 
 PHE793  MET794  SER795  GLU796  ALA797  LYS798  CYS799  TRP800  GLU811  SER814 

> <Gold.Protein.RotatedAtoms>
  151.8226  135.0647  160.0426 H   0  0  0  0  0  0  0  0  0  0  0  0  # atno 6907 bound_to 6896
  152.2939  133.5584  159.5584 H   0  0  0  0  0  0  0  0  0  0  0  0  # atno 6908 bound_to 6896
  150.7242  134.0304  159.3773 H   0  0  0  0  0  0  0  0  0  0  0  0  # atno 6909 bound_to 6896
  144.7469  139.8590  143.6379 H   0  0  0  0  0  0  0  0  0  0  0  0  # atno 7974 bound_to 7965
  156.1515  140.3159  155.8655 H   0  0  0  0  0  0  0  0  0  0  0  0  # atno 8008 bound_to 7997
  155.3962  140.0497  157.3056 H   0  0  0  0  0  0  0  0  0  0  0  0  # atno 8009 bound_to 7997
  154.5062  140.2148  155.9257 H   0  0  0  0  0  0  0  0  0  0  0  0  # atno 8010 bound_to 7997
  139.9613  144.5959  150.8069 H   0  0  0  0  0  0  0  0  0  0  0  0  # atno 10167 bound_to 10162
  156.0539  130.4284  150.1906 H   0  0  0  0  0  0  0  0  0  0  0  0  # atno 10718 bound_to 10713
  154.5544  135.5652  153.6951 H   0  0  0  0  0  0  0  0  0  0  0  0  # atno 10763 bound_to 10752
  152.9999  135.6258  154.2330 H   0  0  0  0  0  0  0  0  0  0  0  0  # atno 10764 bound_to 10752
  154.2266  135.2867  155.2885 H   0  0  0  0  0  0  0  0  0  0  0  0  # atno 10765 bound_to 10752
  140.8968  134.1742  157.4489 H   0  0  0  0  0  0  0  0  0  0  0  0  # atno 11005 bound_to 11000
  146.1362  139.4408  143.0138 LP  0  0  0  0  0  0  0  0  0  0  0  0  # atno 17320 bound_to 7965
  145.7088  141.0113  143.1464 LP  0  0  0  0  0  0  0  0  0  0  0  0  # atno 17321 bound_to 7965
  140.7552  143.3042  151.3005 LP  0  0  0  0  0  0  0  0  0  0  0  0  # atno 17342 bound_to 10162
  139.6551  144.0290  152.2654 LP  0  0  0  0  0  0  0  0  0  0  0  0  # atno 17343 bound_to 10162
  156.9985  130.9915  151.3397 LP  0  0  0  0  0  0  0  0  0  0  0  0  # atno 17370 bound_to 10713
  157.5491  130.8170  149.8122 LP  0  0  0  0  0  0  0  0  0  0  0  0  # atno 17371 bound_to 10713
  139.8736  134.9881  156.5399 LP  0  0  0  0  0  0  0  0  0  0  0  0  # atno 17394 bound_to 11000
  140.8280  133.8302  155.8957 LP  0  0  0  0  0  0  0  0  0  0  0  0  # atno 17395 bound_to 11000

$$$$
