#       Name:                AV-unprocessed.smi:34
#       Creating user name   scv26
#       Creation time:       Thu Mar 26 15:53:40 2020


#       File generated by GOLD software.
#

@<TRIPOS>MOLECULE
AV-unprocessed.smi:34
    66    70     1
SMALL
NO_CHARGES


@<TRIPOS>ATOM
      1 ****        -4.3555   1.1891   0.4264 O.2            1 S1                 0.0000
      2 ****        -4.4780  -0.0362   0.4300 C.2            1 S1                 0.0000
      3 ****        -3.3319  -0.9282   0.4275 N.am           1 S1                 0.0000
      4 ****        -2.0197  -0.6019   0.3605 C.ar           1 S1                 0.0000
      5 ****        -1.5958   0.6755   0.1729 N.ar           1 S1                 0.0000
      6 ****        -0.2894   0.9487   0.1188 C.ar           1 S1                 0.0000
      7 ****         0.7410   0.1084   0.2260 N.ar           1 S1                 0.0000
      8 ****         0.3274  -1.1782   0.4082 C.ar           1 S1                 0.0000
      9 ****        -1.0270  -1.6092   0.4825 C.ar           1 S1                 0.0000
     10 ****        -1.0734  -2.9840   0.6718 N.2            1 S1                 0.0000
     11 ****         0.1823  -3.3399   0.7102 C.2            1 S1                 0.0000
     12 ****         1.0936  -2.3175   0.5665 N.pl3          1 S1                 0.0000
     13 ****         2.5878  -2.4347   0.5891 C.3            1 S1                 0.0000
     14 ****         3.1616  -1.4180  -0.1752 O.3            1 S1                 0.0000
     15 ****         4.2879  -0.8447   0.4937 C.3            1 S1                 0.0000
     16 ****         3.9574   0.6065   0.8717 C.3            1 S1                 0.0000
     17 ****         3.8610   1.3862  -0.3094 O.3            1 S1                 0.0000
     18 ****         3.2435   2.5837  -0.2829 C.2            1 S1                 0.0000
     19 ****         2.7580   3.0802   0.7357 O.2            1 S1                 0.0000
     20 ****         3.2020   3.2444  -1.6190 C.ar           1 S1                 0.0000
     21 ****         2.5721   4.5041  -1.7498 C.ar           1 S1                 0.0000
     22 ****         2.5166   5.1523  -2.9990 C.ar           1 S1                 0.0000
     23 ****         3.0910   4.5485  -4.1328 C.ar           1 S1                 0.0000
     24 ****         3.7201   3.2954  -4.0160 C.ar           1 S1                 0.0000
     25 ****         3.7754   2.6451  -2.7678 C.ar           1 S1                 0.0000
     26 ****         4.5302  -1.7261   1.7243 C.3            1 S1                 0.0000
     27 ****         5.3953  -2.6934   1.4138 F              1 S1                 0.0000
     28 ****         3.1726  -2.3418   2.0039 C.3            1 S1                 0.0000
     29 ****         2.4126  -1.5476   2.8972 O.3            1 S1                 0.0000
     30 ****        -5.8238  -0.6930   0.5294 C.ar           1 S1                 0.0000
     31 ****        -6.8882  -0.0275   1.1782 C.ar           1 S1                 0.0000
     32 ****        -8.1583  -0.6299   1.2659 C.ar           1 S1                 0.0000
     33 ****        -8.3773  -1.8989   0.6975 C.ar           1 S1                 0.0000
     34 ****        -7.3261  -2.5634   0.0380 C.ar           1 S1                 0.0000
     35 ****        -6.0551  -1.9625  -0.0493 C.ar           1 S1                 0.0000
     36 ****        -3.5398  -1.9144   0.4875 H              1 S1                 0.0000
     37 ****        -0.0329   1.9874  -0.0301 H              1 S1                 0.0000
     38 ****         0.4824  -4.3677   0.8538 H              1 S1                 0.0000
     39 ****         2.7997  -3.3930   0.1128 H              1 S1                 0.0000
     40 ****         5.1591  -0.8577  -0.1627 H              1 S1                 0.0000
     41 ****         3.0335   0.6468   1.4489 H              1 S1                 0.0000
     42 ****         4.7476   1.0214   1.4981 H              1 S1                 0.0000
     43 ****         2.1246   4.9874  -0.8932 H              1 S1                 0.0000
     44 ****         2.0328   6.1140  -3.0867 H              1 S1                 0.0000
     45 ****         3.0489   5.0457  -5.0906 H              1 S1                 0.0000
     46 ****         4.1619   2.8313  -4.8855 H              1 S1                 0.0000
     47 ****         4.2638   1.6831  -2.7134 H              1 S1                 0.0000
     48 ****         4.9527  -1.1886   2.5744 H              1 S1                 0.0000
     49 ****         3.2540  -3.3422   2.4306 H              1 S1                 0.0000
     50 ****         1.5348  -1.8963   2.9347 H              1 S1                 0.0000
     51 ****        -6.7365   0.9476   1.6185 H              1 S1                 0.0000
     52 ****        -8.9648  -0.1171   1.7689 H              1 S1                 0.0000
     53 ****        -9.3515  -2.3603   0.7644 H              1 S1                 0.0000
     54 ****        -7.4953  -3.5343  -0.4040 H              1 S1                 0.0000
     55 ****        -5.2647  -2.4857  -0.5676 H              1 S1                 0.0000
     56 ****        -3.4440   1.6005   0.4216 LP             1 S1                 0.0000
     57 ****        -5.1675   1.7728   0.4283 LP             1 S1                 0.0000
     58 ****        -2.2638   1.4132   0.0751 LP             1 S1                 0.0000
     59 ****         1.7000   0.3879   0.1786 LP             1 S1                 0.0000
     60 ****        -1.8815  -3.5666   0.7587 LP             1 S1                 0.0000
     61 ****         2.4791  -0.7049  -0.3354 LP             1 S1                 0.0000
     62 ****         3.4600  -1.7967  -1.0513 LP             1 S1                 0.0000
     63 ****         2.8107   2.5892   1.6053 LP             1 S1                 0.0000
     64 ****         2.3115   3.9740   0.6924 LP             1 S1                 0.0000
     65 ****         2.3868  -0.6028   2.5706 LP             1 S1                 0.0000
     66 ****         2.8256  -1.5743   3.8076 LP             1 S1                 0.0000
@<TRIPOS>BOND
    1    1    2 2     
    2    2    3 am    
    3    2   30 1     
    4    3    4 1     
    5    3   36 1     
    6    4    9 ar    
    7    4    5 ar    
    8    5    6 ar    
    9    6    7 ar    
   10    6   37 1     
   11    7    8 ar    
   12    8   12 1     
   13    8    9 ar    
   14    9   10 1     
   15   10   11 2     
   16   11   12 1     
   17   11   38 1     
   18   12   13 1     
   19   13   28 1     
   20   13   14 1     
   21   13   39 1     
   22   14   15 1     
   23   15   16 1     
   24   15   26 1     
   25   15   40 1     
   26   16   17 1     
   27   16   41 1     
   28   16   42 1     
   29   17   18 1     
   30   18   19 2     
   31   18   20 1     
   32   20   25 ar    
   33   20   21 ar    
   34   21   22 ar    
   35   21   43 1     
   36   22   23 ar    
   37   22   44 1     
   38   23   24 ar    
   39   23   45 1     
   40   24   25 ar    
   41   24   46 1     
   42   25   47 1     
   43   26   27 1     
   44   26   28 1     
   45   26   48 1     
   46   28   29 1     
   47   28   49 1     
   48   29   50 1     
   49   30   35 ar    
   50   30   31 ar    
   51   31   32 ar    
   52   31   51 1     
   53   32   33 ar    
   54   32   52 1     
   55   33   34 ar    
   56   33   53 1     
   57   34   35 ar    
   58   34   54 1     
   59   35   55 1     
   60    1   56 1     
   61    1   57 1     
   62    5   58 1     
   63    7   59 1     
   64   10   60 1     
   65   14   61 1     
   66   14   62 1     
   67   19   63 1     
   68   19   64 1     
   69   29   65 1     
   70   29   66 1     
@<TRIPOS>SUBSTRUCTURE
      1 S1             1
@<TRIPOS>SET
LONE_PAIRS      STATIC     ATOMS    <user>   **** ""
11 56 57 58 59 60 61 62 63 64 65 66
DONOR_HYDROGENS      STATIC     ATOMS    <user>   **** ""
2 36 50
ATOM$BLUE        STATIC     ATOMS    COLORGROUP SYSTEM
11 56 57 58 59 60 61 62 63 64 65 66
ATOM$RED        STATIC     ATOMS    COLORGROUP SYSTEM
2 36 50
