AV-unprocessed.smi:1208|AV-procd|sdf|5065|dock1
  -GOLD-   22720 4103D 1   1.00000     0.00000
 Structure written by MMmdl.
 36 37  0  0  0  0  0  0  0  0  1 V2000
  153.8477  140.2807  160.6233 C   0  0  0  0  0  0  0  0  0  0  0  0
  152.8361  140.6283  159.5179 C   0  0  2  0  0  0  0  0  0  0  0  0
  153.1236  139.8328  158.3273 N   0  0  0  0  0  0  0  0  0  0  0  0
  153.2607  138.4985  158.2953 C   0  0  0  0  0  0  0  0  0  0  0  0
  153.1925  137.7864  159.2980 O   0  0  0  0  0  0  0  0  0  0  0  0
  153.5439  137.8816  156.9182 C   0  0  0  0  0  0  0  0  0  0  0  0
  152.4246  138.0388  155.9788 N   0  0  0  0  0  0  0  0  0  0  0  0
  151.8475  136.8437  155.5764 N   0  0  0  0  0  0  0  0  0  0  0  0
  150.8448  136.8537  154.7645 C   0  0  0  0  0  0  0  0  0  0  0  0
  150.3014  135.6480  154.3950 O   0  0  0  0  0  0  0  0  0  0  0  0
  150.3054  138.0955  154.2555 C   0  0  0  0  0  0  0  0  0  0  0  0
  150.8786  139.2541  154.6481 C   0  0  0  0  0  0  0  0  0  0  0  0
  152.0181  139.2792  155.5667 C   0  0  0  0  0  0  0  0  0  0  0  0
  152.5628  140.3192  155.9368 O   0  0  0  0  0  0  0  0  0  0  0  0
  152.8621  142.1231  159.1442 C   0  0  2  0  0  0  0  0  0  0  0  0
  152.7340  143.0792  160.3329 C   0  0  0  0  0  0  0  0  0  0  0  0
  152.1197  144.2996  159.6875 C   0  0  0  0  0  0  0  0  0  0  0  0
  151.1470  143.6620  158.7031 C   0  0  0  0  0  0  0  0  0  0  0  0
  151.7577  142.4412  158.2963 O   0  0  0  0  0  0  0  0  0  0  0  0
  149.8552  135.8142  153.5788 H   0  0  0  0  0  0  0  0  0  0  0  0
  153.6330  140.8240  161.5436 H   0  0  0  0  0  0  0  0  0  0  0  0
  154.8659  140.5274  160.3207 H   0  0  0  0  0  0  0  0  0  0  0  0
  153.8203  139.2172  160.8627 H   0  0  0  0  0  0  0  0  0  0  0  0
  151.8336  140.3893  159.8774 H   0  0  0  0  0  0  0  0  0  0  0  0
  153.1943  140.3358  157.4545 H   0  0  0  0  0  0  0  0  0  0  0  0
  154.4503  138.3177  156.4931 H   0  0  0  0  0  0  0  0  0  0  0  0
  153.7696  136.8239  157.0649 H   0  0  0  0  0  0  0  0  0  0  0  0
  149.4643  138.0862  153.5780 H   0  0  0  0  0  0  0  0  0  0  0  0
  150.4859  140.1892  154.2762 H   0  0  0  0  0  0  0  0  0  0  0  0
  153.7748  142.3600  158.5946 H   0  0  0  0  0  0  0  0  0  0  0  0
  152.0518  142.6749  161.0825 H   0  0  0  0  0  0  0  0  0  0  0  0
  153.6885  143.2877  160.8168 H   0  0  0  0  0  0  0  0  0  0  0  0
  151.6321  144.9654  160.4001 H   0  0  0  0  0  0  0  0  0  0  0  0
  152.8824  144.8666  159.1520 H   0  0  0  0  0  0  0  0  0  0  0  0
  150.2040  143.4278  159.1986 H   0  0  0  0  0  0  0  0  0  0  0  0
  150.9318  144.3058  157.8501 H   0  0  0  0  0  0  0  0  0  0  0  0
  1  2  1  0  0  0  0
  1 21  1  0  0  0  0
  1 22  1  0  0  0  0
  1 23  1  0  0  0  0
  2  3  1  0  0  0  0
  2 15  1  0  0  0  0
  2 24  1  0  0  0  0
  3  4  1  0  0  0  0
  3 25  1  0  0  0  0
  4  5  2  0  0  0  0
  4  6  1  0  0  0  0
  6 26  1  0  0  0  0
  6 27  1  0  0  0  0
  6  7  1  0  0  0  0
  7  8  1  0  0  0  0
  7 13  1  0  0  0  0
  8  9  2  0  0  0  0
  9 10  1  0  0  0  0
  9 11  1  0  0  0  0
 10 20  1  0  0  0  0
 11 28  1  0  0  0  0
 11 12  2  0  0  0  0
 12 29  1  0  0  0  0
 12 13  1  0  0  0  0
 13 14  2  0  0  0  0
 15 19  1  0  0  0  0
 15 16  1  0  0  0  0
 15 30  1  0  0  0  0
 16 17  1  0  0  0  0
 16 31  1  0  0  0  0
 16 32  1  0  0  0  0
 17 18  1  0  0  0  0
 17 33  1  0  0  0  0
 17 34  1  0  0  0  0
 18 19  1  0  0  0  0
 18 35  1  0  0  0  0
 18 36  1  0  0  0  0
M  END
> <s_m_source_file>
AV-unprocessed.smi

> <i_m_source_file_index>
1208

> <i_lp_mmshare_version>
43012

> <i_f3d_flags>
0

> <s_epik_input>
TzFbQ0gyXVtDSDJdW0NIMl1bQ0BIXTFbQ0BIXShbQ0gzXSlbTkhdQyg9TylbQ0gyXW4yW25IXWMoPU8pW2NIXVtjSF1jMj1P

> <s_epik_cmdline>
J2VwaWtfcHl0aG9uJywgJy1waCcsICc3LjAnLCAnLXRuJywgJzgnLCAnLW1hJywgJzIwMCcsICctbWV0YWxfYmluZGluZycsICctaW1hZScsICc8aW5maWxlLm1hZT4nLCAnLW9tYWUnLCAnPG91dGZpbGUubWFlPic=

> <r_lp_tautomer_probability>
0.9996

> <r_epik_Ionization_Penalty>
2.12735

> <r_epik_Ionization_Penalty_Charging>
3.86665e-08

> <r_epik_Ionization_Penalty_Neutral>
2.12735

> <r_epik_State_Penalty>
1.70441

> <r_epik_Charging_Adjusted_Penalty>
1.70441

> <i_epik_Tot_Q>
0

> <i_epik_Tot_abs_Q>
0

> <r_epik_Metal_State_Penalty>
1.70441

> <b_epik_Metal_Only>
0

> <s_lp_Force_Field>
OPLS_2005

> <r_lp_Energy>
29.6219

> <b_lp_Chiralities_Consistent>
1

> <s_lp_Variant>
AV-unprocessed.smi:1208-5

> <Gold.Version>
5.8.1

> <Gold.Id.Protein>
6NUR|6NUR_protein|mol2

> <Gold.PLP.Fitness>
42.2180

> <Gold.PLP.PLP>
-33.4913

> <Gold.PLP.part.hbond>
-3.4459

> <Gold.PLP.part.metal>
0.0000

> <Gold.PLP.part.buried>
-1.1492

> <Gold.PLP.part.nonpolar>
-29.9819

> <Gold.PLP.part.repulsive>
0.9737

> <Gold.PLP.ligand.clash>
0.0000

> <Gold.PLP.ligand.torsion>
0.1498

> <Gold.PLP.Chemscore.Hbond>
3.0000

> <Gold.PLP.Chemscore.CHOScore>
0.0000

> <Gold.PLP.Chemscore.Metal>
0.0000

> <Gold.Chemscore.Hbonds>
donor molecule, donor type, donor heavy atom, donor atom, acceptor molecule, acceptor atom, score
      L1  H    10    20       P1  7948  0.65
      P1  H  7997  8009       L1    14  1.00
      P1  H 10752 10765       L1     8  1.00

> <Gold.PLP.Chemscore.Internal.Correction>
0.0263

> <Gold.Rescore>
     Score         DG    S(hbond)    S(metal)    S(lipo)     H(rot)  DE(clash)    DE(int)     intcor
     10.74     -14.72       1.95        0.00      80.64       2.63       1.01       2.97       ----

> <Gold.Chemscore.Fitness>
10.7385

> <Gold.Chemscore.DG>
-14.7157

> <Gold.Chemscore.ZeroCoef>
-5.4800

> <Gold.Chemscore.Hbond>
1.9533

> <Gold.Chemscore.Metal>
0.0000

> <Gold.Chemscore.Lipo>
80.6431

> <Gold.Chemscore.Internal_Hbond>
0.0000

> <Gold.Chemscore.DEClash>
1.0068

> <Gold.Chemscore.DEInternal>
2.9704

> <Gold.Chemscore.Rot>
2.6264

> <Gold.Chemscore.Internal.Correction>
   9.000000E+99

> <Gold.Chemscore.Hbonds>
donor molecule, donor type, donor heavy atom, donor atom, acceptor molecule, acceptor atom, score
      L1  H    10    20       P1  7948  0.06
      P1  H  7997  8009       L1    14  0.86
      P1  H 10752 10765       L1     8  0.36

> <Gold.Chemscore.Hbond.Weighted>
-6.5241

> <Gold.Chemscore.Metal.Weighted>
-0.0000

> <Gold.Chemscore.Lipo.Weighted>
-9.4352

> <Gold.Chemscore.Internal_Hbond.Weighted>
0.0000

> <Gold.Chemscore.DEClash.Weighted>
1.0068

> <Gold.Chemscore.DEInternal.Weighted>
2.9704

> <Gold.Chemscore.Rot.Weighted>
6.7237

> <Gold.Chemscore.Internal.Correction.Weighted>
   9.000000E+99

> <Gold.Protein.RotatedTorsions>
[ 6907 6896 6895 6894 ] final  142.08 input  -60.11 | X-H torsion
[ 7974 7965 7964 7962 ] final  -37.11 input  175.53 | X-H torsion
[ 8008 7997 7996 7995 ] final -153.28 input   59.86 | X-H torsion
[ 10167 10162 10161 10158 ] final  -62.01 input  -65.29 | X-H torsion
[ 10718 10713 10712 10709 ] final   51.04 input   66.30 | X-H torsion
[ 10763 10752 10751 10750 ] final -167.46 input  -60.55 | X-H torsion
[ 11005 11000 10999 10996 ] final   70.58 input  -57.11 | X-H torsion

> <Gold.Protein.ActiveResidues>
 VAL166  LYS551  ARG553  GLY616  TRP617  ASP618  TYR619  PRO620  LYS621  CYS622 
 ASP623  PHE694  ASN695  SER759  ASP760  ASP761  ALA762  ILE779  LEU786  VAL792 
 PHE793  MET794  SER795  GLU796  ALA797  LYS798  CYS799  TRP800  GLU811  SER814 

> <Gold.Protein.RotatedAtoms>
  152.2231  133.4999  159.5173 H   0  0  0  0  0  0  0  0  0  0  0  0  # atno 6907 bound_to 6896
  150.7018  134.1316  159.4081 H   0  0  0  0  0  0  0  0  0  0  0  0  # atno 6908 bound_to 6896
  151.9237  135.0287  160.0574 H   0  0  0  0  0  0  0  0  0  0  0  0  # atno 6909 bound_to 6896
  146.0603  140.6358  142.9000 H   0  0  0  0  0  0  0  0  0  0  0  0  # atno 7974 bound_to 7965
  155.6683  140.0730  157.2529 H   0  0  0  0  0  0  0  0  0  0  0  0  # atno 8008 bound_to 7997
  154.4128  140.1703  156.1903 H   0  0  0  0  0  0  0  0  0  0  0  0  # atno 8009 bound_to 7997
  155.9638  140.3367  155.6517 H   0  0  0  0  0  0  0  0  0  0  0  0  # atno 8010 bound_to 7997
  140.5967  143.2352  151.6019 H   0  0  0  0  0  0  0  0  0  0  0  0  # atno 10167 bound_to 10162
  157.4942  130.8396  149.8239 H   0  0  0  0  0  0  0  0  0  0  0  0  # atno 10718 bound_to 10713
  154.6729  135.2942  154.9717 H   0  0  0  0  0  0  0  0  0  0  0  0  # atno 10763 bound_to 10752
  154.0738  135.6614  153.4832 H   0  0  0  0  0  0  0  0  0  0  0  0  # atno 10764 bound_to 10752
  153.0498  135.5181  154.7734 H   0  0  0  0  0  0  0  0  0  0  0  0  # atno 10765 bound_to 10752
  139.9590  134.7094  156.0689 H   0  0  0  0  0  0  0  0  0  0  0  0  # atno 11005 bound_to 11000
  144.7171  140.4247  143.7036 LP  0  0  0  0  0  0  0  0  0  0  0  0  # atno 17320 bound_to 7965
  145.6572  139.1575  143.2829 LP  0  0  0  0  0  0  0  0  0  0  0  0  # atno 17321 bound_to 7965
  139.5263  144.3049  152.1042 LP  0  0  0  0  0  0  0  0  0  0  0  0  # atno 17342 bound_to 10162
  140.2223  144.4454  150.6336 LP  0  0  0  0  0  0  0  0  0  0  0  0  # atno 17343 bound_to 10162
  156.0191  130.3802  150.2018 LP  0  0  0  0  0  0  0  0  0  0  0  0  # atno 17370 bound_to 10713
  157.0207  130.9978  151.3340 LP  0  0  0  0  0  0  0  0  0  0  0  0  # atno 17371 bound_to 10713
  141.1265  133.6598  156.3350 LP  0  0  0  0  0  0  0  0  0  0  0  0  # atno 17394 bound_to 11000
  140.5544  134.5996  157.5416 LP  0  0  0  0  0  0  0  0  0  0  0  0  # atno 17395 bound_to 11000

$$$$
