#       Name:                AV-unprocessed.smi:2566
#       Creating user name   scv26
#       Creation time:       Fri Mar 27 14:10:38 2020


#       File generated by GOLD software.
#

@<TRIPOS>MOLECULE
AV-unprocessed.smi:2566
    27    28     1
SMALL
NO_CHARGES


@<TRIPOS>ATOM
      1 ****        -3.6270   0.1211   0.4056 C.2            1 S1                 0.0000
      2 ****        -2.4027   0.6333   0.3366 N.2            1 S1                 0.0000
      3 ****        -1.6447  -0.4963   0.4354 C.2            1 S1                 0.0000
      4 ****        -0.1485  -0.4941   0.3713 C.3            1 S1                 0.0000
      5 ****         0.3717  -0.5409  -1.0788 C.3            1 S1                 0.0000
      6 ****         1.8305  -0.4417  -1.0958 N.3            1 S1                 0.0000
      7 ****         2.2861   0.7533  -0.3869 C.3            1 S1                 0.0000
      8 ****         1.7151   0.7792   1.0426 C.3            1 S1                 0.0000
      9 ****         0.2939   0.7108   0.9926 O.3            1 S1                 0.0000
     10 ****        -2.3195  -1.6377   0.5248 N.2            1 S1                 0.0000
     11 ****        -3.6605  -1.2268   0.5178 O.3            1 S1                 0.0000
     12 ****        -4.5352   0.7045   0.3697 H              1 S1                 0.0000
     13 ****         0.2276  -1.3504   0.9350 H              1 S1                 0.0000
     14 ****         0.0536  -1.4639  -1.5641 H              1 S1                 0.0000
     15 ****        -0.0601   0.2805  -1.6522 H              1 S1                 0.0000
     16 ****         2.1585  -0.4134  -2.0561 H              1 S1                 0.0000
     17 ****         3.3755   0.7779  -0.3561 H              1 S1                 0.0000
     18 ****         1.9671   1.6473  -0.9240 H              1 S1                 0.0000
     19 ****         2.1122  -0.0446   1.6380 H              1 S1                 0.0000
     20 ****         2.0056   1.7020   1.5446 H              1 S1                 0.0000
     21 ****        -2.1156   1.5862   0.2390 LP             1 S1                 0.0000
     22 ****         2.2053  -1.2443  -0.6317 LP             1 S1                 0.0000
     23 ****        -0.0664   0.7473   1.9247 LP             1 S1                 0.0000
     24 ****        -0.0510   1.4912   0.4711 LP             1 S1                 0.0000
     25 ****        -1.9573  -2.5680   0.5832 LP             1 S1                 0.0000
     26 ****        -4.1451  -1.6298  -0.2585 LP             1 S1                 0.0000
     27 ****        -4.1123  -1.4952   1.3686 LP             1 S1                 0.0000
@<TRIPOS>BOND
    1    1   11 1     
    2    1    2 2     
    3    1   12 1     
    4    2    3 1     
    5    3    4 1     
    6    3   10 2     
    7    4    9 1     
    8    4    5 1     
    9    4   13 1     
   10    5    6 1     
   11    5   14 1     
   12    5   15 1     
   13    6    7 1     
   14    6   16 1     
   15    7    8 1     
   16    7   17 1     
   17    7   18 1     
   18    8    9 1     
   19    8   19 1     
   20    8   20 1     
   21   10   11 1     
   22    2   21 1     
   23    6   22 1     
   24    9   23 1     
   25    9   24 1     
   26   10   25 1     
   27   11   26 1     
   28   11   27 1     
@<TRIPOS>SUBSTRUCTURE
      1 S1             1
@<TRIPOS>SET
LONE_PAIRS      STATIC     ATOMS    <user>   **** ""
7 21 22 23 24 25 26 27
DONOR_HYDROGENS      STATIC     ATOMS    <user>   **** ""
1 16
ATOM$BLUE        STATIC     ATOMS    COLORGROUP SYSTEM
7 21 22 23 24 25 26 27
ATOM$RED        STATIC     ATOMS    COLORGROUP SYSTEM
1 16
