AV-unprocessed.smi:1999|AV-procd|sdf|8095|dock9
  -GOLD-   2272010313D 1   1.00000     0.00000
 Structure written by MMmdl.
 39 40  0  0  0  0  0  0  0  0  2 V2000
  153.9618  137.6732  157.5390 C   0  0  0  0  0  0  0  0  0  0  0  0
  152.9946  138.0248  156.4607 C   0  0  0  0  0  0  0  0  0  0  0  0
  153.1307  139.1171  155.6989 N   0  0  0  0  0  0  0  0  0  0  0  0
  152.1110  139.2377  154.7654 N   0  0  0  0  0  0  0  0  0  0  0  0
  151.2340  138.2280  154.8502 C   0  0  0  0  0  0  0  0  0  0  0  0
  150.0886  138.1069  154.0195 N   0  0  0  0  0  0  0  0  0  0  0  0
  148.9079  138.7391  154.1350 C   0  0  0  0  0  0  0  0  0  0  0  0
  148.6347  139.5874  154.9844 O   0  0  0  0  0  0  0  0  0  0  0  0
  148.0384  138.3218  153.2022 N   0  0  0  0  0  0  0  0  0  0  0  0
  146.6724  138.8143  153.0164 C   0  0  1  0  0  0  0  0  0  0  0  0
  146.7281  140.2968  152.6238 C   0  0  0  0  0  0  0  0  0  0  0  0
  145.9072  137.9853  151.9578 C   0  0  0  0  0  0  0  0  0  0  0  0
  146.2185  136.5343  152.0133 N   0  3  0  0  0  0  0  0  0  0  0  0
  145.9592  135.9226  153.3394 C   0  0  0  0  0  0  0  0  0  0  0  0
  146.3875  134.4460  153.3338 C   0  0  0  0  0  0  0  0  0  0  0  0
  145.6900  133.7543  152.3047 O   0  0  0  0  0  0  0  0  0  0  0  0
  145.9831  134.2794  151.0155 C   0  0  0  0  0  0  0  0  0  0  0  0
  145.5513  135.7545  150.9451 C   0  0  0  0  0  0  0  0  0  0  0  0
  151.5826  137.0403  156.0945 S   0  0  0  0  0  0  0  0  0  0  0  0
  154.9814  137.7016  157.1537 H   0  0  0  0  0  0  0  0  0  0  0  0
  153.7609  136.6709  157.9179 H   0  0  0  0  0  0  0  0  0  0  0  0
  153.8766  138.3825  158.3624 H   0  0  0  0  0  0  0  0  0  0  0  0
  150.1771  137.4531  153.2555 H   0  0  0  0  0  0  0  0  0  0  0  0
  148.3545  137.6215  152.5472 H   0  0  0  0  0  0  0  0  0  0  0  0
  146.1432  138.7612  153.9688 H   0  0  0  0  0  0  0  0  0  0  0  0
  145.7256  140.7112  152.5132 H   0  0  0  0  0  0  0  0  0  0  0  0
  147.2526  140.4403  151.6783 H   0  0  0  0  0  0  0  0  0  0  0  0
  147.2433  140.8858  153.3835 H   0  0  0  0  0  0  0  0  0  0  0  0
  144.8302  138.1294  152.0583 H   0  0  0  0  0  0  0  0  0  0  0  0
  146.1718  138.3697  150.9714 H   0  0  0  0  0  0  0  0  0  0  0  0
  146.5042  136.4543  154.1186 H   0  0  0  0  0  0  0  0  0  0  0  0
  144.8983  136.0022  153.5809 H   0  0  0  0  0  0  0  0  0  0  0  0
  147.4652  134.3524  153.1885 H   0  0  0  0  0  0  0  0  0  0  0  0
  146.1538  133.9832  154.2928 H   0  0  0  0  0  0  0  0  0  0  0  0
  147.0482  134.1753  150.8013 H   0  0  0  0  0  0  0  0  0  0  0  0
  145.4491  133.6949  150.2662 H   0  0  0  0  0  0  0  0  0  0  0  0
  144.4684  135.8361  151.0525 H   0  0  0  0  0  0  0  0  0  0  0  0
  145.8108  136.1642  149.9683 H   0  0  0  0  0  0  0  0  0  0  0  0
  147.2112  136.4508  151.8436 H   0  0  0  0  0  0  0  0  0  0  0  0
  1  2  1  0  0  0  0
  1 20  1  0  0  0  0
  1 21  1  0  0  0  0
  1 22  1  0  0  0  0
  2 19  1  0  0  0  0
  2  3  2  0  0  0  0
  3  4  1  0  0  0  0
  4  5  2  0  0  0  0
  5  6  1  0  0  0  0
  5 19  1  0  0  0  0
  6  7  1  0  0  0  0
  6 23  1  0  0  0  0
  7  8  2  0  0  0  0
  7  9  1  0  0  0  0
  9 10  1  0  0  0  0
  9 24  1  0  0  0  0
 10 11  1  0  0  0  0
 10 12  1  0  0  0  0
 10 25  1  0  0  0  0
 11 26  1  0  0  0  0
 11 27  1  0  0  0  0
 11 28  1  0  0  0  0
 12 13  1  0  0  0  0
 12 29  1  0  0  0  0
 12 30  1  0  0  0  0
 13 18  1  0  0  0  0
 13 14  1  0  0  0  0
 13 39  1  0  0  0  0
 14 15  1  0  0  0  0
 14 31  1  0  0  0  0
 14 32  1  0  0  0  0
 15 16  1  0  0  0  0
 15 33  1  0  0  0  0
 15 34  1  0  0  0  0
 16 17  1  0  0  0  0
 17 18  1  0  0  0  0
 17 35  1  0  0  0  0
 17 36  1  0  0  0  0
 18 37  1  0  0  0  0
 18 38  1  0  0  0  0
M  CHG  1  13   1
M  END
> <s_m_source_file>
AV-unprocessed.smi

> <i_m_source_file_index>
1999

> <i_lp_mmshare_version>
43012

> <i_f3d_flags>
0

> <s_epik_input>
W0NIM11jMW5uYyhzMSlbTkhdQyg9TylbTkhdW0NASF0oW0NIM10pW0NIMl1OMltDSDJdW0NIMl1PW0NIMl1bQ0gyXTI=

> <s_epik_cmdline>
J2VwaWtfcHl0aG9uJywgJy1waCcsICc3LjAnLCAnLXRuJywgJzgnLCAnLW1hJywgJzIwMCcsICctbWV0YWxfYmluZGluZycsICctaW1hZScsICc8aW5maWxlLm1hZT4nLCAnLW9tYWUnLCAnPG91dGZpbGUubWFlPic=

> <r_lp_tautomer_probability>
1

> <r_epik_Ionization_Penalty>
0.701298

> <r_epik_Ionization_Penalty_Charging>
0.695697

> <r_epik_Ionization_Penalty_Neutral>
0.00560124

> <r_epik_State_Penalty>
0.717972

> <r_epik_Charging_Adjusted_Penalty>
1.41367

> <i_epik_Tot_Q>
1

> <i_epik_Tot_abs_Q>
1

> <r_epik_Metal_State_Penalty>
1.07748

> <b_epik_Metal_Only>
0

> <s_lp_Force_Field>
OPLS_2005

> <r_lp_Energy>
20.3005

> <b_lp_Chiralities_Consistent>
1

> <s_lp_Variant>
AV-unprocessed.smi:1999-4

> <Gold.Version>
5.8.1

> <Gold.Id.Protein>
6NUR|6NUR_protein|mol2

> <Gold.PLP.Fitness>
41.2936

> <Gold.PLP.PLP>
-27.3186

> <Gold.PLP.part.hbond>
-6.0000

> <Gold.PLP.part.metal>
0.0000

> <Gold.PLP.part.buried>
-0.2324

> <Gold.PLP.part.nonpolar>
-22.4240

> <Gold.PLP.part.repulsive>
0.3889

> <Gold.PLP.ligand.clash>
0.0000

> <Gold.PLP.ligand.torsion>
0.9741

> <Gold.PLP.Chemscore.Hbond>
5.2915

> <Gold.PLP.Chemscore.CHOScore>
0.0000

> <Gold.PLP.Chemscore.Metal>
0.0000

> <Gold.Chemscore.Hbonds>
donor molecule, donor type, donor heavy atom, donor atom, acceptor molecule, acceptor atom, score
      L1  H     6    23       P1  7948  0.48
      L1  H     9    24       P1  7948  1.00
      L1  H    13    39       P1  7948  2.00
      P1  H  7989  7998       L1     4  0.73
      P1  H  7997  8008       L1     3  1.00

> <Gold.PLP.Chemscore.Internal.Correction>
0.0489

> <Gold.Rescore>
     Score         DG    S(hbond)    S(metal)    S(lipo)     H(rot)  DE(clash)    DE(int)     intcor
     19.03     -20.15       3.74        0.00      54.20       1.63       0.20       0.92       ----

> <Gold.Chemscore.Fitness>
19.0327

> <Gold.Chemscore.DG>
-20.1491

> <Gold.Chemscore.ZeroCoef>
-5.4800

> <Gold.Chemscore.Hbond>
3.7440

> <Gold.Chemscore.Metal>
0.0000

> <Gold.Chemscore.Lipo>
54.1997

> <Gold.Chemscore.Internal_Hbond>
0.0000

> <Gold.Chemscore.DEClash>
0.1954

> <Gold.Chemscore.DEInternal>
0.9211

> <Gold.Chemscore.Rot>
1.6317

> <Gold.Chemscore.Internal.Correction>
   9.000000E+99

> <Gold.Chemscore.Hbonds>
donor molecule, donor type, donor heavy atom, donor atom, acceptor molecule, acceptor atom, score
      L1  H     6    23       P1  7948  0.08
      L1  H     9    24       P1  7948  1.00
      L1  H    13    39       P1  7948  1.00
      P1  H  7989  7998       L1     4  0.67
      P1  H  7997  8008       L1     3  0.96

> <Gold.Chemscore.Hbond.Weighted>
-12.5050

> <Gold.Chemscore.Metal.Weighted>
-0.0000

> <Gold.Chemscore.Lipo.Weighted>
-6.3414

> <Gold.Chemscore.Internal_Hbond.Weighted>
0.0000

> <Gold.Chemscore.DEClash.Weighted>
0.1954

> <Gold.Chemscore.DEInternal.Weighted>
0.9211

> <Gold.Chemscore.Rot.Weighted>
4.1773

> <Gold.Chemscore.Internal.Correction.Weighted>
   9.000000E+99

> <Gold.Protein.RotatedTorsions>
[ 6907 6896 6895 6894 ] final  165.17 input  -60.11 | X-H torsion
[ 7974 7965 7964 7962 ] final  -25.59 input  175.53 | X-H torsion
[ 8008 7997 7996 7995 ] final  -22.84 input   59.86 | X-H torsion
[ 10167 10162 10161 10158 ] final  -17.69 input  -65.29 | X-H torsion
[ 10718 10713 10712 10709 ] final  102.25 input   66.30 | X-H torsion
[ 10763 10752 10751 10750 ] final   -9.54 input  -60.55 | X-H torsion
[ 11005 11000 10999 10996 ] final  -61.26 input  -57.11 | X-H torsion

> <Gold.Protein.ActiveResidues>
 VAL166  LYS551  ARG553  GLY616  TRP617  ASP618  TYR619  PRO620  LYS621  CYS622 
 ASP623  PHE694  ASN695  SER759  ASP760  ASP761  ALA762  ILE779  LEU786  VAL792 
 PHE793  MET794  SER795  GLU796  ALA797  LYS798  CYS799  TRP800  GLU811  SER814 

> <Gold.Protein.RotatedAtoms>
  151.8985  133.3532  159.3822 H   0  0  0  0  0  0  0  0  0  0  0  0  # atno 6907 bound_to 6896
  150.7086  134.4852  159.5499 H   0  0  0  0  0  0  0  0  0  0  0  0  # atno 6908 bound_to 6896
  152.2436  134.8204  160.0507 H   0  0  0  0  0  0  0  0  0  0  0  0  # atno 6909 bound_to 6896
  146.1481  140.4907  142.8623 H   0  0  0  0  0  0  0  0  0  0  0  0  # atno 7974 bound_to 7965
  154.4620  140.1997  156.0218 H   0  0  0  0  0  0  0  0  0  0  0  0  # atno 8008 bound_to 7997
  156.0858  140.3265  155.7723 H   0  0  0  0  0  0  0  0  0  0  0  0  # atno 8009 bound_to 7997
  155.5037  140.0556  157.2925 H   0  0  0  0  0  0  0  0  0  0  0  0  # atno 8010 bound_to 7997
  140.7250  143.4991  150.9893 H   0  0  0  0  0  0  0  0  0  0  0  0  # atno 10167 bound_to 10162
  157.6807  131.0748  150.5376 H   0  0  0  0  0  0  0  0  0  0  0  0  # atno 10718 bound_to 10713
  153.4562  135.7015  153.6078 H   0  0  0  0  0  0  0  0  0  0  0  0  # atno 10763 bound_to 10752
  153.4392  135.3784  155.2218 H   0  0  0  0  0  0  0  0  0  0  0  0  # atno 10764 bound_to 10752
  154.8728  135.3970  154.3981 H   0  0  0  0  0  0  0  0  0  0  0  0  # atno 10765 bound_to 10752
  141.1318  133.6628  156.5348 H   0  0  0  0  0  0  0  0  0  0  0  0  # atno 11005 bound_to 11000
  144.7870  140.5957  143.6567 LP  0  0  0  0  0  0  0  0  0  0  0  0  # atno 17320 bound_to 7965
  145.4889  139.1490  143.3720 LP  0  0  0  0  0  0  0  0  0  0  0  0  # atno 17321 bound_to 7965
  139.8699  143.7206  152.3167 LP  0  0  0  0  0  0  0  0  0  0  0  0  # atno 17342 bound_to 10162
  139.7451  144.7549  151.0592 LP  0  0  0  0  0  0  0  0  0  0  0  0  # atno 17343 bound_to 10162
  156.5684  130.4273  149.6030 LP  0  0  0  0  0  0  0  0  0  0  0  0  # atno 17370 bound_to 10713
  156.2761  130.7044  151.1856 LP  0  0  0  0  0  0  0  0  0  0  0  0  # atno 17371 bound_to 10713
  140.4187  134.7207  157.4877 LP  0  0  0  0  0  0  0  0  0  0  0  0  # atno 17394 bound_to 11000
  140.0375  134.6315  155.9023 LP  0  0  0  0  0  0  0  0  0  0  0  0  # atno 17395 bound_to 11000

$$$$
