#       Name:                AV-unprocessed.smi:247
#       Creating user name   scv26
#       Creation time:       Thu Mar 26 20:55:35 2020


#       File generated by GOLD software.
#

@<TRIPOS>MOLECULE
AV-unprocessed.smi:247
    73    77     1
SMALL
NO_CHARGES


@<TRIPOS>ATOM
      1 ****        -3.8969   2.1443  -1.2785 O.3            1 S1                 0.0000
      2 ****        -3.3414   0.8467  -1.1932 C.3            1 S1                 0.0000
      3 ****        -3.8745   0.0224   0.0122 C.3            1 S1                 0.0000
      4 ****        -3.2678  -1.4155  -0.0598 C.3            1 S1                 0.0000
      5 ****        -1.8153  -1.4751   0.0163 N.pl3          1 S1                 0.0000
      6 ****        -1.0528  -1.5694   1.1594 C.2            1 S1                 0.0000
      7 ****         0.2375  -1.5960   0.9687 N.2            1 S1                 0.0000
      8 ****         0.3749  -1.5371  -0.4126 C.ar           1 S1                 0.0000
      9 ****         1.4869  -1.5052  -1.3006 C.ar           1 S1                 0.0000
     10 ****         2.7810  -1.5050  -0.9144 N.3            1 S1                 0.0000
     11 ****         3.1992  -2.7152  -0.2107 C.3            1 S1                 0.0000
     12 ****         4.0441  -2.2604   0.9829 C.3            1 S1                 0.0000
     13 ****         4.4616  -0.8455   0.6008 C.3            1 S1                 0.0000
     14 ****         3.2196  -0.3398  -0.1448 C.3            1 S1                 0.0000
     15 ****         3.3540   0.9609  -1.0093 C.3            1 S1                 0.0000
     16 ****         4.7418   1.6431  -0.9461 C.3            1 S1                 0.0000
     17 ****         4.9821   2.1803   0.3523 O.3            1 S1                 0.0000
     18 ****         4.0722   3.2162   0.7079 C.3            1 S1                 0.0000
     19 ****         2.6296   2.6858   0.7027 C.3            1 S1                 0.0000
     20 ****         2.3100   2.0493  -0.6576 C.3            1 S1                 0.0000
     21 ****         0.9821   1.5679  -0.6779 O.3            1 S1                 0.0000
     22 ****         1.2389  -1.4492  -2.6315 N.ar           1 S1                 0.0000
     23 ****        -0.0220  -1.4173  -3.0737 C.ar           1 S1                 0.0000
     24 ****        -1.1552  -1.4254  -2.3681 N.ar           1 S1                 0.0000
     25 ****        -0.9062  -1.4809  -1.0279 C.ar           1 S1                 0.0000
     26 ****        -3.5122   0.7411   1.3378 C.3            1 S1                 0.0000
     27 ****        -4.2049   0.1055   2.5562 C.3            1 S1                 0.0000
     28 ****        -5.6146   0.1116   2.3672 O.3            1 S1                 0.0000
     29 ****        -6.0310  -0.6550   1.2434 C.3            1 S1                 0.0000
     30 ****        -5.4204  -0.0807  -0.0499 C.3            1 S1                 0.0000
     31 ****        -3.5246   2.5814  -2.0291 H              1 S1                 0.0000
     32 ****        -3.5512   0.3288  -2.1297 H              1 S1                 0.0000
     33 ****        -2.2597   0.9663  -1.1328 H              1 S1                 0.0000
     34 ****        -3.6551  -2.0517   0.7343 H              1 S1                 0.0000
     35 ****        -3.5733  -1.8987  -0.9888 H              1 S1                 0.0000
     36 ****        -1.4859  -1.6050   2.1483 H              1 S1                 0.0000
     37 ****         2.3663  -3.3428   0.1090 H              1 S1                 0.0000
     38 ****         3.8075  -3.3066  -0.8953 H              1 S1                 0.0000
     39 ****         3.4259  -2.2306   1.8812 H              1 S1                 0.0000
     40 ****         4.8915  -2.9182   1.1777 H              1 S1                 0.0000
     41 ****         4.7194  -0.2358   1.4671 H              1 S1                 0.0000
     42 ****         5.3302  -0.9046  -0.0551 H              1 S1                 0.0000
     43 ****         2.4715  -0.1572   0.6263 H              1 S1                 0.0000
     44 ****         3.1982   0.6849  -2.0534 H              1 S1                 0.0000
     45 ****         5.5390   0.9504  -1.2119 H              1 S1                 0.0000
     46 ****         4.8008   2.4470  -1.6820 H              1 S1                 0.0000
     47 ****         4.3314   3.5886   1.6989 H              1 S1                 0.0000
     48 ****         4.1779   4.0539   0.0168 H              1 S1                 0.0000
     49 ****         2.5060   1.9569   1.5043 H              1 S1                 0.0000
     50 ****         1.9351   3.4999   0.9133 H              1 S1                 0.0000
     51 ****         2.3597   2.8299  -1.4181 H              1 S1                 0.0000
     52 ****         0.8940   0.9017  -0.0133 H              1 S1                 0.0000
     53 ****        -0.1396  -1.3729  -4.1462 H              1 S1                 0.0000
     54 ****        -2.4338   0.7748   1.4880 H              1 S1                 0.0000
     55 ****        -3.8297   1.7834   1.2912 H              1 S1                 0.0000
     56 ****        -3.8520  -0.9100   2.7370 H              1 S1                 0.0000
     57 ****        -3.9735   0.6798   3.4533 H              1 S1                 0.0000
     58 ****        -5.7688  -1.7035   1.3845 H              1 S1                 0.0000
     59 ****        -7.1187  -0.6169   1.1848 H              1 S1                 0.0000
     60 ****        -5.8585   0.9056  -0.2037 H              1 S1                 0.0000
     61 ****        -5.7284  -0.6812  -0.9065 H              1 S1                 0.0000
     62 ****        -3.6822   2.6583  -0.4481 LP             1 S1                 0.0000
     63 ****        -4.8893   2.0801  -1.3835 LP             1 S1                 0.0000
     64 ****         0.9606  -1.6470   1.6575 LP             1 S1                 0.0000
     65 ****         3.2392  -1.4652  -1.8023 LP             1 S1                 0.0000
     66 ****         5.9106   2.5508   0.3761 LP             1 S1                 0.0000
     67 ****         4.9005   1.4420   1.0218 LP             1 S1                 0.0000
     68 ****         0.7786   1.1775  -1.5758 LP             1 S1                 0.0000
     69 ****         0.3484   2.3182  -0.4894 LP             1 S1                 0.0000
     70 ****         1.9982  -1.4318  -3.2820 LP             1 S1                 0.0000
     71 ****        -2.0701  -1.3947  -2.7707 LP             1 S1                 0.0000
     72 ****        -5.9140   1.0567   2.2361 LP             1 S1                 0.0000
     73 ****        -6.0471  -0.2644   3.1867 LP             1 S1                 0.0000
@<TRIPOS>BOND
    1    1    2 1     
    2    1   31 1     
    3    2    3 1     
    4    2   32 1     
    5    2   33 1     
    6    3   30 1     
    7    3    4 1     
    8    3   26 1     
    9    4    5 1     
   10    4   34 1     
   11    4   35 1     
   12    5   25 1     
   13    5    6 1     
   14    6    7 2     
   15    6   36 1     
   16    7    8 1     
   17    8   25 ar    
   18    8    9 ar    
   19    9   10 1     
   20    9   22 ar    
   21   10   14 1     
   22   10   11 1     
   23   11   12 1     
   24   11   37 1     
   25   11   38 1     
   26   12   13 1     
   27   12   39 1     
   28   12   40 1     
   29   13   14 1     
   30   13   41 1     
   31   13   42 1     
   32   14   15 1     
   33   14   43 1     
   34   15   20 1     
   35   15   16 1     
   36   15   44 1     
   37   16   17 1     
   38   16   45 1     
   39   16   46 1     
   40   17   18 1     
   41   18   19 1     
   42   18   47 1     
   43   18   48 1     
   44   19   20 1     
   45   19   49 1     
   46   19   50 1     
   47   20   21 1     
   48   20   51 1     
   49   21   52 1     
   50   22   23 ar    
   51   23   24 ar    
   52   23   53 1     
   53   24   25 ar    
   54   26   27 1     
   55   26   54 1     
   56   26   55 1     
   57   27   28 1     
   58   27   56 1     
   59   27   57 1     
   60   28   29 1     
   61   29   30 1     
   62   29   58 1     
   63   29   59 1     
   64   30   60 1     
   65   30   61 1     
   66    1   62 1     
   67    1   63 1     
   68    7   64 1     
   69   10   65 1     
   70   17   66 1     
   71   17   67 1     
   72   21   68 1     
   73   21   69 1     
   74   22   70 1     
   75   24   71 1     
   76   28   72 1     
   77   28   73 1     
@<TRIPOS>SUBSTRUCTURE
      1 S1             1
@<TRIPOS>SET
LONE_PAIRS      STATIC     ATOMS    <user>   **** ""
12 62 63 64 65 66 67 68 69 70 71 72 73
DONOR_HYDROGENS      STATIC     ATOMS    <user>   **** ""
2 31 52
ATOM$BLUE        STATIC     ATOMS    COLORGROUP SYSTEM
12 62 63 64 65 66 67 68 69 70 71 72 73
ATOM$RED        STATIC     ATOMS    COLORGROUP SYSTEM
2 31 52
