#       Name:                AV-unprocessed.smi:516
#       Creating user name   scv26
#       Creation time:       Thu Mar 26 23:25:58 2020


#       File generated by GOLD software.
#

@<TRIPOS>MOLECULE
AV-unprocessed.smi:516
    54    56     1
SMALL
NO_CHARGES


@<TRIPOS>ATOM
      1 ****        -2.8816   3.4969  -2.1009 C.3            1 S1                 0.0000
      2 ****        -2.2642   2.2244  -2.0297 O.3            1 S1                 0.0000
      3 ****        -2.7293   1.4515  -0.9356 C.3            1 S1                 0.0000
      4 ****        -2.0159   0.0917  -0.9178 C.3            1 S1                 0.0000
      5 ****        -0.5654   0.2339  -0.8410 N.pl3          1 S1                 0.0000
      6 ****         0.1974   0.3749   0.2760 C.2            1 S1                 0.0000
      7 ****        -0.3637   0.4070   1.6697 C.3            1 S1                 0.0000
      8 ****         0.0946  -0.8609   2.2922 N.4            1 S1                 1.0000
      9 ****         0.1044  -0.7880   3.7721 C.3            1 S1                 0.0000
     10 ****         0.6448  -2.0967   4.3730 C.3            1 S1                 0.0000
     11 ****        -0.1398  -3.1908   3.9155 O.3            1 S1                 0.0000
     12 ****        -0.0863  -3.3282   2.5012 C.3            1 S1                 0.0000
     13 ****        -0.6516  -2.0617   1.8368 C.3            1 S1                 0.0000
     14 ****         1.5076   0.4933   0.0335 N.2            1 S1                 0.0000
     15 ****         1.5818   0.4258  -1.3492 C.2            1 S1                 0.0000
     16 ****         0.3500   0.2688  -1.8936 C.2            1 S1                 0.0000
     17 ****         0.1382   0.1761  -3.3447 C.2            1 S1                 0.0000
     18 ****        -0.9678   0.0409  -3.8628 O.2            1 S1                 0.0000
     19 ****         1.2900   0.2546  -4.0545 N.am           1 S1                 0.0000
     20 ****         2.5596   0.4107  -3.5685 C.2            1 S1                 0.0000
     21 ****         3.5088   0.4637  -4.3495 O.2            1 S1                 0.0000
     22 ****         2.7132   0.5023  -2.2070 N.am           1 S1                 0.0000
     23 ****         4.0265   0.6838  -1.5853 C.3            1 S1                 0.0000
     24 ****         1.2015   0.1926  -5.0583 H              1 S1                 0.0000
     25 ****        -2.4939   4.0443  -2.9600 H              1 S1                 0.0000
     26 ****        -2.6760   4.0854  -1.2059 H              1 S1                 0.0000
     27 ****        -3.9620   3.4049  -2.2199 H              1 S1                 0.0000
     28 ****        -2.5429   1.9839  -0.0017 H              1 S1                 0.0000
     29 ****        -3.8069   1.3013  -1.0151 H              1 S1                 0.0000
     30 ****        -2.3649  -0.5067  -0.0770 H              1 S1                 0.0000
     31 ****        -2.2784  -0.4851  -1.8028 H              1 S1                 0.0000
     32 ****         0.0581   1.2687   2.1885 H              1 S1                 0.0000
     33 ****        -1.4483   0.5061   1.6930 H              1 S1                 0.0000
     34 ****         0.7252   0.0477   4.0972 H              1 S1                 0.0000
     35 ****        -0.9068  -0.5984   4.1360 H              1 S1                 0.0000
     36 ****         1.6919  -2.2462   4.1052 H              1 S1                 0.0000
     37 ****         0.5972  -2.0584   5.4613 H              1 S1                 0.0000
     38 ****         0.9398  -3.5122   2.1786 H              1 S1                 0.0000
     39 ****        -0.6730  -4.1993   2.2091 H              1 S1                 0.0000
     40 ****        -1.7085  -1.9515   2.0838 H              1 S1                 0.0000
     41 ****        -0.5855  -2.1669   0.7540 H              1 S1                 0.0000
     42 ****         4.8488   0.7632  -2.2970 H              1 S1                 0.0000
     43 ****         4.2449  -0.1563  -0.9253 H              1 S1                 0.0000
     44 ****         4.0302   1.5931  -0.9834 H              1 S1                 0.0000
     45 ****         1.0564  -0.9845   2.0077 H              1 S1                 0.0000
     46 ****        -1.2770   2.3526  -1.9342 LP             1 S1                 0.0000
     47 ****        -2.4555   1.7280  -2.8764 LP             1 S1                 0.0000
     48 ****        -1.0900  -3.0441   4.1902 LP             1 S1                 0.0000
     49 ****         0.2025  -4.0316   4.3350 LP             1 S1                 0.0000
     50 ****         2.2532   0.6038   0.6907 LP             1 S1                 0.0000
     51 ****        -1.7854  -0.0118  -3.2894 LP             1 S1                 0.0000
     52 ****        -1.0502  -0.0164  -4.8577 LP             1 S1                 0.0000
     53 ****         3.3506   0.3928  -5.3343 LP             1 S1                 0.0000
     54 ****         4.4386   0.5777  -3.9994 LP             1 S1                 0.0000
@<TRIPOS>BOND
    1    1    2 1     
    2    1   25 1     
    3    1   26 1     
    4    1   27 1     
    5    2    3 1     
    6    3    4 1     
    7    3   28 1     
    8    3   29 1     
    9    4    5 1     
   10    4   30 1     
   11    4   31 1     
   12    5   16 1     
   13    5    6 1     
   14    6    7 1     
   15    6   14 2     
   16    7    8 1     
   17    7   32 1     
   18    7   33 1     
   19    8   13 1     
   20    8    9 1     
   21    8   45 1     
   22    9   10 1     
   23    9   34 1     
   24    9   35 1     
   25   10   11 1     
   26   10   36 1     
   27   10   37 1     
   28   11   12 1     
   29   12   13 1     
   30   12   38 1     
   31   12   39 1     
   32   13   40 1     
   33   13   41 1     
   34   14   15 1     
   35   15   22 1     
   36   15   16 2     
   37   16   17 1     
   38   17   18 2     
   39   17   19 1     
   40   19   24 1     
   41   19   20 1     
   42   20   21 2     
   43   20   22 1     
   44   22   23 1     
   45   23   42 1     
   46   23   43 1     
   47   23   44 1     
   48    2   46 1     
   49    2   47 1     
   50   11   48 1     
   51   11   49 1     
   52   14   50 1     
   53   18   51 1     
   54   18   52 1     
   55   21   53 1     
   56   21   54 1     
@<TRIPOS>SUBSTRUCTURE
      1 S1             1
@<TRIPOS>SET
LONE_PAIRS      STATIC     ATOMS    <user>   **** ""
9 46 47 48 49 50 51 52 53 54
DONOR_HYDROGENS      STATIC     ATOMS    <user>   **** ""
2 45 24
ATOM$BLUE        STATIC     ATOMS    COLORGROUP SYSTEM
9 46 47 48 49 50 51 52 53 54
ATOM$RED        STATIC     ATOMS    COLORGROUP SYSTEM
2 45 24
