AV-unprocessed.smi:2001|AV-procd|sdf|8106|dock4
  -GOLD-   2272010333D 1   1.00000     0.00000
 Structure written by MMmdl.
 51 52  0  0  0  0  0  0  0  0  2 V2000
  152.7594  141.8749  159.8889 C   0  0  0  0  0  0  0  0  0  0  0  0
  151.4921  142.1233  159.3074 O   0  0  0  0  0  0  0  0  0  0  0  0
  151.0834  141.0908  158.4256 C   0  0  0  0  0  0  0  0  0  0  0  0
  150.9537  141.6426  156.9961 C   0  0  0  0  0  0  0  0  0  0  0  0
  150.7843  140.5695  156.0093 N   0  0  0  0  0  0  0  0  0  0  0  0
  149.6091  140.6565  155.2801 N   0  0  0  0  0  0  0  0  0  0  0  0
  149.3442  139.7792  154.3666 C   0  0  0  0  0  0  0  0  0  0  0  0
  148.0892  139.8321  153.5659 C   0  0  0  0  0  0  0  0  0  0  0  0
  147.3580  140.8239  153.5650 O   0  0  0  0  0  0  0  0  0  0  0  0
  147.8148  138.7311  152.8451 N   0  0  0  0  0  0  0  0  0  0  0  0
  146.6534  138.5882  151.9785 C   0  0  0  0  0  0  0  0  0  0  0  0
  145.6440  137.5981  152.5815 C   0  0  0  0  0  0  0  0  0  0  0  0
  145.9161  136.1981  152.1706 N   0  3  1  0  0  0  0  0  0  0  0  0
  145.9293  135.2627  153.3202 C   0  0  0  0  0  0  0  0  0  0  0  0
  146.2888  133.8328  152.8704 C   0  0  2  0  0  0  0  0  0  0  0  0
  147.7771  133.6549  152.5206 C   0  0  0  0  0  0  0  0  0  0  0  0
  145.4305  133.4191  151.8072 O   0  0  0  0  0  0  0  0  0  0  0  0
  145.4201  134.2831  150.6738 C   0  0  1  0  0  0  0  0  0  0  0  0
  144.4542  133.6942  149.6394 C   0  0  0  0  0  0  0  0  0  0  0  0
  145.0043  135.6985  151.1134 C   0  0  0  0  0  0  0  0  0  0  0  0
  150.2688  138.6942  154.0859 C   0  0  0  0  0  0  0  0  0  0  0  0
  151.4080  138.6194  154.8079 C   0  0  0  0  0  0  0  0  0  0  0  0
  151.7304  139.5948  155.8506 C   0  0  0  0  0  0  0  0  0  0  0  0
  152.7599  139.5423  156.5225 O   0  0  0  0  0  0  0  0  0  0  0  0
  153.0254  142.6988  160.5510 H   0  0  0  0  0  0  0  0  0  0  0  0
  153.5352  141.7926  159.1267 H   0  0  0  0  0  0  0  0  0  0  0  0
  152.7491  140.9580  160.4792 H   0  0  0  0  0  0  0  0  0  0  0  0
  151.8261  140.2920  158.4394 H   0  0  0  0  0  0  0  0  0  0  0  0
  150.1371  140.6580  158.7542 H   0  0  0  0  0  0  0  0  0  0  0  0
  150.1402  142.3682  156.9439 H   0  0  0  0  0  0  0  0  0  0  0  0
  151.8549  142.2079  156.7525 H   0  0  0  0  0  0  0  0  0  0  0  0
  148.4582  137.9540  152.8963 H   0  0  0  0  0  0  0  0  0  0  0  0
  146.2031  139.5715  151.8413 H   0  0  0  0  0  0  0  0  0  0  0  0
  146.9753  138.2390  150.9959 H   0  0  0  0  0  0  0  0  0  0  0  0
  145.7091  137.6678  153.6685 H   0  0  0  0  0  0  0  0  0  0  0  0
  144.6220  137.8722  152.3142 H   0  0  0  0  0  0  0  0  0  0  0  0
  146.6390  135.6023  154.0760 H   0  0  0  0  0  0  0  0  0  0  0  0
  144.9443  135.2641  153.7898 H   0  0  0  0  0  0  0  0  0  0  0  0
  146.0802  133.1611  153.7036 H   0  0  0  0  0  0  0  0  0  0  0  0
  148.4036  133.8456  153.3922 H   0  0  0  0  0  0  0  0  0  0  0  0
  148.1028  134.3347  151.7339 H   0  0  0  0  0  0  0  0  0  0  0  0
  147.9787  132.6366  152.1875 H   0  0  0  0  0  0  0  0  0  0  0  0
  146.4132  134.3161  150.2254 H   0  0  0  0  0  0  0  0  0  0  0  0
  144.4093  134.3156  148.7445 H   0  0  0  0  0  0  0  0  0  0  0  0
  143.4441  133.6134  150.0420 H   0  0  0  0  0  0  0  0  0  0  0  0
  144.7711  132.6968  149.3336 H   0  0  0  0  0  0  0  0  0  0  0  0
  143.9793  135.6929  151.4884 H   0  0  0  0  0  0  0  0  0  0  0  0
  145.0238  136.3610  150.2488 H   0  0  0  0  0  0  0  0  0  0  0  0
  150.0578  137.9605  153.3214 H   0  0  0  0  0  0  0  0  0  0  0  0
  152.1037  137.8171  154.6101 H   0  0  0  0  0  0  0  0  0  0  0  0
  146.8505  136.1870  151.7869 H   0  0  0  0  0  0  0  0  0  0  0  0
  1  2  1  0  0  0  0
  1 25  1  0  0  0  0
  1 26  1  0  0  0  0
  1 27  1  0  0  0  0
  2  3  1  0  0  0  0
  3  4  1  0  0  0  0
  3 28  1  0  0  0  0
  3 29  1  0  0  0  0
  4  5  1  0  0  0  0
  4 30  1  0  0  0  0
  4 31  1  0  0  0  0
  5 23  1  0  0  0  0
  5  6  1  0  0  0  0
  6  7  2  0  0  0  0
  7  8  1  0  0  0  0
  7 21  1  0  0  0  0
  8  9  2  0  0  0  0
  8 10  1  0  0  0  0
 10 11  1  0  0  0  0
 10 32  1  0  0  0  0
 11 12  1  0  0  0  0
 11 33  1  0  0  0  0
 11 34  1  0  0  0  0
 12 13  1  0  0  0  0
 12 35  1  0  0  0  0
 12 36  1  0  0  0  0
 13 20  1  0  0  0  0
 13 14  1  0  0  0  0
 13 51  1  0  0  0  0
 14 15  1  0  0  0  0
 14 37  1  0  0  0  0
 14 38  1  0  0  0  0
 15 16  1  0  0  0  0
 15 17  1  0  0  0  0
 15 39  1  0  0  0  0
 16 40  1  0  0  0  0
 16 41  1  0  0  0  0
 16 42  1  0  0  0  0
 17 18  1  0  0  0  0
 18 19  1  0  0  0  0
 18 20  1  0  0  0  0
 18 43  1  0  0  0  0
 19 44  1  0  0  0  0
 19 45  1  0  0  0  0
 19 46  1  0  0  0  0
 20 47  1  0  0  0  0
 20 48  1  0  0  0  0
 21 22  2  0  0  0  0
 21 49  1  0  0  0  0
 22 23  1  0  0  0  0
 22 50  1  0  0  0  0
 23 24  2  0  0  0  0
M  CHG  1  13   1
M  END
> <s_m_source_file>
AV-unprocessed.smi

> <i_m_source_file_index>
2001

> <i_lp_mmshare_version>
43012

> <i_f3d_flags>
0

> <s_epik_input>
W0NIM11PW0NIMl1bQ0gyXW4xbmMoW2NIXVtjSF1jMT1PKUMoPU8pW05IXVtDSDJdW0NIMl1OMltDSDJdW0NAQEhdKFtDSDNdKU9bQ0BASF0oW0NIM10pW0NIMl0y

> <s_epik_cmdline>
J2VwaWtfcHl0aG9uJywgJy1waCcsICc3LjAnLCAnLXRuJywgJzgnLCAnLW1hJywgJzIwMCcsICctbWV0YWxfYmluZGluZycsICctaW1hZScsICc8aW5maWxlLm1hZT4nLCAnLW9tYWUnLCAnPG91dGZpbGUubWFlPic=

> <r_lp_tautomer_probability>
1

> <r_epik_Ionization_Penalty>
0.724354

> <r_epik_Ionization_Penalty_Charging>
0.724348

> <r_epik_Ionization_Penalty_Neutral>
6.1656e-06

> <r_epik_State_Penalty>
0.749058

> <r_epik_Charging_Adjusted_Penalty>
1.47341

> <i_epik_Tot_Q>
1

> <i_epik_Tot_abs_Q>
1

> <r_epik_Metal_State_Penalty>
0.750779

> <b_epik_Metal_Only>
0

> <s_lp_Force_Field>
OPLS_2005

> <r_lp_Energy>
40.2507

> <b_lp_Chiralities_Consistent>
1

> <s_lp_Variant>
AV-unprocessed.smi:2001-5

> <Gold.Version>
5.8.1

> <Gold.Id.Protein>
6NUR|6NUR_protein|mol2

> <Gold.PLP.Fitness>
52.7199

> <Gold.PLP.PLP>
-44.0242

> <Gold.PLP.part.hbond>
-4.0000

> <Gold.PLP.part.metal>
0.0000

> <Gold.PLP.part.buried>
-0.4811

> <Gold.PLP.part.nonpolar>
-40.0317

> <Gold.PLP.part.repulsive>
0.4254

> <Gold.PLP.ligand.clash>
0.0000

> <Gold.PLP.ligand.torsion>
1.3520

> <Gold.PLP.Chemscore.Hbond>
3.7200

> <Gold.PLP.Chemscore.CHOScore>
0.0000

> <Gold.PLP.Chemscore.Metal>
0.0000

> <Gold.Chemscore.Hbonds>
donor molecule, donor type, donor heavy atom, donor atom, acceptor molecule, acceptor atom, score
      L1  H    10    32       P1  7948  0.77
      L1  H    13    51       P1  7948  1.76
      P1  H  7997  8008       L1    24  1.00

> <Gold.PLP.Chemscore.Internal.Correction>
0.2397

> <Gold.Rescore>
     Score         DG    S(hbond)    S(metal)    S(lipo)     H(rot)  DE(clash)    DE(int)     intcor
     17.00     -19.41       2.66        0.00      88.44       2.07       1.08       1.33       ----

> <Gold.Chemscore.Fitness>
17.0030

> <Gold.Chemscore.DG>
-19.4088

> <Gold.Chemscore.ZeroCoef>
-5.4800

> <Gold.Chemscore.Hbond>
2.6604

> <Gold.Chemscore.Metal>
0.0000

> <Gold.Chemscore.Lipo>
88.4436

> <Gold.Chemscore.Internal_Hbond>
0.0000

> <Gold.Chemscore.DEClash>
1.0764

> <Gold.Chemscore.DEInternal>
1.3293

> <Gold.Chemscore.Rot>
2.0721

> <Gold.Chemscore.Internal.Correction>
   9.000000E+99

> <Gold.Chemscore.Hbonds>
donor molecule, donor type, donor heavy atom, donor atom, acceptor molecule, acceptor atom, score
      L1  H    10    32       P1  7948  0.72
      L1  H    13    51       P1  7948  0.85
      P1  H  7997  8008       L1    24  1.00

> <Gold.Chemscore.Hbond.Weighted>
-8.8856

> <Gold.Chemscore.Metal.Weighted>
-0.0000

> <Gold.Chemscore.Lipo.Weighted>
-10.3479

> <Gold.Chemscore.Internal_Hbond.Weighted>
0.0000

> <Gold.Chemscore.DEClash.Weighted>
1.0764

> <Gold.Chemscore.DEInternal.Weighted>
1.3293

> <Gold.Chemscore.Rot.Weighted>
5.3047

> <Gold.Chemscore.Internal.Correction.Weighted>
   9.000000E+99

> <Gold.Protein.RotatedTorsions>
[ 6907 6896 6895 6894 ] final   -1.84 input  -60.11 | X-H torsion
[ 7974 7965 7964 7962 ] final   99.65 input  175.53 | X-H torsion
[ 8008 7997 7996 7995 ] final  -40.10 input   59.86 | X-H torsion
[ 10167 10162 10161 10158 ] final -144.17 input  -65.29 | X-H torsion
[ 10718 10713 10712 10709 ] final  -75.98 input   66.30 | X-H torsion
[ 10763 10752 10751 10750 ] final -116.26 input  -60.55 | X-H torsion
[ 11005 11000 10999 10996 ] final   31.01 input  -57.11 | X-H torsion

> <Gold.Protein.ActiveResidues>
 VAL166  LYS551  ARG553  GLY616  TRP617  ASP618  TYR619  PRO620  LYS621  CYS622 
 ASP623  PHE694  ASN695  SER759  ASP760  ASP761  ALA762  ILE779  LEU786  VAL792 
 PHE793  MET794  SER795  GLU796  ALA797  LYS798  CYS799  TRP800  GLU811  SER814 

> <Gold.Protein.RotatedAtoms>
  151.5395  135.1068  159.9922 H   0  0  0  0  0  0  0  0  0  0  0  0  # atno 6907 bound_to 6896
  152.4542  133.7685  159.6796 H   0  0  0  0  0  0  0  0  0  0  0  0  # atno 6908 bound_to 6896
  150.8480  133.7765  159.3060 H   0  0  0  0  0  0  0  0  0  0  0  0  # atno 6909 bound_to 6896
  145.3961  139.2355  143.3325 H   0  0  0  0  0  0  0  0  0  0  0  0  # atno 7974 bound_to 7965
  154.4015  140.1534  156.2972 H   0  0  0  0  0  0  0  0  0  0  0  0  # atno 8008 bound_to 7997
  155.8732  140.3447  155.5814 H   0  0  0  0  0  0  0  0  0  0  0  0  # atno 8009 bound_to 7997
  155.7750  140.0835  157.2079 H   0  0  0  0  0  0  0  0  0  0  0  0  # atno 8010 bound_to 7997
  139.7924  143.7948  152.2651 H   0  0  0  0  0  0  0  0  0  0  0  0  # atno 10167 bound_to 10162
  156.0190  130.4454  150.3125 H   0  0  0  0  0  0  0  0  0  0  0  0  # atno 10718 bound_to 10713
  154.8513  135.4352  154.1793 H   0  0  0  0  0  0  0  0  0  0  0  0  # atno 10763 bound_to 10752
  153.2888  135.6959  153.7319 H   0  0  0  0  0  0  0  0  0  0  0  0  # atno 10764 bound_to 10752
  153.6495  135.3454  155.3070 H   0  0  0  0  0  0  0  0  0  0  0  0  # atno 10765 bound_to 10752
  140.2884  134.2893  155.7782 H   0  0  0  0  0  0  0  0  0  0  0  0  # atno 11005 bound_to 11000
  146.2774  140.4651  142.8790 LP  0  0  0  0  0  0  0  0  0  0  0  0  # atno 17320 bound_to 7965
  144.8406  140.6852  143.6231 LP  0  0  0  0  0  0  0  0  0  0  0  0  # atno 17321 bound_to 7965
  139.8043  144.7361  150.9783 LP  0  0  0  0  0  0  0  0  0  0  0  0  # atno 17342 bound_to 10162
  140.7820  143.4314  151.0689 LP  0  0  0  0  0  0  0  0  0  0  0  0  # atno 17343 bound_to 10162
  157.1226  131.0251  151.3003 LP  0  0  0  0  0  0  0  0  0  0  0  0  # atno 17370 bound_to 10713
  157.4616  130.7656  149.7241 LP  0  0  0  0  0  0  0  0  0  0  0  0  # atno 17371 bound_to 10713
  141.2150  133.7569  156.9587 LP  0  0  0  0  0  0  0  0  0  0  0  0  # atno 17394 bound_to 11000
  140.1218  134.9412  157.2214 LP  0  0  0  0  0  0  0  0  0  0  0  0  # atno 17395 bound_to 11000

$$$$
