#       Name:                AV-unprocessed.smi:3112
#       Creating user name   scv26
#       Creation time:       Fri Mar 27 17:22:51 2020


#       File generated by GOLD software.
#

@<TRIPOS>MOLECULE
AV-unprocessed.smi:3112
    40    40     1
SMALL
NO_CHARGES


@<TRIPOS>ATOM
      1 ****        -4.1705   1.1662   0.6970 C.3            1 S1                 0.0000
      2 ****        -3.5510   1.6217  -0.6342 C.3            1 S1                 0.0000
      3 ****        -2.0125   1.5396  -0.6916 C.3            1 S1                 0.0000
      4 ****        -1.4708   2.4158   0.2759 O.3            1 S1                 0.0000
      5 ****        -1.4705   0.1219  -0.4407 C.3            1 S1                 0.0000
      6 ****        -0.1274  -0.0321  -0.9988 N.3            1 S1                 0.0000
      7 ****         0.5066  -1.3386  -0.7864 C.3            1 S1                 0.0000
      8 ****         1.4309  -1.6296  -1.9811 C.3            1 S1                 0.0000
      9 ****         1.2777  -1.4509   0.5644 C.3            1 S1                 0.0000
     10 ****         0.4025  -1.4626   1.8320 C.3            1 S1                 0.0000
     11 ****         2.3870  -0.5069   0.6756 N.pl3          1 S1                 0.0000
     12 ****         3.7244  -0.7342   0.4199 C.2            1 S1                 0.0000
     13 ****         4.3898   0.4388   0.6324 C.2            1 S1                 0.0000
     14 ****         3.3622   1.3445   1.0150 C.2            1 S1                 0.0000
     15 ****         2.1669   0.7791   1.0350 N.2            1 S1                 0.0000
     16 ****        -5.2556   1.2652   0.6690 H              1 S1                 0.0000
     17 ****        -3.8081   1.7652   1.5325 H              1 S1                 0.0000
     18 ****        -3.9433   0.1214   0.9089 H              1 S1                 0.0000
     19 ****        -3.9699   1.0189  -1.4407 H              1 S1                 0.0000
     20 ****        -3.8632   2.6468  -0.8377 H              1 S1                 0.0000
     21 ****        -1.6951   1.8849  -1.6768 H              1 S1                 0.0000
     22 ****        -0.5288   2.3380   0.2524 H              1 S1                 0.0000
     23 ****        -1.5052  -0.1079   0.6208 H              1 S1                 0.0000
     24 ****        -2.1304  -0.5975  -0.9268 H              1 S1                 0.0000
     25 ****        -0.1560   0.1723  -1.9925 H              1 S1                 0.0000
     26 ****        -0.2628  -2.1117  -0.8006 H              1 S1                 0.0000
     27 ****         1.9224  -2.5968  -1.8731 H              1 S1                 0.0000
     28 ****         2.2073  -0.8714  -2.0889 H              1 S1                 0.0000
     29 ****         0.8668  -1.6549  -2.9138 H              1 S1                 0.0000
     30 ****         1.7379  -2.4402   0.5487 H              1 S1                 0.0000
     31 ****        -0.4340  -2.1539   1.7280 H              1 S1                 0.0000
     32 ****         0.0020  -0.4783   2.0711 H              1 S1                 0.0000
     33 ****         0.9859  -1.7826   2.6956 H              1 S1                 0.0000
     34 ****         4.0870  -1.7026   0.1080 H              1 S1                 0.0000
     35 ****         5.4485   0.6228   0.5273 H              1 S1                 0.0000
     36 ****         3.4482   2.3892   1.2747 H              1 S1                 0.0000
     37 ****        -1.8081   2.1672   1.1839 LP             1 S1                 0.0000
     38 ****        -1.7377   3.3567   0.0672 LP             1 S1                 0.0000
     39 ****         0.4442   0.6162  -0.4958 LP             1 S1                 0.0000
     40 ****         1.2931   1.2074   1.2650 LP             1 S1                 0.0000
@<TRIPOS>BOND
    1    1    2 1     
    2    1   16 1     
    3    1   17 1     
    4    1   18 1     
    5    2    3 1     
    6    2   19 1     
    7    2   20 1     
    8    3    4 1     
    9    3    5 1     
   10    3   21 1     
   11    4   22 1     
   12    5    6 1     
   13    5   23 1     
   14    5   24 1     
   15    6    7 1     
   16    6   25 1     
   17    7    8 1     
   18    7    9 1     
   19    7   26 1     
   20    8   27 1     
   21    8   28 1     
   22    8   29 1     
   23    9   10 1     
   24    9   11 1     
   25    9   30 1     
   26   10   31 1     
   27   10   32 1     
   28   10   33 1     
   29   11   15 1     
   30   11   12 1     
   31   12   13 2     
   32   12   34 1     
   33   13   14 1     
   34   13   35 1     
   35   14   15 2     
   36   14   36 1     
   37    4   37 1     
   38    4   38 1     
   39    6   39 1     
   40   15   40 1     
@<TRIPOS>SUBSTRUCTURE
      1 S1             1
@<TRIPOS>SET
LONE_PAIRS      STATIC     ATOMS    <user>   **** ""
4 37 38 39 40
DONOR_HYDROGENS      STATIC     ATOMS    <user>   **** ""
2 22 25
ATOM$BLUE        STATIC     ATOMS    COLORGROUP SYSTEM
4 37 38 39 40
ATOM$RED        STATIC     ATOMS    COLORGROUP SYSTEM
2 22 25
