AV-unprocessed.smi:1190|AV-procd|sdf|4980|dock7
  -GOLD-   22720 3573D 1   1.00000     0.00000
 Structure written by MMmdl.
 43 44  0  0  0  0  0  0  0  0  1 V2000
  149.0801  129.9360  154.0176 C   0  0  0  0  0  0  0  0  0  0  0  0
  149.9183  130.5191  155.0094 O   0  0  0  0  0  0  0  0  0  0  0  0
  149.9915  131.8953  155.0783 C   0  0  0  0  0  0  0  0  0  0  0  0
  150.8885  132.4770  155.9957 C   0  0  0  0  0  0  0  0  0  0  0  0
  150.9671  133.8802  156.0693 C   0  0  0  0  0  0  0  0  0  0  0  0
  150.1472  134.6620  155.2308 C   0  0  0  0  0  0  0  0  0  0  0  0
  150.2679  136.0756  155.3221 N   0  0  0  0  0  0  0  0  0  0  0  0
  151.2575  136.8080  155.8611 C   0  0  0  0  0  0  0  0  0  0  0  0
  152.2861  136.3590  156.3659 O   0  0  0  0  0  0  0  0  0  0  0  0
  150.9860  138.1175  155.7731 N   0  0  0  0  0  0  0  0  0  0  0  0
  151.8213  139.1999  156.2901 C   0  0  0  0  0  0  0  0  0  0  0  0
  152.2918  138.9358  157.7448 C   0  0  2  0  0  0  0  0  0  0  0  0
  151.0586  138.5558  158.5956 C   0  0  0  0  0  0  0  0  0  0  0  0
  153.0943  140.0347  158.3262 N   0  0  0  0  0  0  0  0  0  0  0  0
  152.3092  141.2540  158.5403 C   0  0  0  0  0  0  0  0  0  0  0  0
  153.1417  142.3913  159.1573 C   0  0  0  0  0  0  0  0  0  0  0  0
  153.7131  141.9546  160.3837 O   0  0  0  0  0  0  0  0  0  0  0  0
  154.5391  140.8102  160.2137 C   0  0  0  0  0  0  0  0  0  0  0  0
  153.7163  139.6635  159.6009 C   0  0  0  0  0  0  0  0  0  0  0  0
  149.2856  133.9822  154.3345 C   0  0  0  0  0  0  0  0  0  0  0  0
  149.2046  132.6365  154.2601 N   0  0  0  0  0  0  0  0  0  0  0  0
  149.1423  128.8501  154.0851 H   0  0  0  0  0  0  0  0  0  0  0  0
  149.3909  130.2220  153.0117 H   0  0  0  0  0  0  0  0  0  0  0  0
  148.0364  130.2176  154.1638 H   0  0  0  0  0  0  0  0  0  0  0  0
  151.5060  131.8581  156.6301 H   0  0  0  0  0  0  0  0  0  0  0  0
  151.6495  134.3482  156.7641 H   0  0  0  0  0  0  0  0  0  0  0  0
  149.5181  136.5982  154.8936 H   0  0  0  0  0  0  0  0  0  0  0  0
  150.1150  138.3909  155.3422 H   0  0  0  0  0  0  0  0  0  0  0  0
  152.6838  139.3683  155.6432 H   0  0  0  0  0  0  0  0  0  0  0  0
  151.2537  140.1276  156.2272 H   0  0  0  0  0  0  0  0  0  0  0  0
  152.9222  138.0462  157.7054 H   0  0  0  0  0  0  0  0  0  0  0  0
  150.4292  137.8313  158.0778 H   0  0  0  0  0  0  0  0  0  0  0  0
  150.4417  139.4267  158.8186 H   0  0  0  0  0  0  0  0  0  0  0  0
  151.3402  138.0921  159.5404 H   0  0  0  0  0  0  0  0  0  0  0  0
  151.9050  141.6192  157.5972 H   0  0  0  0  0  0  0  0  0  0  0  0
  151.4574  141.0374  159.1867 H   0  0  0  0  0  0  0  0  0  0  0  0
  153.9292  142.7088  158.4720 H   0  0  0  0  0  0  0  0  0  0  0  0
  152.5129  143.2611  159.3474 H   0  0  0  0  0  0  0  0  0  0  0  0
  155.3905  141.0573  159.5776 H   0  0  0  0  0  0  0  0  0  0  0  0
  154.9391  140.5127  161.1832 H   0  0  0  0  0  0  0  0  0  0  0  0
  152.9482  139.3508  160.3099 H   0  0  0  0  0  0  0  0  0  0  0  0
  154.3867  138.8161  159.4681 H   0  0  0  0  0  0  0  0  0  0  0  0
  148.6505  134.5046  153.6374 H   0  0  0  0  0  0  0  0  0  0  0  0
  1  2  1  0  0  0  0
  1 22  1  0  0  0  0
  1 23  1  0  0  0  0
  1 24  1  0  0  0  0
  2  3  1  0  0  0  0
  3 21  1  0  0  0  0
  3  4  2  0  0  0  0
  4  5  1  0  0  0  0
  4 25  1  0  0  0  0
  5  6  2  0  0  0  0
  5 26  1  0  0  0  0
  6  7  1  0  0  0  0
  6 20  1  0  0  0  0
  7  8  1  0  0  0  0
  7 27  1  0  0  0  0
  8  9  2  0  0  0  0
  8 10  1  0  0  0  0
 10 11  1  0  0  0  0
 10 28  1  0  0  0  0
 11 12  1  0  0  0  0
 11 29  1  0  0  0  0
 11 30  1  0  0  0  0
 12 13  1  0  0  0  0
 12 14  1  0  0  0  0
 12 31  1  0  0  0  0
 13 32  1  0  0  0  0
 13 33  1  0  0  0  0
 13 34  1  0  0  0  0
 14 19  1  0  0  0  0
 14 15  1  0  0  0  0
 15 16  1  0  0  0  0
 15 35  1  0  0  0  0
 15 36  1  0  0  0  0
 16 17  1  0  0  0  0
 16 37  1  0  0  0  0
 16 38  1  0  0  0  0
 17 18  1  0  0  0  0
 18 19  1  0  0  0  0
 18 39  1  0  0  0  0
 18 40  1  0  0  0  0
 19 41  1  0  0  0  0
 19 42  1  0  0  0  0
 20 21  2  0  0  0  0
 20 43  1  0  0  0  0
M  END
> <s_m_source_file>
AV-unprocessed.smi

> <i_m_source_file_index>
1190

> <i_lp_mmshare_version>
43012

> <i_f3d_flags>
0

> <s_epik_input>
W0NIM11PYzFbY0hdW2NIXWMoW2NIXW4xKVtOSF1DKD1PKVtOSF1bQ0gyXVtDQEhdKFtDSDNdKU4yW0NIMl1bQ0gyXU9bQ0gyXVtDSDJdMg==

> <s_epik_cmdline>
J2VwaWtfcHl0aG9uJywgJy1waCcsICc3LjAnLCAnLXRuJywgJzgnLCAnLW1hJywgJzIwMCcsICctbWV0YWxfYmluZGluZycsICctaW1hZScsICc8aW5maWxlLm1hZT4nLCAnLW9tYWUnLCAnPG91dGZpbGUubWFlPic=

> <r_lp_tautomer_probability>
1

> <r_epik_Ionization_Penalty>
0.266084

> <r_epik_Ionization_Penalty_Charging>
0

> <r_epik_Ionization_Penalty_Neutral>
0.266084

> <r_epik_State_Penalty>
0.257924

> <r_epik_Charging_Adjusted_Penalty>
0.257924

> <i_epik_Tot_Q>
0

> <i_epik_Tot_abs_Q>
0

> <r_epik_Metal_State_Penalty>
0.257922

> <b_epik_Metal_Only>
0

> <s_lp_Force_Field>
OPLS_2005

> <r_lp_Energy>
36.3321

> <b_lp_Chiralities_Consistent>
1

> <s_lp_Variant>
AV-unprocessed.smi:1190-1

> <Gold.Version>
5.8.1

> <Gold.Id.Protein>
6NUR|6NUR_protein|mol2

> <Gold.PLP.Fitness>
40.3365

> <Gold.PLP.PLP>
-31.7799

> <Gold.PLP.part.hbond>
-2.0000

> <Gold.PLP.part.metal>
0.0000

> <Gold.PLP.part.buried>
-5.8565

> <Gold.PLP.part.nonpolar>
-23.9562

> <Gold.PLP.part.repulsive>
0.2421

> <Gold.PLP.ligand.clash>
0.0000

> <Gold.PLP.ligand.torsion>
0.2358

> <Gold.PLP.Chemscore.Hbond>
1.9913

> <Gold.PLP.Chemscore.CHOScore>
1.0000

> <Gold.PLP.Chemscore.Metal>
0.0000

> <Gold.Chemscore.Hbonds>
donor molecule, donor type, donor heavy atom, donor atom, acceptor molecule, acceptor atom, score
      P1  H  7997  8010       L1    14  1.00
      P1  H 10752 10763       L1     9  1.00
      L1  C    20    43       P1  7948  1.00

> <Gold.PLP.Chemscore.Internal.Correction>
0.0545

> <Gold.Rescore>
     Score         DG    S(hbond)    S(metal)    S(lipo)     H(rot)  DE(clash)    DE(int)     intcor
     11.07     -13.79       1.17        0.00      75.35       1.73       0.01       2.71       ----

> <Gold.Chemscore.Fitness>
11.0733

> <Gold.Chemscore.DG>
-13.7932

> <Gold.Chemscore.ZeroCoef>
-5.4800

> <Gold.Chemscore.Hbond>
1.1750

> <Gold.Chemscore.Metal>
0.0000

> <Gold.Chemscore.Lipo>
75.3475

> <Gold.Chemscore.Internal_Hbond>
0.0000

> <Gold.Chemscore.DEClash>
0.0079

> <Gold.Chemscore.DEInternal>
2.7119

> <Gold.Chemscore.Rot>
1.7292

> <Gold.Chemscore.Internal.Correction>
   9.000000E+99

> <Gold.Chemscore.Hbonds>
donor molecule, donor type, donor heavy atom, donor atom, acceptor molecule, acceptor atom, score
      P1  H  7997  8010       L1    14  0.08
      P1  H 10752 10763       L1     9  0.82

> <Gold.Chemscore.Hbond.Weighted>
-3.9243

> <Gold.Chemscore.Metal.Weighted>
-0.0000

> <Gold.Chemscore.Lipo.Weighted>
-8.8157

> <Gold.Chemscore.Internal_Hbond.Weighted>
0.0000

> <Gold.Chemscore.DEClash.Weighted>
0.0079

> <Gold.Chemscore.DEInternal.Weighted>
2.7119

> <Gold.Chemscore.Rot.Weighted>
4.4268

> <Gold.Chemscore.Internal.Correction.Weighted>
   9.000000E+99

> <Gold.Protein.RotatedTorsions>
[ 6907 6896 6895 6894 ] final  -39.25 input  -60.11 | X-H torsion
[ 7974 7965 7964 7962 ] final  -89.74 input  175.53 | X-H torsion
[ 8008 7997 7996 7995 ] final   26.71 input   59.86 | X-H torsion
[ 10167 10162 10161 10158 ] final  -92.50 input  -65.29 | X-H torsion
[ 10718 10713 10712 10709 ] final    8.42 input   66.30 | X-H torsion
[ 10763 10752 10751 10750 ] final  100.03 input  -60.55 | X-H torsion
[ 11005 11000 10999 10996 ] final   79.72 input  -57.11 | X-H torsion

> <Gold.Protein.ActiveResidues>
 VAL166  LYS551  ARG553  GLY616  TRP617  ASP618  TYR619  PRO620  LYS621  CYS622 
 ASP623  PHE694  ASN695  SER759  ASP760  ASP761  ALA762  ILE779  LEU786  VAL792 
 PHE793  MET794  SER795  GLU796  ALA797  LYS798  CYS799  TRP800  GLU811  SER814 

> <Gold.Protein.RotatedAtoms>
  150.9926  134.9257  159.7907 H   0  0  0  0  0  0  0  0  0  0  0  0  # atno 6907 bound_to 6896
  152.5255  134.3261  159.9176 H   0  0  0  0  0  0  0  0  0  0  0  0  # atno 6908 bound_to 6896
  151.3267  133.3976  159.2693 H   0  0  0  0  0  0  0  0  0  0  0  0  # atno 6909 bound_to 6896
  145.4357  140.9557  143.2103 H   0  0  0  0  0  0  0  0  0  0  0  0  # atno 7974 bound_to 7965
  155.0316  140.3159  155.4756 H   0  0  0  0  0  0  0  0  0  0  0  0  # atno 8008 bound_to 7997
  156.2873  140.2179  156.5380 H   0  0  0  0  0  0  0  0  0  0  0  0  # atno 8009 bound_to 7997
  154.7366  140.0477  157.0762 H   0  0  0  0  0  0  0  0  0  0  0  0  # atno 8010 bound_to 7997
  140.3341  143.2978  151.9908 H   0  0  0  0  0  0  0  0  0  0  0  0  # atno 10167 bound_to 10162
  156.9513  130.5898  149.5657 H   0  0  0  0  0  0  0  0  0  0  0  0  # atno 10718 bound_to 10713
  153.3088  135.4093  155.1318 H   0  0  0  0  0  0  0  0  0  0  0  0  # atno 10763 bound_to 10752
  154.8570  135.3559  154.5751 H   0  0  0  0  0  0  0  0  0  0  0  0  # atno 10764 bound_to 10752
  153.6180  135.7065  153.5380 H   0  0  0  0  0  0  0  0  0  0  0  0  # atno 10765 bound_to 10752
  139.9162  134.7864  156.1815 H   0  0  0  0  0  0  0  0  0  0  0  0  # atno 11005 bound_to 11000
  144.8154  139.5887  143.7011 LP  0  0  0  0  0  0  0  0  0  0  0  0  # atno 17320 bound_to 7965
  146.2583  139.6352  142.9379 LP  0  0  0  0  0  0  0  0  0  0  0  0  # atno 17321 bound_to 7965
  139.4851  144.6210  151.7254 LP  0  0  0  0  0  0  0  0  0  0  0  0  # atno 17342 bound_to 10162
  140.5369  144.0641  150.6074 LP  0  0  0  0  0  0  0  0  0  0  0  0  # atno 17343 bound_to 10162
  156.0361  130.5449  150.8658 LP  0  0  0  0  0  0  0  0  0  0  0  0  # atno 17370 bound_to 10713
  157.5720  131.0946  150.9404 LP  0  0  0  0  0  0  0  0  0  0  0  0  # atno 17371 bound_to 10713
  141.0639  133.6828  156.2006 LP  0  0  0  0  0  0  0  0  0  0  0  0  # atno 17394 bound_to 11000
  140.6616  134.4961  157.5583 LP  0  0  0  0  0  0  0  0  0  0  0  0  # atno 17395 bound_to 11000

$$$$
