AV-unprocessed.smi:2751|AV-procd|sdf|10603|dock1
  -GOLD-   2272015 53D 1   1.00000     0.00000
 Structure written by MMmdl.
 33 34  0  0  0  0  0  0  0  0  2 V2000
  153.1814  138.9851  157.6889 O   0  0  0  0  0  0  0  0  0  0  0  0
  152.3586  139.9037  157.6674 C   0  0  0  0  0  0  0  0  0  0  0  0
  152.2464  140.7254  158.7214 N   0  0  0  0  0  0  0  0  0  0  0  0
  153.0269  140.6491  159.9519 C   0  0  0  0  0  0  0  0  0  0  0  0
  152.6340  141.7594  160.9418 C   0  0  0  0  0  0  0  0  0  0  0  0
  152.8029  143.1698  160.3554 C   0  0  2  0  0  0  0  0  0  0  0  0
  152.1494  144.2457  161.2446 C   0  0  0  0  0  0  0  0  0  0  0  0
  152.2719  145.6293  160.5959 C   0  0  0  0  0  0  0  0  0  0  0  0
  151.7247  145.5798  159.1655 C   0  0  0  0  0  0  0  0  0  0  0  0
  152.3875  144.4376  158.3794 C   0  0  0  0  0  0  0  0  0  0  0  0
  152.1967  143.2033  159.0640 O   0  0  0  0  0  0  0  0  0  0  0  0
  151.5100  140.1955  156.6556 N   0  5  0  0  0  0  0  0  0  0  0  0
  151.0821  139.2189  155.8393 C   0  0  0  0  0  0  0  0  0  0  0  0
  151.1939  137.9062  156.0502 N   0  0  0  0  0  0  0  0  0  0  0  0
  150.6232  137.2947  154.9445 C   0  0  0  0  0  0  0  0  0  0  0  0
  150.1896  138.2782  154.0982 C   0  0  0  0  0  0  0  0  0  0  0  0
  150.4782  139.4961  154.6488 O   0  0  0  0  0  0  0  0  0  0  0  0
  151.5609  141.4642  158.6614 H   0  0  0  0  0  0  0  0  0  0  0  0
  152.9096  139.6658  160.4103 H   0  0  0  0  0  0  0  0  0  0  0  0
  154.0799  140.7420  159.6857 H   0  0  0  0  0  0  0  0  0  0  0  0
  151.6021  141.6170  161.2655 H   0  0  0  0  0  0  0  0  0  0  0  0
  153.2503  141.6732  161.8376 H   0  0  0  0  0  0  0  0  0  0  0  0
  153.8691  143.3829  160.2576 H   0  0  0  0  0  0  0  0  0  0  0  0
  151.0960  144.0068  161.3979 H   0  0  0  0  0  0  0  0  0  0  0  0
  152.6143  144.2555  162.2310 H   0  0  0  0  0  0  0  0  0  0  0  0
  151.7359  146.3747  161.1835 H   0  0  0  0  0  0  0  0  0  0  0  0
  153.3188  145.9350  160.5788 H   0  0  0  0  0  0  0  0  0  0  0  0
  150.6455  145.4245  159.1912 H   0  0  0  0  0  0  0  0  0  0  0  0
  151.8929  146.5326  158.6629 H   0  0  0  0  0  0  0  0  0  0  0  0
  151.9454  144.3607  157.3862 H   0  0  0  0  0  0  0  0  0  0  0  0
  153.4527  144.6275  158.2397 H   0  0  0  0  0  0  0  0  0  0  0  0
  150.5718  136.2204  154.8488 H   0  0  0  0  0  0  0  0  0  0  0  0
  149.6960  138.2821  153.1381 H   0  0  0  0  0  0  0  0  0  0  0  0
  1  2  2  0  0  0  0
  2 12  1  0  0  0  0
  2  3  1  0  0  0  0
  3  4  1  0  0  0  0
  3 18  1  0  0  0  0
  4  5  1  0  0  0  0
  4 19  1  0  0  0  0
  4 20  1  0  0  0  0
  5  6  1  0  0  0  0
  5 21  1  0  0  0  0
  5 22  1  0  0  0  0
  6 11  1  0  0  0  0
  6  7  1  0  0  0  0
  6 23  1  0  0  0  0
  7  8  1  0  0  0  0
  7 24  1  0  0  0  0
  7 25  1  0  0  0  0
  8  9  1  0  0  0  0
  8 26  1  0  0  0  0
  8 27  1  0  0  0  0
  9 10  1  0  0  0  0
  9 28  1  0  0  0  0
  9 29  1  0  0  0  0
 10 11  1  0  0  0  0
 10 30  1  0  0  0  0
 10 31  1  0  0  0  0
 12 13  1  0  0  0  0
 13 17  1  0  0  0  0
 13 14  2  0  0  0  0
 14 15  1  0  0  0  0
 15 32  1  0  0  0  0
 15 16  2  0  0  0  0
 16 33  1  0  0  0  0
 16 17  1  0  0  0  0
M  CHG  1  12  -1
M  END
> <s_m_source_file>
AV-unprocessed.smi

> <i_m_source_file_index>
2751

> <i_lp_mmshare_version>
43012

> <i_f3d_flags>
0

> <s_epik_input>
bzFbY0hdW2NIXW5jMVtOSF1DKD1PKVtOSF1bQ0gyXVtDSDJdW0NAQEhdMltDSDJdW0NIMl1bQ0gyXVtDSDJdTzI=

> <s_epik_cmdline>
J2VwaWtfcHl0aG9uJywgJy1waCcsICc3LjAnLCAnLXRuJywgJzgnLCAnLW1hJywgJzIwMCcsICctbWV0YWxfYmluZGluZycsICctaW1hZScsICc8aW5maWxlLm1hZT4nLCAnLW9tYWUnLCAnPG91dGZpbGUubWFlPic=

> <r_lp_tautomer_probability>
0.107061

> <r_epik_Ionization_Penalty>
11.077

> <r_epik_Ionization_Penalty_Charging>
7.79122

> <r_epik_Ionization_Penalty_Neutral>
3.28583

> <r_epik_State_Penalty>
5.8984

> <r_epik_Charging_Adjusted_Penalty>
13.6896

> <i_epik_Tot_Q>
-1

> <i_epik_Tot_abs_Q>
1

> <r_epik_Metal_State_Penalty>
1.82322

> <b_epik_Metal_Only>
1

> <s_lp_Force_Field>
OPLS_2005

> <r_lp_Energy>
3.95886

> <b_lp_Chiralities_Consistent>
1

> <s_lp_Variant>
AV-unprocessed.smi:2751-9

> <Gold.Version>
5.8.1

> <Gold.Id.Protein>
6NUR|6NUR_protein|mol2

> <Gold.PLP.Fitness>
45.8775

> <Gold.PLP.PLP>
-35.0314

> <Gold.PLP.part.hbond>
-2.0000

> <Gold.PLP.part.metal>
0.0000

> <Gold.PLP.part.buried>
-2.0013

> <Gold.PLP.part.nonpolar>
-31.3387

> <Gold.PLP.part.repulsive>
0.2435

> <Gold.PLP.ligand.clash>
0.0000

> <Gold.PLP.ligand.torsion>
0.2861

> <Gold.PLP.Chemscore.Hbond>
1.9440

> <Gold.PLP.Chemscore.CHOScore>
1.8446

> <Gold.PLP.Chemscore.Metal>
0.0000

> <Gold.Chemscore.Hbonds>
donor molecule, donor type, donor heavy atom, donor atom, acceptor molecule, acceptor atom, score
      P1  H  7989  7998       L1    17  0.75
      P1  H  7997  8008       L1     1  0.90
      L1  C    16    33       P1  7948  0.92
      L1  C    16    33       P1  7957  0.75

> <Gold.PLP.Chemscore.Internal.Correction>
0.0526

> <Gold.Rescore>
     Score         DG    S(hbond)    S(metal)    S(lipo)     H(rot)  DE(clash)    DE(int)     intcor
     13.46     -16.98       1.46        0.00      91.62       1.60       0.03       3.48       ----

> <Gold.Chemscore.Fitness>
13.4623

> <Gold.Chemscore.DG>
-16.9768

> <Gold.Chemscore.ZeroCoef>
-5.4800

> <Gold.Chemscore.Hbond>
1.4626

> <Gold.Chemscore.Metal>
0.0000

> <Gold.Chemscore.Lipo>
91.6242

> <Gold.Chemscore.Internal_Hbond>
0.0000

> <Gold.Chemscore.DEClash>
0.0323

> <Gold.Chemscore.DEInternal>
3.4822

> <Gold.Chemscore.Rot>
1.6048

> <Gold.Chemscore.Internal.Correction>
   9.000000E+99

> <Gold.Chemscore.Hbonds>
donor molecule, donor type, donor heavy atom, donor atom, acceptor molecule, acceptor atom, score
      P1  H  7989  7998       L1    17  0.59
      P1  H  7997  8008       L1     1  0.17

> <Gold.Chemscore.Hbond.Weighted>
-4.8850

> <Gold.Chemscore.Metal.Weighted>
-0.0000

> <Gold.Chemscore.Lipo.Weighted>
-10.7200

> <Gold.Chemscore.Internal_Hbond.Weighted>
0.0000

> <Gold.Chemscore.DEClash.Weighted>
0.0323

> <Gold.Chemscore.DEInternal.Weighted>
3.4822

> <Gold.Chemscore.Rot.Weighted>
4.1082

> <Gold.Chemscore.Internal.Correction.Weighted>
   9.000000E+99

> <Gold.Protein.RotatedTorsions>
[ 6907 6896 6895 6894 ] final -117.57 input  -60.11 | X-H torsion
[ 7974 7965 7964 7962 ] final   85.01 input  175.53 | X-H torsion
[ 8008 7997 7996 7995 ] final  -97.86 input   59.86 | X-H torsion
[ 10167 10162 10161 10158 ] final -156.80 input  -65.29 | X-H torsion
[ 10718 10713 10712 10709 ] final  127.64 input   66.30 | X-H torsion
[ 10763 10752 10751 10750 ] final   -2.89 input  -60.55 | X-H torsion
[ 11005 11000 10999 10996 ] final   77.14 input  -57.11 | X-H torsion

> <Gold.Protein.ActiveResidues>
 VAL166  LYS551  ARG553  GLY616  TRP617  ASP618  TYR619  PRO620  LYS621  CYS622 
 ASP623  PHE694  ASN695  SER759  ASP760  ASP761  ALA762  ILE779  LEU786  VAL792 
 PHE793  MET794  SER795  GLU796  ALA797  LYS798  CYS799  TRP800  GLU811  SER814 

> <Gold.Protein.RotatedAtoms>
  150.8147  133.8358  159.3165 H   0  0  0  0  0  0  0  0  0  0  0  0  # atno 6907 bound_to 6896
  151.6133  135.1036  160.0095 H   0  0  0  0  0  0  0  0  0  0  0  0  # atno 6908 bound_to 6896
  152.4239  133.7121  159.6542 H   0  0  0  0  0  0  0  0  0  0  0  0  # atno 6909 bound_to 6896
  145.5912  139.2338  143.2298 H   0  0  0  0  0  0  0  0  0  0  0  0  # atno 7974 bound_to 7965
  154.7934  140.0460  157.1218 H   0  0  0  0  0  0  0  0  0  0  0  0  # atno 8008 bound_to 7997
  154.9564  140.3072  155.5031 H   0  0  0  0  0  0  0  0  0  0  0  0  # atno 8009 bound_to 7997
  156.2953  140.2278  156.4646 H   0  0  0  0  0  0  0  0  0  0  0  0  # atno 8010 bound_to 7997
  139.6821  143.9563  152.2342 H   0  0  0  0  0  0  0  0  0  0  0  0  # atno 10167 bound_to 10162
  157.5315  131.1098  150.9001 H   0  0  0  0  0  0  0  0  0  0  0  0  # atno 10718 bound_to 10713
  153.3640  135.6991  153.6690 H   0  0  0  0  0  0  0  0  0  0  0  0  # atno 10763 bound_to 10752
  153.5367  135.3581  155.2700 H   0  0  0  0  0  0  0  0  0  0  0  0  # atno 10764 bound_to 10752
  154.8672  135.4193  154.2903 H   0  0  0  0  0  0  0  0  0  0  0  0  # atno 10765 bound_to 10752
  139.9267  134.7659  156.1485 H   0  0  0  0  0  0  0  0  0  0  0  0  # atno 11005 bound_to 11000
  146.1646  140.6738  142.9261 LP  0  0  0  0  0  0  0  0  0  0  0  0  # atno 17320 bound_to 7965
  144.7351  140.4784  143.6910 LP  0  0  0  0  0  0  0  0  0  0  0  0  # atno 17321 bound_to 7965
  139.9356  144.6714  150.8318 LP  0  0  0  0  0  0  0  0  0  0  0  0  # atno 17342 bound_to 10162
  140.7655  143.3279  151.2476 LP  0  0  0  0  0  0  0  0  0  0  0  0  # atno 17343 bound_to 10162
  156.9581  130.5445  149.5285 LP  0  0  0  0  0  0  0  0  0  0  0  0  # atno 17370 bound_to 10713
  156.0426  130.5507  150.8807 LP  0  0  0  0  0  0  0  0  0  0  0  0  # atno 17371 bound_to 10713
  141.0829  133.6746  156.2375 LP  0  0  0  0  0  0  0  0  0  0  0  0  # atno 17394 bound_to 11000
  140.6316  134.5258  157.5560 LP  0  0  0  0  0  0  0  0  0  0  0  0  # atno 17395 bound_to 11000

$$$$
