AV-unprocessed.smi:1582|AV-procd|sdf|6361|dock7
  -GOLD-   22720 6583D 1   1.00000     0.00000
 Structure written by MMmdl.
 41 42  0  0  0  0  0  0  0  0  2 V2000
  143.1498  135.8777  153.5258 O   0  0  0  0  0  0  0  0  0  0  0  0
  143.2689  137.0714  153.2498 C   0  0  0  0  0  0  0  0  0  0  0  0
  144.4235  137.6281  152.8580 N   0  0  0  0  0  0  0  0  0  0  0  0
  145.6954  136.9234  152.7335 C   0  0  0  0  0  0  0  0  0  0  0  0
  146.0659  136.6464  151.2614 C   0  0  2  0  0  0  0  0  0  0  0  0
  146.1810  137.8853  150.5891 O   0  0  0  0  0  0  0  0  0  0  0  0
  144.9607  135.8445  150.5427 C   0  0  0  0  0  0  0  0  0  0  0  0
  145.2475  134.3872  150.4923 N   0  3  0  0  0  0  0  0  0  0  0  0
  144.0140  133.5775  150.3130 C   0  0  0  0  0  0  0  0  0  0  0  0
  144.3469  132.0886  150.1198 C   0  0  0  0  0  0  0  0  0  0  0  0
  145.1816  131.5559  151.2910 C   0  0  0  0  0  0  0  0  0  0  0  0
  146.4333  132.4230  151.4761 C   0  0  0  0  0  0  0  0  0  0  0  0
  146.0574  133.9049  151.6436 C   0  0  0  0  0  0  0  0  0  0  0  0
  142.2794  137.9783  153.2968 N   0  0  0  0  0  0  0  0  0  0  0  0
  140.9335  137.7637  153.6880 C   0  0  0  0  0  0  0  0  0  0  0  0
  140.4954  136.7107  154.5364 C   0  0  0  0  0  0  0  0  0  0  0  0
  139.1845  136.7559  154.7261 N   0  0  0  0  0  0  0  0  0  0  0  0
  138.7817  137.8284  154.0079 N   0  0  0  0  0  0  0  0  0  0  0  0
  139.8121  138.4728  153.3596 C   0  0  0  0  0  0  0  0  0  0  0  0
  137.8107  138.1046  153.9697 H   0  0  0  0  0  0  0  0  0  0  0  0
  144.4280  138.6164  152.6516 H   0  0  0  0  0  0  0  0  0  0  0  0
  146.4419  137.5827  153.1771 H   0  0  0  0  0  0  0  0  0  0  0  0
  145.7080  136.0111  153.3331 H   0  0  0  0  0  0  0  0  0  0  0  0
  147.0171  136.1164  151.2153 H   0  0  0  0  0  0  0  0  0  0  0  0
  145.3110  138.2085  150.4042 H   0  0  0  0  0  0  0  0  0  0  0  0
  143.9947  136.0012  151.0253 H   0  0  0  0  0  0  0  0  0  0  0  0
  144.8577  136.2354  149.5289 H   0  0  0  0  0  0  0  0  0  0  0  0
  143.3618  133.7099  151.1777 H   0  0  0  0  0  0  0  0  0  0  0  0
  143.4627  133.9335  149.4418 H   0  0  0  0  0  0  0  0  0  0  0  0
  143.4275  131.5103  150.0236 H   0  0  0  0  0  0  0  0  0  0  0  0
  144.8962  131.9539  149.1868 H   0  0  0  0  0  0  0  0  0  0  0  0
  144.5857  131.5665  152.2046 H   0  0  0  0  0  0  0  0  0  0  0  0
  145.4636  130.5178  151.1129 H   0  0  0  0  0  0  0  0  0  0  0  0
  146.9982  132.0806  152.3438 H   0  0  0  0  0  0  0  0  0  0  0  0
  147.0909  132.3074  150.6133 H   0  0  0  0  0  0  0  0  0  0  0  0
  146.9711  134.4901  151.7385 H   0  0  0  0  0  0  0  0  0  0  0  0
  145.4962  134.0451  152.5688 H   0  0  0  0  0  0  0  0  0  0  0  0
  142.5160  138.9257  153.0408 H   0  0  0  0  0  0  0  0  0  0  0  0
  141.0728  135.9303  155.0102 H   0  0  0  0  0  0  0  0  0  0  0  0
  139.6518  139.3467  152.7457 H   0  0  0  0  0  0  0  0  0  0  0  0
  145.8004  134.2415  149.6593 H   0  0  0  0  0  0  0  0  0  0  0  0
  1  2  2  0  0  0  0
  2  3  1  0  0  0  0
  2 14  1  0  0  0  0
  3  4  1  0  0  0  0
  3 21  1  0  0  0  0
  4  5  1  0  0  0  0
  4 22  1  0  0  0  0
  4 23  1  0  0  0  0
  5  6  1  0  0  0  0
  5  7  1  0  0  0  0
  5 24  1  0  0  0  0
  6 25  1  0  0  0  0
  7  8  1  0  0  0  0
  7 26  1  0  0  0  0
  7 27  1  0  0  0  0
  8 13  1  0  0  0  0
  8  9  1  0  0  0  0
  8 41  1  0  0  0  0
  9 10  1  0  0  0  0
  9 28  1  0  0  0  0
  9 29  1  0  0  0  0
 10 11  1  0  0  0  0
 10 30  1  0  0  0  0
 10 31  1  0  0  0  0
 11 12  1  0  0  0  0
 11 32  1  0  0  0  0
 11 33  1  0  0  0  0
 12 13  1  0  0  0  0
 12 34  1  0  0  0  0
 12 35  1  0  0  0  0
 13 36  1  0  0  0  0
 13 37  1  0  0  0  0
 14 15  1  0  0  0  0
 14 38  1  0  0  0  0
 15 19  2  0  0  0  0
 15 16  1  0  0  0  0
 16 17  2  0  0  0  0
 16 39  1  0  0  0  0
 17 18  1  0  0  0  0
 18 20  1  0  0  0  0
 18 19  1  0  0  0  0
 19 40  1  0  0  0  0
M  CHG  1   8   1
M  END
> <s_m_source_file>
AV-unprocessed.smi

> <i_m_source_file_index>
1582

> <i_lp_mmshare_version>
43012

> <i_f3d_flags>
0

> <s_epik_input>
W2NIXTFbbkhdbltjSF1jMVtOSF1DKD1PKVtOSF1bQ0gyXVtDQEhdKFtPSF0pW0NIMl1OMltDSDJdW0NIMl1bQ0gyXVtDSDJdW0NIMl0y

> <s_epik_cmdline>
J2VwaWtfcHl0aG9uJywgJy1waCcsICc3LjAnLCAnLXRuJywgJzgnLCAnLW1hJywgJzIwMCcsICctbWV0YWxfYmluZGluZycsICctaW1hZScsICc8aW5maWxlLm1hZT4nLCAnLW9tYWUnLCAnPG91dGZpbGUubWFlPic=

> <r_lp_tautomer_probability>
0.5

> <r_epik_Ionization_Penalty>
0.00519658

> <r_epik_Ionization_Penalty_Charging>
0.00515354

> <r_epik_Ionization_Penalty_Neutral>
4.30332e-05

> <r_epik_State_Penalty>
0.00375424

> <r_epik_Charging_Adjusted_Penalty>
0.00890779

> <i_epik_Tot_Q>
1

> <i_epik_Tot_abs_Q>
1

> <r_epik_Metal_State_Penalty>
-0

> <b_epik_Metal_Only>
0

> <s_lp_Force_Field>
OPLS_2005

> <r_lp_Energy>
21.997

> <b_lp_Chiralities_Consistent>
1

> <s_lp_Variant>
AV-unprocessed.smi:1582-1

> <Gold.Version>
5.8.1

> <Gold.Id.Protein>
6NUR|6NUR_protein|mol2

> <Gold.PLP.Fitness>
51.4898

> <Gold.PLP.PLP>
-33.5361

> <Gold.PLP.part.hbond>
-5.5074

> <Gold.PLP.part.metal>
0.0000

> <Gold.PLP.part.buried>
-2.3044

> <Gold.PLP.part.nonpolar>
-27.4580

> <Gold.PLP.part.repulsive>
0.2980

> <Gold.PLP.ligand.clash>
0.0000

> <Gold.PLP.ligand.torsion>
1.0350

> <Gold.PLP.Chemscore.Hbond>
4.8008

> <Gold.PLP.Chemscore.CHOScore>
1.8572

> <Gold.PLP.Chemscore.Metal>
0.0000

> <Gold.Chemscore.Hbonds>
donor molecule, donor type, donor heavy atom, donor atom, acceptor molecule, acceptor atom, score
      L1  H     3    21       P1 10175  1.00
      L1  H     6    25       P1 10171  1.00
      L1  H     8    41       P1  7921  0.71
      L1  H    14    38       P1 10175  1.00
      P1  H  7954  7966       L1     6  0.78
      L1  C    16    39       P1 11000  0.82
      L1  C    19    40       P1 10160  1.00

> <Gold.PLP.Chemscore.Internal.Correction>
0.0497

> <Gold.Rescore>
     Score         DG    S(hbond)    S(metal)    S(lipo)     H(rot)  DE(clash)    DE(int)     intcor
     18.07     -21.23       3.91        0.00      79.75       2.59       0.87       2.28       ----

> <Gold.Chemscore.Fitness>
18.0750

> <Gold.Chemscore.DG>
-21.2298

> <Gold.Chemscore.ZeroCoef>
-5.4800

> <Gold.Chemscore.Hbond>
3.9051

> <Gold.Chemscore.Metal>
0.0000

> <Gold.Chemscore.Lipo>
79.7517

> <Gold.Chemscore.Internal_Hbond>
0.0000

> <Gold.Chemscore.DEClash>
0.8716

> <Gold.Chemscore.DEInternal>
2.2832

> <Gold.Chemscore.Rot>
2.5876

> <Gold.Chemscore.Internal.Correction>
   9.000000E+99

> <Gold.Chemscore.Hbonds>
donor molecule, donor type, donor heavy atom, donor atom, acceptor molecule, acceptor atom, score
      L1  H     3    21       P1 10175  0.95
      L1  H     6    25       P1 10171  0.98
      L1  H     8    41       P1  7921  0.38
      L1  H    14    38       P1 10175  0.98
      P1  H  7954  7966       L1     6  0.29

> <Gold.Chemscore.Hbond.Weighted>
-13.0430

> <Gold.Chemscore.Metal.Weighted>
-0.0000

> <Gold.Chemscore.Lipo.Weighted>
-9.3309

> <Gold.Chemscore.Internal_Hbond.Weighted>
0.0000

> <Gold.Chemscore.DEClash.Weighted>
0.8716

> <Gold.Chemscore.DEInternal.Weighted>
2.2832

> <Gold.Chemscore.Rot.Weighted>
6.6242

> <Gold.Chemscore.Internal.Correction.Weighted>
   9.000000E+99

> <Gold.Protein.RotatedTorsions>
[ 6907 6896 6895 6894 ] final  -37.19 input  -60.11 | X-H torsion
[ 7974 7965 7964 7962 ] final  149.25 input  175.53 | X-H torsion
[ 8008 7997 7996 7995 ] final  166.23 input   59.86 | X-H torsion
[ 10167 10162 10161 10158 ] final   43.32 input  -65.29 | X-H torsion
[ 10718 10713 10712 10709 ] final  -19.67 input   66.30 | X-H torsion
[ 10763 10752 10751 10750 ] final  136.46 input  -60.55 | X-H torsion
[ 11005 11000 10999 10996 ] final -173.45 input  -57.11 | X-H torsion

> <Gold.Protein.ActiveResidues>
 VAL166  LYS551  ARG553  GLY616  TRP617  ASP618  TYR619  PRO620  LYS621  CYS622 
 ASP623  PHE694  ASN695  SER759  ASP760  ASP761  ALA762  ILE779  LEU786  VAL792 
 PHE793  MET794  SER795  GLU796  ALA797  LYS798  CYS799  TRP800  GLU811  SER814 

> <Gold.Protein.RotatedAtoms>
  151.0178  134.9446  159.8042 H   0  0  0  0  0  0  0  0  0  0  0  0  # atno 6907 bound_to 6896
  152.5318  134.2944  159.9065 H   0  0  0  0  0  0  0  0  0  0  0  0  # atno 6908 bound_to 6896
  151.2950  133.4106  159.2670 H   0  0  0  0  0  0  0  0  0  0  0  0  # atno 6909 bound_to 6896
  144.8452  139.6257  143.5998 H   0  0  0  0  0  0  0  0  0  0  0  0  # atno 7974 bound_to 7965
  156.1735  140.1649  156.8404 H   0  0  0  0  0  0  0  0  0  0  0  0  # atno 8008 bound_to 7997
  154.5282  140.0762  156.8331 H   0  0  0  0  0  0  0  0  0  0  0  0  # atno 8009 bound_to 7997
  155.3462  140.3387  155.4241 H   0  0  0  0  0  0  0  0  0  0  0  0  # atno 8010 bound_to 7997
  140.3455  144.2416  150.6151 H   0  0  0  0  0  0  0  0  0  0  0  0  # atno 10167 bound_to 10162
  156.5424  130.4681  149.6492 H   0  0  0  0  0  0  0  0  0  0  0  0  # atno 10718 bound_to 10713
  153.8569  135.3072  155.3435 H   0  0  0  0  0  0  0  0  0  0  0  0  # atno 10763 bound_to 10752
  154.7866  135.4806  153.9963 H   0  0  0  0  0  0  0  0  0  0  0  0  # atno 10764 bound_to 10752
  153.1485  135.6838  153.9012 H   0  0  0  0  0  0  0  0  0  0  0  0  # atno 10765 bound_to 10752
  140.4856  134.6034  157.4936 H   0  0  0  0  0  0  0  0  0  0  0  0  # atno 11005 bound_to 11000
  146.2738  139.6701  142.9277 LP  0  0  0  0  0  0  0  0  0  0  0  0  # atno 17320 bound_to 7965
  145.4612  141.0433  143.2751 LP  0  0  0  0  0  0  0  0  0  0  0  0  # atno 17321 bound_to 7965
  140.5268  143.2252  151.8301 LP  0  0  0  0  0  0  0  0  0  0  0  0  # atno 17342 bound_to 10162
  139.4834  144.4769  151.9355 LP  0  0  0  0  0  0  0  0  0  0  0  0  # atno 17343 bound_to 10162
  156.2959  130.7150  151.2010 LP  0  0  0  0  0  0  0  0  0  0  0  0  # atno 17370 bound_to 10713
  157.7403  131.0519  150.5177 LP  0  0  0  0  0  0  0  0  0  0  0  0  # atno 17371 bound_to 10713
  139.9800  134.7153  155.9877 LP  0  0  0  0  0  0  0  0  0  0  0  0  # atno 17394 bound_to 11000
  141.1510  133.6548  156.4012 LP  0  0  0  0  0  0  0  0  0  0  0  0  # atno 17395 bound_to 11000

$$$$
