#       Name:                AV-unprocessed.smi:2710
#       Creating user name   scv26
#       Creation time:       Fri Mar 27 14:50:29 2020


#       File generated by GOLD software.
#

@<TRIPOS>MOLECULE
AV-unprocessed.smi:2710
    57    58     1
SMALL
NO_CHARGES


@<TRIPOS>ATOM
      1 ****        -6.6045  -3.7865   0.7595 C.3            1 S1                 0.0000
      2 ****        -5.9445  -2.8959  -0.3061 C.3            1 S1                 0.0000
      3 ****        -4.5210  -2.5628  -0.0075 N.4            1 S1                 1.0000
      4 ****        -4.3920  -1.7511   1.2375 C.3            1 S1                 0.0000
      5 ****        -2.9263  -1.5020   1.6190 C.3            1 S1                 0.0000
      6 ****        -2.1827  -0.8028   0.4789 C.3            1 S1                 0.0000
      7 ****        -0.7787  -0.6170   0.8344 N.am           1 S1                 0.0000
      8 ****         0.0244   0.3294   0.3274 C.2            1 S1                 0.0000
      9 ****        -0.3453   1.1550  -0.5071 O.2            1 S1                 0.0000
     10 ****         1.2665   0.2357   0.8312 N.am           1 S1                 0.0000
     11 ****         2.3883   1.0653   0.5647 C.ar           1 S1                 0.0000
     12 ****         3.6785   0.5941   0.8793 C.ar           1 S1                 0.0000
     13 ****         4.7836   1.3380   0.6645 N.ar           1 S1                 0.0000
     14 ****         4.6159   2.5736   0.1748 C.ar           1 S1                 0.0000
     15 ****         5.8839   3.3573  -0.2072 C.3            1 S1                 0.0000
     16 ****         5.6515   4.8820  -0.0897 C.3            1 S1                 0.0000
     17 ****         6.2881   3.0059  -1.6507 C.3            1 S1                 0.0000
     18 ****         7.0531   3.0280   0.7511 C.3            1 S1                 0.0000
     19 ****         3.4400   3.1059  -0.1830 N.ar           1 S1                 0.0000
     20 ****         2.3262   2.3718   0.0241 C.ar           1 S1                 0.0000
     21 ****        -2.3181  -1.6532  -0.7921 C.3            1 S1                 0.0000
     22 ****        -3.7938  -1.9281  -1.1563 C.3            1 S1                 0.0000
     23 ****        -3.8303  -2.7767  -2.4446 C.3            1 S1                 0.0000
     24 ****        -7.5771  -4.1356   0.4117 H              1 S1                 0.0000
     25 ****        -6.7790  -3.2565   1.6952 H              1 S1                 0.0000
     26 ****        -5.9974  -4.6669   0.9721 H              1 S1                 0.0000
     27 ****        -6.0154  -3.4514  -1.2383 H              1 S1                 0.0000
     28 ****        -6.5200  -1.9796  -0.4454 H              1 S1                 0.0000
     29 ****        -4.9106  -0.7999   1.1066 H              1 S1                 0.0000
     30 ****        -4.8669  -2.2548   2.0775 H              1 S1                 0.0000
     31 ****        -2.8810  -0.8939   2.5234 H              1 S1                 0.0000
     32 ****        -2.4443  -2.4514   1.8580 H              1 S1                 0.0000
     33 ****        -2.6443   0.1727   0.3119 H              1 S1                 0.0000
     34 ****        -0.3896  -1.2559   1.5126 H              1 S1                 0.0000
     35 ****         1.4423  -0.5456   1.4460 H              1 S1                 0.0000
     36 ****         3.8291  -0.3908   1.2969 H              1 S1                 0.0000
     37 ****         6.5611   5.4407  -0.3132 H              1 S1                 0.0000
     38 ****         5.3359   5.1593   0.9170 H              1 S1                 0.0000
     39 ****         4.8881   5.2344  -0.7843 H              1 S1                 0.0000
     40 ****         5.4970   3.2618  -2.3563 H              1 S1                 0.0000
     41 ****         6.4904   1.9395  -1.7569 H              1 S1                 0.0000
     42 ****         7.1868   3.5433  -1.9550 H              1 S1                 0.0000
     43 ****         7.9395   3.6172   0.5134 H              1 S1                 0.0000
     44 ****         7.3482   1.9798   0.6911 H              1 S1                 0.0000
     45 ****         6.7884   3.2386   1.7882 H              1 S1                 0.0000
     46 ****         1.3970   2.8534  -0.2369 H              1 S1                 0.0000
     47 ****        -1.8241  -1.1459  -1.6223 H              1 S1                 0.0000
     48 ****        -1.7927  -2.6003  -0.6570 H              1 S1                 0.0000
     49 ****        -4.2742  -0.9715  -1.3693 H              1 S1                 0.0000
     50 ****        -3.1623  -2.3639  -3.2014 H              1 S1                 0.0000
     51 ****        -4.8193  -2.7998  -2.9007 H              1 S1                 0.0000
     52 ****        -3.5146  -3.8031  -2.2553 H              1 S1                 0.0000
     53 ****        -4.0553  -3.4415   0.1695 H              1 S1                 0.0000
     54 ****        -1.2879   1.1411  -0.8407 LP             1 S1                 0.0000
     55 ****         0.2969   1.8398  -0.8516 LP             1 S1                 0.0000
     56 ****         5.6957   0.9796   0.8638 LP             1 S1                 0.0000
     57 ****         3.3888   4.0177  -0.5904 LP             1 S1                 0.0000
@<TRIPOS>BOND
    1    1    2 1     
    2    1   24 1     
    3    1   25 1     
    4    1   26 1     
    5    2    3 1     
    6    2   27 1     
    7    2   28 1     
    8    3   22 1     
    9    3    4 1     
   10    3   53 1     
   11    4    5 1     
   12    4   29 1     
   13    4   30 1     
   14    5    6 1     
   15    5   31 1     
   16    5   32 1     
   17    6    7 1     
   18    6   21 1     
   19    6   33 1     
   20    7    8 am    
   21    7   34 1     
   22    8    9 2     
   23    8   10 am    
   24   10   11 1     
   25   10   35 1     
   26   11   20 ar    
   27   11   12 ar    
   28   12   13 ar    
   29   12   36 1     
   30   13   14 ar    
   31   14   15 1     
   32   14   19 ar    
   33   15   16 1     
   34   15   17 1     
   35   15   18 1     
   36   16   37 1     
   37   16   38 1     
   38   16   39 1     
   39   17   40 1     
   40   17   41 1     
   41   17   42 1     
   42   18   43 1     
   43   18   44 1     
   44   18   45 1     
   45   19   20 ar    
   46   20   46 1     
   47   21   22 1     
   48   21   47 1     
   49   21   48 1     
   50   22   23 1     
   51   22   49 1     
   52   23   50 1     
   53   23   51 1     
   54   23   52 1     
   55    9   54 1     
   56    9   55 1     
   57   13   56 1     
   58   19   57 1     
@<TRIPOS>SUBSTRUCTURE
      1 S1             1
@<TRIPOS>SET
LONE_PAIRS      STATIC     ATOMS    <user>   **** ""
4 54 55 56 57
DONOR_HYDROGENS      STATIC     ATOMS    <user>   **** ""
3 53 34 35
ATOM$BLUE        STATIC     ATOMS    COLORGROUP SYSTEM
4 54 55 56 57
ATOM$RED        STATIC     ATOMS    COLORGROUP SYSTEM
3 53 34 35
