AV-unprocessed.smi:2781|AV-procd|sdf|10719|dock2
  -GOLD-   2272015153D 1   1.00000     0.00000
 Structure written by MMmdl.
 35 38  0  0  0  0  0  0  0  0  1 V2000
  153.2483  139.6348  158.4783 O   0  0  0  0  0  0  0  0  0  0  0  0
  152.1563  140.1996  158.4052 C   0  0  0  0  0  0  0  0  0  0  0  0
  151.0768  139.7246  157.7591 N   0  0  0  0  0  0  0  0  0  0  0  0
  150.9401  138.4935  157.0642 C   0  0  0  0  0  0  0  0  0  0  0  0
  151.5588  137.3848  157.6853 C   0  0  0  0  0  0  0  0  0  0  0  0
  151.4864  136.1180  157.0739 C   0  0  0  0  0  0  0  0  0  0  0  0
  150.7952  135.9944  155.8557 C   0  0  0  0  0  0  0  0  0  0  0  0
  150.6992  134.7971  155.2306 F   0  0  0  0  0  0  0  0  0  0  0  0
  150.2066  137.1469  155.3034 C   0  0  0  0  0  0  0  0  0  0  0  0
  150.2755  138.3617  155.8886 N   0  0  0  0  0  0  0  0  0  0  0  0
  151.8938  141.3851  158.9711 N   0  0  0  0  0  0  0  0  0  0  0  0
  152.8117  142.1705  159.7308 C   0  0  2  0  0  0  0  0  0  0  0  0
  152.3707  143.4391  160.4371 C   0  0  2  0  0  0  0  0  0  0  0  0
  151.2743  144.4538  160.0930 C   0  0  2  0  0  0  0  0  0  0  0  0
  150.3555  143.9940  158.9430 C   0  0  0  0  0  0  0  0  0  0  0  0
  151.2925  144.0761  157.7184 C   0  0  0  0  0  0  0  0  0  0  0  0
  152.6122  144.5697  158.3450 C   0  0  1  0  0  0  0  0  0  0  0  0
  152.0751  145.5430  159.3886 C   0  0  0  0  0  0  0  0  0  0  0  0
  153.2968  143.5176  159.2257 C   0  0  2  0  0  0  0  0  0  0  0  0
  150.2528  140.3071  157.7758 H   0  0  0  0  0  0  0  0  0  0  0  0
  152.0858  137.4990  158.6216 H   0  0  0  0  0  0  0  0  0  0  0  0
  151.9530  135.2583  157.5316 H   0  0  0  0  0  0  0  0  0  0  0  0
  149.6674  137.0940  154.3690 H   0  0  0  0  0  0  0  0  0  0  0  0
  150.9671  141.7686  158.8564 H   0  0  0  0  0  0  0  0  0  0  0  0
  153.5700  141.5999  160.2653 H   0  0  0  0  0  0  0  0  0  0  0  0
  152.8396  143.6255  161.4015 H   0  0  0  0  0  0  0  0  0  0  0  0
  150.7363  144.7888  160.9802 H   0  0  0  0  0  0  0  0  0  0  0  0
  149.9228  143.0083  159.1081 H   0  0  0  0  0  0  0  0  0  0  0  0
  149.5225  144.6883  158.8234 H   0  0  0  0  0  0  0  0  0  0  0  0
  151.4001  143.1381  157.1757 H   0  0  0  0  0  0  0  0  0  0  0  0
  150.9137  144.8109  157.0067 H   0  0  0  0  0  0  0  0  0  0  0  0
  153.3033  145.0117  157.6269 H   0  0  0  0  0  0  0  0  0  0  0  0
  151.4615  146.3444  158.9723 H   0  0  0  0  0  0  0  0  0  0  0  0
  152.8555  145.9792  160.0152 H   0  0  0  0  0  0  0  0  0  0  0  0
  154.3375  143.7517  159.4426 H   0  0  0  0  0  0  0  0  0  0  0  0
  1  2  2  0  0  0  0
  2  3  1  0  0  0  0
  2 11  1  0  0  0  0
  3  4  1  0  0  0  0
  3 20  1  0  0  0  0
  4 10  1  0  0  0  0
  4  5  2  0  0  0  0
  5  6  1  0  0  0  0
  5 21  1  0  0  0  0
  6  7  2  0  0  0  0
  6 22  1  0  0  0  0
  7  8  1  0  0  0  0
  7  9  1  0  0  0  0
  9 10  2  0  0  0  0
  9 23  1  0  0  0  0
 11 12  1  0  0  0  0
 11 24  1  0  0  0  0
 12 19  1  0  0  0  0
 12 13  1  0  0  0  0
 12 25  1  0  0  0  0
 13 19  1  0  0  0  0
 13 14  1  0  0  0  0
 13 26  1  0  0  0  0
 14 18  1  0  0  0  0
 14 15  1  0  0  0  0
 14 27  1  0  0  0  0
 15 16  1  0  0  0  0
 15 28  1  0  0  0  0
 15 29  1  0  0  0  0
 16 17  1  0  0  0  0
 16 30  1  0  0  0  0
 16 31  1  0  0  0  0
 17 18  1  0  0  0  0
 17 19  1  0  0  0  0
 17 32  1  0  0  0  0
 18 33  1  0  0  0  0
 18 34  1  0  0  0  0
 19 35  1  0  0  0  0
M  END
> <s_m_source_file>
AV-unprocessed.smi

> <i_m_source_file_index>
2781

> <i_lp_mmshare_version>
43012

> <i_f3d_flags>
0

> <s_epik_input>
bjFbY0hdYyhGKVtjSF1bY0hdYzFbTkhdQyg9TylbTkhdW0NASF0yW0NAQEhdM1tDQEhdKFtDSDJdNClbQ0gyXVtDSDJdW0NASF00W0NASF0yMw==

> <s_epik_cmdline>
J2VwaWtfcHl0aG9uJywgJy1waCcsICc3LjAnLCAnLXRuJywgJzgnLCAnLW1hJywgJzIwMCcsICctbWV0YWxfYmluZGluZycsICctaW1hZScsICc8aW5maWxlLm1hZT4nLCAnLW9tYWUnLCAnPG91dGZpbGUubWFlPic=

> <r_lp_tautomer_probability>
1

> <r_epik_Ionization_Penalty>
4.05776e-05

> <r_epik_Ionization_Penalty_Charging>
0

> <r_epik_Ionization_Penalty_Neutral>
4.05776e-05

> <r_epik_State_Penalty>
-0

> <r_epik_Charging_Adjusted_Penalty>
0

> <i_epik_Tot_Q>
0

> <i_epik_Tot_abs_Q>
0

> <r_epik_Metal_State_Penalty>
-0

> <b_epik_Metal_Only>
0

> <s_lp_Force_Field>
OPLS_2005

> <r_lp_Energy>
85.3989

> <b_lp_Chiralities_Consistent>
1

> <s_lp_Variant>
AV-unprocessed.smi:2781-3

> <Gold.Version>
5.8.1

> <Gold.Id.Protein>
6NUR|6NUR_protein|mol2

> <Gold.PLP.Fitness>
43.7444

> <Gold.PLP.PLP>
-38.3615

> <Gold.PLP.part.hbond>
-1.0000

> <Gold.PLP.part.metal>
0.0000

> <Gold.PLP.part.buried>
-4.9008

> <Gold.PLP.part.nonpolar>
-32.4669

> <Gold.PLP.part.repulsive>
0.1920

> <Gold.PLP.ligand.clash>
0.0000

> <Gold.PLP.ligand.torsion>
0.3449

> <Gold.PLP.Chemscore.Hbond>
1.0000

> <Gold.PLP.Chemscore.CHOScore>
1.0000

> <Gold.PLP.Chemscore.Metal>
0.0000

> <Gold.Chemscore.Hbonds>
donor molecule, donor type, donor heavy atom, donor atom, acceptor molecule, acceptor atom, score
      P1  H  7997  8008       L1     1  1.00
      L1  C     9    23       P1  7948  0.53

> <Gold.PLP.Chemscore.Internal.Correction>
0.0726

> <Gold.Rescore>
     Score         DG    S(hbond)    S(metal)    S(lipo)     H(rot)  DE(clash)    DE(int)     intcor
     18.03     -19.61       0.99        0.00     114.23       1.00       0.00       1.57       ----

> <Gold.Chemscore.Fitness>
18.0332

> <Gold.Chemscore.DG>
-19.6077

> <Gold.Chemscore.ZeroCoef>
-5.4800

> <Gold.Chemscore.Hbond>
0.9949

> <Gold.Chemscore.Metal>
0.0000

> <Gold.Chemscore.Lipo>
114.2287

> <Gold.Chemscore.Internal_Hbond>
0.0000

> <Gold.Chemscore.DEClash>
0.0007

> <Gold.Chemscore.DEInternal>
1.5737

> <Gold.Chemscore.Rot>
1.0000

> <Gold.Chemscore.Internal.Correction>
   9.000000E+99

> <Gold.Chemscore.Hbonds>
donor molecule, donor type, donor heavy atom, donor atom, acceptor molecule, acceptor atom, score
      P1  H  7997  8008       L1     1  0.86

> <Gold.Chemscore.Hbond.Weighted>
-3.3229

> <Gold.Chemscore.Metal.Weighted>
-0.0000

> <Gold.Chemscore.Lipo.Weighted>
-13.3648

> <Gold.Chemscore.Internal_Hbond.Weighted>
0.0000

> <Gold.Chemscore.DEClash.Weighted>
0.0007

> <Gold.Chemscore.DEInternal.Weighted>
1.5737

> <Gold.Chemscore.Rot.Weighted>
2.5600

> <Gold.Chemscore.Internal.Correction.Weighted>
   9.000000E+99

> <Gold.Protein.RotatedTorsions>
[ 6907 6896 6895 6894 ] final  -55.27 input  -60.11 | X-H torsion
[ 7974 7965 7964 7962 ] final  -85.60 input  175.53 | X-H torsion
[ 8008 7997 7996 7995 ] final  -81.75 input   59.86 | X-H torsion
[ 10167 10162 10161 10158 ] final -171.98 input  -65.29 | X-H torsion
[ 10718 10713 10712 10709 ] final  143.16 input   66.30 | X-H torsion
[ 10763 10752 10751 10750 ] final  -87.68 input  -60.55 | X-H torsion
[ 11005 11000 10999 10996 ] final   97.99 input  -57.11 | X-H torsion

> <Gold.Protein.ActiveResidues>
 VAL166  LYS551  ARG553  GLY616  TRP617  ASP618  TYR619  PRO620  LYS621  CYS622 
 ASP623  PHE694  ASN695  SER759  ASP760  ASP761  ALA762  ILE779  LEU786  VAL792 
 PHE793  MET794  SER795  GLU796  ALA797  LYS798  CYS799  TRP800  GLU811  SER814 

> <Gold.Protein.RotatedAtoms>
  150.8266  134.7499  159.6817 H   0  0  0  0  0  0  0  0  0  0  0  0  # atno 6907 bound_to 6896
  152.4376  134.5653  159.9915 H   0  0  0  0  0  0  0  0  0  0  0  0  # atno 6908 bound_to 6896
  151.5824  133.3338  159.3047 H   0  0  0  0  0  0  0  0  0  0  0  0  # atno 6909 bound_to 6896
  145.4911  140.9552  143.1811 H   0  0  0  0  0  0  0  0  0  0  0  0  # atno 7974 bound_to 7965
  154.6015  140.0643  156.9374 H   0  0  0  0  0  0  0  0  0  0  0  0  # atno 8008 bound_to 7997
  155.2124  140.3323  155.4308 H   0  0  0  0  0  0  0  0  0  0  0  0  # atno 8009 bound_to 7997
  156.2321  140.1846  156.7199 H   0  0  0  0  0  0  0  0  0  0  0  0  # atno 8010 bound_to 7997
  139.5771  144.1507  152.1465 H   0  0  0  0  0  0  0  0  0  0  0  0  # atno 10167 bound_to 10162
  157.3722  131.0980  151.0818 H   0  0  0  0  0  0  0  0  0  0  0  0  # atno 10718 bound_to 10713
  154.6362  135.5404  153.7737 H   0  0  0  0  0  0  0  0  0  0  0  0  # atno 10763 bound_to 10752
  153.0310  135.6448  154.1227 H   0  0  0  0  0  0  0  0  0  0  0  0  # atno 10764 bound_to 10752
  154.1154  135.2924  155.3201 H   0  0  0  0  0  0  0  0  0  0  0  0  # atno 10765 bound_to 10752
  139.8774  134.9027  156.4389 H   0  0  0  0  0  0  0  0  0  0  0  0  # atno 11005 bound_to 11000
  144.7833  139.6479  143.7145 LP  0  0  0  0  0  0  0  0  0  0  0  0  # atno 17320 bound_to 7965
  146.2283  139.5766  142.9572 LP  0  0  0  0  0  0  0  0  0  0  0  0  # atno 17321 bound_to 7965
  140.1053  144.5504  150.6961 LP  0  0  0  0  0  0  0  0  0  0  0  0  # atno 17342 bound_to 10162
  140.7053  143.2463  151.4745 LP  0  0  0  0  0  0  0  0  0  0  0  0  # atno 17343 bound_to 10162
  157.1917  130.6355  149.5707 LP  0  0  0  0  0  0  0  0  0  0  0  0  # atno 17370 bound_to 10713
  155.9758  130.4720  150.6483 LP  0  0  0  0  0  0  0  0  0  0  0  0  # atno 17371 bound_to 10713
  140.9014  133.7777  155.9684 LP  0  0  0  0  0  0  0  0  0  0  0  0  # atno 17394 bound_to 11000
  140.8647  134.2798  157.5218 LP  0  0  0  0  0  0  0  0  0  0  0  0  # atno 17395 bound_to 11000

$$$$
