AV-unprocessed.smi:1866|AV-procd|sdf|7557|dock5
  -GOLD-   22720 9273D 1   1.00000     0.00000
 Structure written by MMmdl.
 30 31  0  0  0  0  0  0  0  0  1 V2000
  149.8071  130.6831  157.1222 C   0  0  0  0  0  0  0  0  0  0  0  0
  150.0965  132.0995  156.7592 C   0  0  0  0  0  0  0  0  0  0  0  0
  150.4384  133.0258  157.6632 N   0  0  0  0  0  0  0  0  0  0  0  0
  150.6565  134.2690  157.0859 N   0  0  0  0  0  0  0  0  0  0  0  0
  150.4727  134.2429  155.7585 C   0  0  0  0  0  0  0  0  0  0  0  0
  150.6295  135.3761  154.9172 N   0  0  0  0  0  0  0  0  0  0  0  0
  150.6096  136.6766  155.2578 C   0  0  0  0  0  0  0  0  0  0  0  0
  150.4406  137.1126  156.3968 O   0  0  0  0  0  0  0  0  0  0  0  0
  150.7990  137.4600  154.1863 N   0  0  0  0  0  0  0  0  0  0  0  0
  150.7973  138.9215  154.1918 C   0  0  1  0  0  0  0  0  0  0  0  0
  149.3663  139.4722  154.3437 C   0  0  0  0  0  0  0  0  0  0  0  0
  149.3982  140.9880  154.5593 C   0  0  0  0  0  0  0  0  0  0  0  0
  150.2386  141.3366  155.7982 C   0  0  0  0  0  0  0  0  0  0  0  0
  151.5144  140.6213  155.8495 N   0  0  0  0  0  0  0  0  0  0  0  0
  151.8126  139.4790  155.2057 C   0  0  0  0  0  0  0  0  0  0  0  0
  152.8858  138.9054  155.3858 O   0  0  0  0  0  0  0  0  0  0  0  0
  150.0170  132.6807  155.1004 S   0  0  0  0  0  0  0  0  0  0  0  0
  149.7633  130.5639  158.2053 H   0  0  0  0  0  0  0  0  0  0  0  0
  150.5878  130.0316  156.7295 H   0  0  0  0  0  0  0  0  0  0  0  0
  148.8498  130.3780  156.6994 H   0  0  0  0  0  0  0  0  0  0  0  0
  150.7712  135.1718  153.9391 H   0  0  0  0  0  0  0  0  0  0  0  0
  150.9244  137.0154  153.2887 H   0  0  0  0  0  0  0  0  0  0  0  0
  151.1735  139.2595  153.2241 H   0  0  0  0  0  0  0  0  0  0  0  0
  148.7730  139.2359  153.4597 H   0  0  0  0  0  0  0  0  0  0  0  0
  148.8691  138.9955  155.1898 H   0  0  0  0  0  0  0  0  0  0  0  0
  149.8249  141.4705  153.6789 H   0  0  0  0  0  0  0  0  0  0  0  0
  148.3866  141.3794  154.6688 H   0  0  0  0  0  0  0  0  0  0  0  0
  150.4276  142.4095  155.8357 H   0  0  0  0  0  0  0  0  0  0  0  0
  149.6810  141.0854  156.7012 H   0  0  0  0  0  0  0  0  0  0  0  0
  152.2109  140.9916  156.4802 H   0  0  0  0  0  0  0  0  0  0  0  0
  1  2  1  0  0  0  0
  1 18  1  0  0  0  0
  1 19  1  0  0  0  0
  1 20  1  0  0  0  0
  2 17  1  0  0  0  0
  2  3  2  0  0  0  0
  3  4  1  0  0  0  0
  4  5  2  0  0  0  0
  5  6  1  0  0  0  0
  5 17  1  0  0  0  0
  6  7  1  0  0  0  0
  6 21  1  0  0  0  0
  7  8  2  0  0  0  0
  7  9  1  0  0  0  0
  9 10  1  0  0  0  0
  9 22  1  0  0  0  0
 10 15  1  0  0  0  0
 10 11  1  0  0  0  0
 10 23  1  0  0  0  0
 11 12  1  0  0  0  0
 11 24  1  0  0  0  0
 11 25  1  0  0  0  0
 12 13  1  0  0  0  0
 12 26  1  0  0  0  0
 12 27  1  0  0  0  0
 13 14  1  0  0  0  0
 13 28  1  0  0  0  0
 13 29  1  0  0  0  0
 14 15  1  0  0  0  0
 14 30  1  0  0  0  0
 15 16  2  0  0  0  0
M  END
> <s_m_source_file>
AV-unprocessed.smi

> <i_m_source_file_index>
1866

> <i_lp_mmshare_version>
43012

> <i_f3d_flags>
0

> <s_epik_input>
W0NIM11jMW5uYyhzMSlbTkhdQyg9TylbTkhdW0NAQEhdMltDSDJdW0NIMl1bQ0gyXVtOSF1DMj1P

> <s_epik_cmdline>
J2VwaWtfcHl0aG9uJywgJy1waCcsICc3LjAnLCAnLXRuJywgJzgnLCAnLW1hJywgJzIwMCcsICctbWV0YWxfYmluZGluZycsICctaW1hZScsICc8aW5maWxlLm1hZT4nLCAnLW9tYWUnLCAnPG91dGZpbGUubWFlPic=

> <r_lp_tautomer_probability>
1

> <r_epik_Ionization_Penalty>
0.00093002

> <r_epik_Ionization_Penalty_Charging>
0

> <r_epik_Ionization_Penalty_Neutral>
0.00093002

> <r_epik_State_Penalty>
-0

> <r_epik_Charging_Adjusted_Penalty>
0

> <i_epik_Tot_Q>
0

> <i_epik_Tot_abs_Q>
0

> <r_epik_Metal_State_Penalty>
0.280775

> <b_epik_Metal_Only>
0

> <s_lp_Force_Field>
OPLS_2005

> <r_lp_Energy>
8.18439

> <b_lp_Chiralities_Consistent>
1

> <s_lp_Variant>
AV-unprocessed.smi:1866-2

> <Gold.Version>
5.8.1

> <Gold.Id.Protein>
6NUR|6NUR_protein|mol2

> <Gold.PLP.Fitness>
34.4334

> <Gold.PLP.PLP>
-26.2513

> <Gold.PLP.part.hbond>
-4.3896

> <Gold.PLP.part.metal>
0.0000

> <Gold.PLP.part.buried>
-2.2258

> <Gold.PLP.part.nonpolar>
-19.6555

> <Gold.PLP.part.repulsive>
0.3979

> <Gold.PLP.ligand.clash>
0.0000

> <Gold.PLP.ligand.torsion>
0.1830

> <Gold.PLP.Chemscore.Hbond>
2.8353

> <Gold.PLP.Chemscore.CHOScore>
0.0000

> <Gold.PLP.Chemscore.Metal>
0.0000

> <Gold.Chemscore.Hbonds>
donor molecule, donor type, donor heavy atom, donor atom, acceptor molecule, acceptor atom, score
      L1  H     9    22       P1  7949  0.82
      P1  H  6896  6908       L1     3  0.74
      P1  H  7997  8010       L1    16  0.91

> <Gold.PLP.Chemscore.Internal.Correction>
0.0422

> <Gold.Rescore>
     Score         DG    S(hbond)    S(metal)    S(lipo)     H(rot)  DE(clash)    DE(int)     intcor
     10.84     -13.59       1.65        0.00      44.27       1.00       0.49       2.26       ----

> <Gold.Chemscore.Fitness>
10.8438

> <Gold.Chemscore.DG>
-13.5940

> <Gold.Chemscore.ZeroCoef>
-5.4800

> <Gold.Chemscore.Hbond>
1.6452

> <Gold.Chemscore.Metal>
0.0000

> <Gold.Chemscore.Lipo>
44.2664

> <Gold.Chemscore.Internal_Hbond>
0.0000

> <Gold.Chemscore.DEClash>
0.4889

> <Gold.Chemscore.DEInternal>
2.2613

> <Gold.Chemscore.Rot>
1.0000

> <Gold.Chemscore.Internal.Correction>
   9.000000E+99

> <Gold.Chemscore.Hbonds>
donor molecule, donor type, donor heavy atom, donor atom, acceptor molecule, acceptor atom, score
      L1  H     9    22       P1  7949  0.18
      P1  H  6896  6908       L1     3  0.11
      P1  H  7997  8010       L1    16  0.77

> <Gold.Chemscore.Hbond.Weighted>
-5.4949

> <Gold.Chemscore.Metal.Weighted>
-0.0000

> <Gold.Chemscore.Lipo.Weighted>
-5.1792

> <Gold.Chemscore.Internal_Hbond.Weighted>
0.0000

> <Gold.Chemscore.DEClash.Weighted>
0.4889

> <Gold.Chemscore.DEInternal.Weighted>
2.2613

> <Gold.Chemscore.Rot.Weighted>
2.5600

> <Gold.Chemscore.Internal.Correction.Weighted>
   9.000000E+99

> <Gold.Protein.RotatedTorsions>
[ 6907 6896 6895 6894 ] final   80.87 input  -60.11 | X-H torsion
[ 7974 7965 7964 7962 ] final   43.91 input  175.53 | X-H torsion
[ 8008 7997 7996 7995 ] final   96.89 input   59.86 | X-H torsion
[ 10167 10162 10161 10158 ] final  -36.58 input  -65.29 | X-H torsion
[ 10718 10713 10712 10709 ] final   11.09 input   66.30 | X-H torsion
[ 10763 10752 10751 10750 ] final  110.72 input  -60.55 | X-H torsion
[ 11005 11000 10999 10996 ] final  162.16 input  -57.11 | X-H torsion

> <Gold.Protein.ActiveResidues>
 VAL166  LYS551  ARG553  GLY616  TRP617  ASP618  TYR619  PRO620  LYS621  CYS622 
 ASP623  PHE694  ASN695  SER759  ASP760  ASP761  ALA762  ILE779  LEU786  VAL792 
 PHE793  MET794  SER795  GLU796  ALA797  LYS798  CYS799  TRP800  GLU811  SER814 

> <Gold.Protein.RotatedAtoms>
  152.5249  134.3292  159.9176 H   0  0  0  0  0  0  0  0  0  0  0  0  # atno 6907 bound_to 6896
  151.3241  133.4021  159.2664 H   0  0  0  0  0  0  0  0  0  0  0  0  # atno 6908 bound_to 6896
  150.9935  134.9281  159.7970 H   0  0  0  0  0  0  0  0  0  0  0  0  # atno 6909 bound_to 6896
  146.0614  139.5133  142.9656 H   0  0  0  0  0  0  0  0  0  0  0  0  # atno 7974 bound_to 7965
  156.0844  140.3266  155.7735 H   0  0  0  0  0  0  0  0  0  0  0  0  # atno 8008 bound_to 7997
  155.5099  140.0576  157.2942 H   0  0  0  0  0  0  0  0  0  0  0  0  # atno 8009 bound_to 7997
  154.4601  140.1962  156.0286 H   0  0  0  0  0  0  0  0  0  0  0  0  # atno 8010 bound_to 7997
  140.7139  143.3399  151.2380 H   0  0  0  0  0  0  0  0  0  0  0  0  # atno 10167 bound_to 10162
  156.9905  130.6041  149.5685 H   0  0  0  0  0  0  0  0  0  0  0  0  # atno 10718 bound_to 10713
  153.4531  135.3739  155.2295 H   0  0  0  0  0  0  0  0  0  0  0  0  # atno 10763 bound_to 10752
  154.8756  135.3890  154.4015 H   0  0  0  0  0  0  0  0  0  0  0  0  # atno 10764 bound_to 10752
  153.4577  135.7086  153.6133 H   0  0  0  0  0  0  0  0  0  0  0  0  # atno 10765 bound_to 10752
  140.2229  134.8182  157.3239 H   0  0  0  0  0  0  0  0  0  0  0  0  # atno 11005 bound_to 11000
  145.6553  141.0253  143.1738 LP  0  0  0  0  0  0  0  0  0  0  0  0  # atno 17320 bound_to 7965
  144.7177  139.8138  143.7393 LP  0  0  0  0  0  0  0  0  0  0  0  0  # atno 17321 bound_to 7965
  139.6904  143.9702  152.2856 LP  0  0  0  0  0  0  0  0  0  0  0  0  # atno 17342 bound_to 10162
  139.9362  144.6710  150.8313 LP  0  0  0  0  0  0  0  0  0  0  0  0  # atno 17343 bound_to 10162
  156.0209  130.5303  150.8272 LP  0  0  0  0  0  0  0  0  0  0  0  0  # atno 17370 bound_to 10713
  157.5462  131.0942  150.9760 LP  0  0  0  0  0  0  0  0  0  0  0  0  # atno 17371 bound_to 10713
  140.1830  134.4466  155.7760 LP  0  0  0  0  0  0  0  0  0  0  0  0  # atno 17394 bound_to 11000
  141.2222  133.6992  156.7900 LP  0  0  0  0  0  0  0  0  0  0  0  0  # atno 17395 bound_to 11000

$$$$
