AV-unprocessed.smi:2355|AV-procd|sdf|9385|dock3
  -GOLD-   2272013 13D 1   1.00000     0.00000
 Structure written by MMmdl.
 48 49  0  0  0  0  0  0  0  0  1 V2000
  152.0056  146.2107  160.3014 C   0  0  0  0  0  0  0  0  0  0  0  0
  152.0319  144.7843  159.7939 C   0  0  0  0  0  0  0  0  0  0  0  0
  152.8354  143.8096  160.4158 C   0  0  0  0  0  0  0  0  0  0  0  0
  152.8154  142.5009  159.8949 C   0  0  0  0  0  0  0  0  0  0  0  0
  153.6576  141.4038  160.5111 C   0  0  0  0  0  0  0  0  0  0  0  0
  152.0636  142.1422  158.8324 N   0  0  0  0  0  0  0  0  0  0  0  0
  151.2845  143.0722  158.2264 C   0  0  0  0  0  0  0  0  0  0  0  0
  150.4540  142.7968  157.1075 N   0  0  0  0  0  0  0  0  0  0  0  0
  150.0743  141.5988  156.6297 C   0  0  0  0  0  0  0  0  0  0  0  0
  150.4211  140.5083  157.0852 O   0  0  0  0  0  0  0  0  0  0  0  0
  149.2526  141.7375  155.5790 N   0  0  0  0  0  0  0  0  0  0  0  0
  148.6130  140.6465  154.8432 C   0  0  2  0  0  0  0  0  0  0  0  0
  149.6871  139.6892  154.2958 C   0  0  0  0  0  0  0  0  0  0  0  0
  147.6319  141.2089  153.7668 C   0  0  2  0  0  0  0  0  0  0  0  0
  146.8394  142.4076  154.3503 C   0  0  0  0  0  0  0  0  0  0  0  0
  146.7455  140.1776  153.1691 N   0  0  0  0  0  0  0  0  0  0  0  0
  147.3746  139.4743  152.0451 C   0  0  0  0  0  0  0  0  0  0  0  0
  146.4671  138.3943  151.4307 C   0  0  0  0  0  0  0  0  0  0  0  0
  146.0802  137.4654  152.4335 O   0  0  0  0  0  0  0  0  0  0  0  0
  145.3939  138.0955  153.5058 C   0  0  0  0  0  0  0  0  0  0  0  0
  146.2949  139.1703  154.1377 C   0  0  0  0  0  0  0  0  0  0  0  0
  151.2474  144.4082  158.6848 C   0  0  0  0  0  0  0  0  0  0  0  0
  152.6457  146.3334  161.1757 H   0  0  0  0  0  0  0  0  0  0  0  0
  150.9903  146.4936  160.5801 H   0  0  0  0  0  0  0  0  0  0  0  0
  152.3529  146.8934  159.5255 H   0  0  0  0  0  0  0  0  0  0  0  0
  153.4509  144.0578  161.2681 H   0  0  0  0  0  0  0  0  0  0  0  0
  154.1475  141.7460  161.4233 H   0  0  0  0  0  0  0  0  0  0  0  0
  154.4282  141.0810  159.8106 H   0  0  0  0  0  0  0  0  0  0  0  0
  153.0376  140.5422  160.7610 H   0  0  0  0  0  0  0  0  0  0  0  0
  150.0932  143.6066  156.6255 H   0  0  0  0  0  0  0  0  0  0  0  0
  149.0241  142.6738  155.2791 H   0  0  0  0  0  0  0  0  0  0  0  0
  148.0408  140.0220  155.5276 H   0  0  0  0  0  0  0  0  0  0  0  0
  149.2437  138.9198  153.6633 H   0  0  0  0  0  0  0  0  0  0  0  0
  150.2006  139.1824  155.1137 H   0  0  0  0  0  0  0  0  0  0  0  0
  150.4510  140.2070  153.7164 H   0  0  0  0  0  0  0  0  0  0  0  0
  148.2541  141.6099  152.9650 H   0  0  0  0  0  0  0  0  0  0  0  0
  147.4890  143.1480  154.8130 H   0  0  0  0  0  0  0  0  0  0  0  0
  146.1178  142.0846  155.1012 H   0  0  0  0  0  0  0  0  0  0  0  0
  146.2989  142.9580  153.5820 H   0  0  0  0  0  0  0  0  0  0  0  0
  147.6234  140.1700  151.2462 H   0  0  0  0  0  0  0  0  0  0  0  0
  148.3102  139.0178  152.3717 H   0  0  0  0  0  0  0  0  0  0  0  0
  145.5824  138.8443  150.9781 H   0  0  0  0  0  0  0  0  0  0  0  0
  146.9954  137.8623  150.6394 H   0  0  0  0  0  0  0  0  0  0  0  0
  144.4630  138.5358  153.1450 H   0  0  0  0  0  0  0  0  0  0  0  0
  145.1251  137.3432  154.2475 H   0  0  0  0  0  0  0  0  0  0  0  0
  147.1571  138.6938  154.6066 H   0  0  0  0  0  0  0  0  0  0  0  0
  145.7134  139.6314  154.9333 H   0  0  0  0  0  0  0  0  0  0  0  0
  150.6228  145.1402  158.1929 H   0  0  0  0  0  0  0  0  0  0  0  0
  1  2  1  0  0  0  0
  1 23  1  0  0  0  0
  1 24  1  0  0  0  0
  1 25  1  0  0  0  0
  2 22  1  0  0  0  0
  2  3  2  0  0  0  0
  3  4  1  0  0  0  0
  3 26  1  0  0  0  0
  4  5  1  0  0  0  0
  4  6  2  0  0  0  0
  5 27  1  0  0  0  0
  5 28  1  0  0  0  0
  5 29  1  0  0  0  0
  6  7  1  0  0  0  0
  7  8  1  0  0  0  0
  7 22  2  0  0  0  0
  8  9  1  0  0  0  0
  8 30  1  0  0  0  0
  9 10  2  0  0  0  0
  9 11  1  0  0  0  0
 11 12  1  0  0  0  0
 11 31  1  0  0  0  0
 12 13  1  0  0  0  0
 12 14  1  0  0  0  0
 12 32  1  0  0  0  0
 13 33  1  0  0  0  0
 13 34  1  0  0  0  0
 13 35  1  0  0  0  0
 14 15  1  0  0  0  0
 14 16  1  0  0  0  0
 14 36  1  0  0  0  0
 15 37  1  0  0  0  0
 15 38  1  0  0  0  0
 15 39  1  0  0  0  0
 16 21  1  0  0  0  0
 16 17  1  0  0  0  0
 17 18  1  0  0  0  0
 17 40  1  0  0  0  0
 17 41  1  0  0  0  0
 18 19  1  0  0  0  0
 18 42  1  0  0  0  0
 18 43  1  0  0  0  0
 19 20  1  0  0  0  0
 20 21  1  0  0  0  0
 20 44  1  0  0  0  0
 20 45  1  0  0  0  0
 21 46  1  0  0  0  0
 21 47  1  0  0  0  0
 22 48  1  0  0  0  0
M  END
> <s_m_source_file>
AV-unprocessed.smi

> <i_m_source_file_index>
2355

> <i_lp_mmshare_version>
43012

> <i_f3d_flags>
0

> <s_epik_input>
W0NIM11jMVtjSF1jKFtDSDNdKW5jKFtjSF0xKVtOSF1DKD1PKVtOSF1bQ0BIXShbQ0gzXSlbQ0BIXShbQ0gzXSlOMltDSDJdW0NIMl1PW0NIMl1bQ0gyXTI=

> <s_epik_cmdline>
J2VwaWtfcHl0aG9uJywgJy1waCcsICc3LjAnLCAnLXRuJywgJzgnLCAnLW1hJywgJzIwMCcsICctbWV0YWxfYmluZGluZycsICctaW1hZScsICc8aW5maWxlLm1hZT4nLCAnLW9tYWUnLCAnPG91dGZpbGUubWFlPic=

> <r_epik_Ionization_Penalty>
0.266238

> <r_epik_Ionization_Penalty_Charging>
0

> <r_epik_Ionization_Penalty_Neutral>
0.266238

> <r_epik_State_Penalty>
0.257924

> <r_epik_Charging_Adjusted_Penalty>
0.257924

> <i_epik_Tot_Q>
0

> <i_epik_Tot_abs_Q>
0

> <r_epik_Metal_State_Penalty>
0.257904

> <b_epik_Metal_Only>
0

> <s_lp_Force_Field>
OPLS_2005

> <r_lp_Energy>
36.7742

> <b_lp_Chiralities_Consistent>
1

> <s_lp_Variant>
AV-unprocessed.smi:2355-1

> <Gold.Version>
5.8.1

> <Gold.Id.Protein>
6NUR|6NUR_protein|mol2

> <Gold.PLP.Fitness>
45.8214

> <Gold.PLP.PLP>
-41.7093

> <Gold.PLP.part.hbond>
-2.0000

> <Gold.PLP.part.metal>
0.0000

> <Gold.PLP.part.buried>
3.9348

> <Gold.PLP.part.nonpolar>
-44.0226

> <Gold.PLP.part.repulsive>
0.8411

> <Gold.PLP.ligand.clash>
0.0000

> <Gold.PLP.ligand.torsion>
0.8672

> <Gold.PLP.Chemscore.Hbond>
1.9100

> <Gold.PLP.Chemscore.CHOScore>
0.0000

> <Gold.PLP.Chemscore.Metal>
0.0000

> <Gold.Chemscore.Hbonds>
donor molecule, donor type, donor heavy atom, donor atom, acceptor molecule, acceptor atom, score
      L1  H     8    30       P1  8028  1.00
      L1  H    11    31       P1  8028  0.88

> <Gold.PLP.Chemscore.Internal.Correction>
0.1166

> <Gold.Rescore>
     Score         DG    S(hbond)    S(metal)    S(lipo)     H(rot)  DE(clash)    DE(int)     intcor
     17.51     -21.22       1.69        0.00     116.98       1.40       1.70       2.01       ----

> <Gold.Chemscore.Fitness>
17.5055

> <Gold.Chemscore.DG>
-21.2152

> <Gold.Chemscore.ZeroCoef>
-5.4800

> <Gold.Chemscore.Hbond>
1.6875

> <Gold.Chemscore.Metal>
0.0000

> <Gold.Chemscore.Lipo>
116.9818

> <Gold.Chemscore.Internal_Hbond>
0.0000

> <Gold.Chemscore.DEClash>
1.6995

> <Gold.Chemscore.DEInternal>
2.0102

> <Gold.Chemscore.Rot>
1.4015

> <Gold.Chemscore.Internal.Correction>
   9.000000E+99

> <Gold.Chemscore.Hbonds>
donor molecule, donor type, donor heavy atom, donor atom, acceptor molecule, acceptor atom, score
      L1  H     8    30       P1  8028  1.00
      L1  H    11    31       P1  8028  0.82

> <Gold.Chemscore.Hbond.Weighted>
-5.6361

> <Gold.Chemscore.Metal.Weighted>
-0.0000

> <Gold.Chemscore.Lipo.Weighted>
-13.6869

> <Gold.Chemscore.Internal_Hbond.Weighted>
0.0000

> <Gold.Chemscore.DEClash.Weighted>
1.6995

> <Gold.Chemscore.DEInternal.Weighted>
2.0102

> <Gold.Chemscore.Rot.Weighted>
3.5878

> <Gold.Chemscore.Internal.Correction.Weighted>
   9.000000E+99

> <Gold.Protein.RotatedTorsions>
[ 6907 6896 6895 6894 ] final -143.30 input  -60.11 | X-H torsion
[ 7974 7965 7964 7962 ] final -106.37 input  175.53 | X-H torsion
[ 8008 7997 7996 7995 ] final  107.08 input   59.86 | X-H torsion
[ 10167 10162 10161 10158 ] final -164.54 input  -65.29 | X-H torsion
[ 10718 10713 10712 10709 ] final -155.02 input   66.30 | X-H torsion
[ 10763 10752 10751 10750 ] final -120.39 input  -60.55 | X-H torsion
[ 11005 11000 10999 10996 ] final -153.64 input  -57.11 | X-H torsion

> <Gold.Protein.ActiveResidues>
 VAL166  LYS551  ARG553  GLY616  TRP617  ASP618  TYR619  PRO620  LYS621  CYS622 
 ASP623  PHE694  ASN695  SER759  ASP760  ASP761  ALA762  ILE779  LEU786  VAL792 
 PHE793  MET794  SER795  GLU796  ALA797  LYS798  CYS799  TRP800  GLU811  SER814 

> <Gold.Protein.RotatedAtoms>
  151.0987  133.5260  159.2610 H   0  0  0  0  0  0  0  0  0  0  0  0  # atno 6907 bound_to 6896
  151.2100  135.0476  159.8917 H   0  0  0  0  0  0  0  0  0  0  0  0  # atno 6908 bound_to 6896
  152.5441  134.0803  159.8286 H   0  0  0  0  0  0  0  0  0  0  0  0  # atno 6909 bound_to 6896
  145.2187  140.9125  143.3272 H   0  0  0  0  0  0  0  0  0  0  0  0  # atno 7974 bound_to 7965
  156.1795  140.3101  155.9122 H   0  0  0  0  0  0  0  0  0  0  0  0  # atno 8008 bound_to 7997
  155.3415  140.0466  157.3062 H   0  0  0  0  0  0  0  0  0  0  0  0  # atno 8009 bound_to 7997
  154.5327  140.2236  155.8787 H   0  0  0  0  0  0  0  0  0  0  0  0  # atno 8010 bound_to 7997
  139.6243  144.0562  152.1961 H   0  0  0  0  0  0  0  0  0  0  0  0  # atno 10167 bound_to 10162
  156.5072  130.8418  151.2632 H   0  0  0  0  0  0  0  0  0  0  0  0  # atno 10718 bound_to 10713
  154.8643  135.4205  154.2451 H   0  0  0  0  0  0  0  0  0  0  0  0  # atno 10763 bound_to 10752
  153.3409  135.6993  153.6874 H   0  0  0  0  0  0  0  0  0  0  0  0  # atno 10764 bound_to 10752
  153.5853  135.3565  155.2863 H   0  0  0  0  0  0  0  0  0  0  0  0  # atno 10765 bound_to 10752
  140.7060  134.3885  157.5204 H   0  0  0  0  0  0  0  0  0  0  0  0  # atno 11005 bound_to 11000
  144.9786  139.3806  143.6273 LP  0  0  0  0  0  0  0  0  0  0  0  0  # atno 17320 bound_to 7965
  146.3381  139.8917  142.8808 LP  0  0  0  0  0  0  0  0  0  0  0  0  # atno 17321 bound_to 7965
  140.0212  144.6152  150.7565 LP  0  0  0  0  0  0  0  0  0  0  0  0  # atno 17342 bound_to 10162
  140.7401  143.2801  151.3625 LP  0  0  0  0  0  0  0  0  0  0  0  0  # atno 17343 bound_to 10162
  157.7455  130.9962  150.2770 LP  0  0  0  0  0  0  0  0  0  0  0  0  # atno 17370 bound_to 10713
  156.3275  130.3795  149.7520 LP  0  0  0  0  0  0  0  0  0  0  0  0  # atno 17371 bound_to 10713
  139.8884  134.8857  156.2476 LP  0  0  0  0  0  0  0  0  0  0  0  0  # atno 17394 bound_to 11000
  141.0124  133.7088  156.1133 LP  0  0  0  0  0  0  0  0  0  0  0  0  # atno 17395 bound_to 11000

$$$$
