#       Name:                AV-unprocessed.smi:278
#       Creating user name   scv26
#       Creation time:       Thu Mar 26 21:37:05 2020


#       File generated by GOLD software.
#

@<TRIPOS>MOLECULE
AV-unprocessed.smi:278
    57    61     1
SMALL
NO_CHARGES


@<TRIPOS>ATOM
      1 ****        -0.1685   6.1416  -2.3595 O.2            1 S1                 0.0000
      2 ****        -0.3243   5.3150  -1.1531 S.o2           1 S1                 0.0000
      3 ****         0.7470   4.4023  -0.7244 O.2            1 S1                 0.0000
      4 ****        -0.7866   6.3965   0.2555 C.3            1 S1                 0.0000
      5 ****        -2.2944   6.2069   0.4677 C.3            1 S1                 0.0000
      6 ****        -2.6944   4.7907   0.0154 C.3            1 S1                 0.0000
      7 ****        -2.2888   3.6851   0.9960 C.3            1 S1                 0.0000
      8 ****        -2.0824   2.5035   0.1704 N.pl3          1 S1                 0.0000
      9 ****        -1.5817   1.3549   0.6956 C.ar           1 S1                 0.0000
     10 ****        -1.3745   1.2849   2.0379 N.ar           1 S1                 0.0000
     11 ****        -0.8850   0.1730   2.5936 C.ar           1 S1                 0.0000
     12 ****        -0.5456  -0.9742   2.0040 N.ar           1 S1                 0.0000
     13 ****        -0.7628  -0.9192   0.6594 C.ar           1 S1                 0.0000
     14 ****        -1.2725   0.1927  -0.0716 C.ar           1 S1                 0.0000
     15 ****        -1.3619  -0.1389  -1.4201 N.2            1 S1                 0.0000
     16 ****        -0.9236  -1.3664  -1.4823 C.2            1 S1                 0.0000
     17 ****        -0.5452  -1.9123  -0.2780 N.pl3          1 S1                 0.0000
     18 ****        -0.0284  -3.2501  -0.0524 C.3            1 S1                 0.0000
     19 ****         1.5095  -3.2787   0.0306 C.3            1 S1                 0.0000
     20 ****         2.0819  -2.7889  -1.1677 O.3            1 S1                 0.0000
     21 ****         2.0623  -4.6786   0.3679 C.3            1 S1                 0.0000
     22 ****         3.5864  -4.8223   0.4034 C.3            1 S1                 0.0000
     23 ****         3.7451  -6.3098   0.1800 C.3            1 S1                 0.0000
     24 ****         2.6409  -6.5913  -0.8361 C.3            1 S1                 0.0000
     25 ****         1.5912  -5.6744  -0.5374 O.3            1 S1                 0.0000
     26 ****        -1.7761   2.8903  -1.2007 C.3            1 S1                 0.0000
     27 ****        -1.9310   4.4170  -1.2564 C.3            1 S1                 0.0000
     28 ****        -3.7687   4.7283  -0.1639 H              1 S1                 0.0000
     29 ****        -2.4464   4.7495  -2.1578 H              1 S1                 0.0000
     30 ****        -0.2275   6.0648   1.1306 H              1 S1                 0.0000
     31 ****        -0.5139   7.4302   0.0427 H              1 S1                 0.0000
     32 ****        -2.5850   6.4035   1.5002 H              1 S1                 0.0000
     33 ****        -2.8258   6.9297  -0.1525 H              1 S1                 0.0000
     34 ****        -1.3586   3.9342   1.5085 H              1 S1                 0.0000
     35 ****        -3.0593   3.5171   1.7492 H              1 S1                 0.0000
     36 ****        -0.7471   0.2074   3.6642 H              1 S1                 0.0000
     37 ****        -0.8628  -1.9105  -2.4137 H              1 S1                 0.0000
     38 ****        -0.4631  -3.6327   0.8717 H              1 S1                 0.0000
     39 ****        -0.3826  -3.8981  -0.8553 H              1 S1                 0.0000
     40 ****         1.8239  -2.5984   0.8231 H              1 S1                 0.0000
     41 ****         3.0214  -2.7773  -1.0677 H              1 S1                 0.0000
     42 ****         1.6807  -4.9675   1.3488 H              1 S1                 0.0000
     43 ****         4.0633  -4.2790  -0.4129 H              1 S1                 0.0000
     44 ****         4.0242  -4.4810   1.3420 H              1 S1                 0.0000
     45 ****         4.7364  -6.5885  -0.1785 H              1 S1                 0.0000
     46 ****         3.5505  -6.8515   1.1068 H              1 S1                 0.0000
     47 ****         2.9964  -6.3898  -1.8476 H              1 S1                 0.0000
     48 ****         2.2929  -7.6240  -0.7994 H              1 S1                 0.0000
     49 ****        -0.7826   2.5673  -1.5124 H              1 S1                 0.0000
     50 ****        -2.5018   2.4175  -1.8629 H              1 S1                 0.0000
     51 ****        -1.5906   2.0730   2.6142 LP             1 S1                 0.0000
     52 ****        -0.1796  -1.7706   2.4854 LP             1 S1                 0.0000
     53 ****        -1.6884   0.4341  -2.1718 LP             1 S1                 0.0000
     54 ****         1.7500  -1.8626  -1.3462 LP             1 S1                 0.0000
     55 ****         1.8310  -3.3855  -1.9300 LP             1 S1                 0.0000
     56 ****         1.2829  -5.2362  -1.3818 LP             1 S1                 0.0000
     57 ****         0.8281  -6.1680  -0.1202 LP             1 S1                 0.0000
@<TRIPOS>BOND
    1    1    2 2     
    2    2   27 1     
    3    2    3 2     
    4    2    4 1     
    5    4    5 1     
    6    4   30 1     
    7    4   31 1     
    8    5    6 1     
    9    5   32 1     
   10    5   33 1     
   11    6   28 1     
   12    6   27 1     
   13    6    7 1     
   14    7    8 1     
   15    7   34 1     
   16    7   35 1     
   17    8    9 1     
   18    8   26 1     
   19    9   14 ar    
   20    9   10 ar    
   21   10   11 ar    
   22   11   12 ar    
   23   11   36 1     
   24   12   13 ar    
   25   13   17 1     
   26   13   14 ar    
   27   14   15 1     
   28   15   16 2     
   29   16   17 1     
   30   16   37 1     
   31   17   18 1     
   32   18   19 1     
   33   18   38 1     
   34   18   39 1     
   35   19   20 1     
   36   19   21 1     
   37   19   40 1     
   38   20   41 1     
   39   21   25 1     
   40   21   22 1     
   41   21   42 1     
   42   22   23 1     
   43   22   43 1     
   44   22   44 1     
   45   23   24 1     
   46   23   45 1     
   47   23   46 1     
   48   24   25 1     
   49   24   47 1     
   50   24   48 1     
   51   26   27 1     
   52   26   49 1     
   53   26   50 1     
   54   27   29 1     
   55   10   51 1     
   56   12   52 1     
   57   15   53 1     
   58   20   54 1     
   59   20   55 1     
   60   25   56 1     
   61   25   57 1     
@<TRIPOS>SUBSTRUCTURE
      1 S1             1
@<TRIPOS>SET
LONE_PAIRS      STATIC     ATOMS    <user>   **** ""
9 1 3 51 52 53 54 55 56 57
DONOR_HYDROGENS      STATIC     ATOMS    <user>   **** ""
1 41
ATOM$BLUE        STATIC     ATOMS    COLORGROUP SYSTEM
9 1 3 51 52 53 54 55 56 57
ATOM$RED        STATIC     ATOMS    COLORGROUP SYSTEM
1 41
