AV-unprocessed.smi:2575|AV-procd|sdf|10116|dock1
  -GOLD-   2272014133D 1   1.00000     0.00000
 Structure written by MMmdl.
 31 32  0  0  0  0  0  0  0  0  1 V2000
  151.5195  139.3031  154.9791 C   0  0  0  0  0  0  0  0  0  0  0  0
  150.4784  139.1883  156.0948 C   0  0  0  0  0  0  0  0  0  0  0  0
  149.3741  140.0197  155.7808 O   0  0  0  0  0  0  0  0  0  0  0  0
  149.7029  141.3991  155.8024 C   0  0  0  0  0  0  0  0  0  0  0  0
  149.8830  141.8555  157.2578 C   0  0  2  0  0  0  0  0  0  0  0  0
  148.9179  142.8521  157.5349 O   0  0  0  0  0  0  0  0  0  0  0  0
  151.2976  142.4023  157.5348 C   0  0  0  0  0  0  0  0  0  0  0  0
  151.3950  143.0674  158.8225 N   0  0  0  0  0  0  0  0  0  0  0  0
  150.6546  144.1882  159.0533 N   0  0  0  0  0  0  0  0  0  0  0  0
  150.9055  144.6125  160.2559 N   0  0  0  0  0  0  0  0  0  0  0  0
  151.8317  143.7563  160.8277 C   0  0  0  0  0  0  0  0  0  0  0  0
  152.4498  143.7497  162.0980 C   0  0  0  0  0  0  0  0  0  0  0  0
  153.3798  142.7414  162.4344 C   0  0  0  0  0  0  0  0  0  0  0  0
  154.1143  142.7668  163.9980 Cl  0  0  0  0  0  0  0  0  0  0  0  0
  153.7026  141.7269  161.5008 C   0  0  0  0  0  0  0  0  0  0  0  0
  154.8401  140.4876  161.8948 Cl  0  0  0  0  0  0  0  0  0  0  0  0
  153.0934  141.7212  160.2302 C   0  0  0  0  0  0  0  0  0  0  0  0
  152.1705  142.7331  159.9158 C   0  0  0  0  0  0  0  0  0  0  0  0
  152.3842  138.6728  155.1871 H   0  0  0  0  0  0  0  0  0  0  0  0
  151.8709  140.3297  154.8756 H   0  0  0  0  0  0  0  0  0  0  0  0
  151.1018  138.9929  154.0210 H   0  0  0  0  0  0  0  0  0  0  0  0
  150.1522  138.1519  156.1938 H   0  0  0  0  0  0  0  0  0  0  0  0
  150.9188  139.4886  157.0469 H   0  0  0  0  0  0  0  0  0  0  0  0
  150.6120  141.5852  155.2278 H   0  0  0  0  0  0  0  0  0  0  0  0
  148.8971  141.9652  155.3319 H   0  0  0  0  0  0  0  0  0  0  0  0
  149.6814  141.0126  157.9201 H   0  0  0  0  0  0  0  0  0  0  0  0
  149.1092  143.6116  157.0060 H   0  0  0  0  0  0  0  0  0  0  0  0
  152.0285  141.5923  157.5100 H   0  0  0  0  0  0  0  0  0  0  0  0
  151.5929  143.1079  156.7571 H   0  0  0  0  0  0  0  0  0  0  0  0
  152.2088  144.5216  162.8138 H   0  0  0  0  0  0  0  0  0  0  0  0
  153.3324  140.9541  159.5084 H   0  0  0  0  0  0  0  0  0  0  0  0
  1  2  1  0  0  0  0
  1 19  1  0  0  0  0
  1 20  1  0  0  0  0
  1 21  1  0  0  0  0
  2  3  1  0  0  0  0
  2 22  1  0  0  0  0
  2 23  1  0  0  0  0
  3  4  1  0  0  0  0
  4  5  1  0  0  0  0
  4 24  1  0  0  0  0
  4 25  1  0  0  0  0
  5  6  1  0  0  0  0
  5  7  1  0  0  0  0
  5 26  1  0  0  0  0
  6 27  1  0  0  0  0
  7  8  1  0  0  0  0
  7 28  1  0  0  0  0
  7 29  1  0  0  0  0
  8 18  1  0  0  0  0
  8  9  1  0  0  0  0
  9 10  2  0  0  0  0
 10 11  1  0  0  0  0
 11 18  2  0  0  0  0
 11 12  1  0  0  0  0
 12 13  2  0  0  0  0
 12 30  1  0  0  0  0
 13 14  1  0  0  0  0
 13 15  1  0  0  0  0
 15 16  1  0  0  0  0
 15 17  2  0  0  0  0
 17 18  1  0  0  0  0
 17 31  1  0  0  0  0
M  END
> <s_m_source_file>
AV-unprocessed.smi

> <i_m_source_file_index>
2575

> <i_lp_mmshare_version>
43012

> <i_f3d_flags>
0

> <s_epik_input>
W0NIM11bQ0gyXU9bQ0gyXVtDQEhdKFtPSF0pW0NIMl1uKG5uMSljKGMxMilbY0hdYyhDbCljKENsKVtjSF0y

> <s_epik_cmdline>
J2VwaWtfcHl0aG9uJywgJy1waCcsICc3LjAnLCAnLXRuJywgJzgnLCAnLW1hJywgJzIwMCcsICctbWV0YWxfYmluZGluZycsICctaW1hZScsICc8aW5maWxlLm1hZT4nLCAnLW9tYWUnLCAnPG91dGZpbGUubWFlPic=

> <r_lp_tautomer_probability>
1

> <r_epik_Ionization_Penalty>
2.39516e-06

> <r_epik_Ionization_Penalty_Charging>
0

> <r_epik_Ionization_Penalty_Neutral>
2.39516e-06

> <r_epik_State_Penalty>
-0

> <r_epik_Charging_Adjusted_Penalty>
0

> <i_epik_Tot_Q>
0

> <i_epik_Tot_abs_Q>
0

> <r_epik_Metal_State_Penalty>
-0

> <b_epik_Metal_Only>
0

> <s_lp_Force_Field>
OPLS_2005

> <r_lp_Energy>
6.35742

> <b_lp_Chiralities_Consistent>
1

> <s_lp_Variant>
AV-unprocessed.smi:2575-1

> <Gold.Version>
5.8.1

> <Gold.Id.Protein>
6NUR|6NUR_protein|mol2

> <Gold.PLP.Fitness>
43.4085

> <Gold.PLP.PLP>
-42.1178

> <Gold.PLP.part.hbond>
-1.3279

> <Gold.PLP.part.metal>
0.0000

> <Gold.PLP.part.buried>
-3.7937

> <Gold.PLP.part.nonpolar>
-37.2947

> <Gold.PLP.part.repulsive>
0.2913

> <Gold.PLP.ligand.clash>
0.0000

> <Gold.PLP.ligand.torsion>
0.8780

> <Gold.PLP.Chemscore.Hbond>
1.0000

> <Gold.PLP.Chemscore.CHOScore>
0.0000

> <Gold.PLP.Chemscore.Metal>
0.0000

> <Gold.Chemscore.Hbonds>
donor molecule, donor type, donor heavy atom, donor atom, acceptor molecule, acceptor atom, score
      L1  H     6    27       P1  8028  1.00

> <Gold.PLP.Chemscore.Internal.Correction>
0.0467

> <Gold.Rescore>
     Score         DG    S(hbond)    S(metal)    S(lipo)     H(rot)  DE(clash)    DE(int)     intcor
     14.77     -17.21       0.95        0.00     121.03       2.19       0.02       2.42       ----

> <Gold.Chemscore.Fitness>
14.7724

> <Gold.Chemscore.DG>
-17.2098

> <Gold.Chemscore.ZeroCoef>
-5.4800

> <Gold.Chemscore.Hbond>
0.9509

> <Gold.Chemscore.Metal>
0.0000

> <Gold.Chemscore.Lipo>
121.0295

> <Gold.Chemscore.Internal_Hbond>
0.0000

> <Gold.Chemscore.DEClash>
0.0199

> <Gold.Chemscore.DEInternal>
2.4175

> <Gold.Chemscore.Rot>
2.1901

> <Gold.Chemscore.Internal.Correction>
   9.000000E+99

> <Gold.Chemscore.Hbonds>
donor molecule, donor type, donor heavy atom, donor atom, acceptor molecule, acceptor atom, score
      L1  H     6    27       P1  8028  0.64

> <Gold.Chemscore.Hbond.Weighted>
-3.1760

> <Gold.Chemscore.Metal.Weighted>
-0.0000

> <Gold.Chemscore.Lipo.Weighted>
-14.1605

> <Gold.Chemscore.Internal_Hbond.Weighted>
0.0000

> <Gold.Chemscore.DEClash.Weighted>
0.0199

> <Gold.Chemscore.DEInternal.Weighted>
2.4175

> <Gold.Chemscore.Rot.Weighted>
5.6066

> <Gold.Chemscore.Internal.Correction.Weighted>
   9.000000E+99

> <Gold.Protein.RotatedTorsions>
[ 6907 6896 6895 6894 ] final -113.62 input  -60.11 | X-H torsion
[ 7974 7965 7964 7962 ] final   -3.64 input  175.53 | X-H torsion
[ 8008 7997 7996 7995 ] final  -58.75 input   59.86 | X-H torsion
[ 10167 10162 10161 10158 ] final -153.89 input  -65.29 | X-H torsion
[ 10718 10713 10712 10709 ] final   42.71 input   66.30 | X-H torsion
[ 10763 10752 10751 10750 ] final  -31.64 input  -60.55 | X-H torsion
[ 11005 11000 10999 10996 ] final  135.12 input  -57.11 | X-H torsion

> <Gold.Protein.ActiveResidues>
 VAL166  LYS551  ARG553  GLY616  TRP617  ASP618  TYR619  PRO620  LYS621  CYS622 
 ASP623  PHE694  ASN695  SER759  ASP760  ASP761  ALA762  ILE779  LEU786  VAL792 
 PHE793  MET794  SER795  GLU796  ALA797  LYS798  CYS799  TRP800  GLU811  SER814 

> <Gold.Protein.RotatedAtoms>
  150.7842  133.8919  159.3315 H   0  0  0  0  0  0  0  0  0  0  0  0  # atno 6907 bound_to 6896
  151.6774  135.0965  160.0219 H   0  0  0  0  0  0  0  0  0  0  0  0  # atno 6908 bound_to 6896
  152.3902  133.6629  159.6266 H   0  0  0  0  0  0  0  0  0  0  0  0  # atno 6909 bound_to 6896
  146.2386  140.1751  142.8332 H   0  0  0  0  0  0  0  0  0  0  0  0  # atno 7974 bound_to 7965
  154.4322  140.1077  156.6007 H   0  0  0  0  0  0  0  0  0  0  0  0  # atno 8008 bound_to 7997
  155.5914  140.3492  155.4549 H   0  0  0  0  0  0  0  0  0  0  0  0  # atno 8009 bound_to 7997
  156.0243  140.1246  157.0314 H   0  0  0  0  0  0  0  0  0  0  0  0  # atno 8010 bound_to 7997
  139.7059  143.9187  152.2448 H   0  0  0  0  0  0  0  0  0  0  0  0  # atno 10167 bound_to 10162
  157.4078  130.7897  149.7404 H   0  0  0  0  0  0  0  0  0  0  0  0  # atno 10718 bound_to 10713
  153.8007  135.6890  153.4856 H   0  0  0  0  0  0  0  0  0  0  0  0  # atno 10763 bound_to 10752
  153.1690  135.4550  154.9875 H   0  0  0  0  0  0  0  0  0  0  0  0  # atno 10764 bound_to 10752
  154.8008  135.3337  154.7495 H   0  0  0  0  0  0  0  0  0  0  0  0  # atno 10765 bound_to 10752
  139.9959  134.9497  156.9963 H   0  0  0  0  0  0  0  0  0  0  0  0  # atno 11005 bound_to 11000
  144.9980  140.8606  143.5299 LP  0  0  0  0  0  0  0  0  0  0  0  0  # atno 17320 bound_to 7965
  145.1766  139.2374  143.5314 LP  0  0  0  0  0  0  0  0  0  0  0  0  # atno 17321 bound_to 7965
  139.9042  144.6894  150.8632 LP  0  0  0  0  0  0  0  0  0  0  0  0  # atno 17342 bound_to 10162
  140.7721  143.3491  151.2051 LP  0  0  0  0  0  0  0  0  0  0  0  0  # atno 17343 bound_to 10162
  155.9842  130.3994  150.3326 LP  0  0  0  0  0  0  0  0  0  0  0  0  # atno 17370 bound_to 10713
  157.1460  131.0309  151.2906 LP  0  0  0  0  0  0  0  0  0  0  0  0  # atno 17371 bound_to 10713
  140.4819  134.1280  155.7218 LP  0  0  0  0  0  0  0  0  0  0  0  0  # atno 17394 bound_to 11000
  141.1604  133.8804  157.1864 LP  0  0  0  0  0  0  0  0  0  0  0  0  # atno 17395 bound_to 11000

$$$$
