AV-unprocessed.smi:23|AV-procd|sdf|173|dock2
  -GOLD-   2262015433D 1   1.00000     0.00000
 Structure written by MMmdl.
 53 56  0  0  0  0  0  0  0  0  1 V2000
  151.0283  145.2758  160.1033 C   0  0  0  0  0  0  0  0  0  0  0  0
  150.6792  143.9781  159.6354 O   0  0  0  0  0  0  0  0  0  0  0  0
  151.7286  143.0571  159.3189 C   0  0  1  0  0  0  0  0  0  0  0  0
  152.6051  143.8660  158.3414 C   0  0  0  0  0  0  0  0  0  0  0  0
  152.5175  142.6785  160.5983 C   0  0  0  0  0  0  0  0  0  0  0  0
  153.6030  141.6274  160.3070 C   0  0  0  0  0  0  0  0  0  0  0  0
  153.0156  140.4057  159.5813 C   0  0  0  0  0  0  0  0  0  0  0  0
  152.2740  140.8159  158.3880 N   0  0  0  0  0  0  0  0  0  0  0  0
  152.0031  139.8756  157.4480 C   0  0  0  0  0  0  0  0  0  0  0  0
  152.4998  140.0112  156.1893 N   0  0  0  0  0  0  0  0  0  0  0  0
  152.2449  139.0854  155.2601 C   0  0  0  0  0  0  0  0  0  0  0  0
  151.5306  137.9641  155.3731 N   0  0  0  0  0  0  0  0  0  0  0  0
  151.0260  137.8228  156.6324 C   0  0  0  0  0  0  0  0  0  0  0  0
  151.2064  138.7269  157.7173 C   0  0  0  0  0  0  0  0  0  0  0  0
  150.5184  138.2675  158.8345 N   0  0  0  0  0  0  0  0  0  0  0  0
  149.9692  137.1534  158.4347 C   0  0  0  0  0  0  0  0  0  0  0  0
  150.2482  136.7938  157.1353 N   0  0  0  0  0  0  0  0  0  0  0  0
  149.7439  135.6466  156.4375 C   0  0  0  0  0  0  0  0  0  0  0  0
  149.3215  134.3845  157.1966 C   0  0  0  0  0  0  0  0  0  0  0  0
  149.8734  133.4982  156.0582 C   0  0  0  0  0  0  0  0  0  0  0  0
  150.7427  132.3155  156.5130 C   0  0  0  0  0  0  0  0  0  0  0  0
  151.7299  132.7246  157.4380 O   0  0  0  0  0  0  0  0  0  0  0  0
  148.8533  132.9462  155.0374 C   0  0  0  0  0  0  0  0  0  0  0  0
  149.4583  132.3337  153.9168 O   0  0  0  0  0  0  0  0  0  0  0  0
  150.6743  134.7449  155.6201 C   0  0  0  0  0  0  0  0  0  0  0  0
  151.1970  141.7775  158.6261 C   0  0  0  0  0  0  0  0  0  0  0  0
  150.1184  145.8667  160.2079 H   0  0  0  0  0  0  0  0  0  0  0  0
  151.6832  145.8110  159.4177 H   0  0  0  0  0  0  0  0  0  0  0  0
  151.4967  145.2392  161.0867 H   0  0  0  0  0  0  0  0  0  0  0  0
  153.4592  143.2951  157.9780 H   0  0  0  0  0  0  0  0  0  0  0  0
  152.9909  144.7700  158.8140 H   0  0  0  0  0  0  0  0  0  0  0  0
  152.0313  144.1739  157.4665 H   0  0  0  0  0  0  0  0  0  0  0  0
  152.9638  143.5659  161.0481 H   0  0  0  0  0  0  0  0  0  0  0  0
  151.8487  142.2601  161.3490 H   0  0  0  0  0  0  0  0  0  0  0  0
  154.3958  142.0664  159.7013 H   0  0  0  0  0  0  0  0  0  0  0  0
  154.0743  141.3129  161.2385 H   0  0  0  0  0  0  0  0  0  0  0  0
  153.8240  139.7258  159.3088 H   0  0  0  0  0  0  0  0  0  0  0  0
  152.3471  139.8609  160.2494 H   0  0  0  0  0  0  0  0  0  0  0  0
  152.6778  139.2673  154.2875 H   0  0  0  0  0  0  0  0  0  0  0  0
  149.3452  136.5571  159.0846 H   0  0  0  0  0  0  0  0  0  0  0  0
  148.9252  136.0147  155.8181 H   0  0  0  0  0  0  0  0  0  0  0  0
  149.8708  134.2571  158.1309 H   0  0  0  0  0  0  0  0  0  0  0  0
  148.2472  134.2984  157.3631 H   0  0  0  0  0  0  0  0  0  0  0  0
  150.1361  131.5305  156.9663 H   0  0  0  0  0  0  0  0  0  0  0  0
  151.2532  131.8585  155.6647 H   0  0  0  0  0  0  0  0  0  0  0  0
  152.4305  133.1454  156.9632 H   0  0  0  0  0  0  0  0  0  0  0  0
  148.2013  132.2077  155.5050 H   0  0  0  0  0  0  0  0  0  0  0  0
  148.2067  133.7405  154.6632 H   0  0  0  0  0  0  0  0  0  0  0  0
  150.2805  132.7670  153.7453 H   0  0  0  0  0  0  0  0  0  0  0  0
  150.6639  134.9445  154.5480 H   0  0  0  0  0  0  0  0  0  0  0  0
  151.6958  134.7524  156.0042 H   0  0  0  0  0  0  0  0  0  0  0  0
  150.4656  141.2739  159.2583 H   0  0  0  0  0  0  0  0  0  0  0  0
  150.6774  142.0452  157.7065 H   0  0  0  0  0  0  0  0  0  0  0  0
  1  2  1  0  0  0  0
  1 27  1  0  0  0  0
  1 28  1  0  0  0  0
  1 29  1  0  0  0  0
  2  3  1  0  0  0  0
  3 26  1  0  0  0  0
  3  4  1  0  0  0  0
  3  5  1  0  0  0  0
  4 30  1  0  0  0  0
  4 31  1  0  0  0  0
  4 32  1  0  0  0  0
  5  6  1  0  0  0  0
  5 33  1  0  0  0  0
  5 34  1  0  0  0  0
  6  7  1  0  0  0  0
  6 35  1  0  0  0  0
  6 36  1  0  0  0  0
  7  8  1  0  0  0  0
  7 37  1  0  0  0  0
  7 38  1  0  0  0  0
  8  9  1  0  0  0  0
  8 26  1  0  0  0  0
  9 14  1  0  0  0  0
  9 10  2  0  0  0  0
 10 11  1  0  0  0  0
 11 12  2  0  0  0  0
 11 39  1  0  0  0  0
 12 13  1  0  0  0  0
 13 17  1  0  0  0  0
 13 14  2  0  0  0  0
 14 15  1  0  0  0  0
 15 16  2  0  0  0  0
 16 17  1  0  0  0  0
 16 40  1  0  0  0  0
 17 18  1  0  0  0  0
 18 25  1  0  0  0  0
 18 19  1  0  0  0  0
 18 41  1  0  0  0  0
 19 20  1  0  0  0  0
 19 42  1  0  0  0  0
 19 43  1  0  0  0  0
 20 21  1  0  0  0  0
 20 23  1  0  0  0  0
 20 25  1  0  0  0  0
 21 22  1  0  0  0  0
 21 44  1  0  0  0  0
 21 45  1  0  0  0  0
 22 46  1  0  0  0  0
 23 24  1  0  0  0  0
 23 47  1  0  0  0  0
 23 48  1  0  0  0  0
 24 49  1  0  0  0  0
 25 50  1  0  0  0  0
 25 51  1  0  0  0  0
 26 52  1  0  0  0  0
 26 53  1  0  0  0  0
M  END
> <s_m_source_file>
AV-unprocessed.smi

> <i_m_source_file_index>
23

> <i_lp_mmshare_version>
43012

> <i_f3d_flags>
0

> <s_epik_input>
W0NIM11PW0NAQF0xKFtDSDNdKVtDSDJdW0NIMl1bQ0gyXU4oW0NIMl0xKWMobltjSF1uMiljKGMyMyluW2NIXW4zW0NIXShbQ0gyXTQpW0NIMl1DNChbQ0gyXVtPSF0pW0NIMl1bT0hd

> <s_epik_cmdline>
J2VwaWtfcHl0aG9uJywgJy1waCcsICc3LjAnLCAnLXRuJywgJzgnLCAnLW1hJywgJzIwMCcsICctbWV0YWxfYmluZGluZycsICctaW1hZScsICc8aW5maWxlLm1hZT4nLCAnLW9tYWUnLCAnPG91dGZpbGUubWFlPic=

> <r_lp_tautomer_probability>
1

> <r_epik_Ionization_Penalty>
0.00233978

> <r_epik_Ionization_Penalty_Charging>
0

> <r_epik_Ionization_Penalty_Neutral>
0.00233978

> <r_epik_State_Penalty>
0.00146422

> <r_epik_Charging_Adjusted_Penalty>
0.00146422

> <i_epik_Tot_Q>
0

> <i_epik_Tot_abs_Q>
0

> <r_epik_Metal_State_Penalty>
-0

> <b_epik_Metal_Only>
0

> <s_lp_Force_Field>
OPLS_2005

> <r_lp_Energy>
49.0819

> <b_lp_Chiralities_Consistent>
1

> <s_lp_Variant>
AV-unprocessed.smi:23-1

> <Gold.Version>
5.8.1

> <Gold.Id.Protein>
6NUR|6NUR_protein|mol2

> <Gold.PLP.Fitness>
46.7378

> <Gold.PLP.PLP>
-41.6519

> <Gold.PLP.part.hbond>
-2.0000

> <Gold.PLP.part.metal>
0.0000

> <Gold.PLP.part.buried>
-6.5871

> <Gold.PLP.part.nonpolar>
-33.4925

> <Gold.PLP.part.repulsive>
0.1553

> <Gold.PLP.ligand.clash>
0.0000

> <Gold.PLP.ligand.torsion>
0.8733

> <Gold.PLP.Chemscore.Hbond>
1.9920

> <Gold.PLP.Chemscore.CHOScore>
0.0000

> <Gold.PLP.Chemscore.Metal>
0.0000

> <Gold.Chemscore.Hbonds>
donor molecule, donor type, donor heavy atom, donor atom, acceptor molecule, acceptor atom, score
      P1  H  6896  6909       L1    22  0.98
      P1  H  7997  8009       L1    10  1.00

> <Gold.PLP.Chemscore.Internal.Correction>
0.8565

> <Gold.Rescore>
     Score         DG    S(hbond)    S(metal)    S(lipo)     H(rot)  DE(clash)    DE(int)     intcor
     12.83     -13.95       1.62        0.00     100.14       3.38       0.11       1.01       ----

> <Gold.Chemscore.Fitness>
12.8279

> <Gold.Chemscore.DG>
-13.9504

> <Gold.Chemscore.ZeroCoef>
-5.4800

> <Gold.Chemscore.Hbond>
1.6217

> <Gold.Chemscore.Metal>
0.0000

> <Gold.Chemscore.Lipo>
100.1371

> <Gold.Chemscore.Internal_Hbond>
0.0000

> <Gold.Chemscore.DEClash>
0.1135

> <Gold.Chemscore.DEInternal>
1.0090

> <Gold.Chemscore.Rot>
3.3837

> <Gold.Chemscore.Internal.Correction>
   9.000000E+99

> <Gold.Chemscore.Hbonds>
donor molecule, donor type, donor heavy atom, donor atom, acceptor molecule, acceptor atom, score
      P1  H  6896  6909       L1    22  0.82
      P1  H  7997  8009       L1    10  0.31

> <Gold.Chemscore.Hbond.Weighted>
-5.4166

> <Gold.Chemscore.Metal.Weighted>
-0.0000

> <Gold.Chemscore.Lipo.Weighted>
-11.7160

> <Gold.Chemscore.Internal_Hbond.Weighted>
0.0000

> <Gold.Chemscore.DEClash.Weighted>
0.1135

> <Gold.Chemscore.DEInternal.Weighted>
1.0090

> <Gold.Chemscore.Rot.Weighted>
8.6622

> <Gold.Chemscore.Internal.Correction.Weighted>
   9.000000E+99

> <Gold.Protein.RotatedTorsions>
[ 6907 6896 6895 6894 ] final  -53.93 input  -60.11 | X-H torsion
[ 7974 7965 7964 7962 ] final  -12.63 input  175.53 | X-H torsion
[ 8008 7997 7996 7995 ] final -168.93 input   59.86 | X-H torsion
[ 10167 10162 10161 10158 ] final  173.61 input  -65.29 | X-H torsion
[ 10718 10713 10712 10709 ] final -173.10 input   66.30 | X-H torsion
[ 10763 10752 10751 10750 ] final  176.47 input  -60.55 | X-H torsion
[ 11005 11000 10999 10996 ] final  136.32 input  -57.11 | X-H torsion

> <Gold.Protein.ActiveResidues>
 VAL166  LYS551  ARG553  GLY616  TRP617  ASP618  TYR619  PRO620  LYS621  CYS622 
 ASP623  PHE694  ASN695  SER759  ASP760  ASP761  ALA762  ILE779  LEU786  VAL792 
 PHE793  MET794  SER795  GLU796  ALA797  LYS798  CYS799  TRP800  GLU811  SER814 

> <Gold.Protein.RotatedAtoms>
  150.8382  134.7664  159.6910 H   0  0  0  0  0  0  0  0  0  0  0  0  # atno 6907 bound_to 6896
  152.4475  134.5460  159.9863 H   0  0  0  0  0  0  0  0  0  0  0  0  # atno 6908 bound_to 6896
  151.5606  133.3366  159.3006 H   0  0  0  0  0  0  0  0  0  0  0  0  # atno 6909 bound_to 6896
  146.2145  140.3085  142.8380 H   0  0  0  0  0  0  0  0  0  0  0  0  # atno 7974 bound_to 7965
  155.8981  140.1036  157.1370 H   0  0  0  0  0  0  0  0  0  0  0  0  # atno 8008 bound_to 7997
  154.4023  140.1298  156.4465 H   0  0  0  0  0  0  0  0  0  0  0  0  # atno 8009 bound_to 7997
  155.7455  140.3466  155.5127 H   0  0  0  0  0  0  0  0  0  0  0  0  # atno 8010 bound_to 7997
  139.5114  144.3241  152.0174 H   0  0  0  0  0  0  0  0  0  0  0  0  # atno 10167 bound_to 10162
  156.7653  130.9428  151.3119 H   0  0  0  0  0  0  0  0  0  0  0  0  # atno 10718 bound_to 10713
  154.4815  135.2775  155.1567 H   0  0  0  0  0  0  0  0  0  0  0  0  # atno 10763 bound_to 10752
  154.3275  135.6197  153.5540 H   0  0  0  0  0  0  0  0  0  0  0  0  # atno 10764 bound_to 10752
  152.9876  135.5757  154.5217 H   0  0  0  0  0  0  0  0  0  0  0  0  # atno 10765 bound_to 10752
  140.0038  134.9467  157.0131 H   0  0  0  0  0  0  0  0  0  0  0  0  # atno 11005 bound_to 11000
  144.9005  140.7637  143.5870 LP  0  0  0  0  0  0  0  0  0  0  0  0  # atno 17320 bound_to 7965
  145.3011  139.1850  143.4689 LP  0  0  0  0  0  0  0  0  0  0  0  0  # atno 17321 bound_to 7965
  140.2682  144.3993  150.6161 LP  0  0  0  0  0  0  0  0  0  0  0  0  # atno 17342 bound_to 10162
  140.6108  143.2169  151.6890 LP  0  0  0  0  0  0  0  0  0  0  0  0  # atno 17343 bound_to 10162
  157.6716  130.9056  150.0053 LP  0  0  0  0  0  0  0  0  0  0  0  0  # atno 17370 bound_to 10713
  156.1313  130.3643  149.9728 LP  0  0  0  0  0  0  0  0  0  0  0  0  # atno 17371 bound_to 10713
  140.4678  134.1417  155.7199 LP  0  0  0  0  0  0  0  0  0  0  0  0  # atno 17394 bound_to 11000
  141.1662  133.8698  157.1707 LP  0  0  0  0  0  0  0  0  0  0  0  0  # atno 17395 bound_to 11000

$$$$
