AV-unprocessed.smi:643|AV-procd|sdf|3153|dock3
  -GOLD-   22720 0 73D 1   1.00000     0.00000
 Structure written by MMmdl.
 40 41  0  0  0  0  0  0  0  0  1 V2000
  145.7930  142.8559  155.9229 C   0  0  0  0  0  0  0  0  0  0  0  0
  146.5102  141.6537  155.2703 C   0  0  0  0  0  0  0  0  0  0  0  0
  145.5092  140.4810  155.1829 C   0  0  0  0  0  0  0  0  0  0  0  0
  147.0314  142.0004  153.8665 C   0  0  0  0  0  0  0  0  0  0  0  0
  148.1331  140.9797  153.5691 C   0  0  0  0  0  0  0  0  0  0  0  0
  148.6833  140.5386  154.9320 C   0  0  0  0  0  0  0  0  0  0  0  0
  147.7957  141.1947  156.0073 C   0  0  1  0  0  0  0  0  0  0  0  0
  148.5205  142.3130  156.6163 N   0  0  0  0  0  0  0  0  0  0  0  0
  149.3978  142.2272  157.6269 C   0  0  0  0  0  0  0  0  0  0  0  0
  149.7110  141.1686  158.1712 O   0  0  0  0  0  0  0  0  0  0  0  0
  149.8719  143.4402  157.9577 N   0  0  0  0  0  0  0  0  0  0  0  0
  150.8026  143.7767  158.9749 C   0  0  0  0  0  0  0  0  0  0  0  0
  151.2602  145.0903  159.2956 C   0  0  0  0  0  0  0  0  0  0  0  0
  152.1275  144.8758  160.3285 C   0  0  0  0  0  0  0  0  0  0  0  0
  152.1515  143.5185  160.5752 N   0  0  0  0  0  0  0  0  0  0  0  0
  152.9199  142.7980  161.5718 C   0  0  0  0  0  0  0  0  0  0  0  0
  153.8813  141.7865  160.9334 C   0  0  0  0  0  0  0  0  0  0  0  0
  154.3428  140.9494  161.8617 F   0  0  0  0  0  0  0  0  0  0  0  0
  153.2633  141.0854  159.9830 F   0  0  0  0  0  0  0  0  0  0  0  0
  151.3330  142.8397  159.7424 N   0  0  0  0  0  0  0  0  0  0  0  0
  144.8809  143.1091  155.3817 H   0  0  0  0  0  0  0  0  0  0  0  0
  146.4134  143.7526  155.9338 H   0  0  0  0  0  0  0  0  0  0  0  0
  145.5137  142.6344  156.9535 H   0  0  0  0  0  0  0  0  0  0  0  0
  145.9533  139.5936  154.7315 H   0  0  0  0  0  0  0  0  0  0  0  0
  144.6367  140.7479  154.5856 H   0  0  0  0  0  0  0  0  0  0  0  0
  145.1513  140.1960  156.1728 H   0  0  0  0  0  0  0  0  0  0  0  0
  146.2474  141.9988  153.1084 H   0  0  0  0  0  0  0  0  0  0  0  0
  147.4700  142.9994  153.8712 H   0  0  0  0  0  0  0  0  0  0  0  0
  147.7130  140.1195  153.0465 H   0  0  0  0  0  0  0  0  0  0  0  0
  148.9095  141.4000  152.9294 H   0  0  0  0  0  0  0  0  0  0  0  0
  148.6313  139.4523  155.0137 H   0  0  0  0  0  0  0  0  0  0  0  0
  149.7344  140.8098  155.0432 H   0  0  0  0  0  0  0  0  0  0  0  0
  147.5441  140.4588  156.7730 H   0  0  0  0  0  0  0  0  0  0  0  0
  148.3297  143.2286  156.2366 H   0  0  0  0  0  0  0  0  0  0  0  0
  149.5109  144.2208  157.4295 H   0  0  0  0  0  0  0  0  0  0  0  0
  151.0056  146.0417  158.8537 H   0  0  0  0  0  0  0  0  0  0  0  0
  152.7223  145.5696  160.9042 H   0  0  0  0  0  0  0  0  0  0  0  0
  153.4761  143.5227  162.1681 H   0  0  0  0  0  0  0  0  0  0  0  0
  152.2312  142.2927  162.2503 H   0  0  0  0  0  0  0  0  0  0  0  0
  154.7436  142.2754  160.4792 H   0  0  0  0  0  0  0  0  0  0  0  0
  1  2  1  0  0  0  0
  1 21  1  0  0  0  0
  1 22  1  0  0  0  0
  1 23  1  0  0  0  0
  2  7  1  0  0  0  0
  2  3  1  0  0  0  0
  2  4  1  0  0  0  0
  3 24  1  0  0  0  0
  3 25  1  0  0  0  0
  3 26  1  0  0  0  0
  4  5  1  0  0  0  0
  4 27  1  0  0  0  0
  4 28  1  0  0  0  0
  5  6  1  0  0  0  0
  5 29  1  0  0  0  0
  5 30  1  0  0  0  0
  6  7  1  0  0  0  0
  6 31  1  0  0  0  0
  6 32  1  0  0  0  0
  7  8  1  0  0  0  0
  7 33  1  0  0  0  0
  8  9  1  0  0  0  0
  8 34  1  0  0  0  0
  9 10  2  0  0  0  0
  9 11  1  0  0  0  0
 11 12  1  0  0  0  0
 11 35  1  0  0  0  0
 12 20  2  0  0  0  0
 12 13  1  0  0  0  0
 13 14  2  0  0  0  0
 13 36  1  0  0  0  0
 14 15  1  0  0  0  0
 14 37  1  0  0  0  0
 15 16  1  0  0  0  0
 15 20  1  0  0  0  0
 16 17  1  0  0  0  0
 16 38  1  0  0  0  0
 16 39  1  0  0  0  0
 17 18  1  0  0  0  0
 17 19  1  0  0  0  0
 17 40  1  0  0  0  0
M  END
> <s_m_source_file>
AV-unprocessed.smi

> <i_m_source_file_index>
643

> <i_lp_mmshare_version>
43012

> <i_f3d_flags>
0

> <s_epik_input>
W0NIM11DMShbQ0gzXSlbQ0gyXVtDSDJdW0NIMl1bQ0BIXTFbTkhdQyg9TylbTkhdYzJbY0hdW2NIXW4objIpW0NIMl1bQ0hdKEYpRg==

> <s_epik_cmdline>
J2VwaWtfcHl0aG9uJywgJy1waCcsICc3LjAnLCAnLXRuJywgJzgnLCAnLW1hJywgJzIwMCcsICctbWV0YWxfYmluZGluZycsICctaW1hZScsICc8aW5maWxlLm1hZT4nLCAnLW9tYWUnLCAnPG91dGZpbGUubWFlPic=

> <r_lp_tautomer_probability>
1

> <r_epik_Ionization_Penalty>
3.99908e-05

> <r_epik_Ionization_Penalty_Charging>
0

> <r_epik_Ionization_Penalty_Neutral>
3.99908e-05

> <r_epik_State_Penalty>
-0

> <r_epik_Charging_Adjusted_Penalty>
0

> <i_epik_Tot_Q>
0

> <i_epik_Tot_abs_Q>
0

> <r_epik_Metal_State_Penalty>
-0

> <b_epik_Metal_Only>
0

> <s_lp_Force_Field>
OPLS_2005

> <r_lp_Energy>
26.1954

> <b_lp_Chiralities_Consistent>
1

> <s_lp_Variant>
AV-unprocessed.smi:643-1

> <Gold.Version>
5.8.1

> <Gold.Id.Protein>
6NUR|6NUR_protein|mol2

> <Gold.PLP.Fitness>
47.4838

> <Gold.PLP.PLP>
-43.0569

> <Gold.PLP.part.hbond>
-2.8238

> <Gold.PLP.part.metal>
0.0000

> <Gold.PLP.part.buried>
-5.1037

> <Gold.PLP.part.nonpolar>
-35.3046

> <Gold.PLP.part.repulsive>
0.0773

> <Gold.PLP.ligand.clash>
0.0000

> <Gold.PLP.ligand.torsion>
0.4235

> <Gold.PLP.Chemscore.Hbond>
1.7480

> <Gold.PLP.Chemscore.CHOScore>
0.0000

> <Gold.PLP.Chemscore.Metal>
0.0000

> <Gold.Chemscore.Hbonds>
donor molecule, donor type, donor heavy atom, donor atom, acceptor molecule, acceptor atom, score
      L1  H     8    34       P1  8028  1.00
      L1  H    11    35       P1  8028  0.75

> <Gold.PLP.Chemscore.Internal.Correction>
0.0299

> <Gold.Rescore>
     Score         DG    S(hbond)    S(metal)    S(lipo)     H(rot)  DE(clash)    DE(int)     intcor
     14.60     -17.81       1.91        0.00      78.93       1.28       0.10       3.11       ----

> <Gold.Chemscore.Fitness>
14.5968

> <Gold.Chemscore.DG>
-17.8089

> <Gold.Chemscore.ZeroCoef>
-5.4800

> <Gold.Chemscore.Hbond>
1.9051

> <Gold.Chemscore.Metal>
0.0000

> <Gold.Chemscore.Lipo>
78.9332

> <Gold.Chemscore.Internal_Hbond>
0.0000

> <Gold.Chemscore.DEClash>
0.1013

> <Gold.Chemscore.DEInternal>
3.1107

> <Gold.Chemscore.Rot>
1.2771

> <Gold.Chemscore.Internal.Correction>
   9.000000E+99

> <Gold.Chemscore.Hbonds>
donor molecule, donor type, donor heavy atom, donor atom, acceptor molecule, acceptor atom, score
      L1  H     8    34       P1  8028  0.67
      L1  H    11    35       P1  8028  0.13

> <Gold.Chemscore.Hbond.Weighted>
-6.3631

> <Gold.Chemscore.Metal.Weighted>
-0.0000

> <Gold.Chemscore.Lipo.Weighted>
-9.2352

> <Gold.Chemscore.Internal_Hbond.Weighted>
0.0000

> <Gold.Chemscore.DEClash.Weighted>
0.1013

> <Gold.Chemscore.DEInternal.Weighted>
3.1107

> <Gold.Chemscore.Rot.Weighted>
3.2694

> <Gold.Chemscore.Internal.Correction.Weighted>
   9.000000E+99

> <Gold.Protein.RotatedTorsions>
[ 6907 6896 6895 6894 ] final  171.54 input  -60.11 | X-H torsion
[ 7974 7965 7964 7962 ] final   93.25 input  175.53 | X-H torsion
[ 8008 7997 7996 7995 ] final   19.82 input   59.86 | X-H torsion
[ 10167 10162 10161 10158 ] final  119.99 input  -65.29 | X-H torsion
[ 10718 10713 10712 10709 ] final -144.63 input   66.30 | X-H torsion
[ 10763 10752 10751 10750 ] final   72.34 input  -60.55 | X-H torsion
[ 11005 11000 10999 10996 ] final -148.95 input  -57.11 | X-H torsion

> <Gold.Protein.ActiveResidues>
 VAL166  LYS551  ARG553  GLY616  TRP617  ASP618  TYR619  PRO620  LYS621  CYS622 
 ASP623  PHE694  ASN695  SER759  ASP760  ASP761  ALA762  ILE779  LEU786  VAL792 
 PHE793  MET794  SER795  GLU796  ALA797  LYS798  CYS799  TRP800  GLU811  SER814 

> <Gold.Protein.RotatedAtoms>
  151.7986  133.3367  159.3520 H   0  0  0  0  0  0  0  0  0  0  0  0  # atno 6907 bound_to 6896
  150.7366  134.5775  159.5931 H   0  0  0  0  0  0  0  0  0  0  0  0  # atno 6908 bound_to 6896
  152.3159  134.7442  160.0377 H   0  0  0  0  0  0  0  0  0  0  0  0  # atno 6909 bound_to 6896
  145.4814  139.2278  143.2880 H   0  0  0  0  0  0  0  0  0  0  0  0  # atno 7974 bound_to 7965
  154.9265  140.3034  155.5190 H   0  0  0  0  0  0  0  0  0  0  0  0  # atno 8008 bound_to 7997
  156.3006  140.2362  156.4256 H   0  0  0  0  0  0  0  0  0  0  0  0  # atno 8009 bound_to 7997
  154.8280  140.0420  157.1446 H   0  0  0  0  0  0  0  0  0  0  0  0  # atno 8010 bound_to 7997
  139.6010  144.7056  151.3062 H   0  0  0  0  0  0  0  0  0  0  0  0  # atno 10167 bound_to 10162
  156.3725  130.7795  151.1977 H   0  0  0  0  0  0  0  0  0  0  0  0  # atno 10718 bound_to 10713
  153.0453  135.5103  154.7729 H   0  0  0  0  0  0  0  0  0  0  0  0  # atno 10763 bound_to 10752
  154.6634  135.2942  154.9839 H   0  0  0  0  0  0  0  0  0  0  0  0  # atno 10764 bound_to 10752
  154.0682  135.6681  153.4873 H   0  0  0  0  0  0  0  0  0  0  0  0  # atno 10765 bound_to 10752
  140.7559  134.3354  157.5114 H   0  0  0  0  0  0  0  0  0  0  0  0  # atno 11005 bound_to 11000
  146.2339  140.5601  142.8963 LP  0  0  0  0  0  0  0  0  0  0  0  0  # atno 17320 bound_to 7965
  144.7887  140.5988  143.6556 LP  0  0  0  0  0  0  0  0  0  0  0  0  # atno 17321 bound_to 7965
  140.7250  143.7030  150.7829 LP  0  0  0  0  0  0  0  0  0  0  0  0  # atno 17342 bound_to 10162
  140.0607  143.5158  152.2629 LP  0  0  0  0  0  0  0  0  0  0  0  0  # atno 17343 bound_to 10162
  157.7485  131.0368  150.4426 LP  0  0  0  0  0  0  0  0  0  0  0  0  # atno 17370 bound_to 10713
  156.4656  130.4041  149.6549 LP  0  0  0  0  0  0  0  0  0  0  0  0  # atno 17371 bound_to 10713
  139.8779  134.9171  156.3171 LP  0  0  0  0  0  0  0  0  0  0  0  0  # atno 17394 bound_to 11000
  140.9708  133.7328  156.0532 LP  0  0  0  0  0  0  0  0  0  0  0  0  # atno 17395 bound_to 11000

$$$$
