AV-unprocessed.smi:2355|AV-procd|sdf|9390|dock6
  -GOLD-   2272013 23D 1   1.00000     0.00000
 Structure written by MMmdl.
 49 50  0  0  0  0  0  0  0  0  2 V2000
  153.3064  140.8362  160.0911 C   0  0  0  0  0  0  0  0  0  0  0  0
  152.4682  141.9215  159.4492 C   0  0  0  0  0  0  0  0  0  0  0  0
  152.5806  143.2573  159.8783 C   0  0  0  0  0  0  0  0  0  0  0  0
  151.7760  144.2279  159.2505 C   0  0  0  0  0  0  0  0  0  0  0  0
  151.8484  145.6831  159.6623 C   0  0  0  0  0  0  0  0  0  0  0  0
  150.9070  143.9349  158.2596 N   0  0  0  0  0  0  0  0  0  0  0  0
  150.7919  142.6517  157.8364 C   0  0  0  0  0  0  0  0  0  0  0  0
  149.8996  142.2407  156.8110 N   0  0  0  0  0  0  0  0  0  0  0  0
  149.1809  141.1067  156.7477 C   0  0  0  0  0  0  0  0  0  0  0  0
  149.1027  140.2637  157.6412 O   0  0  0  0  0  0  0  0  0  0  0  0
  148.5537  140.9918  155.5670 N   0  0  0  0  0  0  0  0  0  0  0  0
  147.6816  139.8890  155.1526 C   0  0  1  0  0  0  0  0  0  0  0  0
  146.2525  140.4424  155.0222 C   0  0  0  0  0  0  0  0  0  0  0  0
  148.1994  139.2232  153.8446 C   0  0  2  0  0  0  0  0  0  0  0  0
  147.0723  138.6072  152.9875 C   0  0  0  0  0  0  0  0  0  0  0  0
  149.2962  138.2491  154.1260 N   0  3  0  0  0  0  0  0  0  0  0  0
  150.6409  138.8368  154.3520 C   0  0  0  0  0  0  0  0  0  0  0  0
  151.6912  137.7165  154.4180 C   0  0  0  0  0  0  0  0  0  0  0  0
  151.3473  136.8105  155.4602 O   0  0  0  0  0  0  0  0  0  0  0  0
  150.0873  136.1871  155.2367 C   0  0  0  0  0  0  0  0  0  0  0  0
  148.9788  137.2530  155.1762 C   0  0  0  0  0  0  0  0  0  0  0  0
  151.5586  141.6163  158.4161 C   0  0  0  0  0  0  0  0  0  0  0  0
  154.3255  141.1872  160.2560 H   0  0  0  0  0  0  0  0  0  0  0  0
  153.3519  139.9487  159.4592 H   0  0  0  0  0  0  0  0  0  0  0  0
  152.8803  140.5519  161.0533 H   0  0  0  0  0  0  0  0  0  0  0  0
  153.2660  143.5292  160.6679 H   0  0  0  0  0  0  0  0  0  0  0  0
  152.3415  145.7938  160.6285 H   0  0  0  0  0  0  0  0  0  0  0  0
  150.8483  146.1101  159.7424 H   0  0  0  0  0  0  0  0  0  0  0  0
  152.4095  146.2556  158.9234 H   0  0  0  0  0  0  0  0  0  0  0  0
  149.8270  142.8674  156.0232 H   0  0  0  0  0  0  0  0  0  0  0  0
  148.6768  141.7386  154.8984 H   0  0  0  0  0  0  0  0  0  0  0  0
  147.6586  139.1391  155.9450 H   0  0  0  0  0  0  0  0  0  0  0  0
  145.5263  139.6489  154.8481 H   0  0  0  0  0  0  0  0  0  0  0  0
  146.1742  141.1556  154.2009 H   0  0  0  0  0  0  0  0  0  0  0  0
  145.9469  140.9544  155.9355 H   0  0  0  0  0  0  0  0  0  0  0  0
  148.6408  140.0272  153.2537 H   0  0  0  0  0  0  0  0  0  0  0  0
  146.3910  139.3726  152.6171 H   0  0  0  0  0  0  0  0  0  0  0  0
  146.4787  137.8899  153.5547 H   0  0  0  0  0  0  0  0  0  0  0  0
  147.4702  138.0948  152.1117 H   0  0  0  0  0  0  0  0  0  0  0  0
  150.8931  139.5319  153.5517 H   0  0  0  0  0  0  0  0  0  0  0  0
  150.6571  139.4012  155.2851 H   0  0  0  0  0  0  0  0  0  0  0  0
  151.7611  137.1886  153.4654 H   0  0  0  0  0  0  0  0  0  0  0  0
  152.6760  138.1359  154.6235 H   0  0  0  0  0  0  0  0  0  0  0  0
  150.1173  135.6058  154.3136 H   0  0  0  0  0  0  0  0  0  0  0  0
  149.8910  135.4859  156.0479 H   0  0  0  0  0  0  0  0  0  0  0  0
  148.8806  137.7482  156.1430 H   0  0  0  0  0  0  0  0  0  0  0  0
  148.0244  136.7711  154.9614 H   0  0  0  0  0  0  0  0  0  0  0  0
  151.4525  140.5974  158.0718 H   0  0  0  0  0  0  0  0  0  0  0  0
  149.3793  137.7097  153.2758 H   0  0  0  0  0  0  0  0  0  0  0  0
  1  2  1  0  0  0  0
  1 23  1  0  0  0  0
  1 24  1  0  0  0  0
  1 25  1  0  0  0  0
  2 22  1  0  0  0  0
  2  3  2  0  0  0  0
  3  4  1  0  0  0  0
  3 26  1  0  0  0  0
  4  5  1  0  0  0  0
  4  6  2  0  0  0  0
  5 27  1  0  0  0  0
  5 28  1  0  0  0  0
  5 29  1  0  0  0  0
  6  7  1  0  0  0  0
  7  8  1  0  0  0  0
  7 22  2  0  0  0  0
  8  9  1  0  0  0  0
  8 30  1  0  0  0  0
  9 10  2  0  0  0  0
  9 11  1  0  0  0  0
 11 12  1  0  0  0  0
 11 31  1  0  0  0  0
 12 13  1  0  0  0  0
 12 14  1  0  0  0  0
 12 32  1  0  0  0  0
 13 33  1  0  0  0  0
 13 34  1  0  0  0  0
 13 35  1  0  0  0  0
 14 15  1  0  0  0  0
 14 16  1  0  0  0  0
 14 36  1  0  0  0  0
 15 37  1  0  0  0  0
 15 38  1  0  0  0  0
 15 39  1  0  0  0  0
 16 21  1  0  0  0  0
 16 17  1  0  0  0  0
 16 49  1  0  0  0  0
 17 18  1  0  0  0  0
 17 40  1  0  0  0  0
 17 41  1  0  0  0  0
 18 19  1  0  0  0  0
 18 42  1  0  0  0  0
 18 43  1  0  0  0  0
 19 20  1  0  0  0  0
 20 21  1  0  0  0  0
 20 44  1  0  0  0  0
 20 45  1  0  0  0  0
 21 46  1  0  0  0  0
 21 47  1  0  0  0  0
 22 48  1  0  0  0  0
M  CHG  1  16   1
M  END
> <s_m_source_file>
AV-unprocessed.smi

> <i_m_source_file_index>
2355

> <i_lp_mmshare_version>
43012

> <i_f3d_flags>
0

> <s_epik_input>
W0NIM11jMVtjSF1jKFtDSDNdKW5jKFtjSF0xKVtOSF1DKD1PKVtOSF1bQ0BIXShbQ0gzXSlbQ0BIXShbQ0gzXSlOMltDSDJdW0NIMl1PW0NIMl1bQ0gyXTI=

> <s_epik_cmdline>
J2VwaWtfcHl0aG9uJywgJy1waCcsICc3LjAnLCAnLXRuJywgJzgnLCAnLW1hJywgJzIwMCcsICctbWV0YWxfYmluZGluZycsICctaW1hZScsICc8aW5maWxlLm1hZT4nLCAnLW9tYWUnLCAnPG91dGZpbGUubWFlPic=

> <r_epik_Ionization_Penalty>
0.602711

> <r_epik_Ionization_Penalty_Charging>
0.602531

> <r_epik_Ionization_Penalty_Neutral>
0.000180055

> <r_epik_State_Penalty>
0.617039

> <r_epik_Charging_Adjusted_Penalty>
1.21957

> <i_epik_Tot_Q>
1

> <i_epik_Tot_abs_Q>
1

> <r_epik_Metal_State_Penalty>
0.617075

> <b_epik_Metal_Only>
0

> <s_lp_Force_Field>
OPLS_2005

> <r_lp_Energy>
26.6532

> <b_lp_Chiralities_Consistent>
1

> <s_lp_Variant>
AV-unprocessed.smi:2355-6

> <Gold.Version>
5.8.1

> <Gold.Id.Protein>
6NUR|6NUR_protein|mol2

> <Gold.PLP.Fitness>
48.1059

> <Gold.PLP.PLP>
-39.5235

> <Gold.PLP.part.hbond>
-3.0051

> <Gold.PLP.part.metal>
0.0000

> <Gold.PLP.part.buried>
-4.5041

> <Gold.PLP.part.nonpolar>
-32.7263

> <Gold.PLP.part.repulsive>
0.3623

> <Gold.PLP.ligand.clash>
0.0000

> <Gold.PLP.ligand.torsion>
1.2419

> <Gold.PLP.Chemscore.Hbond>
3.6410

> <Gold.PLP.Chemscore.CHOScore>
0.0000

> <Gold.PLP.Chemscore.Metal>
0.0000

> <Gold.Chemscore.Hbonds>
donor molecule, donor type, donor heavy atom, donor atom, acceptor molecule, acceptor atom, score
      L1  H     8    30       P1  8028  0.56
      L1  H    16    49       P1  7948  1.85
      P1  H 10752 10765       L1    19  0.22

> <Gold.PLP.Chemscore.Internal.Correction>
0.1433

> <Gold.Rescore>
     Score         DG    S(hbond)    S(metal)    S(lipo)     H(rot)  DE(clash)    DE(int)     intcor
     18.68     -21.61       2.15        0.00     108.24       1.45       0.40       2.53       ----

> <Gold.Chemscore.Fitness>
18.6800

> <Gold.Chemscore.DG>
-21.6114

> <Gold.Chemscore.ZeroCoef>
-5.4800

> <Gold.Chemscore.Hbond>
2.1465

> <Gold.Chemscore.Metal>
0.0000

> <Gold.Chemscore.Lipo>
108.2440

> <Gold.Chemscore.Internal_Hbond>
0.0000

> <Gold.Chemscore.DEClash>
0.4002

> <Gold.Chemscore.DEInternal>
2.5312

> <Gold.Chemscore.Rot>
1.4462

> <Gold.Chemscore.Internal.Correction>
   9.000000E+99

> <Gold.Chemscore.Hbonds>
donor molecule, donor type, donor heavy atom, donor atom, acceptor molecule, acceptor atom, score
      L1  H     8    30       P1  8028  0.57
      L1  H    16    49       P1  7948  0.84

> <Gold.Chemscore.Hbond.Weighted>
-7.1691

> <Gold.Chemscore.Metal.Weighted>
-0.0000

> <Gold.Chemscore.Lipo.Weighted>
-12.6645

> <Gold.Chemscore.Internal_Hbond.Weighted>
0.0000

> <Gold.Chemscore.DEClash.Weighted>
0.4002

> <Gold.Chemscore.DEInternal.Weighted>
2.5312

> <Gold.Chemscore.Rot.Weighted>
3.7023

> <Gold.Chemscore.Internal.Correction.Weighted>
   9.000000E+99

> <Gold.Protein.RotatedTorsions>
[ 6907 6896 6895 6894 ] final  -83.75 input  -60.11 | X-H torsion
[ 7974 7965 7964 7962 ] final  -55.47 input  175.53 | X-H torsion
[ 8008 7997 7996 7995 ] final   16.98 input   59.86 | X-H torsion
[ 10167 10162 10161 10158 ] final  132.99 input  -65.29 | X-H torsion
[ 10718 10713 10712 10709 ] final  -59.58 input   66.30 | X-H torsion
[ 10763 10752 10751 10750 ] final -168.02 input  -60.55 | X-H torsion
[ 11005 11000 10999 10996 ] final  173.29 input  -57.11 | X-H torsion

> <Gold.Protein.ActiveResidues>
 VAL166  LYS551  ARG553  GLY616  TRP617  ASP618  TYR619  PRO620  LYS621  CYS622 
 ASP623  PHE694  ASN695  SER759  ASP760  ASP761  ALA762  ILE779  LEU786  VAL792 
 PHE793  MET794  SER795  GLU796  ALA797  LYS798  CYS799  TRP800  GLU811  SER814 

> <Gold.Protein.RotatedAtoms>
  150.6882  134.3464  159.4889 H   0  0  0  0  0  0  0  0  0  0  0  0  # atno 6907 bound_to 6896
  152.1310  134.9132  160.0568 H   0  0  0  0  0  0  0  0  0  0  0  0  # atno 6908 bound_to 6896
  152.0301  133.3899  159.4331 H   0  0  0  0  0  0  0  0  0  0  0  0  # atno 6909 bound_to 6896
  145.8738  140.8196  142.9875 H   0  0  0  0  0  0  0  0  0  0  0  0  # atno 7974 bound_to 7965
  154.8848  140.2978  155.5404 H   0  0  0  0  0  0  0  0  0  0  0  0  # atno 8008 bound_to 7997
  156.3021  140.2435  156.3790 H   0  0  0  0  0  0  0  0  0  0  0  0  # atno 8009 bound_to 7997
  154.8679  140.0402  157.1695 H   0  0  0  0  0  0  0  0  0  0  0  0  # atno 8010 bound_to 7997
  139.5316  144.6636  151.4932 H   0  0  0  0  0  0  0  0  0  0  0  0  # atno 10167 bound_to 10162
  156.1052  130.4181  150.0734 H   0  0  0  0  0  0  0  0  0  0  0  0  # atno 10718 bound_to 10713
  154.6672  135.2934  154.9789 H   0  0  0  0  0  0  0  0  0  0  0  0  # atno 10763 bound_to 10752
  154.0828  135.6602  153.4844 H   0  0  0  0  0  0  0  0  0  0  0  0  # atno 10764 bound_to 10752
  153.0465  135.5201  154.7651 H   0  0  0  0  0  0  0  0  0  0  0  0  # atno 10765 bound_to 10752
  140.3389  134.7293  157.4188 H   0  0  0  0  0  0  0  0  0  0  0  0  # atno 11005 bound_to 11000
  144.6726  140.1279  143.7445 LP  0  0  0  0  0  0  0  0  0  0  0  0  # atno 17320 bound_to 7965
  145.9105  139.2484  143.1440 LP  0  0  0  0  0  0  0  0  0  0  0  0  # atno 17321 bound_to 7965
  140.6497  143.8722  150.6773 LP  0  0  0  0  0  0  0  0  0  0  0  0  # atno 17342 bound_to 10162
  140.2082  143.3904  152.1738 LP  0  0  0  0  0  0  0  0  0  0  0  0  # atno 17343 bound_to 10162
  156.8712  130.9525  151.3609 LP  0  0  0  0  0  0  0  0  0  0  0  0  # atno 17370 bound_to 10713
  157.6227  130.8668  149.9137 LP  0  0  0  0  0  0  0  0  0  0  0  0  # atno 17371 bound_to 10713
  140.0798  134.5747  155.8553 LP  0  0  0  0  0  0  0  0  0  0  0  0  # atno 17394 bound_to 11000
  141.2044  133.6639  156.6117 LP  0  0  0  0  0  0  0  0  0  0  0  0  # atno 17395 bound_to 11000

$$$$
