AV-unprocessed.smi:2486|AV-procd|sdf|9790|dock6
  -GOLD-   2272013423D 1   1.00000     0.00000
 Structure written by MMmdl.
 42 43  0  0  0  0  0  0  0  0  1 V2000
  146.9916  142.0373  154.0733 C   0  0  0  0  0  0  0  0  0  0  0  0
  148.1000  141.1071  153.9765 N   0  0  0  0  0  0  0  0  0  0  0  0
  147.9775  139.9458  153.2916 N   0  0  0  0  0  0  0  0  0  0  0  0
  149.1811  139.3910  153.4370 C   0  0  0  0  0  0  0  0  0  0  0  0
  150.0856  140.1057  154.1696 N   0  0  0  0  0  0  0  0  0  0  0  0
  149.3394  141.1634  154.4726 C   0  0  0  0  0  0  0  0  0  0  0  0
  149.7480  142.2829  155.2460 N   0  0  0  0  0  0  0  0  0  0  0  0
  150.7116  142.3299  156.1813 C   0  0  0  0  0  0  0  0  0  0  0  0
  151.4237  141.3833  156.5172 O   0  0  0  0  0  0  0  0  0  0  0  0
  150.8103  143.5537  156.7160 N   0  0  0  0  0  0  0  0  0  0  0  0
  151.7652  143.9258  157.7555 C   0  0  0  0  0  0  0  0  0  0  0  0
  151.3125  143.4866  159.1743 C   0  0  0  0  0  0  0  0  0  0  0  0
  149.7937  143.7401  159.3157 C   0  0  0  0  0  0  0  0  0  0  0  0
  151.5508  141.9587  159.3180 C   0  0  0  0  0  0  0  0  0  0  0  0
  152.9880  141.5172  159.6526 C   0  0  0  0  0  0  0  0  0  0  0  0
  153.2523  141.4451  161.1659 C   0  0  0  0  0  0  0  0  0  0  0  0
  153.3583  142.8090  161.8629 C   0  0  0  0  0  0  0  0  0  0  0  0
  152.1421  143.7295  161.6615 C   0  0  0  0  0  0  0  0  0  0  0  0
  152.0717  144.3241  160.2425 C   0  0  0  0  0  0  0  0  0  0  0  0
  147.2946  143.0092  153.6829 H   0  0  0  0  0  0  0  0  0  0  0  0
  146.6963  142.1474  155.1172 H   0  0  0  0  0  0  0  0  0  0  0  0
  146.1366  141.6772  153.4991 H   0  0  0  0  0  0  0  0  0  0  0  0
  149.4165  138.4327  152.9981 H   0  0  0  0  0  0  0  0  0  0  0  0
  149.2485  143.1415  155.0681 H   0  0  0  0  0  0  0  0  0  0  0  0
  150.1890  144.2770  156.3849 H   0  0  0  0  0  0  0  0  0  0  0  0
  152.7329  143.4810  157.5160 H   0  0  0  0  0  0  0  0  0  0  0  0
  151.9063  145.0069  157.7204 H   0  0  0  0  0  0  0  0  0  0  0  0
  149.4239  143.4229  160.2910 H   0  0  0  0  0  0  0  0  0  0  0  0
  149.2301  143.1913  158.5602 H   0  0  0  0  0  0  0  0  0  0  0  0
  149.5408  144.7952  159.2069 H   0  0  0  0  0  0  0  0  0  0  0  0
  150.8801  141.5442  160.0720 H   0  0  0  0  0  0  0  0  0  0  0  0
  151.2470  141.4707  158.3910 H   0  0  0  0  0  0  0  0  0  0  0  0
  153.1328  140.5150  159.2477 H   0  0  0  0  0  0  0  0  0  0  0  0
  153.7270  142.1454  159.1552 H   0  0  0  0  0  0  0  0  0  0  0  0
  152.4768  140.8473  161.6466 H   0  0  0  0  0  0  0  0  0  0  0  0
  154.1847  140.9046  161.3318 H   0  0  0  0  0  0  0  0  0  0  0  0
  153.4921  142.6355  162.9311 H   0  0  0  0  0  0  0  0  0  0  0  0
  154.2644  143.3189  161.5336 H   0  0  0  0  0  0  0  0  0  0  0  0
  151.2150  143.2229  161.9303 H   0  0  0  0  0  0  0  0  0  0  0  0
  152.2396  144.5567  162.3653 H   0  0  0  0  0  0  0  0  0  0  0  0
  153.0887  144.5244  159.9021 H   0  0  0  0  0  0  0  0  0  0  0  0
  151.6082  145.3093  160.3095 H   0  0  0  0  0  0  0  0  0  0  0  0
  1  2  1  0  0  0  0
  1 20  1  0  0  0  0
  1 21  1  0  0  0  0
  1 22  1  0  0  0  0
  2  6  1  0  0  0  0
  2  3  1  0  0  0  0
  3  4  2  0  0  0  0
  4  5  1  0  0  0  0
  4 23  1  0  0  0  0
  5  6  2  0  0  0  0
  6  7  1  0  0  0  0
  7  8  1  0  0  0  0
  7 24  1  0  0  0  0
  8  9  2  0  0  0  0
  8 10  1  0  0  0  0
 10 11  1  0  0  0  0
 10 25  1  0  0  0  0
 11 12  1  0  0  0  0
 11 26  1  0  0  0  0
 11 27  1  0  0  0  0
 12 19  1  0  0  0  0
 12 13  1  0  0  0  0
 12 14  1  0  0  0  0
 13 28  1  0  0  0  0
 13 29  1  0  0  0  0
 13 30  1  0  0  0  0
 14 15  1  0  0  0  0
 14 31  1  0  0  0  0
 14 32  1  0  0  0  0
 15 16  1  0  0  0  0
 15 33  1  0  0  0  0
 15 34  1  0  0  0  0
 16 17  1  0  0  0  0
 16 35  1  0  0  0  0
 16 36  1  0  0  0  0
 17 18  1  0  0  0  0
 17 37  1  0  0  0  0
 17 38  1  0  0  0  0
 18 19  1  0  0  0  0
 18 39  1  0  0  0  0
 18 40  1  0  0  0  0
 19 41  1  0  0  0  0
 19 42  1  0  0  0  0
M  END
> <s_m_source_file>
AV-unprocessed.smi

> <i_m_source_file_index>
2486

> <i_lp_mmshare_version>
43012

> <i_f3d_flags>
0

> <s_epik_input>
W0NIM11uMW5bY0hdbmMxW05IXUMoPU8pW05IXVtDSDJdQzIoW0NIM10pW0NIMl1bQ0gyXVtDSDJdW0NIMl1bQ0gyXVtDSDJdMg==

> <s_epik_cmdline>
J2VwaWtfcHl0aG9uJywgJy1waCcsICc3LjAnLCAnLXRuJywgJzgnLCAnLW1hJywgJzIwMCcsICctbWV0YWxfYmluZGluZycsICctaW1hZScsICc8aW5maWxlLm1hZT4nLCAnLW9tYWUnLCAnPG91dGZpbGUubWFlPic=

> <r_lp_tautomer_probability>
1

> <r_epik_Ionization_Penalty>
2.33289e-05

> <r_epik_Ionization_Penalty_Charging>
0

> <r_epik_Ionization_Penalty_Neutral>
2.33289e-05

> <r_epik_State_Penalty>
-0

> <r_epik_Charging_Adjusted_Penalty>
0

> <i_epik_Tot_Q>
0

> <i_epik_Tot_abs_Q>
0

> <r_epik_Metal_State_Penalty>
-0

> <b_epik_Metal_Only>
0

> <s_lp_Force_Field>
OPLS_2005

> <r_lp_Energy>
21.4414

> <b_lp_Chiralities_Consistent>
1

> <s_lp_Variant>
AV-unprocessed.smi:2486-1

> <Gold.Version>
5.8.1

> <Gold.Id.Protein>
6NUR|6NUR_protein|mol2

> <Gold.PLP.Fitness>
50.8250

> <Gold.PLP.PLP>
-40.1206

> <Gold.PLP.part.hbond>
-2.7878

> <Gold.PLP.part.metal>
0.0000

> <Gold.PLP.part.buried>
-1.6813

> <Gold.PLP.part.nonpolar>
-36.2845

> <Gold.PLP.part.repulsive>
1.9368

> <Gold.PLP.ligand.clash>
0.0000

> <Gold.PLP.ligand.torsion>
0.5189

> <Gold.PLP.Chemscore.Hbond>
2.9120

> <Gold.PLP.Chemscore.CHOScore>
1.0000

> <Gold.PLP.Chemscore.Metal>
0.0000

> <Gold.Chemscore.Hbonds>
donor molecule, donor type, donor heavy atom, donor atom, acceptor molecule, acceptor atom, score
      L1  H     7    24       P1  8028  0.93
      L1  H    10    25       P1  8028  1.00
      P1  H  7989  7998       L1     5  0.96
      L1  C     4    23       P1  7948  1.00

> <Gold.PLP.Chemscore.Internal.Correction>
0.0062

> <Gold.Rescore>
     Score         DG    S(hbond)    S(metal)    S(lipo)     H(rot)  DE(clash)    DE(int)     intcor
     17.55     -21.52       2.48        0.00      95.83       1.35       1.47       2.49       ----

> <Gold.Chemscore.Fitness>
17.5550

> <Gold.Chemscore.DG>
-21.5152

> <Gold.Chemscore.ZeroCoef>
-5.4800

> <Gold.Chemscore.Hbond>
2.4754

> <Gold.Chemscore.Metal>
0.0000

> <Gold.Chemscore.Lipo>
95.8268

> <Gold.Chemscore.Internal_Hbond>
0.0000

> <Gold.Chemscore.DEClash>
1.4704

> <Gold.Chemscore.DEInternal>
2.4898

> <Gold.Chemscore.Rot>
1.3454

> <Gold.Chemscore.Internal.Correction>
   9.000000E+99

> <Gold.Chemscore.Hbonds>
donor molecule, donor type, donor heavy atom, donor atom, acceptor molecule, acceptor atom, score
      L1  H     7    24       P1  8028  0.91
      L1  H    10    25       P1  8028  0.91
      P1  H  7989  7998       L1     5  0.36

> <Gold.Chemscore.Hbond.Weighted>
-8.2677

> <Gold.Chemscore.Metal.Weighted>
-0.0000

> <Gold.Chemscore.Lipo.Weighted>
-11.2117

> <Gold.Chemscore.Internal_Hbond.Weighted>
0.0000

> <Gold.Chemscore.DEClash.Weighted>
1.4704

> <Gold.Chemscore.DEInternal.Weighted>
2.4898

> <Gold.Chemscore.Rot.Weighted>
3.4442

> <Gold.Chemscore.Internal.Correction.Weighted>
   9.000000E+99

> <Gold.Protein.RotatedTorsions>
[ 6907 6896 6895 6894 ] final  -90.56 input  -60.11 | X-H torsion
[ 7974 7965 7964 7962 ] final  117.84 input  175.53 | X-H torsion
[ 8008 7997 7996 7995 ] final  156.67 input   59.86 | X-H torsion
[ 10167 10162 10161 10158 ] final   -3.00 input  -65.29 | X-H torsion
[ 10718 10713 10712 10709 ] final  151.46 input   66.30 | X-H torsion
[ 10763 10752 10751 10750 ] final  -78.04 input  -60.55 | X-H torsion
[ 11005 11000 10999 10996 ] final  142.29 input  -57.11 | X-H torsion

> <Gold.Protein.ActiveResidues>
 VAL166  LYS551  ARG553  GLY616  TRP617  ASP618  TYR619  PRO620  LYS621  CYS622 
 ASP623  PHE694  ASN695  SER759  ASP760  ASP761  ALA762  ILE779  LEU786  VAL792 
 PHE793  MET794  SER795  GLU796  ALA797  LYS798  CYS799  TRP800  GLU811  SER814 

> <Gold.Protein.RotatedAtoms>
  150.6883  134.2412  159.4473 H   0  0  0  0  0  0  0  0  0  0  0  0  # atno 6907 bound_to 6896
  152.0357  134.9739  160.0582 H   0  0  0  0  0  0  0  0  0  0  0  0  # atno 6908 bound_to 6896
  152.1261  133.4346  159.4735 H   0  0  0  0  0  0  0  0  0  0  0  0  # atno 6909 bound_to 6896
  145.1625  139.3147  143.4510 H   0  0  0  0  0  0  0  0  0  0  0  0  # atno 7974 bound_to 7965
  156.2409  140.1906  156.6991 H   0  0  0  0  0  0  0  0  0  0  0  0  # atno 8008 bound_to 7997
  154.6195  140.0610  156.9623 H   0  0  0  0  0  0  0  0  0  0  0  0  # atno 8009 bound_to 7997
  155.1885  140.3282  155.4365 H   0  0  0  0  0  0  0  0  0  0  0  0  # atno 8010 bound_to 7997
  140.6873  143.6592  150.8282 H   0  0  0  0  0  0  0  0  0  0  0  0  # atno 10167 bound_to 10162
  157.2704  131.0816  151.1603 H   0  0  0  0  0  0  0  0  0  0  0  0  # atno 10718 bound_to 10713
  154.5208  135.5743  153.6679 H   0  0  0  0  0  0  0  0  0  0  0  0  # atno 10763 bound_to 10752
  152.9917  135.6181  154.2757 H   0  0  0  0  0  0  0  0  0  0  0  0  # atno 10764 bound_to 10752
  154.2678  135.2854  155.2731 H   0  0  0  0  0  0  0  0  0  0  0  0  # atno 10765 bound_to 10752
  140.0466  134.9278  157.0940 H   0  0  0  0  0  0  0  0  0  0  0  0  # atno 11005 bound_to 11000
  146.3480  140.1741  142.8589 LP  0  0  0  0  0  0  0  0  0  0  0  0  # atno 17320 bound_to 7965
  145.0316  140.8875  143.5106 LP  0  0  0  0  0  0  0  0  0  0  0  0  # atno 17321 bound_to 7965
  140.0300  143.5453  152.2764 LP  0  0  0  0  0  0  0  0  0  0  0  0  # atno 17342 bound_to 10162
  139.6243  144.7634  151.2673 LP  0  0  0  0  0  0  0  0  0  0  0  0  # atno 17343 bound_to 10162
  157.3077  130.6874  149.6198 LP  0  0  0  0  0  0  0  0  0  0  0  0  # atno 17370 bound_to 10713
  155.9663  130.4373  150.5169 LP  0  0  0  0  0  0  0  0  0  0  0  0  # atno 17371 bound_to 10713
  140.3984  134.2109  155.7164 LP  0  0  0  0  0  0  0  0  0  0  0  0  # atno 17394 bound_to 11000
  141.1910  133.8205  157.0898 LP  0  0  0  0  0  0  0  0  0  0  0  0  # atno 17395 bound_to 11000

$$$$
