AV-unprocessed.smi:341|AV-procd|sdf|2383|dock5
  -GOLD-   2262022313D 1   1.00000     0.00000
 Structure written by MMmdl.
 44 46  0  0  0  0  0  0  0  0  1 V2000
  151.3015  142.9379  157.1076 C   0  0  0  0  0  0  0  0  0  0  0  0
  151.3881  141.4688  157.5403 C   0  0  0  0  0  0  0  0  0  0  0  0
  152.2791  141.3074  158.6866 N   0  0  0  0  0  0  0  0  0  0  0  0
  153.1856  140.3189  158.8718 C   0  0  0  0  0  0  0  0  0  0  0  0
  153.4212  139.3974  158.0907 O   0  0  0  0  0  0  0  0  0  0  0  0
  153.7871  140.5187  160.0685 N   0  0  0  0  0  0  0  0  0  0  0  0
  154.8342  139.6902  160.6656 C   0  0  0  0  0  0  0  0  0  0  0  0
  154.2958  138.8459  161.8386 C   0  0  1  0  0  0  0  0  0  0  0  0
  154.2391  137.4991  161.4116 O   0  0  0  0  0  0  0  0  0  0  0  0
  155.2314  138.8981  163.0582 C   0  0  0  0  0  0  0  0  0  0  0  0
  155.5555  140.2556  163.3291 O   0  0  0  0  0  0  0  0  0  0  0  0
  155.4943  140.6950  164.6340 C   0  0  0  0  0  0  0  0  0  0  0  0
  155.7519  139.7429  165.6417 C   0  0  0  0  0  0  0  0  0  0  0  0
  155.7111  140.1021  167.0026 C   0  0  0  0  0  0  0  0  0  0  0  0
  155.4097  141.4274  167.3727 C   0  0  0  0  0  0  0  0  0  0  0  0
  155.3666  141.8017  168.7763 C   0  0  0  0  0  0  0  0  0  0  0  0
  155.3324  142.0998  169.8938 N   0  0  0  0  0  0  0  0  0  0  0  0
  155.1505  142.3884  166.3757 C   0  0  0  0  0  0  0  0  0  0  0  0
  155.1917  142.0270  165.0148 C   0  0  0  0  0  0  0  0  0  0  0  0
  153.2475  141.6662  160.6675 C   0  0  0  0  0  0  0  0  0  0  0  0
  153.5300  142.2901  161.8955 C   0  0  0  0  0  0  0  0  0  0  0  0
  152.7940  143.4554  162.2135 C   0  0  0  0  0  0  0  0  0  0  0  0
  151.8137  143.9623  161.3213 C   0  0  0  0  0  0  0  0  0  0  0  0
  151.5499  143.3154  160.0913 C   0  0  0  0  0  0  0  0  0  0  0  0
  152.2972  142.1611  159.7989 C   0  0  0  0  0  0  0  0  0  0  0  0
  150.6340  143.0521  156.2535 H   0  0  0  0  0  0  0  0  0  0  0  0
  152.2801  143.3221  156.8180 H   0  0  0  0  0  0  0  0  0  0  0  0
  150.9197  143.5652  157.9137 H   0  0  0  0  0  0  0  0  0  0  0  0
  150.3928  141.0965  157.7877 H   0  0  0  0  0  0  0  0  0  0  0  0
  151.7424  140.8550  156.7118 H   0  0  0  0  0  0  0  0  0  0  0  0
  155.3123  139.0611  159.9137 H   0  0  0  0  0  0  0  0  0  0  0  0
  155.6173  140.3600  161.0243 H   0  0  0  0  0  0  0  0  0  0  0  0
  153.3015  139.1906  162.1263 H   0  0  0  0  0  0  0  0  0  0  0  0
  154.0291  137.4853  160.4905 H   0  0  0  0  0  0  0  0  0  0  0  0
  154.7725  138.4109  163.9207 H   0  0  0  0  0  0  0  0  0  0  0  0
  156.1572  138.3679  162.8295 H   0  0  0  0  0  0  0  0  0  0  0  0
  155.9843  138.7241  165.3677 H   0  0  0  0  0  0  0  0  0  0  0  0
  155.9124  139.3554  167.7575 H   0  0  0  0  0  0  0  0  0  0  0  0
  154.9185  143.4082  166.6481 H   0  0  0  0  0  0  0  0  0  0  0  0
  154.9870  142.7919  164.2815 H   0  0  0  0  0  0  0  0  0  0  0  0
  154.2767  141.9010  162.5714 H   0  0  0  0  0  0  0  0  0  0  0  0
  152.9802  143.9648  163.1474 H   0  0  0  0  0  0  0  0  0  0  0  0
  151.2622  144.8527  161.5843 H   0  0  0  0  0  0  0  0  0  0  0  0
  150.8043  143.6960  159.4092 H   0  0  0  0  0  0  0  0  0  0  0  0
  1  2  1  0  0  0  0
  1 26  1  0  0  0  0
  1 27  1  0  0  0  0
  1 28  1  0  0  0  0
  2  3  1  0  0  0  0
  2 29  1  0  0  0  0
  2 30  1  0  0  0  0
  3 25  1  0  0  0  0
  3  4  1  0  0  0  0
  4  5  2  0  0  0  0
  4  6  1  0  0  0  0
  6  7  1  0  0  0  0
  6 20  1  0  0  0  0
  7  8  1  0  0  0  0
  7 31  1  0  0  0  0
  7 32  1  0  0  0  0
  8  9  1  0  0  0  0
  8 10  1  0  0  0  0
  8 33  1  0  0  0  0
  9 34  1  0  0  0  0
 10 11  1  0  0  0  0
 10 35  1  0  0  0  0
 10 36  1  0  0  0  0
 11 12  1  0  0  0  0
 12 19  1  0  0  0  0
 12 13  2  0  0  0  0
 13 14  1  0  0  0  0
 13 37  1  0  0  0  0
 14 15  2  0  0  0  0
 14 38  1  0  0  0  0
 15 16  1  0  0  0  0
 15 18  1  0  0  0  0
 16 17  3  0  0  0  0
 18 19  2  0  0  0  0
 18 39  1  0  0  0  0
 19 40  1  0  0  0  0
 20 25  2  0  0  0  0
 20 21  1  0  0  0  0
 21 22  2  0  0  0  0
 21 41  1  0  0  0  0
 22 23  1  0  0  0  0
 22 42  1  0  0  0  0
 23 24  2  0  0  0  0
 23 43  1  0  0  0  0
 24 25  1  0  0  0  0
 24 44  1  0  0  0  0
M  END
> <s_m_source_file>
AV-unprocessed.smi

> <i_m_source_file_index>
341

> <i_lp_mmshare_version>
43012

> <i_f3d_flags>
0

> <s_epik_input>
W2NIXTFbY0hdW2NIXVtjSF1jKGMxMiluKFtDSDJdW0NIM10pYyg9TyluMltDSDJdW0NASF0oW09IXSlbQ0gyXU9jM1tjSF1bY0hdYyhDI04pW2NIXVtjSF0z

> <s_epik_cmdline>
J2VwaWtfcHl0aG9uJywgJy1waCcsICc3LjAnLCAnLXRuJywgJzgnLCAnLW1hJywgJzIwMCcsICctbWV0YWxfYmluZGluZycsICctaW1hZScsICc8aW5maWxlLm1hZT4nLCAnLW9tYWUnLCAnPG91dGZpbGUubWFlPic=

> <r_lp_tautomer_probability>
1

> <r_epik_Ionization_Penalty>
2.40146e-06

> <r_epik_Ionization_Penalty_Charging>
2.16099e-09

> <r_epik_Ionization_Penalty_Neutral>
2.3993e-06

> <r_epik_State_Penalty>
-0

> <r_epik_Charging_Adjusted_Penalty>
2.16099e-09

> <i_epik_Tot_Q>
0

> <i_epik_Tot_abs_Q>
0

> <r_epik_Metal_State_Penalty>
-0

> <b_epik_Metal_Only>
0

> <s_lp_Force_Field>
OPLS_2005

> <r_lp_Energy>
47.9836

> <b_lp_Chiralities_Consistent>
1

> <s_lp_Variant>
AV-unprocessed.smi:341-2

> <Gold.Version>
5.8.1

> <Gold.Id.Protein>
6NUR|6NUR_protein|mol2

> <Gold.PLP.Fitness>
53.6183

> <Gold.PLP.PLP>
-54.1785

> <Gold.PLP.part.hbond>
-1.3914

> <Gold.PLP.part.metal>
0.0000

> <Gold.PLP.part.buried>
-7.4072

> <Gold.PLP.part.nonpolar>
-44.4869

> <Gold.PLP.part.repulsive>
0.1963

> <Gold.PLP.ligand.clash>
0.0000

> <Gold.PLP.ligand.torsion>
1.8289

> <Gold.PLP.Chemscore.Hbond>
1.0000

> <Gold.PLP.Chemscore.CHOScore>
0.0000

> <Gold.PLP.Chemscore.Metal>
0.0000

> <Gold.Chemscore.Hbonds>
donor molecule, donor type, donor heavy atom, donor atom, acceptor molecule, acceptor atom, score
      P1  H  7997  8010       L1     5  0.99

> <Gold.PLP.Chemscore.Internal.Correction>
0.0974

> <Gold.Rescore>
     Score         DG    S(hbond)    S(metal)    S(lipo)     H(rot)  DE(clash)    DE(int)     intcor
     16.99     -18.76       0.88        0.00     142.74       2.48       0.13       1.64       ----

> <Gold.Chemscore.Fitness>
16.9922

> <Gold.Chemscore.DG>
-18.7623

> <Gold.Chemscore.ZeroCoef>
-5.4800

> <Gold.Chemscore.Hbond>
0.8750

> <Gold.Chemscore.Metal>
0.0000

> <Gold.Chemscore.Lipo>
142.7380

> <Gold.Chemscore.Internal_Hbond>
0.0000

> <Gold.Chemscore.DEClash>
0.1336

> <Gold.Chemscore.DEInternal>
1.6365

> <Gold.Chemscore.Rot>
2.4768

> <Gold.Chemscore.Internal.Correction>
   9.000000E+99

> <Gold.Chemscore.Hbonds>
donor molecule, donor type, donor heavy atom, donor atom, acceptor molecule, acceptor atom, score
      P1  H  7997  8010       L1     5  0.33

> <Gold.Chemscore.Hbond.Weighted>
-2.9227

> <Gold.Chemscore.Metal.Weighted>
-0.0000

> <Gold.Chemscore.Lipo.Weighted>
-16.7003

> <Gold.Chemscore.Internal_Hbond.Weighted>
0.0000

> <Gold.Chemscore.DEClash.Weighted>
0.1336

> <Gold.Chemscore.DEInternal.Weighted>
1.6365

> <Gold.Chemscore.Rot.Weighted>
6.3407

> <Gold.Chemscore.Internal.Correction.Weighted>
   9.000000E+99

> <Gold.Protein.RotatedTorsions>
[ 6907 6896 6895 6894 ] final    3.08 input  -60.11 | X-H torsion
[ 7974 7965 7964 7962 ] final  118.95 input  175.53 | X-H torsion
[ 8008 7997 7996 7995 ] final   13.15 input   59.86 | X-H torsion
[ 10167 10162 10161 10158 ] final  159.08 input  -65.29 | X-H torsion
[ 10718 10713 10712 10709 ] final    6.50 input   66.30 | X-H torsion
[ 10763 10752 10751 10750 ] final   72.93 input  -60.55 | X-H torsion
[ 11005 11000 10999 10996 ] final  -75.76 input  -57.11 | X-H torsion

> <Gold.Protein.ActiveResidues>
 VAL166  LYS551  ARG553  GLY616  TRP617  ASP618  TYR619  PRO620  LYS621  CYS622 
 ASP623  PHE694  ASN695  SER759  ASP760  ASP761  ALA762  ILE779  LEU786  VAL792 
 PHE793  MET794  SER795  GLU796  ALA797  LYS798  CYS799  TRP800  GLU811  SER814 

> <Gold.Protein.RotatedAtoms>
  151.6193  135.1033  160.0097 H   0  0  0  0  0  0  0  0  0  0  0  0  # atno 6907 bound_to 6896
  152.4166  133.7044  159.6453 H   0  0  0  0  0  0  0  0  0  0  0  0  # atno 6908 bound_to 6896
  150.8054  133.8446  159.3229 H   0  0  0  0  0  0  0  0  0  0  0  0  # atno 6909 bound_to 6896
  145.1491  139.3221  143.4576 H   0  0  0  0  0  0  0  0  0  0  0  0  # atno 7974 bound_to 7965
  154.8305  140.2898  155.5725 H   0  0  0  0  0  0  0  0  0  0  0  0  # atno 8008 bound_to 7997
  156.3005  140.2533  156.3160 H   0  0  0  0  0  0  0  0  0  0  0  0  # atno 8009 bound_to 7997
  154.9237  140.0385  157.2000 H   0  0  0  0  0  0  0  0  0  0  0  0  # atno 8010 bound_to 7997
  139.4830  144.4764  151.8505 H   0  0  0  0  0  0  0  0  0  0  0  0  # atno 10167 bound_to 10162
  156.9231  130.5798  149.5648 H   0  0  0  0  0  0  0  0  0  0  0  0  # atno 10718 bound_to 10713
  153.0490  135.5081  154.7818 H   0  0  0  0  0  0  0  0  0  0  0  0  # atno 10763 bound_to 10752
  154.6696  135.2951  154.9762 H   0  0  0  0  0  0  0  0  0  0  0  0  # atno 10764 bound_to 10752
  154.0585  135.6694  153.4861 H   0  0  0  0  0  0  0  0  0  0  0  0  # atno 10765 bound_to 10752
  141.1648  133.6958  156.7566 H   0  0  0  0  0  0  0  0  0  0  0  0  # atno 11005 bound_to 11000
  146.3497  140.1558  142.8591 LP  0  0  0  0  0  0  0  0  0  0  0  0  # atno 17320 bound_to 7965
  145.0450  140.8975  143.5029 LP  0  0  0  0  0  0  0  0  0  0  0  0  # atno 17321 bound_to 7965
  140.4237  144.2209  150.5887 LP  0  0  0  0  0  0  0  0  0  0  0  0  # atno 17342 bound_to 10162
  140.4849  143.2367  151.8903 LP  0  0  0  0  0  0  0  0  0  0  0  0  # atno 17343 bound_to 10162
  156.0481  130.5555  150.8928 LP  0  0  0  0  0  0  0  0  0  0  0  0  # atno 17370 bound_to 10713
  157.5895  131.0945  150.9142 LP  0  0  0  0  0  0  0  0  0  0  0  0  # atno 17371 bound_to 10713
  140.2565  134.8500  157.3718 LP  0  0  0  0  0  0  0  0  0  0  0  0  # atno 17394 bound_to 11000
  140.1652  134.4678  155.7868 LP  0  0  0  0  0  0  0  0  0  0  0  0  # atno 17395 bound_to 11000

$$$$
