AV-unprocessed.smi:1484|AV-procd|sdf|5999|dock8
  -GOLD-   22720 6 93D 1   1.00000     0.00000
 Structure written by MMmdl.
 38 39  0  0  0  0  0  0  0  0  1 V2000
  153.5696  141.6817  160.6737 C   0  0  0  0  0  0  0  0  0  0  0  0
  152.9103  142.5687  159.6081 C   0  0  2  0  0  0  0  0  0  0  0  0
  152.6505  143.9908  160.1407 C   0  0  0  0  0  0  0  0  0  0  0  0
  151.9901  144.8787  159.0745 C   0  0  0  0  0  0  0  0  0  0  0  0
  150.6905  144.2491  158.5502 C   0  0  0  0  0  0  0  0  0  0  0  0
  150.9352  142.8251  158.0118 C   0  0  2  0  0  0  0  0  0  0  0  0
  149.6806  142.2122  157.5863 N   0  0  0  0  0  0  0  0  0  0  0  0
  148.5198  142.2742  158.2562 C   0  0  0  0  0  0  0  0  0  0  0  0
  148.3933  142.8559  159.3350 O   0  0  0  0  0  0  0  0  0  0  0  0
  147.3322  141.5461  157.6094 C   0  0  0  0  0  0  0  0  0  0  0  0
  147.2279  141.7697  156.1602 N   0  0  0  0  0  0  0  0  0  0  0  0
  148.3391  141.3559  155.4413 N   0  0  0  0  0  0  0  0  0  0  0  0
  148.3621  141.4860  154.1580 C   0  0  0  0  0  0  0  0  0  0  0  0
  149.4808  141.0603  153.4847 O   0  0  0  0  0  0  0  0  0  0  0  0
  147.2446  142.0638  153.4442 C   0  0  0  0  0  0  0  0  0  0  0  0
  146.1687  142.4692  154.1537 C   0  0  0  0  0  0  0  0  0  0  0  0
  146.1100  142.3363  155.6105 C   0  0  0  0  0  0  0  0  0  0  0  0
  145.1441  142.6991  156.2816 O   0  0  0  0  0  0  0  0  0  0  0  0
  151.6030  141.9428  159.0838 C   0  0  0  0  0  0  0  0  0  0  0  0
  149.1719  140.4211  152.8615 H   0  0  0  0  0  0  0  0  0  0  0  0
  152.9240  141.5605  161.5442 H   0  0  0  0  0  0  0  0  0  0  0  0
  154.5115  142.1122  161.0148 H   0  0  0  0  0  0  0  0  0  0  0  0
  153.7860  140.6887  160.2788 H   0  0  0  0  0  0  0  0  0  0  0  0
  153.6051  142.6453  158.7704 H   0  0  0  0  0  0  0  0  0  0  0  0
  152.0094  143.9441  161.0223 H   0  0  0  0  0  0  0  0  0  0  0  0
  153.5873  144.4457  160.4644 H   0  0  0  0  0  0  0  0  0  0  0  0
  151.7834  145.8659  159.4888 H   0  0  0  0  0  0  0  0  0  0  0  0
  152.6823  145.0305  158.2454 H   0  0  0  0  0  0  0  0  0  0  0  0
  149.9529  144.2197  159.3535 H   0  0  0  0  0  0  0  0  0  0  0  0
  150.2698  144.8820  157.7678 H   0  0  0  0  0  0  0  0  0  0  0  0
  151.6093  142.8827  157.1547 H   0  0  0  0  0  0  0  0  0  0  0  0
  149.6950  141.7075  156.7118 H   0  0  0  0  0  0  0  0  0  0  0  0
  147.4041  140.4762  157.8156 H   0  0  0  0  0  0  0  0  0  0  0  0
  146.4204  141.8790  158.1088 H   0  0  0  0  0  0  0  0  0  0  0  0
  147.2778  142.1657  152.3693 H   0  0  0  0  0  0  0  0  0  0  0  0
  145.3271  142.9023  153.6336 H   0  0  0  0  0  0  0  0  0  0  0  0
  151.8087  140.9549  158.6693 H   0  0  0  0  0  0  0  0  0  0  0  0
  150.9136  141.7901  159.9159 H   0  0  0  0  0  0  0  0  0  0  0  0
  1  2  1  0  0  0  0
  1 21  1  0  0  0  0
  1 22  1  0  0  0  0
  1 23  1  0  0  0  0
  2 19  1  0  0  0  0
  2  3  1  0  0  0  0
  2 24  1  0  0  0  0
  3  4  1  0  0  0  0
  3 25  1  0  0  0  0
  3 26  1  0  0  0  0
  4  5  1  0  0  0  0
  4 27  1  0  0  0  0
  4 28  1  0  0  0  0
  5  6  1  0  0  0  0
  5 29  1  0  0  0  0
  5 30  1  0  0  0  0
  6  7  1  0  0  0  0
  6 19  1  0  0  0  0
  6 31  1  0  0  0  0
  7  8  1  0  0  0  0
  7 32  1  0  0  0  0
  8  9  2  0  0  0  0
  8 10  1  0  0  0  0
 10 33  1  0  0  0  0
 10 34  1  0  0  0  0
 10 11  1  0  0  0  0
 11 12  1  0  0  0  0
 11 17  1  0  0  0  0
 12 13  2  0  0  0  0
 13 14  1  0  0  0  0
 13 15  1  0  0  0  0
 14 20  1  0  0  0  0
 15 35  1  0  0  0  0
 15 16  2  0  0  0  0
 16 36  1  0  0  0  0
 16 17  1  0  0  0  0
 17 18  2  0  0  0  0
 19 37  1  0  0  0  0
 19 38  1  0  0  0  0
M  END
> <s_m_source_file>
AV-unprocessed.smi

> <i_m_source_file_index>
1484

> <i_lp_mmshare_version>
43012

> <i_f3d_flags>
0

> <s_epik_input>
W0NIM11bQ0BASF0xW0NIMl1bQ0gyXVtDSDJdW0NASF0oW0NIMl0xKVtOSF1DKD1PKVtDSDJdbjJbbkhdYyg9TylbY0hdW2NIXWMyPU8=

> <s_epik_cmdline>
J2VwaWtfcHl0aG9uJywgJy1waCcsICc3LjAnLCAnLXRuJywgJzgnLCAnLW1hJywgJzIwMCcsICctbWV0YWxfYmluZGluZycsICctaW1hZScsICc8aW5maWxlLm1hZT4nLCAnLW9tYWUnLCAnPG91dGZpbGUubWFlPic=

> <r_lp_tautomer_probability>
0.9996

> <r_epik_Ionization_Penalty>
2.10343

> <r_epik_Ionization_Penalty_Charging>
3.97871e-08

> <r_epik_Ionization_Penalty_Neutral>
2.10343

> <r_epik_State_Penalty>
1.67966

> <r_epik_Charging_Adjusted_Penalty>
1.67966

> <i_epik_Tot_Q>
0

> <i_epik_Tot_abs_Q>
0

> <r_epik_Metal_State_Penalty>
1.67966

> <b_epik_Metal_Only>
0

> <s_lp_Force_Field>
OPLS_2005

> <r_lp_Energy>
18.4171

> <b_lp_Chiralities_Consistent>
1

> <s_lp_Variant>
AV-unprocessed.smi:1484-7

> <Gold.Version>
5.8.1

> <Gold.Id.Protein>
6NUR|6NUR_protein|mol2

> <Gold.PLP.Fitness>
46.5607

> <Gold.PLP.PLP>
-41.0156

> <Gold.PLP.part.hbond>
-4.2225

> <Gold.PLP.part.metal>
0.0000

> <Gold.PLP.part.buried>
-6.8446

> <Gold.PLP.part.nonpolar>
-30.5635

> <Gold.PLP.part.repulsive>
0.3776

> <Gold.PLP.ligand.clash>
0.0000

> <Gold.PLP.ligand.torsion>
0.4745

> <Gold.PLP.Chemscore.Hbond>
2.1632

> <Gold.PLP.Chemscore.CHOScore>
0.0000

> <Gold.PLP.Chemscore.Metal>
0.0000

> <Gold.Chemscore.Hbonds>
donor molecule, donor type, donor heavy atom, donor atom, acceptor molecule, acceptor atom, score
      L1  H    14    20       P1  7957  0.67
      P1  H  6933  6944       L1     9  0.31
      P1  H  7989  7998       L1    14  0.19
      P1  H  8011  8017       L1    14  0.90

> <Gold.PLP.Chemscore.Internal.Correction>
0.0044

> <Gold.Rescore>
     Score         DG    S(hbond)    S(metal)    S(lipo)     H(rot)  DE(clash)    DE(int)     intcor
     11.96     -15.37       1.53        0.00      89.78       2.24       0.05       3.36       ----

> <Gold.Chemscore.Fitness>
11.9642

> <Gold.Chemscore.DG>
-15.3707

> <Gold.Chemscore.ZeroCoef>
-5.4800

> <Gold.Chemscore.Hbond>
1.5346

> <Gold.Chemscore.Metal>
0.0000

> <Gold.Chemscore.Lipo>
89.7846

> <Gold.Chemscore.Internal_Hbond>
0.0000

> <Gold.Chemscore.DEClash>
0.0458

> <Gold.Chemscore.DEInternal>
3.3607

> <Gold.Chemscore.Rot>
2.2421

> <Gold.Chemscore.Internal.Correction>
   9.000000E+99

> <Gold.Chemscore.Hbonds>
donor molecule, donor type, donor heavy atom, donor atom, acceptor molecule, acceptor atom, score
      L1  H    14    20       P1  7957  0.66
      P1  H  6933  6944       L1     9  0.31
      P1  H  7989  7998       L1    14  0.09
      P1  H  8011  8017       L1    14  0.07

> <Gold.Chemscore.Hbond.Weighted>
-5.1257

> <Gold.Chemscore.Metal.Weighted>
-0.0000

> <Gold.Chemscore.Lipo.Weighted>
-10.5048

> <Gold.Chemscore.Internal_Hbond.Weighted>
0.0000

> <Gold.Chemscore.DEClash.Weighted>
0.0458

> <Gold.Chemscore.DEInternal.Weighted>
3.3607

> <Gold.Chemscore.Rot.Weighted>
5.7398

> <Gold.Chemscore.Internal.Correction.Weighted>
   9.000000E+99

> <Gold.Protein.RotatedTorsions>
[ 6907 6896 6895 6894 ] final -140.89 input  -60.11 | X-H torsion
[ 7974 7965 7964 7962 ] final  -72.34 input  175.53 | X-H torsion
[ 8008 7997 7996 7995 ] final  141.22 input   59.86 | X-H torsion
[ 10167 10162 10161 10158 ] final -166.27 input  -65.29 | X-H torsion
[ 10718 10713 10712 10709 ] final  -13.46 input   66.30 | X-H torsion
[ 10763 10752 10751 10750 ] final   98.76 input  -60.55 | X-H torsion
[ 11005 11000 10999 10996 ] final  -39.17 input  -57.11 | X-H torsion

> <Gold.Protein.ActiveResidues>
 VAL166  LYS551  ARG553  GLY616  TRP617  ASP618  TYR619  PRO620  LYS621  CYS622 
 ASP623  PHE694  ASN695  SER759  ASP760  ASP761  ALA762  ILE779  LEU786  VAL792 
 PHE793  MET794  SER795  GLU796  ALA797  LYS798  CYS799  TRP800  GLU811  SER814 

> <Gold.Protein.RotatedAtoms>
  151.0667  133.5500  159.2629 H   0  0  0  0  0  0  0  0  0  0  0  0  # atno 6907 bound_to 6896
  151.2455  135.0603  159.9051 H   0  0  0  0  0  0  0  0  0  0  0  0  # atno 6908 bound_to 6896
  152.5405  134.0435  159.8132 H   0  0  0  0  0  0  0  0  0  0  0  0  # atno 6909 bound_to 6896
  145.6664  140.9236  143.0906 H   0  0  0  0  0  0  0  0  0  0  0  0  # atno 7974 bound_to 7965
  156.2969  140.2321  156.4529 H   0  0  0  0  0  0  0  0  0  0  0  0  # atno 8008 bound_to 7997
  154.8086  140.0444  157.1346 H   0  0  0  0  0  0  0  0  0  0  0  0  # atno 8009 bound_to 7997
  154.9450  140.3034  155.5106 H   0  0  0  0  0  0  0  0  0  0  0  0  # atno 8010 bound_to 7997
  139.6126  144.0784  152.1856 H   0  0  0  0  0  0  0  0  0  0  0  0  # atno 10167 bound_to 10162
  156.6300  130.4899  149.6133 H   0  0  0  0  0  0  0  0  0  0  0  0  # atno 10718 bound_to 10713
  153.2931  135.4137  155.1184 H   0  0  0  0  0  0  0  0  0  0  0  0  # atno 10763 bound_to 10752
  154.8526  135.3523  154.5954 H   0  0  0  0  0  0  0  0  0  0  0  0  # atno 10764 bound_to 10752
  153.6377  135.7058  153.5310 H   0  0  0  0  0  0  0  0  0  0  0  0  # atno 10765 bound_to 10752
  141.0082  133.6921  156.2151 H   0  0  0  0  0  0  0  0  0  0  0  0  # atno 11005 bound_to 11000
  144.7072  139.8515  143.7426 LP  0  0  0  0  0  0  0  0  0  0  0  0  # atno 17320 bound_to 7965
  146.1083  139.4084  143.0304 LP  0  0  0  0  0  0  0  0  0  0  0  0  # atno 17321 bound_to 7965
  140.0407  144.6010  150.7414 LP  0  0  0  0  0  0  0  0  0  0  0  0  # atno 17342 bound_to 10162
  140.7329  143.2711  151.3885 LP  0  0  0  0  0  0  0  0  0  0  0  0  # atno 17343 bound_to 10162
  156.2243  130.6756  151.1399 LP  0  0  0  0  0  0  0  0  0  0  0  0  # atno 17370 bound_to 10713
  157.7203  131.0685  150.6163 LP  0  0  0  0  0  0  0  0  0  0  0  0  # atno 17371 bound_to 10713
  140.6778  134.4800  157.5588 LP  0  0  0  0  0  0  0  0  0  0  0  0  # atno 17394 bound_to 11000
  139.9075  134.8417  156.1651 LP  0  0  0  0  0  0  0  0  0  0  0  0  # atno 17395 bound_to 11000

$$$$
