AV-unprocessed.smi:160|AV-procd|sdf|1368|dock9
  -GOLD-   2262019 83D 1   1.00000     0.00000
 Structure written by MMmdl.
 28 29  0  0  0  0  0  0  0  0  2 V2000
  153.2787  138.6713  156.7893 N   0  5  0  0  0  0  0  0  0  0  0  0
  152.4208  138.5992  155.7480 C   0  0  0  0  0  0  0  0  0  0  0  0
  152.4561  137.7782  154.8319 O   0  0  0  0  0  0  0  0  0  0  0  0
  151.3345  139.6487  155.7577 C   0  0  0  0  0  0  0  0  0  0  0  0
  151.1078  140.4071  156.8729 N   0  0  0  0  0  0  0  0  0  0  0  0
  150.1029  141.1481  156.4255 C   0  0  0  0  0  0  0  0  0  0  0  0
  149.7538  140.8924  155.1595 N   0  0  0  0  0  0  0  0  0  0  0  0
  148.6631  141.4538  154.2985 C   0  0  1  0  0  0  0  0  0  0  0  0
  148.3890  140.5468  153.2769 O   0  0  0  0  0  0  0  0  0  0  0  0
  147.4024  139.6262  153.7229 C   0  0  2  0  0  0  0  0  0  0  0  0
  146.7345  138.9504  152.5153 C   0  0  0  0  0  0  0  0  0  0  0  0
  147.7139  138.4004  151.6601 O   0  0  0  0  0  0  0  0  0  0  0  0
  146.4519  140.5267  154.5214 C   0  0  1  0  0  0  0  0  0  0  0  0
  145.8342  139.7856  155.5542 O   0  0  0  0  0  0  0  0  0  0  0  0
  147.3607  141.6097  155.1060 C   0  0  2  0  0  0  0  0  0  0  0  0
  146.7902  142.8895  154.9220 O   0  0  0  0  0  0  0  0  0  0  0  0
  150.5436  139.8883  154.7070 N   0  0  0  0  0  0  0  0  0  0  0  0
  149.0800  142.3854  153.9133 H   0  0  0  0  0  0  0  0  0  0  0  0
  147.8599  138.8861  154.3829 H   0  0  0  0  0  0  0  0  0  0  0  0
  145.6971  140.9617  153.8637 H   0  0  0  0  0  0  0  0  0  0  0  0
  147.5505  141.4554  156.1695 H   0  0  0  0  0  0  0  0  0  0  0  0
  153.2955  137.8960  157.4624 H   0  0  0  0  0  0  0  0  0  0  0  0
  149.6111  141.8906  157.0365 H   0  0  0  0  0  0  0  0  0  0  0  0
  146.0975  138.1311  152.8505 H   0  0  0  0  0  0  0  0  0  0  0  0
  146.1017  139.6504  151.9690 H   0  0  0  0  0  0  0  0  0  0  0  0
  148.2135  137.7629  152.1469 H   0  0  0  0  0  0  0  0  0  0  0  0
  146.5105  139.4221  156.1054 H   0  0  0  0  0  0  0  0  0  0  0  0
  147.4905  143.5228  154.8750 H   0  0  0  0  0  0  0  0  0  0  0  0
  1  2  1  0  0  0  0
  1 22  1  0  0  0  0
  2  3  2  0  0  0  0
  2  4  1  0  0  0  0
  4 17  2  0  0  0  0
  4  5  1  0  0  0  0
  5  6  2  0  0  0  0
  6  7  1  0  0  0  0
  6 23  1  0  0  0  0
  7  8  1  0  0  0  0
  7 17  1  0  0  0  0
  8 18  1  0  0  0  0
  8 15  1  0  0  0  0
  8  9  1  0  0  0  0
  9 10  1  0  0  0  0
 10 19  1  0  0  0  0
 10 11  1  0  0  0  0
 10 13  1  0  0  0  0
 11 12  1  0  0  0  0
 11 24  1  0  0  0  0
 11 25  1  0  0  0  0
 12 26  1  0  0  0  0
 13 20  1  0  0  0  0
 13 14  1  0  0  0  0
 13 15  1  0  0  0  0
 14 27  1  0  0  0  0
 15 21  1  0  0  0  0
 15 16  1  0  0  0  0
 16 28  1  0  0  0  0
M  CHG  1   1  -1
M  END
> <s_m_source_file>
AV-unprocessed.smi

> <i_m_source_file_index>
160

> <i_lp_mmshare_version>
43012

> <i_f3d_flags>
0

> <s_epik_input>
W05IMl1DKD1PKWMxbltjSF1uKG4xKVtDQEBIXTJPW0NASF0oW0NIMl1bT0hdKVtDQEBIXShbT0hdKVtDQEhdMltPSF0=

> <s_epik_cmdline>
J2VwaWtfcHl0aG9uJywgJy1waCcsICc3LjAnLCAnLXRuJywgJzgnLCAnLW1hJywgJzIwMCcsICctbWV0YWxfYmluZGluZycsICctaW1hZScsICc8aW5maWxlLm1hZT4nLCAnLW9tYWUnLCAnPG91dGZpbGUubWFlPic=

> <r_lp_tautomer_probability>
1

> <r_epik_Ionization_Penalty>
6.6993

> <r_epik_Ionization_Penalty_Charging>
6.6993

> <r_epik_Ionization_Penalty_Neutral>
6.01698e-06

> <r_epik_State_Penalty>
6.69929

> <r_epik_Charging_Adjusted_Penalty>
13.3986

> <i_epik_Tot_Q>
-1

> <i_epik_Tot_abs_Q>
1

> <r_epik_Metal_State_Penalty>
2.62798

> <b_epik_Metal_Only>
1

> <s_epik_Chemistry_Notes>
This compound contains an acetal/aminal-like group ( X-CH(R)-Y where X, Y are N, S, or O) that may be acid/base labile, releasing an aldehyde.

> <s_lp_Force_Field>
OPLS_2005

> <r_lp_Energy>
37.5232

> <b_lp_Chiralities_Consistent>
1

> <s_lp_Variant>
AV-unprocessed.smi:160-26

> <Gold.Version>
5.8.1

> <Gold.Id.Protein>
6NUR|6NUR_protein|mol2

> <Gold.PLP.Fitness>
43.6036

> <Gold.PLP.PLP>
-27.3577

> <Gold.PLP.part.hbond>
-6.8104

> <Gold.PLP.part.metal>
0.0000

> <Gold.PLP.part.buried>
-4.3017

> <Gold.PLP.part.nonpolar>
-21.0920

> <Gold.PLP.part.repulsive>
4.6486

> <Gold.PLP.ligand.clash>
0.0000

> <Gold.PLP.ligand.torsion>
0.6281

> <Gold.PLP.Chemscore.Hbond>
5.8202

> <Gold.PLP.Chemscore.CHOScore>
0.0000

> <Gold.PLP.Chemscore.Metal>
0.0000

> <Gold.Chemscore.Hbonds>
donor molecule, donor type, donor heavy atom, donor atom, acceptor molecule, acceptor atom, score
      L1  H    12    26       P1  7948  0.74
      L1  H    16    28       P1  8028  0.85
      P1  H  7954  7966       L1    12  0.95
      P1  H  7989  7998       L1    17  0.95
      P1  H  7997  8008       L1     1  2.00
      P1  H 10752 10765       L1     3  0.31

> <Gold.PLP.Chemscore.Internal.Correction>
0.0415

> <Gold.Rescore>
     Score         DG    S(hbond)    S(metal)    S(lipo)     H(rot)  DE(clash)    DE(int)     intcor
      6.13      -8.22       3.12        0.00      22.76       4.04       1.83       0.25       ----

> <Gold.Chemscore.Fitness>
6.1331

> <Gold.Chemscore.DG>
-8.2218

> <Gold.Chemscore.ZeroCoef>
-5.4800

> <Gold.Chemscore.Hbond>
3.1203

> <Gold.Chemscore.Metal>
0.0000

> <Gold.Chemscore.Lipo>
22.7603

> <Gold.Chemscore.Internal_Hbond>
0.0000

> <Gold.Chemscore.DEClash>
1.8340

> <Gold.Chemscore.DEInternal>
0.2547

> <Gold.Chemscore.Rot>
4.0403

> <Gold.Chemscore.Internal.Correction>
   9.000000E+99

> <Gold.Chemscore.Hbonds>
donor molecule, donor type, donor heavy atom, donor atom, acceptor molecule, acceptor atom, score
      L1  H    12    26       P1  7948  0.74
      L1  H    16    28       P1  8028  0.14
      P1  H  7954  7966       L1    12  0.20
      P1  H  7989  7998       L1    17  0.11
      P1  H  7997  8008       L1     1  0.68
      P1  H 10752 10765       L1     3  0.31

> <Gold.Chemscore.Hbond.Weighted>
-10.4220

> <Gold.Chemscore.Metal.Weighted>
-0.0000

> <Gold.Chemscore.Lipo.Weighted>
-2.6630

> <Gold.Chemscore.Internal_Hbond.Weighted>
0.0000

> <Gold.Chemscore.DEClash.Weighted>
1.8340

> <Gold.Chemscore.DEInternal.Weighted>
0.2547

> <Gold.Chemscore.Rot.Weighted>
10.3431

> <Gold.Chemscore.Internal.Correction.Weighted>
   9.000000E+99

> <Gold.Protein.RotatedTorsions>
[ 6907 6896 6895 6894 ] final   24.23 input  -60.11 | X-H torsion
[ 7974 7965 7964 7962 ] final  171.23 input  175.53 | X-H torsion
[ 8008 7997 7996 7995 ] final  -55.19 input   59.86 | X-H torsion
[ 10167 10162 10161 10158 ] final  -77.49 input  -65.29 | X-H torsion
[ 10718 10713 10712 10709 ] final  -97.16 input   66.30 | X-H torsion
[ 10763 10752 10751 10750 ] final  166.74 input  -60.55 | X-H torsion
[ 11005 11000 10999 10996 ] final  -17.50 input  -57.11 | X-H torsion

> <Gold.Protein.ActiveResidues>
 VAL166  LYS551  ARG553  GLY616  TRP617  ASP618  TYR619  PRO620  LYS621  CYS622 
 ASP623  PHE694  ASN695  SER759  ASP760  ASP761  ALA762  ILE779  LEU786  VAL792 
 PHE793  MET794  SER795  GLU796  ALA797  LYS798  CYS799  TRP800  GLU811  SER814 

> <Gold.Protein.RotatedAtoms>
  151.9543  135.0154  160.0543 H   0  0  0  0  0  0  0  0  0  0  0  0  # atno 6907 bound_to 6896
  152.1925  133.4778  159.5023 H   0  0  0  0  0  0  0  0  0  0  0  0  # atno 6908 bound_to 6896
  150.6938  134.1612  159.4219 H   0  0  0  0  0  0  0  0  0  0  0  0  # atno 6909 bound_to 6896
  144.7301  139.9319  143.6425 H   0  0  0  0  0  0  0  0  0  0  0  0  # atno 7974 bound_to 7965
  154.4187  140.1159  156.5436 H   0  0  0  0  0  0  0  0  0  0  0  0  # atno 8008 bound_to 7997
  155.6482  140.3496  155.4720 H   0  0  0  0  0  0  0  0  0  0  0  0  # atno 8009 bound_to 7997
  155.9814  140.1161  157.0712 H   0  0  0  0  0  0  0  0  0  0  0  0  # atno 8010 bound_to 7997
  140.4765  143.2413  151.8124 H   0  0  0  0  0  0  0  0  0  0  0  0  # atno 10167 bound_to 10162
  156.0077  130.5182  150.6333 H   0  0  0  0  0  0  0  0  0  0  0  0  # atno 10718 bound_to 10713
  154.3435  135.2754  155.2410 H   0  0  0  0  0  0  0  0  0  0  0  0  # atno 10763 bound_to 10752
  154.4670  135.5892  153.6298 H   0  0  0  0  0  0  0  0  0  0  0  0  # atno 10764 bound_to 10752
  152.9855  135.6079  154.3639 H   0  0  0  0  0  0  0  0  0  0  0  0  # atno 10765 bound_to 10752
  140.8174  133.8094  155.9625 H   0  0  0  0  0  0  0  0  0  0  0  0  # atno 11005 bound_to 11000
  146.0851  139.3839  143.0440 LP  0  0  0  0  0  0  0  0  0  0  0  0  # atno 17320 bound_to 7965
  145.7788  140.9865  143.1110 LP  0  0  0  0  0  0  0  0  0  0  0  0  # atno 17321 bound_to 7965
  139.4826  144.4826  151.9287 LP  0  0  0  0  0  0  0  0  0  0  0  0  # atno 17342 bound_to 10162
  140.3911  144.2614  150.5899 LP  0  0  0  0  0  0  0  0  0  0  0  0  # atno 17343 bound_to 10162
  157.4127  131.0826  151.1206 LP  0  0  0  0  0  0  0  0  0  0  0  0  # atno 17370 bound_to 10713
  157.1832  130.6319  149.5679 LP  0  0  0  0  0  0  0  0  0  0  0  0  # atno 17371 bound_to 10713
  140.9134  134.2232  157.4971 LP  0  0  0  0  0  0  0  0  0  0  0  0  # atno 17394 bound_to 11000
  139.8710  134.9760  156.4906 LP  0  0  0  0  0  0  0  0  0  0  0  0  # atno 17395 bound_to 11000

$$$$
