AV-unprocessed.smi:1684|AV-procd|sdf|6755|dock8
  -GOLD-   22720 7513D 1   1.00000     0.00000
 Structure written by MMmdl.
 43 44  0  0  0  0  0  0  0  0  2 V2000
  150.6146  145.1886  158.7452 C   0  0  0  0  0  0  0  0  0  0  0  0
  151.4435  144.0069  159.2221 C   0  0  0  0  0  0  0  0  0  0  0  0
  152.1397  144.1015  160.4460 C   0  0  0  0  0  0  0  0  0  0  0  0
  152.9042  143.0077  160.8863 C   0  0  0  0  0  0  0  0  0  0  0  0
  152.9403  141.8580  160.0791 C   0  0  0  0  0  0  0  0  0  0  0  0
  152.2776  141.7586  158.9086 N   0  0  0  0  0  0  0  0  0  0  0  0
  151.5376  142.8069  158.4675 C   0  0  0  0  0  0  0  0  0  0  0  0
  150.8094  142.7714  157.2445 N   0  0  0  0  0  0  0  0  0  0  0  0
  150.5158  141.7059  156.4792 C   0  0  0  0  0  0  0  0  0  0  0  0
  150.8920  140.5524  156.6887 O   0  0  0  0  0  0  0  0  0  0  0  0
  149.7354  142.0501  155.4433 N   0  0  0  0  0  0  0  0  0  0  0  0
  149.2309  141.1456  154.4085 C   0  0  2  0  0  0  0  0  0  0  0  0
  150.4169  140.4185  153.7603 C   0  0  0  0  0  0  0  0  0  0  0  0
  148.3935  141.9035  153.3515 C   0  0  0  0  0  0  0  0  0  0  0  0
  147.2749  142.6804  153.9429 N   0  3  0  0  0  0  0  0  0  0  0  0
  146.3561  143.2496  152.9303 C   0  0  0  0  0  0  0  0  0  0  0  0
  145.2844  144.1147  153.6158 C   0  0  0  0  0  0  0  0  0  0  0  0
  144.5823  143.3366  154.5780 O   0  0  0  0  0  0  0  0  0  0  0  0
  145.4432  142.8444  155.5984 C   0  0  0  0  0  0  0  0  0  0  0  0
  146.5118  141.9338  154.9720 C   0  0  0  0  0  0  0  0  0  0  0  0
  150.6432  146.0093  159.4627 H   0  0  0  0  0  0  0  0  0  0  0  0
  149.5724  144.8965  158.6126 H   0  0  0  0  0  0  0  0  0  0  0  0
  150.9949  145.5615  157.7938 H   0  0  0  0  0  0  0  0  0  0  0  0
  152.0902  145.0002  161.0433 H   0  0  0  0  0  0  0  0  0  0  0  0
  153.4486  143.0490  161.8181 H   0  0  0  0  0  0  0  0  0  0  0  0
  153.5148  140.9947  160.3805 H   0  0  0  0  0  0  0  0  0  0  0  0
  150.4539  143.6620  156.9297 H   0  0  0  0  0  0  0  0  0  0  0  0
  149.4787  143.0226  155.3524 H   0  0  0  0  0  0  0  0  0  0  0  0
  148.6113  140.3799  154.8775 H   0  0  0  0  0  0  0  0  0  0  0  0
  150.0757  139.6997  153.0147 H   0  0  0  0  0  0  0  0  0  0  0  0
  150.9957  139.8688  154.5036 H   0  0  0  0  0  0  0  0  0  0  0  0
  151.0909  141.1175  153.2638 H   0  0  0  0  0  0  0  0  0  0  0  0
  149.0588  142.5847  152.8186 H   0  0  0  0  0  0  0  0  0  0  0  0
  148.0028  141.2149  152.6007 H   0  0  0  0  0  0  0  0  0  0  0  0
  146.9164  143.8584  152.2197 H   0  0  0  0  0  0  0  0  0  0  0  0
  145.8863  142.4430  152.3652 H   0  0  0  0  0  0  0  0  0  0  0  0
  145.7356  144.9851  154.0950 H   0  0  0  0  0  0  0  0  0  0  0  0
  144.5746  144.4894  152.8784 H   0  0  0  0  0  0  0  0  0  0  0  0
  145.9053  143.6746  156.1356 H   0  0  0  0  0  0  0  0  0  0  0  0
  144.8503  142.2859  156.3227 H   0  0  0  0  0  0  0  0  0  0  0  0
  146.0402  141.0597  154.5202 H   0  0  0  0  0  0  0  0  0  0  0  0
  147.1791  141.5684  155.7521 H   0  0  0  0  0  0  0  0  0  0  0  0
  147.6977  143.4694  154.4117 H   0  0  0  0  0  0  0  0  0  0  0  0
  1  2  1  0  0  0  0
  1 21  1  0  0  0  0
  1 22  1  0  0  0  0
  1 23  1  0  0  0  0
  2  7  1  0  0  0  0
  2  3  2  0  0  0  0
  3  4  1  0  0  0  0
  3 24  1  0  0  0  0
  4  5  2  0  0  0  0
  4 25  1  0  0  0  0
  5  6  1  0  0  0  0
  5 26  1  0  0  0  0
  6  7  2  0  0  0  0
  7  8  1  0  0  0  0
  8  9  1  0  0  0  0
  8 27  1  0  0  0  0
  9 10  2  0  0  0  0
  9 11  1  0  0  0  0
 11 12  1  0  0  0  0
 11 28  1  0  0  0  0
 12 13  1  0  0  0  0
 12 14  1  0  0  0  0
 12 29  1  0  0  0  0
 13 30  1  0  0  0  0
 13 31  1  0  0  0  0
 13 32  1  0  0  0  0
 14 15  1  0  0  0  0
 14 33  1  0  0  0  0
 14 34  1  0  0  0  0
 15 20  1  0  0  0  0
 15 16  1  0  0  0  0
 15 43  1  0  0  0  0
 16 17  1  0  0  0  0
 16 35  1  0  0  0  0
 16 36  1  0  0  0  0
 17 18  1  0  0  0  0
 17 37  1  0  0  0  0
 17 38  1  0  0  0  0
 18 19  1  0  0  0  0
 19 20  1  0  0  0  0
 19 39  1  0  0  0  0
 19 40  1  0  0  0  0
 20 41  1  0  0  0  0
 20 42  1  0  0  0  0
M  CHG  1  15   1
M  END
> <s_m_source_file>
AV-unprocessed.smi

> <i_m_source_file_index>
1684

> <i_lp_mmshare_version>
43012

> <i_f3d_flags>
0

> <s_epik_input>
W0NIM11jMVtjSF1bY0hdW2NIXW5jMVtOSF1DKD1PKVtOSF1bQ0BIXShbQ0gzXSlbQ0gyXU4yW0NIMl1bQ0gyXU9bQ0gyXVtDSDJdMg==

> <s_epik_cmdline>
J2VwaWtfcHl0aG9uJywgJy1waCcsICc3LjAnLCAnLXRuJywgJzgnLCAnLW1hJywgJzIwMCcsICctbWV0YWxfYmluZGluZycsICctaW1hZScsICc8aW5maWxlLm1hZT4nLCAnLW9tYWUnLCAnPG91dGZpbGUubWFlPic=

> <r_epik_Ionization_Penalty>
0.602571

> <r_epik_Ionization_Penalty_Charging>
0.602531

> <r_epik_Ionization_Penalty_Neutral>
4.09763e-05

> <r_epik_State_Penalty>
0.617039

> <r_epik_Charging_Adjusted_Penalty>
1.21957

> <i_epik_Tot_Q>
1

> <i_epik_Tot_abs_Q>
1

> <r_epik_Metal_State_Penalty>
0.617043

> <b_epik_Metal_Only>
0

> <s_lp_Force_Field>
OPLS_2005

> <r_lp_Energy>
24.8117

> <b_lp_Chiralities_Consistent>
1

> <s_lp_Variant>
AV-unprocessed.smi:1684-3

> <Gold.Version>
5.8.1

> <Gold.Id.Protein>
6NUR|6NUR_protein|mol2

> <Gold.PLP.Fitness>
48.7669

> <Gold.PLP.PLP>
-40.3979

> <Gold.PLP.part.hbond>
-2.5844

> <Gold.PLP.part.metal>
0.0000

> <Gold.PLP.part.buried>
-5.6126

> <Gold.PLP.part.nonpolar>
-29.9376

> <Gold.PLP.part.repulsive>
0.4223

> <Gold.PLP.ligand.clash>
0.0000

> <Gold.PLP.ligand.torsion>
0.1367

> <Gold.PLP.Chemscore.Hbond>
2.8705

> <Gold.PLP.Chemscore.CHOScore>
0.0000

> <Gold.PLP.Chemscore.Metal>
0.0000

> <Gold.Chemscore.Hbonds>
donor molecule, donor type, donor heavy atom, donor atom, acceptor molecule, acceptor atom, score
      L1  H     8    27       P1  8028  0.39
      L1  H    11    28       P1  8028  1.00
      L1  H    15    43       P1  8028  1.79

> <Gold.PLP.Chemscore.Internal.Correction>
0.0309

> <Gold.Rescore>
     Score         DG    S(hbond)    S(metal)    S(lipo)     H(rot)  DE(clash)    DE(int)     intcor
     16.93     -18.63       1.78        0.00      94.54       1.51       0.32       1.38       ----

> <Gold.Chemscore.Fitness>
16.9280

> <Gold.Chemscore.DG>
-18.6303

> <Gold.Chemscore.ZeroCoef>
-5.4800

> <Gold.Chemscore.Hbond>
1.7798

> <Gold.Chemscore.Metal>
0.0000

> <Gold.Chemscore.Lipo>
94.5424

> <Gold.Chemscore.Internal_Hbond>
0.0000

> <Gold.Chemscore.DEClash>
0.3181

> <Gold.Chemscore.DEInternal>
1.3842

> <Gold.Chemscore.Rot>
1.5061

> <Gold.Chemscore.Internal.Correction>
   9.000000E+99

> <Gold.Chemscore.Hbonds>
donor molecule, donor type, donor heavy atom, donor atom, acceptor molecule, acceptor atom, score
      L1  H     8    27       P1  8028  0.38
      L1  H    11    28       P1  8028  1.00
      L1  H    15    43       P1  8028  0.43

> <Gold.Chemscore.Hbond.Weighted>
-5.9445

> <Gold.Chemscore.Metal.Weighted>
-0.0000

> <Gold.Chemscore.Lipo.Weighted>
-11.0615

> <Gold.Chemscore.Internal_Hbond.Weighted>
0.0000

> <Gold.Chemscore.DEClash.Weighted>
0.3181

> <Gold.Chemscore.DEInternal.Weighted>
1.3842

> <Gold.Chemscore.Rot.Weighted>
3.8557

> <Gold.Chemscore.Internal.Correction.Weighted>
   9.000000E+99

> <Gold.Protein.RotatedTorsions>
[ 6907 6896 6895 6894 ] final   86.33 input  -60.11 | X-H torsion
[ 7974 7965 7964 7962 ] final   76.79 input  175.53 | X-H torsion
[ 8008 7997 7996 7995 ] final  162.83 input   59.86 | X-H torsion
[ 10167 10162 10161 10158 ] final -171.01 input  -65.29 | X-H torsion
[ 10718 10713 10712 10709 ] final  110.00 input   66.30 | X-H torsion
[ 10763 10752 10751 10750 ] final  -43.14 input  -60.55 | X-H torsion
[ 11005 11000 10999 10996 ] final -144.45 input  -57.11 | X-H torsion

> <Gold.Protein.ActiveResidues>
 VAL166  LYS551  ARG553  GLY616  TRP617  ASP618  TYR619  PRO620  LYS621  CYS622 
 ASP623  PHE694  ASN695  SER759  ASP760  ASP761  ALA762  ILE779  LEU786  VAL792 
 PHE793  MET794  SER795  GLU796  ALA797  LYS798  CYS799  TRP800  GLU811  SER814 

> <Gold.Protein.RotatedAtoms>
  152.5392  134.2448  159.8875 H   0  0  0  0  0  0  0  0  0  0  0  0  # atno 6907 bound_to 6896
  151.2414  133.4391  159.2615 H   0  0  0  0  0  0  0  0  0  0  0  0  # atno 6908 bound_to 6896
  151.0624  134.9759  159.8323 H   0  0  0  0  0  0  0  0  0  0  0  0  # atno 6909 bound_to 6896
  145.6983  139.2574  143.1720 H   0  0  0  0  0  0  0  0  0  0  0  0  # atno 7974 bound_to 7965
  156.2002  140.1740  156.7915 H   0  0  0  0  0  0  0  0  0  0  0  0  # atno 8008 bound_to 7997
  154.5582  140.0704  156.8808 H   0  0  0  0  0  0  0  0  0  0  0  0  # atno 8009 bound_to 7997
  155.2899  140.3354  155.4255 H   0  0  0  0  0  0  0  0  0  0  0  0  # atno 8010 bound_to 7997
  139.5827  144.1387  152.1536 H   0  0  0  0  0  0  0  0  0  0  0  0  # atno 10167 bound_to 10162
  157.6515  131.0924  150.6536 H   0  0  0  0  0  0  0  0  0  0  0  0  # atno 10718 bound_to 10713
  153.9906  135.6706  153.4754 H   0  0  0  0  0  0  0  0  0  0  0  0  # atno 10763 bound_to 10752
  153.0706  135.4976  154.8294 H   0  0  0  0  0  0  0  0  0  0  0  0  # atno 10764 bound_to 10752
  154.7111  135.3097  154.9158 H   0  0  0  0  0  0  0  0  0  0  0  0  # atno 10765 bound_to 10752
  140.8023  134.2842  157.4973 H   0  0  0  0  0  0  0  0  0  0  0  0  # atno 11005 bound_to 11000
  146.0820  140.7753  142.9637 LP  0  0  0  0  0  0  0  0  0  0  0  0  # atno 17320 bound_to 7965
  144.6976  140.3504  143.7183 LP  0  0  0  0  0  0  0  0  0  0  0  0  # atno 17321 bound_to 7965
  140.0943  144.5594  150.7032 LP  0  0  0  0  0  0  0  0  0  0  0  0  # atno 17342 bound_to 10162
  140.7103  143.2500  151.4600 LP  0  0  0  0  0  0  0  0  0  0  0  0  # atno 17343 bound_to 10162
  156.6847  130.4577  149.5617 LP  0  0  0  0  0  0  0  0  0  0  0  0  # atno 17370 bound_to 10713
  156.1904  130.6556  151.1055 LP  0  0  0  0  0  0  0  0  0  0  0  0  # atno 17371 bound_to 10713
  139.8720  134.9436  156.3859 LP  0  0  0  0  0  0  0  0  0  0  0  0  # atno 17394 bound_to 11000
  140.9282  133.7598  155.9991 LP  0  0  0  0  0  0  0  0  0  0  0  0  # atno 17395 bound_to 11000

$$$$
