AV-unprocessed.smi:1592|AV-procd|sdf|6408|dock3
  -GOLD-   22720 7 43D 1   1.00000     0.00000
 Structure written by MMmdl.
 26 27  0  0  0  0  0  0  0  0  2 V2000
  150.2434  142.3399  158.9895 O   0  0  0  0  0  0  0  0  0  0  0  0
  151.4095  142.1921  158.6198 C   0  0  0  0  0  0  0  0  0  0  0  0
  151.7843  141.5392  157.5046 N   0  0  0  0  0  0  0  0  0  0  0  0
  150.9690  140.9113  156.5224 C   0  0  0  0  0  0  0  0  0  0  0  0
  149.8326  141.4740  156.0389 N   0  0  0  0  0  0  0  0  0  0  0  0
  149.1126  140.8152  155.1078 C   0  0  0  0  0  0  0  0  0  0  0  0
  149.4780  139.5567  154.5986 C   0  0  0  0  0  0  0  0  0  0  0  0
  150.6527  138.9608  155.0893 C   0  0  0  0  0  0  0  0  0  0  0  0
  151.4108  139.6422  156.0626 C   0  0  0  0  0  0  0  0  0  0  0  0
  152.5553  139.0612  156.5383 O   0  5  0  0  0  0  0  0  0  0  0  0
  152.5518  142.7640  159.4669 C   0  0  1  0  0  0  0  0  0  0  0  0
  152.3872  144.2572  159.8077 C   0  0  0  0  0  0  0  0  0  0  0  0
  152.1567  144.2649  161.3069 C   0  0  0  0  0  0  0  0  0  0  0  0
  152.8889  143.0050  161.7449 C   0  0  0  0  0  0  0  0  0  0  0  0
  152.5654  142.0810  160.7189 O   0  0  0  0  0  0  0  0  0  0  0  0
  152.7767  141.4854  157.3253 H   0  0  0  0  0  0  0  0  0  0  0  0
  148.2175  141.3077  154.7582 H   0  0  0  0  0  0  0  0  0  0  0  0
  148.8744  139.0619  153.8527 H   0  0  0  0  0  0  0  0  0  0  0  0
  150.9666  137.9945  154.7221 H   0  0  0  0  0  0  0  0  0  0  0  0
  153.5105  142.6062  158.9691 H   0  0  0  0  0  0  0  0  0  0  0  0
  153.3078  144.7906  159.5677 H   0  0  0  0  0  0  0  0  0  0  0  0
  151.5768  144.7510  159.2693 H   0  0  0  0  0  0  0  0  0  0  0  0
  152.5277  145.1671  161.7935 H   0  0  0  0  0  0  0  0  0  0  0  0
  151.0915  144.1700  161.5227 H   0  0  0  0  0  0  0  0  0  0  0  0
  153.9678  143.1665  161.7678 H   0  0  0  0  0  0  0  0  0  0  0  0
  152.5695  142.6477  162.7240 H   0  0  0  0  0  0  0  0  0  0  0  0
  1  2  2  0  0  0  0
  2  3  1  0  0  0  0
  2 11  1  0  0  0  0
  3 16  1  0  0  0  0
  3  4  1  0  0  0  0
  4  9  2  0  0  0  0
  4  5  1  0  0  0  0
  5  6  2  0  0  0  0
  6 17  1  0  0  0  0
  6  7  1  0  0  0  0
  7 18  1  0  0  0  0
  7  8  2  0  0  0  0
  8  9  1  0  0  0  0
  8 19  1  0  0  0  0
  9 10  1  0  0  0  0
 11 15  1  0  0  0  0
 11 12  1  0  0  0  0
 11 20  1  0  0  0  0
 12 13  1  0  0  0  0
 12 21  1  0  0  0  0
 12 22  1  0  0  0  0
 13 14  1  0  0  0  0
 13 23  1  0  0  0  0
 13 24  1  0  0  0  0
 14 15  1  0  0  0  0
 14 25  1  0  0  0  0
 14 26  1  0  0  0  0
M  CHG  1  10  -1
M  END
> <s_m_source_file>
AV-unprocessed.smi

> <i_m_source_file_index>
1592

> <i_lp_mmshare_version>
43012

> <i_f3d_flags>
0

> <s_epik_input>
TzFbQ0gyXVtDSDJdW0NIMl1bQ0BIXTFDKD1PKVtOSF1jMm5bY0hdW2NIXVtjSF1jMltPSF0=

> <s_epik_cmdline>
J2VwaWtfcHl0aG9uJywgJy1waCcsICc3LjAnLCAnLXRuJywgJzgnLCAnLW1hJywgJzIwMCcsICctbWV0YWxfYmluZGluZycsICctaW1hZScsICc8aW5maWxlLm1hZT4nLCAnLW9tYWUnLCAnPG91dGZpbGUubWFlPic=

> <r_epik_Ionization_Penalty>
4.05601

> <r_epik_Ionization_Penalty_Charging>
2.06015

> <r_epik_Ionization_Penalty_Neutral>
1.99585

> <r_epik_State_Penalty>
2.62166

> <r_epik_Charging_Adjusted_Penalty>
4.68182

> <i_epik_Tot_Q>
-1

> <i_epik_Tot_abs_Q>
1

> <r_epik_Metal_State_Penalty>
0.603772

> <b_epik_Metal_Only>
0

> <s_lp_Force_Field>
OPLS_2005

> <r_lp_Energy>
18.4071

> <b_lp_Chiralities_Consistent>
1

> <s_lp_Variant>
AV-unprocessed.smi:1592-8

> <Gold.Version>
5.8.1

> <Gold.Id.Protein>
6NUR|6NUR_protein|mol2

> <Gold.PLP.Fitness>
39.2056

> <Gold.PLP.PLP>
-34.0576

> <Gold.PLP.part.hbond>
-1.6888

> <Gold.PLP.part.metal>
0.0000

> <Gold.PLP.part.buried>
-2.1496

> <Gold.PLP.part.nonpolar>
-29.9047

> <Gold.PLP.part.repulsive>
0.2484

> <Gold.PLP.ligand.clash>
0.0000

> <Gold.PLP.ligand.torsion>
0.4301

> <Gold.PLP.Chemscore.Hbond>
2.0000

> <Gold.PLP.Chemscore.CHOScore>
0.0000

> <Gold.PLP.Chemscore.Metal>
0.0000

> <Gold.Chemscore.Hbonds>
donor molecule, donor type, donor heavy atom, donor atom, acceptor molecule, acceptor atom, score
      P1  H  7997  8010       L1    10  1.50

> <Gold.PLP.Chemscore.Internal.Correction>
0.0082

> <Gold.Rescore>
     Score         DG    S(hbond)    S(metal)    S(lipo)     H(rot)  DE(clash)    DE(int)     intcor
     14.47     -15.21       1.00        0.00      76.49       1.00       0.28       0.45       ----

> <Gold.Chemscore.Fitness>
14.4732

> <Gold.Chemscore.DG>
-15.2065

> <Gold.Chemscore.ZeroCoef>
-5.4800

> <Gold.Chemscore.Hbond>
0.9992

> <Gold.Chemscore.Metal>
0.0000

> <Gold.Chemscore.Lipo>
76.4886

> <Gold.Chemscore.Internal_Hbond>
0.0000

> <Gold.Chemscore.DEClash>
0.2800

> <Gold.Chemscore.DEInternal>
0.4534

> <Gold.Chemscore.Rot>
1.0000

> <Gold.Chemscore.Internal.Correction>
   9.000000E+99

> <Gold.Chemscore.Hbonds>
donor molecule, donor type, donor heavy atom, donor atom, acceptor molecule, acceptor atom, score
      P1  H  7997  8010       L1    10  0.68

> <Gold.Chemscore.Hbond.Weighted>
-3.3374

> <Gold.Chemscore.Metal.Weighted>
-0.0000

> <Gold.Chemscore.Lipo.Weighted>
-8.9492

> <Gold.Chemscore.Internal_Hbond.Weighted>
0.0000

> <Gold.Chemscore.DEClash.Weighted>
0.2800

> <Gold.Chemscore.DEInternal.Weighted>
0.4534

> <Gold.Chemscore.Rot.Weighted>
2.5600

> <Gold.Chemscore.Internal.Correction.Weighted>
   9.000000E+99

> <Gold.Protein.RotatedTorsions>
[ 6907 6896 6895 6894 ] final -175.78 input  -60.11 | X-H torsion
[ 7974 7965 7964 7962 ] final  -14.51 input  175.53 | X-H torsion
[ 8008 7997 7996 7995 ] final   87.61 input   59.86 | X-H torsion
[ 10167 10162 10161 10158 ] final -115.01 input  -65.29 | X-H torsion
[ 10718 10713 10712 10709 ] final   86.65 input   66.30 | X-H torsion
[ 10763 10752 10751 10750 ] final  -86.96 input  -60.55 | X-H torsion
[ 11005 11000 10999 10996 ] final   35.74 input  -57.11 | X-H torsion

> <Gold.Protein.ActiveResidues>
 VAL166  LYS551  ARG553  GLY616  TRP617  ASP618  TYR619  PRO620  LYS621  CYS622 
 ASP623  PHE694  ASN695  SER759  ASP760  ASP761  ALA762  ILE779  LEU786  VAL792 
 PHE793  MET794  SER795  GLU796  ALA797  LYS798  CYS799  TRP800  GLU811  SER814 

> <Gold.Protein.RotatedAtoms>
  151.5941  133.3363  159.3033 H   0  0  0  0  0  0  0  0  0  0  0  0  # atno 6907 bound_to 6896
  150.8244  134.7471  159.6811 H   0  0  0  0  0  0  0  0  0  0  0  0  # atno 6908 bound_to 6896
  152.4335  134.5738  159.9980 H   0  0  0  0  0  0  0  0  0  0  0  0  # atno 6909 bound_to 6896
  146.2071  140.3359  142.8403 H   0  0  0  0  0  0  0  0  0  0  0  0  # atno 7974 bound_to 7965
  155.9775  140.3380  155.6632 H   0  0  0  0  0  0  0  0  0  0  0  0  # atno 8008 bound_to 7997
  155.6593  140.0714  157.2578 H   0  0  0  0  0  0  0  0  0  0  0  0  # atno 8009 bound_to 7997
  154.4183  140.1711  156.1747 H   0  0  0  0  0  0  0  0  0  0  0  0  # atno 8010 bound_to 7997
  140.0948  143.4667  152.1848 H   0  0  0  0  0  0  0  0  0  0  0  0  # atno 10167 bound_to 10162
  157.6931  131.0224  150.3005 H   0  0  0  0  0  0  0  0  0  0  0  0  # atno 10718 bound_to 10713
  154.6283  135.5430  153.7651 H   0  0  0  0  0  0  0  0  0  0  0  0  # atno 10763 bound_to 10752
  153.0271  135.6429  154.1339 H   0  0  0  0  0  0  0  0  0  0  0  0  # atno 10764 bound_to 10752
  154.1271  135.2916  155.3174 H   0  0  0  0  0  0  0  0  0  0  0  0  # atno 10765 bound_to 10752
  140.2396  134.3430  155.7931 H   0  0  0  0  0  0  0  0  0  0  0  0  # atno 11005 bound_to 11000
  144.8819  140.7412  143.5981 LP  0  0  0  0  0  0  0  0  0  0  0  0  # atno 17320 bound_to 7965
  145.3280  139.1768  143.4552 LP  0  0  0  0  0  0  0  0  0  0  0  0  # atno 17321 bound_to 7965
  139.5704  144.7459  151.3906 LP  0  0  0  0  0  0  0  0  0  0  0  0  # atno 17342 bound_to 10162
  140.7009  143.7633  150.7402 LP  0  0  0  0  0  0  0  0  0  0  0  0  # atno 17343 bound_to 10162
  156.3522  130.3833  149.7320 LP  0  0  0  0  0  0  0  0  0  0  0  0  # atno 17370 bound_to 10713
  156.4794  130.8034  151.3049 LP  0  0  0  0  0  0  0  0  0  0  0  0  # atno 17371 bound_to 10713
  141.2211  133.7291  156.8864 LP  0  0  0  0  0  0  0  0  0  0  0  0  # atno 17394 bound_to 11000
  140.1666  134.9129  157.2782 LP  0  0  0  0  0  0  0  0  0  0  0  0  # atno 17395 bound_to 11000

$$$$
