AV-unprocessed.smi:3315|AV-procd|sdf|12750|dock8
  -GOLD-   2272019 93D 1   1.00000     0.00000
 Structure written by MMmdl.
 37 38  0  0  0  0  0  0  0  0  1 V2000
  145.2495  130.4870  151.5300 C   0  0  0  0  0  0  0  0  0  0  0  0
  144.5844  131.7416  151.6113 O   0  0  0  0  0  0  0  0  0  0  0  0
  145.0603  132.7961  150.7630 C   0  0  2  0  0  0  0  0  0  0  0  0
  144.7854  132.4668  149.2904 C   0  0  0  0  0  0  0  0  0  0  0  0
  146.4770  133.2267  151.1913 C   0  0  0  0  0  0  0  0  0  0  0  0
  145.8082  134.0994  152.2516 C   0  0  1  0  0  0  0  0  0  0  0  0
  146.4905  135.3740  152.4481 N   0  0  0  0  0  0  0  0  0  0  0  0
  145.9879  136.3976  153.1519 C   0  0  0  0  0  0  0  0  0  0  0  0
  144.8881  136.3637  153.7037 O   0  0  0  0  0  0  0  0  0  0  0  0
  146.8332  137.4421  153.1626 N   0  0  0  0  0  0  0  0  0  0  0  0
  146.6767  138.6960  153.8078 C   0  0  0  0  0  0  0  0  0  0  0  0
  147.2905  139.9247  153.4260 C   0  0  0  0  0  0  0  0  0  0  0  0
  146.8100  140.8031  154.3546 C   0  0  0  0  0  0  0  0  0  0  0  0
  145.9777  140.1741  155.2259 O   0  0  0  0  0  0  0  0  0  0  0  0
  145.8972  138.8233  154.8669 N   0  0  0  0  0  0  0  0  0  0  0  0
  144.5555  134.1593  151.3401 C   0  0  0  0  0  0  0  0  0  0  0  0
  144.4821  135.3297  150.3406 C   0  0  0  0  0  0  0  0  0  0  0  0
  143.2013  134.1392  152.0572 C   0  0  0  0  0  0  0  0  0  0  0  0
  144.8941  129.8442  152.3351 H   0  0  0  0  0  0  0  0  0  0  0  0
  146.3297  130.5805  151.6354 H   0  0  0  0  0  0  0  0  0  0  0  0
  145.0310  129.9768  150.5921 H   0  0  0  0  0  0  0  0  0  0  0  0
  145.0474  133.2959  148.6342 H   0  0  0  0  0  0  0  0  0  0  0  0
  143.7318  132.2403  149.1264 H   0  0  0  0  0  0  0  0  0  0  0  0
  145.3694  131.6136  148.9462 H   0  0  0  0  0  0  0  0  0  0  0  0
  147.1166  132.4435  151.5962 H   0  0  0  0  0  0  0  0  0  0  0  0
  146.9981  133.7967  150.4201 H   0  0  0  0  0  0  0  0  0  0  0  0
  145.6352  133.5442  153.1767 H   0  0  0  0  0  0  0  0  0  0  0  0
  147.4005  135.4797  152.0243 H   0  0  0  0  0  0  0  0  0  0  0  0
  147.6943  137.3268  152.6487 H   0  0  0  0  0  0  0  0  0  0  0  0
  147.9664  140.1436  152.6136 H   0  0  0  0  0  0  0  0  0  0  0  0
  146.9580  141.8599  154.5208 H   0  0  0  0  0  0  0  0  0  0  0  0
  144.2937  136.2786  150.8442 H   0  0  0  0  0  0  0  0  0  0  0  0
  143.6800  135.1862  149.6159 H   0  0  0  0  0  0  0  0  0  0  0  0
  145.4069  135.4489  149.7762 H   0  0  0  0  0  0  0  0  0  0  0  0
  142.9540  135.1145  152.4777 H   0  0  0  0  0  0  0  0  0  0  0  0
  143.1892  133.4315  152.8862 H   0  0  0  0  0  0  0  0  0  0  0  0
  142.3960  133.8577  151.3783 H   0  0  0  0  0  0  0  0  0  0  0  0
  1  2  1  0  0  0  0
  1 19  1  0  0  0  0
  1 20  1  0  0  0  0
  1 21  1  0  0  0  0
  2  3  1  0  0  0  0
  3 16  1  0  0  0  0
  3  4  1  0  0  0  0
  3  5  1  0  0  0  0
  4 22  1  0  0  0  0
  4 23  1  0  0  0  0
  4 24  1  0  0  0  0
  5  6  1  0  0  0  0
  5 25  1  0  0  0  0
  5 26  1  0  0  0  0
  6  7  1  0  0  0  0
  6 16  1  0  0  0  0
  6 27  1  0  0  0  0
  7  8  1  0  0  0  0
  7 28  1  0  0  0  0
  8  9  2  0  0  0  0
  8 10  1  0  0  0  0
 10 11  1  0  0  0  0
 10 29  1  0  0  0  0
 11 15  2  0  0  0  0
 11 12  1  0  0  0  0
 12 13  2  0  0  0  0
 12 30  1  0  0  0  0
 13 14  1  0  0  0  0
 13 31  1  0  0  0  0
 14 15  1  0  0  0  0
 16 17  1  0  0  0  0
 16 18  1  0  0  0  0
 17 32  1  0  0  0  0
 17 33  1  0  0  0  0
 17 34  1  0  0  0  0
 18 35  1  0  0  0  0
 18 36  1  0  0  0  0
 18 37  1  0  0  0  0
M  END
> <s_m_source_file>
AV-unprocessed.smi

> <i_m_source_file_index>
3315

> <i_lp_mmshare_version>
43012

> <i_f3d_flags>
0

> <s_epik_input>
W0NIM11PW0NAQF0xKFtDSDNdKVtDSDJdW0NASF0oQzEoW0NIM10pW0NIM10pW05IXUMoPU8pW05IXWMyW2NIXVtjSF1vbjI=

> <s_epik_cmdline>
J2VwaWtfcHl0aG9uJywgJy1waCcsICc3LjAnLCAnLXRuJywgJzgnLCAnLW1hJywgJzIwMCcsICctbWV0YWxfYmluZGluZycsICctaW1hZScsICc8aW5maWxlLm1hZT4nLCAnLW9tYWUnLCAnPG91dGZpbGUubWFlPic=

> <r_lp_tautomer_probability>
1

> <r_epik_Ionization_Penalty>
2.28875e-05

> <r_epik_Ionization_Penalty_Charging>
0

> <r_epik_Ionization_Penalty_Neutral>
2.28875e-05

> <r_epik_State_Penalty>
-0

> <r_epik_Charging_Adjusted_Penalty>
0

> <i_epik_Tot_Q>
0

> <i_epik_Tot_abs_Q>
0

> <r_epik_Metal_State_Penalty>
-0

> <b_epik_Metal_Only>
0

> <s_lp_Force_Field>
OPLS_2005

> <r_lp_Energy>
24.1983

> <b_lp_Chiralities_Consistent>
1

> <s_lp_Variant>
AV-unprocessed.smi:3315-2

> <Gold.Version>
5.8.1

> <Gold.Id.Protein>
6NUR|6NUR_protein|mol2

> <Gold.PLP.Fitness>
33.7650

> <Gold.PLP.PLP>
-28.1618

> <Gold.PLP.part.hbond>
-2.0000

> <Gold.PLP.part.metal>
0.0000

> <Gold.PLP.part.buried>
-3.6589

> <Gold.PLP.part.nonpolar>
-22.7549

> <Gold.PLP.part.repulsive>
0.4694

> <Gold.PLP.ligand.clash>
0.0000

> <Gold.PLP.ligand.torsion>
0.3492

> <Gold.PLP.Chemscore.Hbond>
1.9760

> <Gold.PLP.Chemscore.CHOScore>
0.0000

> <Gold.PLP.Chemscore.Metal>
0.0000

> <Gold.Chemscore.Hbonds>
donor molecule, donor type, donor heavy atom, donor atom, acceptor molecule, acceptor atom, score
      L1  H     7    28       P1  7948  1.00
      L1  H    10    29       P1  7948  1.00

> <Gold.PLP.Chemscore.Internal.Correction>
0.3736

> <Gold.Rescore>
     Score         DG    S(hbond)    S(metal)    S(lipo)     H(rot)  DE(clash)    DE(int)     intcor
     15.16     -16.76       1.94        0.00      69.53       1.30       0.03       1.56       ----

> <Gold.Chemscore.Fitness>
15.1613

> <Gold.Chemscore.DG>
-16.7560

> <Gold.Chemscore.ZeroCoef>
-5.4800

> <Gold.Chemscore.Hbond>
1.9396

> <Gold.Chemscore.Metal>
0.0000

> <Gold.Chemscore.Lipo>
69.5341

> <Gold.Chemscore.Internal_Hbond>
0.0000

> <Gold.Chemscore.DEClash>
0.0350

> <Gold.Chemscore.DEInternal>
1.5598

> <Gold.Chemscore.Rot>
1.3038

> <Gold.Chemscore.Internal.Correction>
   9.000000E+99

> <Gold.Chemscore.Hbonds>
donor molecule, donor type, donor heavy atom, donor atom, acceptor molecule, acceptor atom, score
      L1  H     7    28       P1  7948  0.98
      L1  H    10    29       P1  7948  0.95

> <Gold.Chemscore.Hbond.Weighted>
-6.4783

> <Gold.Chemscore.Metal.Weighted>
-0.0000

> <Gold.Chemscore.Lipo.Weighted>
-8.1355

> <Gold.Chemscore.Internal_Hbond.Weighted>
0.0000

> <Gold.Chemscore.DEClash.Weighted>
0.0350

> <Gold.Chemscore.DEInternal.Weighted>
1.5598

> <Gold.Chemscore.Rot.Weighted>
3.3377

> <Gold.Chemscore.Internal.Correction.Weighted>
   9.000000E+99

> <Gold.Protein.RotatedTorsions>
[ 6907 6896 6895 6894 ] final  153.84 input  -60.11 | X-H torsion
[ 7974 7965 7964 7962 ] final  -69.75 input  175.53 | X-H torsion
[ 8008 7997 7996 7995 ] final -142.10 input   59.86 | X-H torsion
[ 10167 10162 10161 10158 ] final  -35.73 input  -65.29 | X-H torsion
[ 10718 10713 10712 10709 ] final   82.04 input   66.30 | X-H torsion
[ 10763 10752 10751 10750 ] final -116.29 input  -60.55 | X-H torsion
[ 11005 11000 10999 10996 ] final  -31.68 input  -57.11 | X-H torsion

> <Gold.Protein.ActiveResidues>
 VAL166  LYS551  ARG553  GLY616  TRP617  ASP618  TYR619  PRO620  LYS621  CYS622 
 ASP623  PHE694  ASN695  SER759  ASP760  ASP761  ALA762  ILE779  LEU786  VAL792 
 PHE793  MET794  SER795  GLU796  ALA797  LYS798  CYS799  TRP800  GLU811  SER814 

> <Gold.Protein.RotatedAtoms>
  152.0669  133.4088  159.4441 H   0  0  0  0  0  0  0  0  0  0  0  0  # atno 6907 bound_to 6896
  150.6864  134.3136  159.4766 H   0  0  0  0  0  0  0  0  0  0  0  0  # atno 6908 bound_to 6896
  152.0963  134.9372  160.0621 H   0  0  0  0  0  0  0  0  0  0  0  0  # atno 6909 bound_to 6896
  145.6998  140.9121  143.0737 H   0  0  0  0  0  0  0  0  0  0  0  0  # atno 7974 bound_to 7965
  155.4886  140.0566  157.2957 H   0  0  0  0  0  0  0  0  0  0  0  0  # atno 8008 bound_to 7997
  154.4632  140.2006  156.0140 H   0  0  0  0  0  0  0  0  0  0  0  0  # atno 8009 bound_to 7997
  156.0927  140.3231  155.7841 H   0  0  0  0  0  0  0  0  0  0  0  0  # atno 8010 bound_to 7997
  140.7158  143.3457  151.2261 H   0  0  0  0  0  0  0  0  0  0  0  0  # atno 10167 bound_to 10162
  157.6848  131.0030  150.2315 H   0  0  0  0  0  0  0  0  0  0  0  0  # atno 10718 bound_to 10713
  154.8514  135.4351  154.1798 H   0  0  0  0  0  0  0  0  0  0  0  0  # atno 10763 bound_to 10752
  153.2891  135.6960  153.7316 H   0  0  0  0  0  0  0  0  0  0  0  0  # atno 10764 bound_to 10752
  153.6490  135.3454  155.3069 H   0  0  0  0  0  0  0  0  0  0  0  0  # atno 10765 bound_to 10752
  140.9488  133.7233  156.1188 H   0  0  0  0  0  0  0  0  0  0  0  0  # atno 11005 bound_to 11000
  144.6972  139.8932  143.7454 LP  0  0  0  0  0  0  0  0  0  0  0  0  # atno 17320 bound_to 7965
  146.0808  139.3796  143.0466 LP  0  0  0  0  0  0  0  0  0  0  0  0  # atno 17321 bound_to 7965
  139.6976  143.9587  152.2890 LP  0  0  0  0  0  0  0  0  0  0  0  0  # atno 17342 bound_to 10162
  139.9269  144.6765  150.8403 LP  0  0  0  0  0  0  0  0  0  0  0  0  # atno 17343 bound_to 10162
  156.2947  130.3750  149.7807 LP  0  0  0  0  0  0  0  0  0  0  0  0  # atno 17370 bound_to 10713
  156.5456  130.8319  151.3283 LP  0  0  0  0  0  0  0  0  0  0  0  0  # atno 17371 bound_to 10713
  140.7631  134.3916  157.5522 LP  0  0  0  0  0  0  0  0  0  0  0  0  # atno 17394 bound_to 11000
  139.8841  134.8974  156.2723 LP  0  0  0  0  0  0  0  0  0  0  0  0  # atno 17395 bound_to 11000

$$$$
