AV-unprocessed.smi:2342|AV-procd|sdf|9355|dock1
  -GOLD-   2272012573D 1   1.00000     0.00000
 Structure written by MMmdl.
 38 38  0  0  0  0  0  0  0  0  2 V2000
  151.6103  137.2668  156.9474 C   0  0  0  0  0  0  0  0  0  0  0  0
  151.6090  137.6237  155.4458 C   0  0  1  0  0  0  0  0  0  0  0  0
  150.2672  137.2829  154.7482 C   0  0  0  0  0  0  0  0  0  0  0  0
  150.1295  135.8538  154.4921 N   0  0  0  0  0  0  0  0  0  0  0  0
  149.8714  134.9172  155.4178 C   0  0  0  0  0  0  0  0  0  0  0  0
  149.8096  135.1502  156.6249 O   0  0  0  0  0  0  0  0  0  0  0  0
  149.6244  133.5009  154.8961 C   0  0  0  0  0  0  0  0  0  0  0  0
  148.6744  133.5463  153.7339 C   0  0  0  0  0  0  0  0  0  0  0  0
  148.4117  132.5358  152.8440 C   0  0  0  0  0  0  0  0  0  0  0  0
  147.2084  132.9987  151.6742 S   0  0  0  0  0  0  0  0  0  0  0  0
  147.1019  134.5878  152.4407 C   0  0  0  0  0  0  0  0  0  0  0  0
  146.1738  135.6981  152.0106 C   0  0  0  0  0  0  0  0  0  0  0  0
  146.3148  136.8952  152.9709 C   0  0  0  0  0  0  0  0  0  0  0  0
  144.6993  135.2413  152.0443 C   0  0  0  0  0  0  0  0  0  0  0  0
  146.4964  136.1207  150.5642 C   0  0  0  0  0  0  0  0  0  0  0  0
  147.9347  134.7061  153.4808 N   0  0  0  0  0  0  0  0  0  0  0  0
  152.0003  139.1026  155.2559 C   0  0  0  0  0  0  0  0  0  0  0  0
  152.9944  139.5436  155.8753 O   0  0  0  0  0  0  0  0  0  0  0  0
  151.2846  139.7817  154.4867 O   0  5  0  0  0  0  0  0  0  0  0  0
  152.5437  137.5505  157.4345 H   0  0  0  0  0  0  0  0  0  0  0  0
  151.4947  136.1936  157.0970 H   0  0  0  0  0  0  0  0  0  0  0  0
  150.7950  137.7637  157.4740 H   0  0  0  0  0  0  0  0  0  0  0  0
  152.3968  137.0409  154.9665 H   0  0  0  0  0  0  0  0  0  0  0  0
  149.4285  137.5824  155.3780 H   0  0  0  0  0  0  0  0  0  0  0  0
  150.1643  137.8335  153.8113 H   0  0  0  0  0  0  0  0  0  0  0  0
  150.1612  135.5635  153.5255 H   0  0  0  0  0  0  0  0  0  0  0  0
  150.5751  133.0511  154.6070 H   0  0  0  0  0  0  0  0  0  0  0  0
  149.2209  132.8834  155.6997 H   0  0  0  0  0  0  0  0  0  0  0  0
  148.8409  131.5450  152.8164 H   0  0  0  0  0  0  0  0  0  0  0  0
  145.6486  137.7118  152.6906 H   0  0  0  0  0  0  0  0  0  0  0  0
  147.3312  137.2910  152.9711 H   0  0  0  0  0  0  0  0  0  0  0  0
  146.0744  136.6114  153.9962 H   0  0  0  0  0  0  0  0  0  0  0  0
  144.3924  134.9433  153.0477 H   0  0  0  0  0  0  0  0  0  0  0  0
  144.5247  134.3961  151.3774 H   0  0  0  0  0  0  0  0  0  0  0  0
  144.0294  136.0425  151.7296 H   0  0  0  0  0  0  0  0  0  0  0  0
  145.8282  136.9116  150.2223 H   0  0  0  0  0  0  0  0  0  0  0  0
  146.3953  135.2820  149.8740 H   0  0  0  0  0  0  0  0  0  0  0  0
  147.5159  136.4976  150.4757 H   0  0  0  0  0  0  0  0  0  0  0  0
  1  2  1  0  0  0  0
  1 20  1  0  0  0  0
  1 21  1  0  0  0  0
  1 22  1  0  0  0  0
  2  3  1  0  0  0  0
  2 17  1  0  0  0  0
  2 23  1  0  0  0  0
  3  4  1  0  0  0  0
  3 24  1  0  0  0  0
  3 25  1  0  0  0  0
  4  5  1  0  0  0  0
  4 26  1  0  0  0  0
  5  6  2  0  0  0  0
  5  7  1  0  0  0  0
  7  8  1  0  0  0  0
  7 27  1  0  0  0  0
  7 28  1  0  0  0  0
  8 16  1  0  0  0  0
  8  9  2  0  0  0  0
  9 10  1  0  0  0  0
  9 29  1  0  0  0  0
 10 11  1  0  0  0  0
 11 12  1  0  0  0  0
 11 16  2  0  0  0  0
 12 13  1  0  0  0  0
 12 14  1  0  0  0  0
 12 15  1  0  0  0  0
 13 30  1  0  0  0  0
 13 31  1  0  0  0  0
 13 32  1  0  0  0  0
 14 33  1  0  0  0  0
 14 34  1  0  0  0  0
 14 35  1  0  0  0  0
 15 36  1  0  0  0  0
 15 37  1  0  0  0  0
 15 38  1  0  0  0  0
 17 18  2  0  0  0  0
 17 19  1  0  0  0  0
M  CHG  1  19  -1
M  END
> <s_m_source_file>
AV-unprocessed.smi

> <i_m_source_file_index>
2342

> <i_lp_mmshare_version>
43012

> <i_f3d_flags>
0

> <s_epik_input>
Tz1DKFtPSF0pW0NASF0oW0NIM10pW0NIMl1bTkhdQyg9TylbQ0gyXWMxW2NIXXNjKG4xKUMoW0NIM10pKFtDSDNdKVtDSDNd

> <s_epik_cmdline>
J2VwaWtfcHl0aG9uJywgJy1waCcsICc3LjAnLCAnLXRuJywgJzgnLCAnLW1hJywgJzIwMCcsICctbWV0YWxfYmluZGluZycsICctaW1hZScsICc8aW5maWxlLm1hZT4nLCAnLW9tYWUnLCAnPG91dGZpbGUubWFlPic=

> <r_epik_Ionization_Penalty>
0.00120065

> <r_epik_Ionization_Penalty_Charging>
0.00115909

> <r_epik_Ionization_Penalty_Neutral>
4.15663e-05

> <r_epik_State_Penalty>
0.00076313

> <r_epik_Charging_Adjusted_Penalty>
0.00192222

> <i_epik_Tot_Q>
-1

> <i_epik_Tot_abs_Q>
1

> <r_epik_Metal_State_Penalty>
-0

> <b_epik_Metal_Only>
0

> <s_lp_Force_Field>
OPLS_2005

> <r_lp_Energy>
-2.08659

> <b_lp_Chiralities_Consistent>
1

> <s_lp_Variant>
AV-unprocessed.smi:2342-2

> <Gold.Version>
5.8.1

> <Gold.Id.Protein>
6NUR|6NUR_protein|mol2

> <Gold.PLP.Fitness>
40.8135

> <Gold.PLP.PLP>
-28.0137

> <Gold.PLP.part.hbond>
-3.7759

> <Gold.PLP.part.metal>
0.0000

> <Gold.PLP.part.buried>
-3.3336

> <Gold.PLP.part.nonpolar>
-22.3575

> <Gold.PLP.part.repulsive>
1.5718

> <Gold.PLP.ligand.clash>
0.0000

> <Gold.PLP.ligand.torsion>
0.7760

> <Gold.PLP.Chemscore.Hbond>
3.7500

> <Gold.PLP.Chemscore.CHOScore>
0.9891

> <Gold.PLP.Chemscore.Metal>
0.0000

> <Gold.Chemscore.Hbonds>
donor molecule, donor type, donor heavy atom, donor atom, acceptor molecule, acceptor atom, score
      L1  H     4    26       P1  7948  0.07
      P1  H  7989  7998       L1    19  0.94
      P1  H  7997  8010       L1    18  1.98
      L1  C     9    29       P1 10747  0.44

> <Gold.PLP.Chemscore.Internal.Correction>
0.1346

> <Gold.Rescore>
     Score         DG    S(hbond)    S(metal)    S(lipo)     H(rot)  DE(clash)    DE(int)     intcor
      8.61     -12.41       2.00        0.00      54.31       2.38       0.16       3.64       ----

> <Gold.Chemscore.Fitness>
8.6062

> <Gold.Chemscore.DG>
-12.4091

> <Gold.Chemscore.ZeroCoef>
-5.4800

> <Gold.Chemscore.Hbond>
1.9974

> <Gold.Chemscore.Metal>
0.0000

> <Gold.Chemscore.Lipo>
54.3057

> <Gold.Chemscore.Internal_Hbond>
0.0000

> <Gold.Chemscore.DEClash>
0.1617

> <Gold.Chemscore.DEInternal>
3.6412

> <Gold.Chemscore.Rot>
2.3812

> <Gold.Chemscore.Internal.Correction>
   9.000000E+99

> <Gold.Chemscore.Hbonds>
donor molecule, donor type, donor heavy atom, donor atom, acceptor molecule, acceptor atom, score
      P1  H  7989  7998       L1    19  0.90
      P1  H  7997  8010       L1    18  0.92

> <Gold.Chemscore.Hbond.Weighted>
-6.6713

> <Gold.Chemscore.Metal.Weighted>
-0.0000

> <Gold.Chemscore.Lipo.Weighted>
-6.3538

> <Gold.Chemscore.Internal_Hbond.Weighted>
0.0000

> <Gold.Chemscore.DEClash.Weighted>
0.1617

> <Gold.Chemscore.DEInternal.Weighted>
3.6412

> <Gold.Chemscore.Rot.Weighted>
6.0959

> <Gold.Chemscore.Internal.Correction.Weighted>
   9.000000E+99

> <Gold.Protein.RotatedTorsions>
[ 6907 6896 6895 6894 ] final  -17.41 input  -60.11 | X-H torsion
[ 7974 7965 7964 7962 ] final -119.46 input  175.53 | X-H torsion
[ 8008 7997 7996 7995 ] final   78.50 input   59.86 | X-H torsion
[ 10167 10162 10161 10158 ] final   36.34 input  -65.29 | X-H torsion
[ 10718 10713 10712 10709 ] final -144.40 input   66.30 | X-H torsion
[ 10763 10752 10751 10750 ] final  136.97 input  -60.55 | X-H torsion
[ 11005 11000 10999 10996 ] final -170.53 input  -57.11 | X-H torsion

> <Gold.Protein.ActiveResidues>
 VAL166  LYS551  ARG553  GLY616  TRP617  ASP618  TYR619  PRO620  LYS621  CYS622 
 ASP623  PHE694  ASN695  SER759  ASP760  ASP761  ALA762  ILE779  LEU786  VAL792 
 PHE793  MET794  SER795  GLU796  ALA797  LYS798  CYS799  TRP800  GLU811  SER814 

> <Gold.Protein.RotatedAtoms>
  151.2938  135.0749  159.9213 H   0  0  0  0  0  0  0  0  0  0  0  0  # atno 6907 bound_to 6896
  152.5311  133.9904  159.7858 H   0  0  0  0  0  0  0  0  0  0  0  0  # atno 6908 bound_to 6896
  151.0178  133.5853  159.2705 H   0  0  0  0  0  0  0  0  0  0  0  0  # atno 6909 bound_to 6896
  145.0623  140.8299  143.4145 H   0  0  0  0  0  0  0  0  0  0  0  0  # atno 7974 bound_to 7965
  155.8565  140.3455  155.5728 H   0  0  0  0  0  0  0  0  0  0  0  0  # atno 8008 bound_to 7997
  155.7980  140.0881  157.1992 H   0  0  0  0  0  0  0  0  0  0  0  0  # atno 8009 bound_to 7997
  154.4010  140.1471  156.3228 H   0  0  0  0  0  0  0  0  0  0  0  0  # atno 8010 bound_to 7997
  140.4137  144.1557  150.6141 H   0  0  0  0  0  0  0  0  0  0  0  0  # atno 10167 bound_to 10162
  156.3697  130.7781  151.1960 H   0  0  0  0  0  0  0  0  0  0  0  0  # atno 10718 bound_to 10713
  153.8654  135.3062  155.3440 H   0  0  0  0  0  0  0  0  0  0  0  0  # atno 10763 bound_to 10752
  154.7830  135.4825  153.9888 H   0  0  0  0  0  0  0  0  0  0  0  0  # atno 10764 bound_to 10752
  153.1437  135.6829  153.9082 H   0  0  0  0  0  0  0  0  0  0  0  0  # atno 10765 bound_to 10752
  140.5184  134.5733  157.5040 H   0  0  0  0  0  0  0  0  0  0  0  0  # atno 11005 bound_to 11000
  145.1394  139.2582  143.5498 LP  0  0  0  0  0  0  0  0  0  0  0  0  # atno 17320 bound_to 7965
  146.3525  140.1067  142.8605 LP  0  0  0  0  0  0  0  0  0  0  0  0  # atno 17321 bound_to 7965
  140.4610  143.2449  151.9220 LP  0  0  0  0  0  0  0  0  0  0  0  0  # atno 17342 bound_to 10162
  139.4782  144.5467  151.8447 LP  0  0  0  0  0  0  0  0  0  0  0  0  # atno 17343 bound_to 10162
  157.7482  131.0376  150.4463 LP  0  0  0  0  0  0  0  0  0  0  0  0  # atno 17370 bound_to 10713
  156.4688  130.4048  149.6531 LP  0  0  0  0  0  0  0  0  0  0  0  0  # atno 17371 bound_to 10713
  139.9619  134.7437  156.0218 LP  0  0  0  0  0  0  0  0  0  0  0  0  # atno 17394 bound_to 11000
  141.1347  133.6578  156.3562 LP  0  0  0  0  0  0  0  0  0  0  0  0  # atno 17395 bound_to 11000

$$$$
