AV-unprocessed.smi:899|AV-procd|sdf|4088|dock6
  -GOLD-   22720 1573D 1   1.00000     0.00000
 Structure written by MMmdl.
 32 33  0  0  0  0  0  0  0  0  2 V2000
  150.2859  140.2351  155.2235 N   0  0  0  0  0  0  0  0  0  0  0  0
  150.2133  141.2431  155.7872 C   0  0  0  0  0  0  0  0  0  0  0  0
  150.1211  142.5240  156.5042 C   0  0  0  0  0  0  0  0  0  0  0  0
  151.0378  142.5693  157.7092 C   0  0  0  0  0  0  0  0  0  0  0  0
  151.0892  141.4782  158.5983 C   0  0  0  0  0  0  0  0  0  0  0  0
  151.9428  141.5188  159.7172 C   0  0  0  0  0  0  0  0  0  0  0  0
  152.7566  142.6434  159.9649 C   0  0  0  0  0  0  0  0  0  0  0  0
  153.5654  142.5963  161.0802 O   0  0  0  0  0  0  0  0  0  0  0  0
  153.7863  141.3361  161.6984 C   0  0  0  0  0  0  0  0  0  0  0  0
  154.7253  140.5106  160.8070 C   0  0  0  0  0  0  0  0  0  0  0  0
  154.3918  139.0810  160.8562 N   0  0  0  0  0  0  0  0  0  0  0  0
  154.1794  138.5053  162.1204 C   0  0  0  0  0  0  0  0  0  0  0  0
  153.8746  137.2016  162.2702 C   0  0  0  0  0  0  0  0  0  0  0  0
  153.6192  136.5208  163.8374 Cl  0  0  0  0  0  0  0  0  0  0  0  0
  153.7694  136.3792  161.0665 C   0  0  0  0  0  0  0  0  0  0  0  0
  153.4889  135.1856  161.1671 O   0  0  0  0  0  0  0  0  0  0  0  0
  153.9929  136.9847  159.8634 N   0  5  0  0  0  0  0  0  0  0  0  0
  154.3044  138.3110  159.7312 C   0  0  0  0  0  0  0  0  0  0  0  0
  154.5107  138.8329  158.6352 O   0  0  0  0  0  0  0  0  0  0  0  0
  152.6982  143.7393  159.0669 C   0  0  0  0  0  0  0  0  0  0  0  0
  151.8437  143.6999  157.9478 C   0  0  0  0  0  0  0  0  0  0  0  0
  150.3801  143.3265  155.8131 H   0  0  0  0  0  0  0  0  0  0  0  0
  149.0847  142.6743  156.8085 H   0  0  0  0  0  0  0  0  0  0  0  0
  150.4737  140.6077  158.4244 H   0  0  0  0  0  0  0  0  0  0  0  0
  151.9751  140.6767  160.3928 H   0  0  0  0  0  0  0  0  0  0  0  0
  154.2347  141.4733  162.6838 H   0  0  0  0  0  0  0  0  0  0  0  0
  152.8387  140.8097  161.8246 H   0  0  0  0  0  0  0  0  0  0  0  0
  154.6650  140.8742  159.7804 H   0  0  0  0  0  0  0  0  0  0  0  0
  155.7626  140.6717  161.1056 H   0  0  0  0  0  0  0  0  0  0  0  0
  154.2827  139.1834  162.9550 H   0  0  0  0  0  0  0  0  0  0  0  0
  153.3003  144.6231  159.2141 H   0  0  0  0  0  0  0  0  0  0  0  0
  151.8102  144.5418  157.2717 H   0  0  0  0  0  0  0  0  0  0  0  0
  1  2  3  0  0  0  0
  2  3  1  0  0  0  0
  3  4  1  0  0  0  0
  3 22  1  0  0  0  0
  3 23  1  0  0  0  0
  4 21  1  0  0  0  0
  4  5  2  0  0  0  0
  5  6  1  0  0  0  0
  5 24  1  0  0  0  0
  6  7  2  0  0  0  0
  6 25  1  0  0  0  0
  7  8  1  0  0  0  0
  7 20  1  0  0  0  0
  8  9  1  0  0  0  0
  9 10  1  0  0  0  0
  9 26  1  0  0  0  0
  9 27  1  0  0  0  0
 10 11  1  0  0  0  0
 10 28  1  0  0  0  0
 10 29  1  0  0  0  0
 11 18  1  0  0  0  0
 11 12  1  0  0  0  0
 12 13  2  0  0  0  0
 12 30  1  0  0  0  0
 13 14  1  0  0  0  0
 13 15  1  0  0  0  0
 15 16  2  0  0  0  0
 15 17  1  0  0  0  0
 17 18  1  0  0  0  0
 18 19  2  0  0  0  0
 20 21  2  0  0  0  0
 20 31  1  0  0  0  0
 21 32  1  0  0  0  0
M  CHG  1  17  -1
M  END
> <s_m_source_file>
AV-unprocessed.smi

> <i_m_source_file_index>
899

> <i_lp_mmshare_version>
43012

> <i_f3d_flags>
0

> <s_epik_input>
TiNDW0NIMl1jMVtjSF1bY0hdYyhbY0hdW2NIXTEpT1tDSDJdW0NIMl1uMltjSF1jKENsKWMoPU8pW25IXWMyPU8=

> <s_epik_cmdline>
J2VwaWtfcHl0aG9uJywgJy1waCcsICc3LjAnLCAnLXRuJywgJzgnLCAnLW1hJywgJzIwMCcsICctbWV0YWxfYmluZGluZycsICctaW1hZScsICc8aW5maWxlLm1hZT4nLCAnLW9tYWUnLCAnPG91dGZpbGUubWFlPic=

> <r_lp_tautomer_probability>
1

> <r_epik_Ionization_Penalty>
1.54028

> <r_epik_Ionization_Penalty_Charging>
7.31917e-09

> <r_epik_Ionization_Penalty_Neutral>
1.54028

> <r_epik_State_Penalty>
1.63364

> <r_epik_Charging_Adjusted_Penalty>
1.63364

> <i_epik_Tot_Q>
-1

> <i_epik_Tot_abs_Q>
1

> <r_epik_Metal_State_Penalty>
0.00867927

> <b_epik_Metal_Only>
0

> <s_lp_Force_Field>
OPLS_2005

> <r_lp_Energy>
21.9466

> <b_lp_Chiralities_Consistent>
1

> <s_lp_Variant>
AV-unprocessed.smi:899-2

> <Gold.Version>
5.8.1

> <Gold.Id.Protein>
6NUR|6NUR_protein|mol2

> <Gold.PLP.Fitness>
47.4105

> <Gold.PLP.PLP>
-41.5340

> <Gold.PLP.part.hbond>
-3.0000

> <Gold.PLP.part.metal>
0.0000

> <Gold.PLP.part.buried>
-1.1871

> <Gold.PLP.part.nonpolar>
-37.1207

> <Gold.PLP.part.repulsive>
0.0638

> <Gold.PLP.ligand.clash>
1.3586

> <Gold.PLP.ligand.torsion>
0.8034

> <Gold.PLP.Chemscore.Hbond>
2.9425

> <Gold.PLP.Chemscore.CHOScore>
0.0000

> <Gold.PLP.Chemscore.Metal>
0.0000

> <Gold.Chemscore.Hbonds>
donor molecule, donor type, donor heavy atom, donor atom, acceptor molecule, acceptor atom, score
      P1  H  6896  6909       L1    16  0.74
      P1  H  7989  7998       L1     1  0.37
      P1  H  7997  8008       L1    19  1.00

> <Gold.PLP.Chemscore.Internal.Correction>
0.0144

> <Gold.Rescore>
     Score         DG    S(hbond)    S(metal)    S(lipo)     H(rot)  DE(clash)    DE(int)     intcor
     19.54     -21.77       2.83        0.00     107.54       2.25       1.60       0.63       ----

> <Gold.Chemscore.Fitness>
19.5406

> <Gold.Chemscore.DG>
-21.7706

> <Gold.Chemscore.ZeroCoef>
-5.4800

> <Gold.Chemscore.Hbond>
2.8340

> <Gold.Chemscore.Metal>
0.0000

> <Gold.Chemscore.Lipo>
107.5430

> <Gold.Chemscore.Internal_Hbond>
0.0000

> <Gold.Chemscore.DEClash>
1.6002

> <Gold.Chemscore.DEInternal>
0.6298

> <Gold.Chemscore.Rot>
2.2491

> <Gold.Chemscore.Internal.Correction>
   9.000000E+99

> <Gold.Chemscore.Hbonds>
donor molecule, donor type, donor heavy atom, donor atom, acceptor molecule, acceptor atom, score
      P1  H  6896  6909       L1    16  0.69
      P1  H  7989  7998       L1     1  0.08
      P1  H  7997  8008       L1    19  1.00

> <Gold.Chemscore.Hbond.Weighted>
-9.4657

> <Gold.Chemscore.Metal.Weighted>
-0.0000

> <Gold.Chemscore.Lipo.Weighted>
-12.5825

> <Gold.Chemscore.Internal_Hbond.Weighted>
0.0000

> <Gold.Chemscore.DEClash.Weighted>
1.6002

> <Gold.Chemscore.DEInternal.Weighted>
0.6298

> <Gold.Chemscore.Rot.Weighted>
5.7576

> <Gold.Chemscore.Internal.Correction.Weighted>
   9.000000E+99

> <Gold.Protein.RotatedTorsions>
[ 6907 6896 6895 6894 ] final -173.03 input  -60.11 | X-H torsion
[ 7974 7965 7964 7962 ] final -102.04 input  175.53 | X-H torsion
[ 8008 7997 7996 7995 ] final -106.41 input   59.86 | X-H torsion
[ 10167 10162 10161 10158 ] final   47.37 input  -65.29 | X-H torsion
[ 10718 10713 10712 10709 ] final  133.77 input   66.30 | X-H torsion
[ 10763 10752 10751 10750 ] final    2.19 input  -60.55 | X-H torsion
[ 11005 11000 10999 10996 ] final  -31.37 input  -57.11 | X-H torsion

> <Gold.Protein.ActiveResidues>
 VAL166  LYS551  ARG553  GLY616  TRP617  ASP618  TYR619  PRO620  LYS621  CYS622 
 ASP623  PHE694  ASN695  SER759  ASP760  ASP761  ALA762  ILE779  LEU786  VAL792 
 PHE793  MET794  SER795  GLU796  ALA797  LYS798  CYS799  TRP800  GLU811  SER814 

> <Gold.Protein.RotatedAtoms>
  151.5496  133.3419  159.2950 H   0  0  0  0  0  0  0  0  0  0  0  0  # atno 6907 bound_to 6896
  150.8487  134.7807  159.7002 H   0  0  0  0  0  0  0  0  0  0  0  0  # atno 6908 bound_to 6896
  152.4538  134.5343  159.9872 H   0  0  0  0  0  0  0  0  0  0  0  0  # atno 6909 bound_to 6896
  145.2738  140.9306  143.2971 H   0  0  0  0  0  0  0  0  0  0  0  0  # atno 7974 bound_to 7965
  154.9141  140.0409  157.1962 H   0  0  0  0  0  0  0  0  0  0  0  0  # atno 8008 bound_to 7997
  154.8319  140.2900  155.5695 H   0  0  0  0  0  0  0  0  0  0  0  0  # atno 8009 bound_to 7997
  156.2987  140.2499  156.3246 H   0  0  0  0  0  0  0  0  0  0  0  0  # atno 8010 bound_to 7997
  140.3043  144.2897  150.6212 H   0  0  0  0  0  0  0  0  0  0  0  0  # atno 10167 bound_to 10162
  157.4740  131.1082  150.9767 H   0  0  0  0  0  0  0  0  0  0  0  0  # atno 10718 bound_to 10713
  153.2986  135.6954  153.7224 H   0  0  0  0  0  0  0  0  0  0  0  0  # atno 10763 bound_to 10752
  153.6147  135.3438  155.2991 H   0  0  0  0  0  0  0  0  0  0  0  0  # atno 10764 bound_to 10752
  154.8544  135.4372  154.2090 H   0  0  0  0  0  0  0  0  0  0  0  0  # atno 10765 bound_to 10752
  140.9462  133.7248  156.1150 H   0  0  0  0  0  0  0  0  0  0  0  0  # atno 11005 bound_to 11000
  144.9312  139.4296  143.6494 LP  0  0  0  0  0  0  0  0  0  0  0  0  # atno 17320 bound_to 7965
  146.3238  139.8224  142.8924 LP  0  0  0  0  0  0  0  0  0  0  0  0  # atno 17321 bound_to 7965
  140.5624  143.2190  151.7742 LP  0  0  0  0  0  0  0  0  0  0  0  0  # atno 17342 bound_to 10162
  139.4908  144.4331  151.9850 LP  0  0  0  0  0  0  0  0  0  0  0  0  # atno 17343 bound_to 10162
  157.0522  130.5792  149.5372 LP  0  0  0  0  0  0  0  0  0  0  0  0  # atno 17370 bound_to 10713
  156.0087  130.5177  150.7918 LP  0  0  0  0  0  0  0  0  0  0  0  0  # atno 17371 bound_to 10713
  140.7666  134.3880  157.5516 LP  0  0  0  0  0  0  0  0  0  0  0  0  # atno 17394 bound_to 11000
  139.8834  134.8995  156.2768 LP  0  0  0  0  0  0  0  0  0  0  0  0  # atno 17395 bound_to 11000

$$$$
