AV-unprocessed.smi:280|AV-procd|sdf|2098|dock3
  -GOLD-   2262021383D 1   1.00000     0.00000
 Structure written by MMmdl.
 59 62  0  0  0  0  0  0  0  0  2 V2000
  146.5169  133.2511  153.8908 C   0  0  0  0  0  0  0  0  0  0  0  0
  147.2442  132.7714  152.6152 C   0  0  1  0  0  0  0  0  0  0  0  0
  148.7777  132.8893  152.7503 C   0  0  0  0  0  0  0  0  0  0  0  0
  149.3104  131.8496  153.6317 N   0  0  0  0  0  0  0  0  0  0  0  0
  149.5997  132.1759  154.9218 C   0  0  0  0  0  0  0  0  0  0  0  0
  150.2768  131.2560  155.6579 N   0  0  0  0  0  0  0  0  0  0  0  0
  150.5985  131.5001  156.9303 C   0  0  0  0  0  0  0  0  0  0  0  0
  150.3451  132.5870  157.6578 N   0  0  0  0  0  0  0  0  0  0  0  0
  149.6647  133.5198  156.9347 C   0  0  0  0  0  0  0  0  0  0  0  0
  149.2566  133.4015  155.5730 C   0  0  0  0  0  0  0  0  0  0  0  0
  148.6097  134.5708  155.1854 N   0  0  0  0  0  0  0  0  0  0  0  0
  148.6265  135.3246  156.2494 C   0  0  0  0  0  0  0  0  0  0  0  0
  149.2318  134.7670  157.3512 N   0  0  0  0  0  0  0  0  0  0  0  0
  149.3916  135.3865  158.6590 C   0  0  0  0  0  0  0  0  0  0  0  0
  148.0857  135.5042  159.4698 C   0  0  0  0  0  0  0  0  0  0  0  0
  147.3836  134.1306  159.4914 C   0  0  0  0  0  0  0  0  0  0  0  0
  148.1573  133.1351  160.1309 O   0  0  0  0  0  0  0  0  0  0  0  0
  148.1843  136.2247  160.8225 C   0  0  0  0  0  0  0  0  0  0  0  0
  147.0965  137.1142  160.4882 O   0  0  0  0  0  0  0  0  0  0  0  0
  147.2071  136.7103  159.1057 C   0  0  0  0  0  0  0  0  0  0  0  0
  148.9469  130.4882  153.2532 C   0  0  0  0  0  0  0  0  0  0  0  0
  147.4198  130.3416  153.1148 C   0  0  0  0  0  0  0  0  0  0  0  0
  146.8691  131.3849  152.2069 N   0  3  1  0  0  0  0  0  0  0  0  0
  145.4271  131.2093  151.8808 C   0  0  0  0  0  0  0  0  0  0  0  0
  144.9867  131.9900  150.6184 C   0  0  0  0  0  0  0  0  0  0  0  0
  144.8565  133.4874  150.9459 C   0  0  0  0  0  0  0  0  0  0  0  0
  145.9550  131.7861  149.4383 C   0  0  0  0  0  0  0  0  0  0  0  0
  143.7016  131.5599  150.2182 O   0  0  0  0  0  0  0  0  0  0  0  0
  146.8139  134.2700  154.1401 H   0  0  0  0  0  0  0  0  0  0  0  0
  146.7452  132.6295  154.7561 H   0  0  0  0  0  0  0  0  0  0  0  0
  145.4342  133.2564  153.7680 H   0  0  0  0  0  0  0  0  0  0  0  0
  146.9457  133.4367  151.8039 H   0  0  0  0  0  0  0  0  0  0  0  0
  149.2382  132.7583  151.7703 H   0  0  0  0  0  0  0  0  0  0  0  0
  149.0468  133.8956  153.0710 H   0  0  0  0  0  0  0  0  0  0  0  0
  151.1359  130.7122  157.4374 H   0  0  0  0  0  0  0  0  0  0  0  0
  148.1902  136.3131  156.2611 H   0  0  0  0  0  0  0  0  0  0  0  0
  150.1360  134.8113  159.2113 H   0  0  0  0  0  0  0  0  0  0  0  0
  149.8334  136.3730  158.5135 H   0  0  0  0  0  0  0  0  0  0  0  0
  146.4234  134.1923  160.0047 H   0  0  0  0  0  0  0  0  0  0  0  0
  147.1813  133.7777  158.4801 H   0  0  0  0  0  0  0  0  0  0  0  0
  147.6219  132.7113  160.7844 H   0  0  0  0  0  0  0  0  0  0  0  0
  147.9654  135.5928  161.6839 H   0  0  0  0  0  0  0  0  0  0  0  0
  149.1132  136.7757  160.9707 H   0  0  0  0  0  0  0  0  0  0  0  0
  147.7184  137.4654  158.5062 H   0  0  0  0  0  0  0  0  0  0  0  0
  146.2451  136.4532  158.6609 H   0  0  0  0  0  0  0  0  0  0  0  0
  149.4136  130.2797  152.2899 H   0  0  0  0  0  0  0  0  0  0  0  0
  149.3601  129.7507  153.9400 H   0  0  0  0  0  0  0  0  0  0  0  0
  147.1943  129.3469  152.7341 H   0  0  0  0  0  0  0  0  0  0  0  0
  146.9355  130.4120  154.0883 H   0  0  0  0  0  0  0  0  0  0  0  0
  145.1901  130.1478  151.7909 H   0  0  0  0  0  0  0  0  0  0  0  0
  144.8218  131.5771  152.7104 H   0  0  0  0  0  0  0  0  0  0  0  0
  145.8145  133.9096  151.2514 H   0  0  0  0  0  0  0  0  0  0  0  0
  144.1493  133.6580  151.7586 H   0  0  0  0  0  0  0  0  0  0  0  0
  144.5085  134.0574  150.0833 H   0  0  0  0  0  0  0  0  0  0  0  0
  146.9662  132.0994  149.7007 H   0  0  0  0  0  0  0  0  0  0  0  0
  145.6474  132.3682  148.5687 H   0  0  0  0  0  0  0  0  0  0  0  0
  146.0039  130.7424  149.1268 H   0  0  0  0  0  0  0  0  0  0  0  0
  143.2309  132.3009  149.8666 H   0  0  0  0  0  0  0  0  0  0  0  0
  147.3466  131.2451  151.3280 H   0  0  0  0  0  0  0  0  0  0  0  0
  1  2  1  0  0  0  0
  1 29  1  0  0  0  0
  1 30  1  0  0  0  0
  1 31  1  0  0  0  0
  2 23  1  0  0  0  0
  2  3  1  0  0  0  0
  2 32  1  0  0  0  0
  3  4  1  0  0  0  0
  3 33  1  0  0  0  0
  3 34  1  0  0  0  0
  4  5  1  0  0  0  0
  4 21  1  0  0  0  0
  5 10  1  0  0  0  0
  5  6  2  0  0  0  0
  6  7  1  0  0  0  0
  7  8  2  0  0  0  0
  7 35  1  0  0  0  0
  8  9  1  0  0  0  0
  9 13  1  0  0  0  0
  9 10  2  0  0  0  0
 10 11  1  0  0  0  0
 11 12  2  0  0  0  0
 12 13  1  0  0  0  0
 12 36  1  0  0  0  0
 13 14  1  0  0  0  0
 14 15  1  0  0  0  0
 14 37  1  0  0  0  0
 14 38  1  0  0  0  0
 15 20  1  0  0  0  0
 15 16  1  0  0  0  0
 15 18  1  0  0  0  0
 16 17  1  0  0  0  0
 16 39  1  0  0  0  0
 16 40  1  0  0  0  0
 17 41  1  0  0  0  0
 18 19  1  0  0  0  0
 18 42  1  0  0  0  0
 18 43  1  0  0  0  0
 19 20  1  0  0  0  0
 20 44  1  0  0  0  0
 20 45  1  0  0  0  0
 21 22  1  0  0  0  0
 21 46  1  0  0  0  0
 21 47  1  0  0  0  0
 22 23  1  0  0  0  0
 22 48  1  0  0  0  0
 22 49  1  0  0  0  0
 23 24  1  0  0  0  0
 23 59  1  0  0  0  0
 24 25  1  0  0  0  0
 24 50  1  0  0  0  0
 24 51  1  0  0  0  0
 25 26  1  0  0  0  0
 25 27  1  0  0  0  0
 25 28  1  0  0  0  0
 26 52  1  0  0  0  0
 26 53  1  0  0  0  0
 26 54  1  0  0  0  0
 27 55  1  0  0  0  0
 27 56  1  0  0  0  0
 27 57  1  0  0  0  0
 28 58  1  0  0  0  0
M  CHG  1  23   1
M  END
> <s_m_source_file>
AV-unprocessed.smi

> <i_m_source_file_index>
280

> <i_lp_mmshare_version>
43012

> <i_f3d_flags>
0

> <s_epik_input>
W0NIM11DKFtDSDNdKShbT0hdKVtDSDJdTjFbQ0gyXVtDSDJdTihbQ0gyXVtDQEhdMVtDSDNdKWMobltjSF1uMiljKGMyMyluW2NIXW4zW0NIMl1DNChbQ0gyXVtPSF0pW0NIMl1PW0NIMl00

> <s_epik_cmdline>
J2VwaWtfcHl0aG9uJywgJy1waCcsICc3LjAnLCAnLXRuJywgJzgnLCAnLW1hJywgJzIwMCcsICctbWV0YWxfYmluZGluZycsICctaW1hZScsICc8aW5maWxlLm1hZT4nLCAnLW9tYWUnLCAnPG91dGZpbGUubWFlPic=

> <r_lp_tautomer_probability>
1

> <r_epik_Ionization_Penalty>
0.00179402

> <r_epik_Ionization_Penalty_Charging>
0.00173996

> <r_epik_Ionization_Penalty_Neutral>
5.40607e-05

> <r_epik_State_Penalty>
-0

> <r_epik_Charging_Adjusted_Penalty>
0.00173996

> <i_epik_Tot_Q>
1

> <i_epik_Tot_abs_Q>
1

> <r_epik_Metal_State_Penalty>
-0

> <b_epik_Metal_Only>
0

> <s_lp_Force_Field>
OPLS_2005

> <r_lp_Energy>
54.8934

> <b_lp_Chiralities_Consistent>
1

> <s_lp_Variant>
AV-unprocessed.smi:280-2

> <Gold.Version>
5.8.1

> <Gold.Id.Protein>
6NUR|6NUR_protein|mol2

> <Gold.PLP.Fitness>
48.2279

> <Gold.PLP.PLP>
-37.7169

> <Gold.PLP.part.hbond>
-4.5483

> <Gold.PLP.part.metal>
0.0000

> <Gold.PLP.part.buried>
-4.9132

> <Gold.PLP.part.nonpolar>
-28.9436

> <Gold.PLP.part.repulsive>
0.0788

> <Gold.PLP.ligand.clash>
0.0000

> <Gold.PLP.ligand.torsion>
0.8530

> <Gold.PLP.Chemscore.Hbond>
3.7146

> <Gold.PLP.Chemscore.CHOScore>
0.0000

> <Gold.PLP.Chemscore.Metal>
0.0000

> <Gold.Chemscore.Hbonds>
donor molecule, donor type, donor heavy atom, donor atom, acceptor molecule, acceptor atom, score
      L1  H    23    59       P1 10747  1.00
      P1  H  6896  6907       L1     8  1.00
      P1  H  6934  6947       L1    19  1.00
      P1  H 10785 10796       L1    28  0.67

> <Gold.PLP.Chemscore.Internal.Correction>
1.0734

> <Gold.Rescore>
     Score         DG    S(hbond)    S(metal)    S(lipo)     H(rot)  DE(clash)    DE(int)     intcor
     13.22     -17.87       3.23        0.00      85.85       3.30       0.15       4.50       ----

> <Gold.Chemscore.Fitness>
13.2190

> <Gold.Chemscore.DG>
-17.8687

> <Gold.Chemscore.ZeroCoef>
-5.4800

> <Gold.Chemscore.Hbond>
3.2305

> <Gold.Chemscore.Metal>
0.0000

> <Gold.Chemscore.Lipo>
85.8479

> <Gold.Chemscore.Internal_Hbond>
0.0000

> <Gold.Chemscore.DEClash>
0.1469

> <Gold.Chemscore.DEInternal>
4.5027

> <Gold.Chemscore.Rot>
3.2991

> <Gold.Chemscore.Internal.Correction>
   9.000000E+99

> <Gold.Chemscore.Hbonds>
donor molecule, donor type, donor heavy atom, donor atom, acceptor molecule, acceptor atom, score
      L1  H    23    59       P1 10747  0.94
      P1  H  6896  6907       L1     8  0.74
      P1  H  6934  6947       L1    19  0.94
      P1  H 10785 10796       L1    28  0.14

> <Gold.Chemscore.Hbond.Weighted>
-10.7900

> <Gold.Chemscore.Metal.Weighted>
-0.0000

> <Gold.Chemscore.Lipo.Weighted>
-10.0442

> <Gold.Chemscore.Internal_Hbond.Weighted>
0.0000

> <Gold.Chemscore.DEClash.Weighted>
0.1469

> <Gold.Chemscore.DEInternal.Weighted>
4.5027

> <Gold.Chemscore.Rot.Weighted>
8.4456

> <Gold.Chemscore.Internal.Correction.Weighted>
   9.000000E+99

> <Gold.Protein.RotatedTorsions>
[ 6907 6896 6895 6894 ] final -150.88 input  -60.11 | X-H torsion
[ 7974 7965 7964 7962 ] final -124.03 input  175.53 | X-H torsion
[ 8008 7997 7996 7995 ] final   78.91 input   59.86 | X-H torsion
[ 10167 10162 10161 10158 ] final  -14.87 input  -65.29 | X-H torsion
[ 10718 10713 10712 10709 ] final -157.74 input   66.30 | X-H torsion
[ 10763 10752 10751 10750 ] final  -82.38 input  -60.55 | X-H torsion
[ 11005 11000 10999 10996 ] final  -24.04 input  -57.11 | X-H torsion

> <Gold.Protein.ActiveResidues>
 VAL166  LYS551  ARG553  GLY616  TRP617  ASP618  TYR619  PRO620  LYS621  CYS622 
 ASP623  PHE694  ASN695  SER759  ASP760  ASP761  ALA762  ILE779  LEU786  VAL792 
 PHE793  MET794  SER795  GLU796  ALA797  LYS798  CYS799  TRP800  GLU811  SER814 

> <Gold.Protein.RotatedAtoms>
  151.2049  133.4589  159.2596 H   0  0  0  0  0  0  0  0  0  0  0  0  # atno 6907 bound_to 6896
  151.1033  134.9985  159.8469 H   0  0  0  0  0  0  0  0  0  0  0  0  # atno 6908 bound_to 6896
  152.5445  134.1974  159.8751 H   0  0  0  0  0  0  0  0  0  0  0  0  # atno 6909 bound_to 6896
  145.0123  140.7917  143.4431 H   0  0  0  0  0  0  0  0  0  0  0  0  # atno 7974 bound_to 7965
  155.8624  140.3453  155.5765 H   0  0  0  0  0  0  0  0  0  0  0  0  # atno 8008 bound_to 7997
  155.7919  140.0873  157.2024 H   0  0  0  0  0  0  0  0  0  0  0  0  # atno 8009 bound_to 7997
  154.4012  140.1481  156.3160 H   0  0  0  0  0  0  0  0  0  0  0  0  # atno 8010 bound_to 7997
  140.7209  143.5276  150.9558 H   0  0  0  0  0  0  0  0  0  0  0  0  # atno 10167 bound_to 10162
  156.5445  130.8578  151.2759 H   0  0  0  0  0  0  0  0  0  0  0  0  # atno 10718 bound_to 10713
  154.5750  135.5593  153.7131 H   0  0  0  0  0  0  0  0  0  0  0  0  # atno 10763 bound_to 10752
  153.0061  135.6306  154.2061 H   0  0  0  0  0  0  0  0  0  0  0  0  # atno 10764 bound_to 10752
  154.2001  135.2878  155.2973 H   0  0  0  0  0  0  0  0  0  0  0  0  # atno 10765 bound_to 10752
  140.8808  133.7655  156.0300 H   0  0  0  0  0  0  0  0  0  0  0  0  # atno 11005 bound_to 11000
  145.2006  139.2254  143.5195 LP  0  0  0  0  0  0  0  0  0  0  0  0  # atno 17320 bound_to 7965
  146.3472  140.1823  142.8589 LP  0  0  0  0  0  0  0  0  0  0  0  0  # atno 17321 bound_to 7965
  139.8995  143.6853  152.3133 LP  0  0  0  0  0  0  0  0  0  0  0  0  # atno 17342 bound_to 10162
  139.7197  144.7605  151.0975 LP  0  0  0  0  0  0  0  0  0  0  0  0  # atno 17343 bound_to 10162
  157.7399  130.9840  150.2344 LP  0  0  0  0  0  0  0  0  0  0  0  0  # atno 17370 bound_to 10713
  156.2941  130.3749  149.7813 LP  0  0  0  0  0  0  0  0  0  0  0  0  # atno 17371 bound_to 10713
  140.8463  134.3006  157.5293 LP  0  0  0  0  0  0  0  0  0  0  0  0  # atno 17394 bound_to 11000
  139.8719  134.9444  156.3879 LP  0  0  0  0  0  0  0  0  0  0  0  0  # atno 17395 bound_to 11000

$$$$
