AV-unprocessed.smi:101|AV-procd|sdf|943|dock5
  -GOLD-   2262017463D 1   1.00000     0.00000
 Structure written by MMmdl.
 43 45  0  0  0  0  0  0  0  0  2 V2000
  151.5791  144.5592  158.0115 C   0  0  0  0  0  0  0  0  0  0  0  0
  151.7020  143.0467  158.0674 C   0  0  0  0  0  0  0  0  0  0  0  0
  151.0682  142.2386  157.1889 C   0  0  0  0  0  0  0  0  0  0  0  0
  151.1796  140.8607  157.2468 N   0  0  0  0  0  0  0  0  0  0  0  0
  150.4492  139.9894  156.2466 C   0  0  2  0  0  0  0  0  0  0  0  0
  149.9167  138.8863  156.9180 O   0  0  0  0  0  0  0  0  0  0  0  0
  150.1323  137.7085  156.1497 C   0  0  2  0  0  0  0  0  0  0  0  0
  150.0852  136.4563  157.0367 C   0  0  0  0  0  0  0  0  0  0  0  0
  149.4091  135.4195  156.3448 O   0  0  0  0  0  0  0  0  0  0  0  0
  149.5473  134.1409  156.7449 C   0  0  0  0  0  0  0  0  0  0  0  0
  149.7580  133.8112  157.9140 O   0  0  0  0  0  0  0  0  0  0  0  0
  149.4204  133.1648  155.6242 C   0  0  0  0  0  0  0  0  0  0  0  0
  149.7600  131.8093  155.8438 C   0  0  0  0  0  0  0  0  0  0  0  0
  149.6493  130.8648  154.8048 C   0  0  0  0  0  0  0  0  0  0  0  0
  149.1974  131.2643  153.5336 C   0  0  0  0  0  0  0  0  0  0  0  0
  148.8563  132.6096  153.3023 C   0  0  0  0  0  0  0  0  0  0  0  0
  148.9664  133.5557  154.3401 C   0  0  0  0  0  0  0  0  0  0  0  0
  151.4665  137.9707  155.4405 C   0  0  2  0  0  0  0  0  0  0  0  0
  152.5585  137.6599  156.2911 O   0  0  0  0  0  0  0  0  0  0  0  0
  151.3678  139.4599  155.1241 C   0  0  2  0  0  0  0  0  0  0  0  0
  152.6302  140.0934  155.0022 O   0  0  0  0  0  0  0  0  0  0  0  0
  151.9594  140.2614  158.2702 C   0  0  0  0  0  0  0  0  0  0  0  0
  152.0027  139.0320  158.3229 O   0  0  0  0  0  0  0  0  0  0  0  0
  152.6112  141.0687  159.1546 N   0  5  0  0  0  0  0  0  0  0  0  0
  152.5303  142.4299  159.1108 C   0  0  0  0  0  0  0  0  0  0  0  0
  153.1264  143.1464  159.9146 O   0  0  0  0  0  0  0  0  0  0  0  0
  150.9477  144.8748  157.1805 H   0  0  0  0  0  0  0  0  0  0  0  0
  152.5602  145.0178  157.8834 H   0  0  0  0  0  0  0  0  0  0  0  0
  151.1384  144.9384  158.9339 H   0  0  0  0  0  0  0  0  0  0  0  0
  150.4521  142.6854  156.4230 H   0  0  0  0  0  0  0  0  0  0  0  0
  149.6161  140.5822  155.8670 H   0  0  0  0  0  0  0  0  0  0  0  0
  149.3484  137.6518  155.3918 H   0  0  0  0  0  0  0  0  0  0  0  0
  151.0992  136.1242  157.2635 H   0  0  0  0  0  0  0  0  0  0  0  0
  149.5874  136.6742  157.9828 H   0  0  0  0  0  0  0  0  0  0  0  0
  150.1094  131.4790  156.8114 H   0  0  0  0  0  0  0  0  0  0  0  0
  149.9115  129.8326  154.9841 H   0  0  0  0  0  0  0  0  0  0  0  0
  149.1126  130.5397  152.7370 H   0  0  0  0  0  0  0  0  0  0  0  0
  148.5092  132.9176  152.3271 H   0  0  0  0  0  0  0  0  0  0  0  0
  148.6953  134.5799  154.1289 H   0  0  0  0  0  0  0  0  0  0  0  0
  151.5649  137.3738  154.5334 H   0  0  0  0  0  0  0  0  0  0  0  0
  153.1758  137.1318  155.8093 H   0  0  0  0  0  0  0  0  0  0  0  0
  150.8272  139.5891  154.1857 H   0  0  0  0  0  0  0  0  0  0  0  0
  152.5052  140.9223  154.5649 H   0  0  0  0  0  0  0  0  0  0  0  0
  1  2  1  0  0  0  0
  1 27  1  0  0  0  0
  1 28  1  0  0  0  0
  1 29  1  0  0  0  0
  2 25  1  0  0  0  0
  2  3  2  0  0  0  0
  3  4  1  0  0  0  0
  3 30  1  0  0  0  0
  4  5  1  0  0  0  0
  4 22  1  0  0  0  0
  5 20  1  0  0  0  0
  5  6  1  0  0  0  0
  5 31  1  0  0  0  0
  6  7  1  0  0  0  0
  7  8  1  0  0  0  0
  7 18  1  0  0  0  0
  7 32  1  0  0  0  0
  8  9  1  0  0  0  0
  8 33  1  0  0  0  0
  8 34  1  0  0  0  0
  9 10  1  0  0  0  0
 10 11  2  0  0  0  0
 10 12  1  0  0  0  0
 12 17  1  0  0  0  0
 12 13  2  0  0  0  0
 13 14  1  0  0  0  0
 13 35  1  0  0  0  0
 14 15  2  0  0  0  0
 14 36  1  0  0  0  0
 15 16  1  0  0  0  0
 15 37  1  0  0  0  0
 16 17  2  0  0  0  0
 16 38  1  0  0  0  0
 17 39  1  0  0  0  0
 18 19  1  0  0  0  0
 18 20  1  0  0  0  0
 18 40  1  0  0  0  0
 19 41  1  0  0  0  0
 20 21  1  0  0  0  0
 20 42  1  0  0  0  0
 21 43  1  0  0  0  0
 22 23  2  0  0  0  0
 22 24  1  0  0  0  0
 24 25  1  0  0  0  0
 25 26  2  0  0  0  0
M  CHG  1  24  -1
M  END
> <s_m_source_file>
AV-unprocessed.smi

> <i_m_source_file_index>
101

> <i_lp_mmshare_version>
43012

> <i_f3d_flags>
0

> <s_epik_input>
Tz1jMVtuSF1jKD1PKW4oW2NIXWMxW0NIM10pW0NAQEhdMk9bQ0BIXShbQ0BASF0oW09IXSlbQ0BIXTJbT0hdKVtDSDJdT0MoPU8pYzNbY0hdW2NIXVtjSF1bY0hdW2NIXTM=

> <s_epik_cmdline>
J2VwaWtfcHl0aG9uJywgJy1waCcsICc3LjAnLCAnLXRuJywgJzgnLCAnLW1hJywgJzIwMCcsICctbWV0YWxfYmluZGluZycsICctaW1hZScsICc8aW5maWxlLm1hZT4nLCAnLW9tYWUnLCAnPG91dGZpbGUubWFlPic=

> <r_lp_tautomer_probability>
0.999537

> <r_epik_Ionization_Penalty>
3.21006

> <r_epik_Ionization_Penalty_Charging>
5.75142e-08

> <r_epik_Ionization_Penalty_Neutral>
3.21006

> <r_epik_State_Penalty>
3.20925

> <r_epik_Charging_Adjusted_Penalty>
3.20925

> <i_epik_Tot_Q>
-1

> <i_epik_Tot_abs_Q>
1

> <r_epik_Metal_State_Penalty>
0.119957

> <b_epik_Metal_Only>
1

> <s_epik_Chemistry_Notes>
This compound has an ester and may undergo hydrolysis at high or low pH. This compound contains an acetal/aminal-like group ( X-CH(R)-Y where X, Y are N, S, or O) that may be acid/base labile, releasing an aldehyde.

> <s_lp_Force_Field>
OPLS_2005

> <r_lp_Energy>
51.0672

> <b_lp_Chiralities_Consistent>
1

> <s_lp_Variant>
AV-unprocessed.smi:101-31

> <Gold.Version>
5.8.1

> <Gold.Id.Protein>
6NUR|6NUR_protein|mol2

> <Gold.PLP.Fitness>
43.6119

> <Gold.PLP.PLP>
-38.9283

> <Gold.PLP.part.hbond>
-3.0000

> <Gold.PLP.part.metal>
0.0000

> <Gold.PLP.part.buried>
-3.3017

> <Gold.PLP.part.nonpolar>
-31.8931

> <Gold.PLP.part.repulsive>
0.0207

> <Gold.PLP.ligand.clash>
0.0000

> <Gold.PLP.ligand.torsion>
1.6095

> <Gold.PLP.Chemscore.Hbond>
1.9920

> <Gold.PLP.Chemscore.CHOScore>
0.6275

> <Gold.PLP.Chemscore.Metal>
0.0000

> <Gold.Chemscore.Hbonds>
donor molecule, donor type, donor heavy atom, donor atom, acceptor molecule, acceptor atom, score
      P1  H  6896  6907       L1    11  0.98
      P1  H  7997  8010       L1    21  1.00
      L1  C     3    30       P1  8028  0.64

> <Gold.PLP.Chemscore.Internal.Correction>
0.0441

> <Gold.Rescore>
     Score         DG    S(hbond)    S(metal)    S(lipo)     H(rot)  DE(clash)    DE(int)     intcor
      7.24     -12.47       1.64        0.00      84.39       3.27       0.13       5.10       ----

> <Gold.Chemscore.Fitness>
7.2366

> <Gold.Chemscore.DG>
-12.4730

> <Gold.Chemscore.ZeroCoef>
-5.4800

> <Gold.Chemscore.Hbond>
1.6406

> <Gold.Chemscore.Metal>
0.0000

> <Gold.Chemscore.Lipo>
84.3865

> <Gold.Chemscore.Internal_Hbond>
0.0000

> <Gold.Chemscore.DEClash>
0.1334

> <Gold.Chemscore.DEInternal>
5.1030

> <Gold.Chemscore.Rot>
3.2656

> <Gold.Chemscore.Internal.Correction>
   9.000000E+99

> <Gold.Chemscore.Hbonds>
donor molecule, donor type, donor heavy atom, donor atom, acceptor molecule, acceptor atom, score
      P1  H  6896  6907       L1    11  0.93
      P1  H  7997  8010       L1    21  0.52

> <Gold.Chemscore.Hbond.Weighted>
-5.4796

> <Gold.Chemscore.Metal.Weighted>
-0.0000

> <Gold.Chemscore.Lipo.Weighted>
-9.8732

> <Gold.Chemscore.Internal_Hbond.Weighted>
0.0000

> <Gold.Chemscore.DEClash.Weighted>
0.1334

> <Gold.Chemscore.DEInternal.Weighted>
5.1030

> <Gold.Chemscore.Rot.Weighted>
8.3598

> <Gold.Chemscore.Internal.Correction.Weighted>
   9.000000E+99

> <Gold.Protein.RotatedTorsions>
[ 6907 6896 6895 6894 ] final -131.38 input  -60.11 | X-H torsion
[ 7974 7965 7964 7962 ] final   14.98 input  175.53 | X-H torsion
[ 8008 7997 7996 7995 ] final  103.73 input   59.86 | X-H torsion
[ 10167 10162 10161 10158 ] final   85.84 input  -65.29 | X-H torsion
[ 10718 10713 10712 10709 ] final -109.68 input   66.30 | X-H torsion
[ 10763 10752 10751 10750 ] final    9.84 input  -60.55 | X-H torsion
[ 11005 11000 10999 10996 ] final   39.67 input  -57.11 | X-H torsion

> <Gold.Protein.ActiveResidues>
 VAL166  LYS551  ARG553  GLY616  TRP617  ASP618  TYR619  PRO620  LYS621  CYS622 
 ASP623  PHE694  ASN695  SER759  ASP760  ASP761  ALA762  ILE779  LEU786  VAL792 
 PHE793  MET794  SER795  GLU796  ALA797  LYS798  CYS799  TRP800  GLU811  SER814 

> <Gold.Protein.RotatedAtoms>
  150.9503  133.6557  159.2773 H   0  0  0  0  0  0  0  0  0  0  0  0  # atno 6907 bound_to 6896
  151.3915  135.0955  159.9537 H   0  0  0  0  0  0  0  0  0  0  0  0  # atno 6908 bound_to 6896
  152.5107  133.9017  159.7499 H   0  0  0  0  0  0  0  0  0  0  0  0  # atno 6909 bound_to 6896
  146.2291  139.8961  142.8547 H   0  0  0  0  0  0  0  0  0  0  0  0  # atno 7974 bound_to 7965
  156.1510  140.3160  155.8648 H   0  0  0  0  0  0  0  0  0  0  0  0  # atno 8008 bound_to 7997
  155.3971  140.0497  157.3055 H   0  0  0  0  0  0  0  0  0  0  0  0  # atno 8009 bound_to 7997
  154.5058  140.2146  155.9265 H   0  0  0  0  0  0  0  0  0  0  0  0  # atno 8010 bound_to 7997
  139.8936  144.6371  150.8712 H   0  0  0  0  0  0  0  0  0  0  0  0  # atno 10167 bound_to 10162
  156.0550  130.5776  150.8134 H   0  0  0  0  0  0  0  0  0  0  0  0  # atno 10718 bound_to 10713
  153.2096  135.6867  153.8130 H   0  0  0  0  0  0  0  0  0  0  0  0  # atno 10763 bound_to 10752
  153.7367  135.3244  155.3297 H   0  0  0  0  0  0  0  0  0  0  0  0  # atno 10764 bound_to 10752
  154.8215  135.4648  154.0898 H   0  0  0  0  0  0  0  0  0  0  0  0  # atno 10765 bound_to 10752
  140.2006  134.3875  155.8098 H   0  0  0  0  0  0  0  0  0  0  0  0  # atno 11005 bound_to 11000
  145.2369  140.9994  143.3958 LP  0  0  0  0  0  0  0  0  0  0  0  0  # atno 17320 bound_to 7965
  144.9484  139.4110  143.6414 LP  0  0  0  0  0  0  0  0  0  0  0  0  # atno 17321 bound_to 7965
  140.7721  143.3490  151.2051 LP  0  0  0  0  0  0  0  0  0  0  0  0  # atno 17342 bound_to 10162
  139.7087  143.9412  152.2938 LP  0  0  0  0  0  0  0  0  0  0  0  0  # atno 17343 bound_to 10162
  157.5512  131.0944  150.9693 LP  0  0  0  0  0  0  0  0  0  0  0  0  # atno 17370 bound_to 10713
  156.9953  130.5579  149.5306 LP  0  0  0  0  0  0  0  0  0  0  0  0  # atno 17371 bound_to 10713
  141.2227  133.7092  156.8250 LP  0  0  0  0  0  0  0  0  0  0  0  0  # atno 17394 bound_to 11000
  140.2059  134.8863  157.3221 LP  0  0  0  0  0  0  0  0  0  0  0  0  # atno 17395 bound_to 11000

$$$$
