AV-unprocessed.smi:240|AV-procd|sdf|1826|dock8
  -GOLD-   2262020423D 1   1.00000     0.00000
 Structure written by MMmdl.
 55 59  0  0  0  0  0  0  0  0  1 V2000
  149.9666  139.5601  153.4559 O   0  0  0  0  0  0  0  0  0  0  0  0
  148.8663  139.7103  154.3291 C   0  0  2  0  0  0  0  0  0  0  0  0
  148.0461  140.9461  153.9130 C   0  0  0  0  0  0  0  0  0  0  0  0
  147.7190  141.6878  155.2102 C   0  0  0  0  0  0  0  0  0  0  0  0
  148.9188  141.3988  156.1086 C   0  0  0  0  0  0  0  0  0  0  0  0
  149.2396  139.9262  155.8195 C   0  0  2  0  0  0  0  0  0  0  0  0
  150.6113  139.4011  156.3530 C   0  0  2  0  0  0  0  0  0  0  0  0
  151.8495  140.0970  155.7284 C   0  0  0  0  0  0  0  0  0  0  0  0
  153.0482  139.5724  156.2876 O   0  0  0  0  0  0  0  0  0  0  0  0
  153.1904  138.1823  156.0316 C   0  0  0  0  0  0  0  0  0  0  0  0
  152.0369  137.4350  156.7118 C   0  0  0  0  0  0  0  0  0  0  0  0
  150.7552  137.9425  156.2373 N   0  0  0  0  0  0  0  0  0  0  0  0
  149.7399  137.1766  156.6963 C   0  0  0  0  0  0  0  0  0  0  0  0
  148.9419  136.5971  155.7663 N   0  0  0  0  0  0  0  0  0  0  0  0
  147.9211  135.8252  156.1503 C   0  0  0  0  0  0  0  0  0  0  0  0
  147.5351  135.5056  157.3873 N   0  0  0  0  0  0  0  0  0  0  0  0
  148.3413  136.0819  158.3248 C   0  0  0  0  0  0  0  0  0  0  0  0
  149.4621  136.9210  158.0693 C   0  0  0  0  0  0  0  0  0  0  0  0
  150.0479  137.3059  159.2691 N   0  0  0  0  0  0  0  0  0  0  0  0
  149.3116  136.7329  160.1814 C   0  0  0  0  0  0  0  0  0  0  0  0
  148.2585  135.9862  159.7032 N   0  0  0  0  0  0  0  0  0  0  0  0
  147.2852  135.2440  160.4901 C   0  0  0  0  0  0  0  0  0  0  0  0
  146.5981  136.0906  161.5877 C   0  0  1  0  0  0  0  0  0  0  0  0
  145.6191  135.3003  162.2398 O   0  0  0  0  0  0  0  0  0  0  0  0
  147.5758  136.6041  162.6368 C   0  0  0  0  0  0  0  0  0  0  0  0
  146.9102  137.8868  163.1160 C   0  0  0  0  0  0  0  0  0  0  0  0
  146.3864  138.4395  161.9203 O   0  0  0  0  0  0  0  0  0  0  0  0
  145.9245  137.3833  161.0826 C   0  0  0  0  0  0  0  0  0  0  0  0
  149.6387  139.4942  152.5717 H   0  0  0  0  0  0  0  0  0  0  0  0
  148.2541  138.8118  154.2408 H   0  0  0  0  0  0  0  0  0  0  0  0
  148.6411  141.6032  153.2763 H   0  0  0  0  0  0  0  0  0  0  0  0
  147.1497  140.6795  153.3524 H   0  0  0  0  0  0  0  0  0  0  0  0
  147.5584  142.7549  155.0542 H   0  0  0  0  0  0  0  0  0  0  0  0
  146.8135  141.2743  155.6561 H   0  0  0  0  0  0  0  0  0  0  0  0
  149.7387  142.0517  155.8123 H   0  0  0  0  0  0  0  0  0  0  0  0
  148.7060  141.5821  157.1622 H   0  0  0  0  0  0  0  0  0  0  0  0
  148.4733  139.3856  156.3771 H   0  0  0  0  0  0  0  0  0  0  0  0
  150.6475  139.6412  157.4157 H   0  0  0  0  0  0  0  0  0  0  0  0
  151.8844  139.9927  154.6449 H   0  0  0  0  0  0  0  0  0  0  0  0
  151.8411  141.1646  155.9417 H   0  0  0  0  0  0  0  0  0  0  0  0
  153.2036  137.9919  154.9571 H   0  0  0  0  0  0  0  0  0  0  0  0
  154.1459  137.8421  156.4303 H   0  0  0  0  0  0  0  0  0  0  0  0
  152.1180  136.3669  156.5046 H   0  0  0  0  0  0  0  0  0  0  0  0
  152.1015  137.5591  157.7939 H   0  0  0  0  0  0  0  0  0  0  0  0
  147.3284  135.4031  155.3523 H   0  0  0  0  0  0  0  0  0  0  0  0
  149.5198  136.8414  161.2358 H   0  0  0  0  0  0  0  0  0  0  0  0
  146.5383  134.8307  159.8111 H   0  0  0  0  0  0  0  0  0  0  0  0
  147.7944  134.3903  160.9393 H   0  0  0  0  0  0  0  0  0  0  0  0
  145.5622  135.5764  163.1417 H   0  0  0  0  0  0  0  0  0  0  0  0
  147.7706  135.8939  163.4418 H   0  0  0  0  0  0  0  0  0  0  0  0
  148.5325  136.8515  162.1745 H   0  0  0  0  0  0  0  0  0  0  0  0
  146.0951  137.6706  163.8084 H   0  0  0  0  0  0  0  0  0  0  0  0
  147.6068  138.5688  163.6037 H   0  0  0  0  0  0  0  0  0  0  0  0
  146.2091  137.6235  160.0587 H   0  0  0  0  0  0  0  0  0  0  0  0
  144.8356  137.3230  161.1131 H   0  0  0  0  0  0  0  0  0  0  0  0
  1  2  1  0  0  0  0
  1 29  1  0  0  0  0
  2  6  1  0  0  0  0
  2  3  1  0  0  0  0
  2 30  1  0  0  0  0
  3  4  1  0  0  0  0
  3 31  1  0  0  0  0
  3 32  1  0  0  0  0
  4  5  1  0  0  0  0
  4 33  1  0  0  0  0
  4 34  1  0  0  0  0
  5  6  1  0  0  0  0
  5 35  1  0  0  0  0
  5 36  1  0  0  0  0
  6  7  1  0  0  0  0
  6 37  1  0  0  0  0
  7 12  1  0  0  0  0
  7  8  1  0  0  0  0
  7 38  1  0  0  0  0
  8  9  1  0  0  0  0
  8 39  1  0  0  0  0
  8 40  1  0  0  0  0
  9 10  1  0  0  0  0
 10 11  1  0  0  0  0
 10 41  1  0  0  0  0
 10 42  1  0  0  0  0
 11 12  1  0  0  0  0
 11 43  1  0  0  0  0
 11 44  1  0  0  0  0
 12 13  1  0  0  0  0
 13 18  1  0  0  0  0
 13 14  2  0  0  0  0
 14 15  1  0  0  0  0
 15 16  2  0  0  0  0
 15 45  1  0  0  0  0
 16 17  1  0  0  0  0
 17 21  1  0  0  0  0
 17 18  2  0  0  0  0
 18 19  1  0  0  0  0
 19 20  2  0  0  0  0
 20 21  1  0  0  0  0
 20 46  1  0  0  0  0
 21 22  1  0  0  0  0
 22 23  1  0  0  0  0
 22 47  1  0  0  0  0
 22 48  1  0  0  0  0
 23 28  1  0  0  0  0
 23 24  1  0  0  0  0
 23 25  1  0  0  0  0
 24 49  1  0  0  0  0
 25 26  1  0  0  0  0
 25 50  1  0  0  0  0
 25 51  1  0  0  0  0
 26 27  1  0  0  0  0
 26 52  1  0  0  0  0
 26 53  1  0  0  0  0
 27 28  1  0  0  0  0
 28 54  1  0  0  0  0
 28 55  1  0  0  0  0
M  END
> <s_m_source_file>
AV-unprocessed.smi

> <i_m_source_file_index>
240

> <i_lp_mmshare_version>
43012

> <i_f3d_flags>
0

> <s_epik_input>
W09IXVtDQEBIXTFbQ0gyXVtDSDJdW0NIMl1bQ0BIXTFbQ0BASF0yW0NIMl1PW0NIMl1bQ0gyXU4yYyhuW2NIXW4zKWMoYzM0KW5bY0hdbjRbQ0gyXVtDQEBdNShbT0hdKVtDSDJdW0NIMl1PW0NIMl01

> <s_epik_cmdline>
J2VwaWtfcHl0aG9uJywgJy1waCcsICc3LjAnLCAnLXRuJywgJzgnLCAnLW1hJywgJzIwMCcsICctbWV0YWxfYmluZGluZycsICctaW1hZScsICc8aW5maWxlLm1hZT4nLCAnLW9tYWUnLCAnPG91dGZpbGUubWFlPic=

> <r_lp_tautomer_probability>
1

> <r_epik_Ionization_Penalty>
0.000130618

> <r_epik_Ionization_Penalty_Charging>
0

> <r_epik_Ionization_Penalty_Neutral>
0.000130618

> <r_epik_State_Penalty>
-0

> <r_epik_Charging_Adjusted_Penalty>
0

> <i_epik_Tot_Q>
0

> <i_epik_Tot_abs_Q>
0

> <r_epik_Metal_State_Penalty>
-0

> <b_epik_Metal_Only>
0

> <s_lp_Force_Field>
OPLS_2005

> <r_lp_Energy>
64.3211

> <b_lp_Chiralities_Consistent>
1

> <s_lp_Variant>
AV-unprocessed.smi:240-3

> <Gold.Version>
5.8.1

> <Gold.Id.Protein>
6NUR|6NUR_protein|mol2

> <Gold.PLP.Fitness>
42.7809

> <Gold.PLP.PLP>
-32.9363

> <Gold.PLP.part.hbond>
-3.0042

> <Gold.PLP.part.metal>
0.0000

> <Gold.PLP.part.buried>
-3.0962

> <Gold.PLP.part.nonpolar>
-26.1353

> <Gold.PLP.part.repulsive>
0.0708

> <Gold.PLP.ligand.clash>
0.0126

> <Gold.PLP.ligand.torsion>
0.2936

> <Gold.PLP.Chemscore.Hbond>
3.4013

> <Gold.PLP.Chemscore.CHOScore>
0.0000

> <Gold.PLP.Chemscore.Metal>
0.0000

> <Gold.Chemscore.Hbonds>
donor molecule, donor type, donor heavy atom, donor atom, acceptor molecule, acceptor atom, score
      L1  H     1    29       P1  7957  0.92
      P1  H  6934  6947       L1    27  0.19
      P1  H  7989  7998       L1     1  0.62
      P1  H  7997  8008       L1     9  0.78

> <Gold.PLP.Chemscore.Internal.Correction>
0.2406

> <Gold.Rescore>
     Score         DG    S(hbond)    S(metal)    S(lipo)     H(rot)  DE(clash)    DE(int)     intcor
     13.57     -16.01       2.45        0.00      85.67       3.00       0.08       2.36       ----

> <Gold.Chemscore.Fitness>
13.5700

> <Gold.Chemscore.DG>
-16.0114

> <Gold.Chemscore.ZeroCoef>
-5.4800

> <Gold.Chemscore.Hbond>
2.4546

> <Gold.Chemscore.Metal>
0.0000

> <Gold.Chemscore.Lipo>
85.6661

> <Gold.Chemscore.Internal_Hbond>
0.0000

> <Gold.Chemscore.DEClash>
0.0836

> <Gold.Chemscore.DEInternal>
2.3578

> <Gold.Chemscore.Rot>
3.0039

> <Gold.Chemscore.Internal.Correction>
   9.000000E+99

> <Gold.Chemscore.Hbonds>
donor molecule, donor type, donor heavy atom, donor atom, acceptor molecule, acceptor atom, score
      L1  H     1    29       P1  7957  0.84
      P1  H  6934  6947       L1    27  0.03
      P1  H  7989  7998       L1     1  0.39
      P1  H  7997  8008       L1     9  0.46

> <Gold.Chemscore.Hbond.Weighted>
-8.1984

> <Gold.Chemscore.Metal.Weighted>
-0.0000

> <Gold.Chemscore.Lipo.Weighted>
-10.0229

> <Gold.Chemscore.Internal_Hbond.Weighted>
0.0000

> <Gold.Chemscore.DEClash.Weighted>
0.0836

> <Gold.Chemscore.DEInternal.Weighted>
2.3578

> <Gold.Chemscore.Rot.Weighted>
7.6899

> <Gold.Chemscore.Internal.Correction.Weighted>
   9.000000E+99

> <Gold.Protein.RotatedTorsions>
[ 6907 6896 6895 6894 ] final -175.91 input  -60.11 | X-H torsion
[ 7974 7965 7964 7962 ] final   65.51 input  175.53 | X-H torsion
[ 8008 7997 7996 7995 ] final  -30.46 input   59.86 | X-H torsion
[ 10167 10162 10161 10158 ] final  136.22 input  -65.29 | X-H torsion
[ 10718 10713 10712 10709 ] final -165.83 input   66.30 | X-H torsion
[ 10763 10752 10751 10750 ] final -123.95 input  -60.55 | X-H torsion
[ 11005 11000 10999 10996 ] final   37.64 input  -57.11 | X-H torsion

> <Gold.Protein.ActiveResidues>
 VAL166  LYS551  ARG553  GLY616  TRP617  ASP618  TYR619  PRO620  LYS621  CYS622 
 ASP623  PHE694  ASN695  SER759  ASP760  ASP761  ALA762  ILE779  LEU786  VAL792 
 PHE793  MET794  SER795  GLU796  ALA797  LYS798  CYS799  TRP800  GLU811  SER814 

> <Gold.Protein.RotatedAtoms>
  151.5962  133.3361  159.3037 H   0  0  0  0  0  0  0  0  0  0  0  0  # atno 6907 bound_to 6896
  150.8233  134.7455  159.6802 H   0  0  0  0  0  0  0  0  0  0  0  0  # atno 6908 bound_to 6896
  152.4325  134.5757  159.9985 H   0  0  0  0  0  0  0  0  0  0  0  0  # atno 6909 bound_to 6896
  145.8376  139.3176  143.0950 H   0  0  0  0  0  0  0  0  0  0  0  0  # atno 7974 bound_to 7965
  154.4250  140.1791  156.1410 H   0  0  0  0  0  0  0  0  0  0  0  0  # atno 8008 bound_to 7997
  155.9992  140.3361  155.6803 H   0  0  0  0  0  0  0  0  0  0  0  0  # atno 8009 bound_to 7997
  155.6267  140.0665  157.2652 H   0  0  0  0  0  0  0  0  0  0  0  0  # atno 8010 bound_to 7997
  139.5188  144.6476  151.5395 H   0  0  0  0  0  0  0  0  0  0  0  0  # atno 10167 bound_to 10162
  156.6591  130.9038  151.3026 H   0  0  0  0  0  0  0  0  0  0  0  0  # atno 10718 bound_to 10713
  154.8716  135.4080  154.3027 H   0  0  0  0  0  0  0  0  0  0  0  0  # atno 10763 bound_to 10752
  153.3884  135.7014  153.6519 H   0  0  0  0  0  0  0  0  0  0  0  0  # atno 10764 bound_to 10752
  153.5312  135.3667  155.2648 H   0  0  0  0  0  0  0  0  0  0  0  0  # atno 10765 bound_to 10752
  140.2205  134.3647  155.8007 H   0  0  0  0  0  0  0  0  0  0  0  0  # atno 11005 bound_to 11000
  145.9501  140.8915  143.0263 LP  0  0  0  0  0  0  0  0  0  0  0  0  # atno 17320 bound_to 7965
  144.6735  140.1669  143.7417 LP  0  0  0  0  0  0  0  0  0  0  0  0  # atno 17321 bound_to 7965
  140.6267  143.9154  150.6571 LP  0  0  0  0  0  0  0  0  0  0  0  0  # atno 17342 bound_to 10162
  140.2445  143.3639  152.1458 LP  0  0  0  0  0  0  0  0  0  0  0  0  # atno 17343 bound_to 10162
  157.7116  130.9447  150.1108 LP  0  0  0  0  0  0  0  0  0  0  0  0  # atno 17370 bound_to 10713
  156.2025  130.3661  149.8770 LP  0  0  0  0  0  0  0  0  0  0  0  0  # atno 17371 bound_to 10713
  141.2223  133.7191  156.8568 LP  0  0  0  0  0  0  0  0  0  0  0  0  # atno 17394 bound_to 11000
  140.1855  134.9003  157.2999 LP  0  0  0  0  0  0  0  0  0  0  0  0  # atno 17395 bound_to 11000

$$$$
