AV-unprocessed.smi:265|AV-procd|sdf|2020|dock9
  -GOLD-   2262021223D 1   1.00000     0.00000
 Structure written by MMmdl.
 52 56  0  0  0  0  0  0  0  0  1 V2000
  143.4757  133.0566  148.5300 C   0  0  0  0  0  0  0  0  0  0  0  0
  143.8642  132.6955  149.9741 C   0  0  1  0  0  0  0  0  0  0  0  0
  144.3881  131.3668  149.9405 O   0  0  0  0  0  0  0  0  0  0  0  0
  145.6221  131.3037  150.6395 C   0  0  0  0  0  0  0  0  0  0  0  0
  146.1994  132.6997  150.4694 C   0  0  0  0  0  0  0  0  0  0  0  0
  144.9628  133.5796  150.6204 C   0  0  1  0  0  0  0  0  0  0  0  0
  145.1766  134.7915  149.9182 O   0  0  0  0  0  0  0  0  0  0  0  0
  144.6054  133.9228  152.0920 C   0  0  0  0  0  0  0  0  0  0  0  0
  145.7294  134.3876  152.8915 N   0  0  0  0  0  0  0  0  0  0  0  0
  145.9256  135.6647  153.3668 C   0  0  0  0  0  0  0  0  0  0  0  0
  147.0157  135.8389  154.0627 N   0  0  0  0  0  0  0  0  0  0  0  0
  147.6299  134.5920  154.0499 C   0  0  0  0  0  0  0  0  0  0  0  0
  148.8350  134.0752  154.6045 C   0  0  0  0  0  0  0  0  0  0  0  0
  149.7003  134.8403  155.3173 N   0  0  0  0  0  0  0  0  0  0  0  0
  151.0828  134.3758  155.4312 C   0  0  0  0  0  0  0  0  0  0  0  0
  151.8120  135.1119  156.5654 C   0  0  0  0  0  0  0  0  0  0  0  0
  151.7120  136.6385  156.4137 C   0  0  1  0  0  0  0  0  0  0  0  0
  152.4566  137.0712  155.2823 O   0  0  0  0  0  0  0  0  0  0  0  0
  152.5661  138.4916  155.1745 C   0  0  0  0  0  0  0  0  0  0  0  0
  151.2048  139.1967  155.3222 C   0  0  0  0  0  0  0  0  0  0  0  0
  151.0790  140.3667  154.9679 O   0  0  0  0  0  0  0  0  0  0  0  0
  150.1949  138.5112  155.8820 N   0  0  0  0  0  0  0  0  0  0  0  0
  150.2494  137.0907  156.2109 C   0  0  1  0  0  0  0  0  0  0  0  0
  149.5541  136.2782  155.0998 C   0  0  0  0  0  0  0  0  0  0  0  0
  149.1072  132.7597  154.3905 N   0  0  0  0  0  0  0  0  0  0  0  0
  148.2685  132.0037  153.6761 C   0  0  0  0  0  0  0  0  0  0  0  0
  147.1188  132.3530  153.0965 N   0  0  0  0  0  0  0  0  0  0  0  0
  146.8329  133.6679  153.3163 C   0  0  0  0  0  0  0  0  0  0  0  0
  152.1308  137.1039  157.3082 H   0  0  0  0  0  0  0  0  0  0  0  0
  149.7039  136.9414  157.1436 H   0  0  0  0  0  0  0  0  0  0  0  0
  143.0240  134.0474  148.4763 H   0  0  0  0  0  0  0  0  0  0  0  0
  142.7496  132.3455  148.1354 H   0  0  0  0  0  0  0  0  0  0  0  0
  144.3436  133.0437  147.8695 H   0  0  0  0  0  0  0  0  0  0  0  0
  142.9616  132.6984  150.5866 H   0  0  0  0  0  0  0  0  0  0  0  0
  145.4360  131.0822  151.6911 H   0  0  0  0  0  0  0  0  0  0  0  0
  146.2710  130.5267  150.2354 H   0  0  0  0  0  0  0  0  0  0  0  0
  147.0066  132.9192  151.1669 H   0  0  0  0  0  0  0  0  0  0  0  0
  146.6088  132.7899  149.4615 H   0  0  0  0  0  0  0  0  0  0  0  0
  145.6197  134.5947  149.1068 H   0  0  0  0  0  0  0  0  0  0  0  0
  143.8281  134.6879  152.1199 H   0  0  0  0  0  0  0  0  0  0  0  0
  144.1818  133.0503  152.5908 H   0  0  0  0  0  0  0  0  0  0  0  0
  145.2242  136.4667  153.1879 H   0  0  0  0  0  0  0  0  0  0  0  0
  151.1050  133.3026  155.6256 H   0  0  0  0  0  0  0  0  0  0  0  0
  151.5996  134.5431  154.4849 H   0  0  0  0  0  0  0  0  0  0  0  0
  151.3718  134.8190  157.5194 H   0  0  0  0  0  0  0  0  0  0  0  0
  152.8575  134.8049  156.6015 H   0  0  0  0  0  0  0  0  0  0  0  0
  153.2409  138.8624  155.9470 H   0  0  0  0  0  0  0  0  0  0  0  0
  153.0092  138.7416  154.2104 H   0  0  0  0  0  0  0  0  0  0  0  0
  149.3126  138.9834  156.0160 H   0  0  0  0  0  0  0  0  0  0  0  0
  149.9908  136.5211  154.1299 H   0  0  0  0  0  0  0  0  0  0  0  0
  148.5052  136.5683  155.0456 H   0  0  0  0  0  0  0  0  0  0  0  0
  148.5608  130.9716  153.5508 H   0  0  0  0  0  0  0  0  0  0  0  0
  1  2  1  0  0  0  0
  1 31  1  0  0  0  0
  1 32  1  0  0  0  0
  1 33  1  0  0  0  0
  2  6  1  0  0  0  0
  2  3  1  0  0  0  0
  2 34  1  0  0  0  0
  3  4  1  0  0  0  0
  4  5  1  0  0  0  0
  4 35  1  0  0  0  0
  4 36  1  0  0  0  0
  5  6  1  0  0  0  0
  5 37  1  0  0  0  0
  5 38  1  0  0  0  0
  6  7  1  0  0  0  0
  6  8  1  0  0  0  0
  7 39  1  0  0  0  0
  8  9  1  0  0  0  0
  8 40  1  0  0  0  0
  8 41  1  0  0  0  0
  9 28  1  0  0  0  0
  9 10  1  0  0  0  0
 10 11  2  0  0  0  0
 10 42  1  0  0  0  0
 11 12  1  0  0  0  0
 12 28  2  0  0  0  0
 12 13  1  0  0  0  0
 13 14  1  0  0  0  0
 13 25  2  0  0  0  0
 14 24  1  0  0  0  0
 14 15  1  0  0  0  0
 15 16  1  0  0  0  0
 15 43  1  0  0  0  0
 15 44  1  0  0  0  0
 16 17  1  0  0  0  0
 16 45  1  0  0  0  0
 16 46  1  0  0  0  0
 17 29  1  0  0  0  0
 17 23  1  0  0  0  0
 17 18  1  0  0  0  0
 18 19  1  0  0  0  0
 19 20  1  0  0  0  0
 19 47  1  0  0  0  0
 19 48  1  0  0  0  0
 20 21  2  0  0  0  0
 20 22  1  0  0  0  0
 22 23  1  0  0  0  0
 22 49  1  0  0  0  0
 23 30  1  0  0  0  0
 23 24  1  0  0  0  0
 24 50  1  0  0  0  0
 24 51  1  0  0  0  0
 25 26  1  0  0  0  0
 26 27  2  0  0  0  0
 26 52  1  0  0  0  0
 27 28  1  0  0  0  0
M  END
> <s_m_source_file>
AV-unprocessed.smi

> <i_m_source_file_index>
265

> <i_lp_mmshare_version>
43012

> <i_f3d_flags>
0

> <s_epik_input>
W0NIMl0xW0NIMl1PW0NAQEhdKFtDSDNdKVtDQEBdMShbT0hdKVtDSDJdbihbY0hdbjIpYyhjMjMpbltjSF1uYzNOKFtDSDJdW0NIMl00KVtDSDJdW0NAQEhdKFtDQEhdNDUpW05IXUMoPU8pW0NIMl1PNQ==

> <s_epik_cmdline>
J2VwaWtfcHl0aG9uJywgJy1waCcsICc3LjAnLCAnLXRuJywgJzgnLCAnLW1hJywgJzIwMCcsICctbWV0YWxfYmluZGluZycsICctaW1hZScsICc8aW5maWxlLm1hZT4nLCAnLW9tYWUnLCAnPG91dGZpbGUubWFlPic=

> <r_lp_tautomer_probability>
1

> <r_epik_Ionization_Penalty>
0.00221504

> <r_epik_Ionization_Penalty_Charging>
0

> <r_epik_Ionization_Penalty_Neutral>
0.00221504

> <r_epik_State_Penalty>
-0

> <r_epik_Charging_Adjusted_Penalty>
0

> <i_epik_Tot_Q>
0

> <i_epik_Tot_abs_Q>
0

> <r_epik_Metal_State_Penalty>
-0

> <b_epik_Metal_Only>
0

> <s_lp_Force_Field>
OPLS_2005

> <r_lp_Energy>
44.9484

> <b_lp_Chiralities_Consistent>
1

> <s_lp_Variant>
AV-unprocessed.smi:265-6

> <Gold.Version>
5.8.1

> <Gold.Id.Protein>
6NUR|6NUR_protein|mol2

> <Gold.PLP.Fitness>
44.2564

> <Gold.PLP.PLP>
-35.5809

> <Gold.PLP.part.hbond>
-3.7831

> <Gold.PLP.part.metal>
0.0000

> <Gold.PLP.part.buried>
-3.0435

> <Gold.PLP.part.nonpolar>
-30.3721

> <Gold.PLP.part.repulsive>
1.2045

> <Gold.PLP.ligand.clash>
0.0000

> <Gold.PLP.ligand.torsion>
0.8088

> <Gold.PLP.Chemscore.Hbond>
3.3120

> <Gold.PLP.Chemscore.CHOScore>
0.0000

> <Gold.PLP.Chemscore.Metal>
0.0000

> <Gold.Chemscore.Hbonds>
donor molecule, donor type, donor heavy atom, donor atom, acceptor molecule, acceptor atom, score
      L1  H     7    39       P1  7921  1.00
      P1  H  7989  7998       L1    21  1.00
      P1  H 10752 10765       L1    18  0.70
      P1  H 10785 10796       L1     3  0.43

> <Gold.PLP.Chemscore.Internal.Correction>
0.3572

> <Gold.Rescore>
     Score         DG    S(hbond)    S(metal)    S(lipo)     H(rot)  DE(clash)    DE(int)     intcor
     16.04     -20.82       3.33        0.00      85.14       2.25       1.38       3.40       ----

> <Gold.Chemscore.Fitness>
16.0397

> <Gold.Chemscore.DG>
-20.8189

> <Gold.Chemscore.ZeroCoef>
-5.4800

> <Gold.Chemscore.Hbond>
3.3311

> <Gold.Chemscore.Metal>
0.0000

> <Gold.Chemscore.Lipo>
85.1352

> <Gold.Chemscore.Internal_Hbond>
0.0000

> <Gold.Chemscore.DEClash>
1.3809

> <Gold.Chemscore.DEInternal>
3.3982

> <Gold.Chemscore.Rot>
2.2453

> <Gold.Chemscore.Internal.Correction>
   9.000000E+99

> <Gold.Chemscore.Hbonds>
donor molecule, donor type, donor heavy atom, donor atom, acceptor molecule, acceptor atom, score
      L1  H     7    39       P1  7921  0.92
      P1  H  7989  7998       L1    21  0.96
      P1  H 10752 10765       L1    18  0.15
      P1  H 10785 10796       L1     3  0.34

> <Gold.Chemscore.Hbond.Weighted>
-11.1259

> <Gold.Chemscore.Metal.Weighted>
-0.0000

> <Gold.Chemscore.Lipo.Weighted>
-9.9608

> <Gold.Chemscore.Internal_Hbond.Weighted>
0.0000

> <Gold.Chemscore.DEClash.Weighted>
1.3809

> <Gold.Chemscore.DEInternal.Weighted>
3.3982

> <Gold.Chemscore.Rot.Weighted>
5.7479

> <Gold.Chemscore.Internal.Correction.Weighted>
   9.000000E+99

> <Gold.Protein.RotatedTorsions>
[ 6907 6896 6895 6894 ] final   33.24 input  -60.11 | X-H torsion
[ 7974 7965 7964 7962 ] final  131.77 input  175.53 | X-H torsion
[ 8008 7997 7996 7995 ] final  -19.26 input   59.86 | X-H torsion
[ 10167 10162 10161 10158 ] final -167.63 input  -65.29 | X-H torsion
[ 10718 10713 10712 10709 ] final -102.40 input   66.30 | X-H torsion
[ 10763 10752 10751 10750 ] final -170.40 input  -60.55 | X-H torsion
[ 11005 11000 10999 10996 ] final  -91.53 input  -57.11 | X-H torsion

> <Gold.Protein.ActiveResidues>
 VAL166  LYS551  ARG553  GLY616  TRP617  ASP618  TYR619  PRO620  LYS621  CYS622 
 ASP623  PHE694  ASN695  SER759  ASP760  ASP761  ALA762  ILE779  LEU786  VAL792 
 PHE793  MET794  SER795  GLU796  ALA797  LYS798  CYS799  TRP800  GLU811  SER814 

> <Gold.Protein.RotatedAtoms>
  152.0857  134.9441  160.0572 H   0  0  0  0  0  0  0  0  0  0  0  0  # atno 6907 bound_to 6896
  152.0712  133.4103  159.4468 H   0  0  0  0  0  0  0  0  0  0  0  0  # atno 6908 bound_to 6896
  150.6836  134.3009  159.4749 H   0  0  0  0  0  0  0  0  0  0  0  0  # atno 6909 bound_to 6896
  145.0038  139.4286  143.5279 H   0  0  0  0  0  0  0  0  0  0  0  0  # atno 7974 bound_to 7965
  154.4849  140.2093  155.9679 H   0  0  0  0  0  0  0  0  0  0  0  0  # atno 8008 bound_to 7997
  156.1220  140.3211  155.8191 H   0  0  0  0  0  0  0  0  0  0  0  0  # atno 8009 bound_to 7997
  155.4450  140.0513  157.2997 H   0  0  0  0  0  0  0  0  0  0  0  0  # atno 8010 bound_to 7997
  139.6037  144.0958  152.1770 H   0  0  0  0  0  0  0  0  0  0  0  0  # atno 10167 bound_to 10162
  156.0228  130.5418  150.7103 H   0  0  0  0  0  0  0  0  0  0  0  0  # atno 10718 bound_to 10713
  154.6419  135.2900  155.0093 H   0  0  0  0  0  0  0  0  0  0  0  0  # atno 10763 bound_to 10752
  154.1217  135.6547  153.4908 H   0  0  0  0  0  0  0  0  0  0  0  0  # atno 10764 bound_to 10752
  153.0331  135.5289  154.7289 H   0  0  0  0  0  0  0  0  0  0  0  0  # atno 10765 bound_to 10752
  141.1543  133.7761  156.9892 H   0  0  0  0  0  0  0  0  0  0  0  0  # atno 11005 bound_to 11000
  146.3457  139.9442  142.8737 LP  0  0  0  0  0  0  0  0  0  0  0  0  # atno 17320 bound_to 7965
  145.2117  140.9898  143.4097 LP  0  0  0  0  0  0  0  0  0  0  0  0  # atno 17321 bound_to 7965
  140.0560  144.5895  150.7299 LP  0  0  0  0  0  0  0  0  0  0  0  0  # atno 17342 bound_to 10162
  140.7269  143.2645  151.4090 LP  0  0  0  0  0  0  0  0  0  0  0  0  # atno 17343 bound_to 10162
  157.4743  131.0896  151.0607 LP  0  0  0  0  0  0  0  0  0  0  0  0  # atno 17370 bound_to 10713
  157.1059  130.6001  149.5470 LP  0  0  0  0  0  0  0  0  0  0  0  0  # atno 17371 bound_to 10713
  140.1014  134.9533  157.1929 LP  0  0  0  0  0  0  0  0  0  0  0  0  # atno 17394 bound_to 11000
  140.3313  134.2806  155.7227 LP  0  0  0  0  0  0  0  0  0  0  0  0  # atno 17395 bound_to 11000

$$$$
