AV-unprocessed.smi:3133|AV-procd|sdf|11940|dock7
  -GOLD-   2272017333D 1   1.00000     0.00000
 Structure written by MMmdl.
 32 33  0  0  0  0  0  0  0  0  1 V2000
  149.3039  140.5600  155.0943 C   0  0  0  0  0  0  0  0  0  0  0  0
  150.7298  140.7322  155.6562 C   0  0  1  0  0  0  0  0  0  0  0  0
  150.7297  141.1452  157.1358 C   0  0  0  0  0  0  0  0  0  0  0  0
  149.6695  141.3256  157.7361 O   0  0  0  0  0  0  0  0  0  0  0  0
  151.9326  141.2860  157.7145 N   0  0  0  0  0  0  0  0  0  0  0  0
  152.1564  141.6580  159.1067 C   0  0  0  0  0  0  0  0  0  0  0  0
  151.6001  143.0571  159.4193 C   0  0  1  0  0  0  0  0  0  0  0  0
  152.2541  143.7235  160.6261 C   0  0  0  0  0  0  0  0  0  0  0  0
  151.9305  145.1795  160.3763 C   0  0  0  0  0  0  0  0  0  0  0  0
  152.0325  145.2819  158.8545 C   0  0  0  0  0  0  0  0  0  0  0  0
  151.8622  143.9588  158.3490 O   0  0  0  0  0  0  0  0  0  0  0  0
  151.5490  139.5404  155.4699 N   0  0  0  0  0  0  0  0  0  0  0  0
  151.2538  138.3836  154.8726 C   0  0  0  0  0  0  0  0  0  0  0  0
  152.2610  137.5223  154.8367 N   0  0  0  0  0  0  0  0  0  0  0  0
  153.2202  138.2680  155.4610 C   0  0  0  0  0  0  0  0  0  0  0  0
  152.8505  139.4879  155.8498 N   0  0  0  0  0  0  0  0  0  0  0  0
  148.7275  141.4799  155.1990 H   0  0  0  0  0  0  0  0  0  0  0  0
  148.7532  139.7677  155.6029 H   0  0  0  0  0  0  0  0  0  0  0  0
  149.3326  140.3124  154.0330 H   0  0  0  0  0  0  0  0  0  0  0  0
  151.2027  141.5348  155.0874 H   0  0  0  0  0  0  0  0  0  0  0  0
  152.7541  141.1266  157.1497 H   0  0  0  0  0  0  0  0  0  0  0  0
  151.7009  140.9147  159.7632 H   0  0  0  0  0  0  0  0  0  0  0  0
  153.2286  141.6277  159.3027 H   0  0  0  0  0  0  0  0  0  0  0  0
  150.5210  143.0173  159.5775 H   0  0  0  0  0  0  0  0  0  0  0  0
  151.8687  143.3556  161.5776 H   0  0  0  0  0  0  0  0  0  0  0  0
  153.3346  143.5732  160.6113 H   0  0  0  0  0  0  0  0  0  0  0  0
  150.9103  145.3932  160.6985 H   0  0  0  0  0  0  0  0  0  0  0  0
  152.6018  145.8636  160.8957 H   0  0  0  0  0  0  0  0  0  0  0  0
  151.2837  145.9588  158.4427 H   0  0  0  0  0  0  0  0  0  0  0  0
  153.0164  145.6443  158.5556 H   0  0  0  0  0  0  0  0  0  0  0  0
  150.2827  138.1687  154.4512 H   0  0  0  0  0  0  0  0  0  0  0  0
  154.2232  137.9033  155.6279 H   0  0  0  0  0  0  0  0  0  0  0  0
  1  2  1  0  0  0  0
  1 17  1  0  0  0  0
  1 18  1  0  0  0  0
  1 19  1  0  0  0  0
  2  3  1  0  0  0  0
  2 12  1  0  0  0  0
  2 20  1  0  0  0  0
  3  4  2  0  0  0  0
  3  5  1  0  0  0  0
  5  6  1  0  0  0  0
  5 21  1  0  0  0  0
  6  7  1  0  0  0  0
  6 22  1  0  0  0  0
  6 23  1  0  0  0  0
  7 11  1  0  0  0  0
  7  8  1  0  0  0  0
  7 24  1  0  0  0  0
  8  9  1  0  0  0  0
  8 25  1  0  0  0  0
  8 26  1  0  0  0  0
  9 10  1  0  0  0  0
  9 27  1  0  0  0  0
  9 28  1  0  0  0  0
 10 11  1  0  0  0  0
 10 29  1  0  0  0  0
 10 30  1  0  0  0  0
 12 16  1  0  0  0  0
 12 13  1  0  0  0  0
 13 14  2  0  0  0  0
 13 31  1  0  0  0  0
 14 15  1  0  0  0  0
 15 16  2  0  0  0  0
 15 32  1  0  0  0  0
M  END
> <s_m_source_file>
AV-unprocessed.smi

> <i_m_source_file_index>
3133

> <i_lp_mmshare_version>
43012

> <i_f3d_flags>
0

> <s_epik_input>
bjFbY0hdbltjSF1uMVtDQEhdKFtDSDNdKUMoPU8pW05IXVtDSDJdW0NAQEhdMltDSDJdW0NIMl1bQ0gyXU8y

> <s_epik_cmdline>
J2VwaWtfcHl0aG9uJywgJy1waCcsICc3LjAnLCAnLXRuJywgJzgnLCAnLW1hJywgJzIwMCcsICctbWV0YWxfYmluZGluZycsICctaW1hZScsICc8aW5maWxlLm1hZT4nLCAnLW9tYWUnLCAnPG91dGZpbGUubWFlPic=

> <r_lp_tautomer_probability>
1

> <r_epik_Ionization_Penalty>
1.2027e-05

> <r_epik_Ionization_Penalty_Charging>
0

> <r_epik_Ionization_Penalty_Neutral>
1.2027e-05

> <r_epik_State_Penalty>
-0

> <r_epik_Charging_Adjusted_Penalty>
0

> <i_epik_Tot_Q>
0

> <i_epik_Tot_abs_Q>
0

> <r_epik_Metal_State_Penalty>
-0

> <b_epik_Metal_Only>
0

> <s_lp_Force_Field>
OPLS_2005

> <r_lp_Energy>
22.8462

> <b_lp_Chiralities_Consistent>
1

> <s_lp_Variant>
AV-unprocessed.smi:3133-4

> <Gold.Version>
5.8.1

> <Gold.Id.Protein>
6NUR|6NUR_protein|mol2

> <Gold.PLP.Fitness>
40.4657

> <Gold.PLP.PLP>
-35.6765

> <Gold.PLP.part.hbond>
-2.0000

> <Gold.PLP.part.metal>
0.0000

> <Gold.PLP.part.buried>
-4.2964

> <Gold.PLP.part.nonpolar>
-29.6011

> <Gold.PLP.part.repulsive>
0.2937

> <Gold.PLP.ligand.clash>
0.0000

> <Gold.PLP.ligand.torsion>
0.3100

> <Gold.PLP.Chemscore.Hbond>
1.7680

> <Gold.PLP.Chemscore.CHOScore>
0.0000

> <Gold.PLP.Chemscore.Metal>
0.0000

> <Gold.Chemscore.Hbonds>
donor molecule, donor type, donor heavy atom, donor atom, acceptor molecule, acceptor atom, score
      P1  H  7997  8008       L1    16  1.00
      P1  H 10752 10763       L1    14  0.70

> <Gold.PLP.Chemscore.Internal.Correction>
0.1052

> <Gold.Rescore>
     Score         DG    S(hbond)    S(metal)    S(lipo)     H(rot)  DE(clash)    DE(int)     intcor
     11.93     -13.58       1.66        0.00      71.12       2.26       0.13       1.52       ----

> <Gold.Chemscore.Fitness>
11.9346

> <Gold.Chemscore.DG>
-13.5794

> <Gold.Chemscore.ZeroCoef>
-5.4800

> <Gold.Chemscore.Hbond>
1.6626

> <Gold.Chemscore.Metal>
0.0000

> <Gold.Chemscore.Lipo>
71.1196

> <Gold.Chemscore.Internal_Hbond>
0.0000

> <Gold.Chemscore.DEClash>
0.1287

> <Gold.Chemscore.DEInternal>
1.5160

> <Gold.Chemscore.Rot>
2.2558

> <Gold.Chemscore.Internal.Correction>
   9.000000E+99

> <Gold.Chemscore.Hbonds>
donor molecule, donor type, donor heavy atom, donor atom, acceptor molecule, acceptor atom, score
      P1  H  7997  8008       L1    16  0.26
      P1  H 10752 10763       L1    14  0.48

> <Gold.Chemscore.Hbond.Weighted>
-5.5531

> <Gold.Chemscore.Metal.Weighted>
-0.0000

> <Gold.Chemscore.Lipo.Weighted>
-8.3210

> <Gold.Chemscore.Internal_Hbond.Weighted>
0.0000

> <Gold.Chemscore.DEClash.Weighted>
0.1287

> <Gold.Chemscore.DEInternal.Weighted>
1.5160

> <Gold.Chemscore.Rot.Weighted>
5.7747

> <Gold.Chemscore.Internal.Correction.Weighted>
   9.000000E+99

> <Gold.Protein.RotatedTorsions>
[ 6907 6896 6895 6894 ] final  -40.88 input  -60.11 | X-H torsion
[ 7974 7965 7964 7962 ] final   71.76 input  175.53 | X-H torsion
[ 8008 7997 7996 7995 ] final  -37.02 input   59.86 | X-H torsion
[ 10167 10162 10161 10158 ] final   21.03 input  -65.29 | X-H torsion
[ 10718 10713 10712 10709 ] final -121.34 input   66.30 | X-H torsion
[ 10763 10752 10751 10750 ] final   53.38 input  -60.55 | X-H torsion
[ 11005 11000 10999 10996 ] final  -65.22 input  -57.11 | X-H torsion

> <Gold.Protein.ActiveResidues>
 VAL166  LYS551  ARG553  GLY616  TRP617  ASP618  TYR619  PRO620  LYS621  CYS622 
 ASP623  PHE694  ASN695  SER759  ASP760  ASP761  ALA762  ILE779  LEU786  VAL792 
 PHE793  MET794  SER795  GLU796  ALA797  LYS798  CYS799  TRP800  GLU811  SER814 

> <Gold.Protein.RotatedAtoms>
  150.9733  134.9102  159.7800 H   0  0  0  0  0  0  0  0  0  0  0  0  # atno 6907 bound_to 6896
  152.5197  134.3511  159.9261 H   0  0  0  0  0  0  0  0  0  0  0  0  # atno 6908 bound_to 6896
  151.3520  133.3881  159.2716 H   0  0  0  0  0  0  0  0  0  0  0  0  # atno 6909 bound_to 6896
  145.7618  139.2804  143.1372 H   0  0  0  0  0  0  0  0  0  0  0  0  # atno 7974 bound_to 7965
  154.4061  140.1615  156.2469 H   0  0  0  0  0  0  0  0  0  0  0  0  # atno 8008 bound_to 7997
  155.9153  140.3425  155.6107 H   0  0  0  0  0  0  0  0  0  0  0  0  # atno 8009 bound_to 7997
  155.7287  140.0777  157.2289 H   0  0  0  0  0  0  0  0  0  0  0  0  # atno 8010 bound_to 7997
  140.5458  143.9597  150.6547 H   0  0  0  0  0  0  0  0  0  0  0  0  # atno 10167 bound_to 10162
  156.1330  130.6409  150.9651 H   0  0  0  0  0  0  0  0  0  0  0  0  # atno 10718 bound_to 10713
  152.9795  135.5781  154.4732 H   0  0  0  0  0  0  0  0  0  0  0  0  # atno 10763 bound_to 10752
  154.4292  135.2773  155.1926 H   0  0  0  0  0  0  0  0  0  0  0  0  # atno 10764 bound_to 10752
  154.3642  135.6182  153.5760 H   0  0  0  0  0  0  0  0  0  0  0  0  # atno 10765 bound_to 10752
  141.1448  133.6678  156.5953 H   0  0  0  0  0  0  0  0  0  0  0  0  # atno 11005 bound_to 11000
  146.0256  140.8306  142.9901 LP  0  0  0  0  0  0  0  0  0  0  0  0  # atno 17320 bound_to 7965
  144.6829  140.2693  143.7308 LP  0  0  0  0  0  0  0  0  0  0  0  0  # atno 17321 bound_to 7965
  140.3009  143.3261  152.0972 LP  0  0  0  0  0  0  0  0  0  0  0  0  # atno 17342 bound_to 10162
  139.5007  144.6697  151.6272 LP  0  0  0  0  0  0  0  0  0  0  0  0  # atno 17343 bound_to 10162
  157.6506  131.0897  150.8060 LP  0  0  0  0  0  0  0  0  0  0  0  0  # atno 17370 bound_to 10713
  156.8142  130.4962  149.5351 LP  0  0  0  0  0  0  0  0  0  0  0  0  # atno 17371 bound_to 10713
  140.3731  134.7588  157.4612 LP  0  0  0  0  0  0  0  0  0  0  0  0  # atno 17394 bound_to 11000
  140.0695  134.5882  155.8657 LP  0  0  0  0  0  0  0  0  0  0  0  0  # atno 17395 bound_to 11000

$$$$
