#       Name:                AV-unprocessed.smi:1005
#       Creating user name   scv26
#       Creation time:       Fri Mar 27 02:26:38 2020


#       File generated by GOLD software.
#

@<TRIPOS>MOLECULE
AV-unprocessed.smi:1005
    62    64     1
SMALL
NO_CHARGES


@<TRIPOS>ATOM
      1 ****        -2.9661   4.1987   4.6040 C.3            1 S1                 0.0000
      2 ****        -2.8063   3.7262   3.1696 C.ar           1 S1                 0.0000
      3 ****        -3.9582   3.5631   2.3672 C.ar           1 S1                 0.0000
      4 ****        -3.8521   3.1282   1.0277 C.ar           1 S1                 0.0000
      5 ****        -4.8308   2.9038   0.0746 N.2            1 S1                 0.0000
      6 ****        -4.1042   2.5170  -0.9699 C.2            1 S1                 0.0000
      7 ****        -2.7682   2.4651  -0.8062 N.pl3          1 S1                 0.0000
      8 ****        -1.7753   2.0833  -1.7942 C.3            1 S1                 0.0000
      9 ****        -1.2872   0.6338  -1.6116 C.3            1 S1                 0.0000
     10 ****        -2.3766  -0.2490  -1.7989 O.3            1 S1                 0.0000
     11 ****        -0.1767   0.2850  -2.6238 C.3            1 S1                 0.0000
     12 ****         0.4297  -1.0408  -2.4817 N.3            1 S1                 0.0000
     13 ****         1.3138  -1.3253  -3.6069 C.3            1 S1                 0.0000
     14 ****         1.9719  -2.7095  -3.4891 C.3            1 S1                 0.0000
     15 ****         2.6711  -2.7972  -2.2522 O.3            1 S1                 0.0000
     16 ****         1.8283  -2.5907  -1.1213 C.3            1 S1                 0.0000
     17 ****         2.6881  -2.7192   0.1488 C.3            1 S1                 0.0000
     18 ****         3.2874  -4.0699   0.3006 N.4            1 S1                 1.0000
     19 ****         2.3150  -5.1042   0.7234 C.3            1 S1                 0.0000
     20 ****         4.4781  -4.0544   1.1786 C.3            1 S1                 0.0000
     21 ****         1.1809  -1.1954  -1.2372 C.3            1 S1                 0.0000
     22 ****        -2.5516   2.8610   0.5087 C.ar           1 S1                 0.0000
     23 ****        -1.3983   3.0169   1.2977 C.ar           1 S1                 0.0000
     24 ****        -1.5224   3.4497   2.6346 C.ar           1 S1                 0.0000
     25 ****        -0.2715   3.6112   3.4801 C.3            1 S1                 0.0000
     26 ****        -4.0112   4.3956   4.8449 H              1 S1                 0.0000
     27 ****        -2.4074   5.1205   4.7675 H              1 S1                 0.0000
     28 ****        -2.5987   3.4429   5.2982 H              1 S1                 0.0000
     29 ****        -4.9363   3.7720   2.7747 H              1 S1                 0.0000
     30 ****        -4.5692   2.2553  -1.9091 H              1 S1                 0.0000
     31 ****        -2.1984   2.2247  -2.7899 H              1 S1                 0.0000
     32 ****        -0.9365   2.7757  -1.7128 H              1 S1                 0.0000
     33 ****        -0.9244   0.5220  -0.5906 H              1 S1                 0.0000
     34 ****        -2.6920  -0.1548  -2.6846 H              1 S1                 0.0000
     35 ****        -0.5960   0.3781  -3.6269 H              1 S1                 0.0000
     36 ****         0.6075   1.0413  -2.5622 H              1 S1                 0.0000
     37 ****         0.7535  -1.2724  -4.5410 H              1 S1                 0.0000
     38 ****         2.0921  -0.5628  -3.6673 H              1 S1                 0.0000
     39 ****         1.2241  -3.5017  -3.5513 H              1 S1                 0.0000
     40 ****         2.6742  -2.8660  -4.3079 H              1 S1                 0.0000
     41 ****         1.0375  -3.3414  -1.1191 H              1 S1                 0.0000
     42 ****         3.4833  -1.9737   0.0987 H              1 S1                 0.0000
     43 ****         2.0997  -2.4813   1.0365 H              1 S1                 0.0000
     44 ****         1.8888  -4.8658   1.6987 H              1 S1                 0.0000
     45 ****         2.8007  -6.0780   0.7955 H              1 S1                 0.0000
     46 ****         1.4995  -5.2059   0.0088 H              1 S1                 0.0000
     47 ****         4.2120  -3.7519   2.1924 H              1 S1                 0.0000
     48 ****         5.2301  -3.3612   0.7999 H              1 S1                 0.0000
     49 ****         4.9372  -5.0424   1.2251 H              1 S1                 0.0000
     50 ****         1.9531  -0.4270  -1.1741 H              1 S1                 0.0000
     51 ****         0.5246  -1.0512  -0.3800 H              1 S1                 0.0000
     52 ****        -0.4270   2.8043   0.8765 H              1 S1                 0.0000
     53 ****         0.6260   3.3585   2.9150 H              1 S1                 0.0000
     54 ****        -0.3133   2.9577   4.3516 H              1 S1                 0.0000
     55 ****        -0.1719   4.6412   3.8231 H              1 S1                 0.0000
     56 ****         3.6211  -4.3374  -0.6150 H              1 S1                 0.0000
     57 ****        -5.8227   3.0057   0.1514 LP             1 S1                 0.0000
     58 ****        -3.1078  -0.0233  -1.1551 LP             1 S1                 0.0000
     59 ****        -2.0772  -1.1909  -1.6462 LP             1 S1                 0.0000
     60 ****        -0.3298  -1.6911  -2.4635 LP             1 S1                 0.0000
     61 ****         3.3918  -2.1041  -2.2435 LP             1 S1                 0.0000
     62 ****         3.0819  -3.7062  -2.1819 LP             1 S1                 0.0000
@<TRIPOS>BOND
    1    1    2 1     
    2    1   26 1     
    3    1   27 1     
    4    1   28 1     
    5    2   24 ar    
    6    2    3 ar    
    7    3    4 ar    
    8    3   29 1     
    9    4   22 ar    
   10    4    5 1     
   11    5    6 2     
   12    6    7 1     
   13    6   30 1     
   14    7    8 1     
   15    7   22 1     
   16    8    9 1     
   17    8   31 1     
   18    8   32 1     
   19    9   10 1     
   20    9   11 1     
   21    9   33 1     
   22   10   34 1     
   23   11   12 1     
   24   11   35 1     
   25   11   36 1     
   26   12   21 1     
   27   12   13 1     
   28   13   14 1     
   29   13   37 1     
   30   13   38 1     
   31   14   15 1     
   32   14   39 1     
   33   14   40 1     
   34   15   16 1     
   35   16   17 1     
   36   16   21 1     
   37   16   41 1     
   38   17   18 1     
   39   17   42 1     
   40   17   43 1     
   41   18   19 1     
   42   18   20 1     
   43   18   56 1     
   44   19   44 1     
   45   19   45 1     
   46   19   46 1     
   47   20   47 1     
   48   20   48 1     
   49   20   49 1     
   50   21   50 1     
   51   21   51 1     
   52   22   23 ar    
   53   23   24 ar    
   54   23   52 1     
   55   24   25 1     
   56   25   53 1     
   57   25   54 1     
   58   25   55 1     
   59    5   57 1     
   60   10   58 1     
   61   10   59 1     
   62   12   60 1     
   63   15   61 1     
   64   15   62 1     
@<TRIPOS>SUBSTRUCTURE
      1 S1             1
@<TRIPOS>SET
LONE_PAIRS      STATIC     ATOMS    <user>   **** ""
6 57 58 59 60 61 62
DONOR_HYDROGENS      STATIC     ATOMS    <user>   **** ""
2 34 56
ATOM$BLUE        STATIC     ATOMS    COLORGROUP SYSTEM
6 57 58 59 60 61 62
ATOM$RED        STATIC     ATOMS    COLORGROUP SYSTEM
2 34 56
