#       Name:                AV-unprocessed.smi:548
#       Creating user name   scv26
#       Creation time:       Thu Mar 26 23:38:41 2020


#       File generated by GOLD software.
#

@<TRIPOS>MOLECULE
AV-unprocessed.smi:548
    29    29     1
SMALL
NO_CHARGES


@<TRIPOS>ATOM
      1 ****        -2.1535  -0.7357  -1.2419 C.3            1 S1                 0.0000
      2 ****        -1.6447  -0.0217   0.0348 C.3            1 S1                 0.0000
      3 ****        -2.1546   1.4406   0.0249 C.3            1 S1                 0.0000
      4 ****        -2.2244  -0.7477   1.2808 C.2            1 S1                 0.0000
      5 ****        -2.4246  -0.0696   2.3136 O.co2          1 S1                 0.0000
      6 ****        -2.4156  -1.9823   1.2028 O.co2          1 S1                -1.0000
      7 ****        -0.0993  -0.0414   0.0707 C.ar           1 S1                 0.0000
      8 ****         0.6188   0.5700  -0.9867 C.ar           1 S1                 0.0000
      9 ****         2.0283   0.5714  -0.9871 C.ar           1 S1                 0.0000
     10 ****         2.7140  -0.0428   0.0780 C.ar           1 S1                 0.0000
     11 ****         4.1052  -0.0794   0.1422 N.pl3          1 S1                 0.0000
     12 ****         2.0125  -0.6189   1.0751 N.pl3          1 S1                 1.0000
     13 ****         0.6621  -0.6407   1.1109 C.ar           1 S1                 0.0000
     14 ****        -1.7553  -1.7479  -1.3262 H              1 S1                 0.0000
     15 ****        -1.8635  -0.2022  -2.1471 H              1 S1                 0.0000
     16 ****        -3.2421  -0.8064  -1.2520 H              1 S1                 0.0000
     17 ****        -1.7584   2.0139   0.8644 H              1 S1                 0.0000
     18 ****        -3.2435   1.4836   0.0789 H              1 S1                 0.0000
     19 ****        -1.8629   1.9648  -0.8852 H              1 S1                 0.0000
     20 ****         0.0946   1.0419  -1.8039 H              1 S1                 0.0000
     21 ****         2.5688   1.0395  -1.7969 H              1 S1                 0.0000
     22 ****         4.6780   0.3364  -0.5783 H              1 S1                 0.0000
     23 ****         4.5871  -0.5236   0.9105 H              1 S1                 0.0000
     24 ****         0.2527  -1.1404   1.9766 H              1 S1                 0.0000
     25 ****         2.5215  -1.0605   1.8408 H              1 S1                 0.0000
     26 ****        -2.7584  -0.5126   3.1457 LP             1 S1                 0.0000
     27 ****        -2.2508   0.9151   2.3067 LP             1 S1                 0.0000
     28 ****        -2.7491  -2.4879   1.9985 LP             1 S1                 0.0000
     29 ****        -2.2349  -2.4631   0.3448 LP             1 S1                 0.0000
@<TRIPOS>BOND
    1    1    2 1     
    2    1   14 1     
    3    1   15 1     
    4    1   16 1     
    5    2    3 1     
    6    2    4 1     
    7    2    7 1     
    8    3   17 1     
    9    3   18 1     
   10    3   19 1     
   11    4    5 ar    
   12    4    6 ar    
   13    7   13 ar    
   14    7    8 ar    
   15    8    9 ar    
   16    8   20 1     
   17    9   10 ar    
   18    9   21 1     
   19   10   11 1     
   20   10   12 ar    
   21   11   22 1     
   22   11   23 1     
   23   12   13 ar    
   24   12   25 1     
   25   13   24 1     
   26    5   26 1     
   27    5   27 1     
   28    6   28 1     
   29    6   29 1     
@<TRIPOS>SUBSTRUCTURE
      1 S1             1
@<TRIPOS>SET
LONE_PAIRS      STATIC     ATOMS    <user>   **** ""
4 26 27 28 29
DONOR_HYDROGENS      STATIC     ATOMS    <user>   **** ""
3 22 23 25
ATOM$BLUE        STATIC     ATOMS    COLORGROUP SYSTEM
4 26 27 28 29
ATOM$RED        STATIC     ATOMS    COLORGROUP SYSTEM
3 22 23 25
