AV-unprocessed.smi:247|AV-procd|sdf|1888|dock1
  -GOLD-   2262020543D 1   1.00000     0.00000
 Structure written by MMmdl.
 61 65  0  0  0  0  0  0  0  0  1 V2000
  148.4231  136.8454  162.4397 O   0  0  0  0  0  0  0  0  0  0  0  0
  148.0502  136.2892  161.1943 C   0  0  0  0  0  0  0  0  0  0  0  0
  146.6285  135.6612  161.1975 C   0  0  0  0  0  0  0  0  0  0  0  0
  146.1978  135.4092  159.7179 C   0  0  0  0  0  0  0  0  0  0  0  0
  146.2875  136.5688  158.8411 N   0  0  0  0  0  0  0  0  0  0  0  0
  145.5320  137.7186  158.9156 C   0  0  0  0  0  0  0  0  0  0  0  0
  145.8043  138.6264  158.0186 N   0  0  0  0  0  0  0  0  0  0  0  0
  146.8413  138.0690  157.2836 C   0  0  0  0  0  0  0  0  0  0  0  0
  147.6157  138.5132  156.1814 C   0  0  0  0  0  0  0  0  0  0  0  0
  147.4152  139.7243  155.6164 N   0  0  0  0  0  0  0  0  0  0  0  0
  146.5477  139.7187  154.4430 C   0  0  0  0  0  0  0  0  0  0  0  0
  147.1016  140.7779  153.4791 C   0  0  0  0  0  0  0  0  0  0  0  0
  148.1053  141.5675  154.3170 C   0  0  0  0  0  0  0  0  0  0  0  0
  148.6062  140.5048  155.2985 C   0  0  1  0  0  0  0  0  0  0  0  0
  149.3641  141.0170  156.5543 C   0  0  2  0  0  0  0  0  0  0  0  0
  148.5167  141.9554  157.4463 C   0  0  0  0  0  0  0  0  0  0  0  0
  149.2455  142.3207  158.6130 O   0  0  0  0  0  0  0  0  0  0  0  0
  150.4220  143.0652  158.3203 C   0  0  0  0  0  0  0  0  0  0  0  0
  151.3844  142.2030  157.4909 C   0  0  0  0  0  0  0  0  0  0  0  0
  150.6984  141.7114  156.2082 C   0  0  1  0  0  0  0  0  0  0  0  0
  151.5721  140.8197  155.5446 O   0  0  0  0  0  0  0  0  0  0  0  0
  148.5837  137.6856  155.7070 N   0  0  0  0  0  0  0  0  0  0  0  0
  148.7825  136.4955  156.2823 C   0  0  0  0  0  0  0  0  0  0  0  0
  148.1397  135.9504  157.3182 N   0  0  0  0  0  0  0  0  0  0  0  0
  147.1649  136.7800  157.7905 C   0  0  0  0  0  0  0  0  0  0  0  0
  146.6328  134.3554  162.0340 C   0  0  0  0  0  0  0  0  0  0  0  0
  145.2141  133.8064  162.2675 C   0  0  0  0  0  0  0  0  0  0  0  0
  144.4162  134.7928  162.9104 O   0  0  0  0  0  0  0  0  0  0  0  0
  144.2483  135.9699  162.1295 C   0  0  0  0  0  0  0  0  0  0  0  0
  145.6147  136.6302  161.8601 C   0  0  0  0  0  0  0  0  0  0  0  0
  148.7624  136.1544  162.9877 H   0  0  0  0  0  0  0  0  0  0  0  0
  148.1163  137.0754  160.4415 H   0  0  0  0  0  0  0  0  0  0  0  0
  148.8020  135.5427  160.9391 H   0  0  0  0  0  0  0  0  0  0  0  0
  146.7893  134.6179  159.2603 H   0  0  0  0  0  0  0  0  0  0  0  0
  145.1686  135.0489  159.6907 H   0  0  0  0  0  0  0  0  0  0  0  0
  144.7615  137.8633  159.6587 H   0  0  0  0  0  0  0  0  0  0  0  0
  146.4930  138.7405  153.9625 H   0  0  0  0  0  0  0  0  0  0  0  0
  145.5399  139.9862  154.7611 H   0  0  0  0  0  0  0  0  0  0  0  0
  147.6200  140.2858  152.6551 H   0  0  0  0  0  0  0  0  0  0  0  0
  146.3205  141.4083  153.0533 H   0  0  0  0  0  0  0  0  0  0  0  0
  148.9037  142.0036  153.7159 H   0  0  0  0  0  0  0  0  0  0  0  0
  147.5876  142.3754  154.8335 H   0  0  0  0  0  0  0  0  0  0  0  0
  149.2836  139.8555  154.7416 H   0  0  0  0  0  0  0  0  0  0  0  0
  149.6083  140.1440  157.1620 H   0  0  0  0  0  0  0  0  0  0  0  0
  148.2169  142.8579  156.9132 H   0  0  0  0  0  0  0  0  0  0  0  0
  147.6007  141.4590  157.7647 H   0  0  0  0  0  0  0  0  0  0  0  0
  150.1651  143.9840  157.7908 H   0  0  0  0  0  0  0  0  0  0  0  0
  150.8949  143.3590  159.2576 H   0  0  0  0  0  0  0  0  0  0  0  0
  152.2823  142.7722  157.2473 H   0  0  0  0  0  0  0  0  0  0  0  0
  151.7070  141.3512  158.0916 H   0  0  0  0  0  0  0  0  0  0  0  0
  150.5155  142.5631  155.5520 H   0  0  0  0  0  0  0  0  0  0  0  0
  152.0134  140.2919  156.1925 H   0  0  0  0  0  0  0  0  0  0  0  0
  149.5700  135.8946  155.8517 H   0  0  0  0  0  0  0  0  0  0  0  0
  147.2641  133.5944  161.5771 H   0  0  0  0  0  0  0  0  0  0  0  0
  147.0736  134.5449  163.0132 H   0  0  0  0  0  0  0  0  0  0  0  0
  144.7447  133.4898  161.3358 H   0  0  0  0  0  0  0  0  0  0  0  0
  145.2598  132.9257  162.9081 H   0  0  0  0  0  0  0  0  0  0  0  0
  143.7211  135.7353  161.2048 H   0  0  0  0  0  0  0  0  0  0  0  0
  143.6087  136.6598  162.6799 H   0  0  0  0  0  0  0  0  0  0  0  0
  145.9987  136.9797  162.8188 H   0  0  0  0  0  0  0  0  0  0  0  0
  145.4829  137.5229  161.2477 H   0  0  0  0  0  0  0  0  0  0  0  0
  1  2  1  0  0  0  0
  1 31  1  0  0  0  0
  2  3  1  0  0  0  0
  2 32  1  0  0  0  0
  2 33  1  0  0  0  0
  3 30  1  0  0  0  0
  3  4  1  0  0  0  0
  3 26  1  0  0  0  0
  4  5  1  0  0  0  0
  4 34  1  0  0  0  0
  4 35  1  0  0  0  0
  5 25  1  0  0  0  0
  5  6  1  0  0  0  0
  6  7  2  0  0  0  0
  6 36  1  0  0  0  0
  7  8  1  0  0  0  0
  8 25  2  0  0  0  0
  8  9  1  0  0  0  0
  9 10  1  0  0  0  0
  9 22  2  0  0  0  0
 10 14  1  0  0  0  0
 10 11  1  0  0  0  0
 11 12  1  0  0  0  0
 11 37  1  0  0  0  0
 11 38  1  0  0  0  0
 12 13  1  0  0  0  0
 12 39  1  0  0  0  0
 12 40  1  0  0  0  0
 13 14  1  0  0  0  0
 13 41  1  0  0  0  0
 13 42  1  0  0  0  0
 14 15  1  0  0  0  0
 14 43  1  0  0  0  0
 15 20  1  0  0  0  0
 15 16  1  0  0  0  0
 15 44  1  0  0  0  0
 16 17  1  0  0  0  0
 16 45  1  0  0  0  0
 16 46  1  0  0  0  0
 17 18  1  0  0  0  0
 18 19  1  0  0  0  0
 18 47  1  0  0  0  0
 18 48  1  0  0  0  0
 19 20  1  0  0  0  0
 19 49  1  0  0  0  0
 19 50  1  0  0  0  0
 20 21  1  0  0  0  0
 20 51  1  0  0  0  0
 21 52  1  0  0  0  0
 22 23  1  0  0  0  0
 23 24  2  0  0  0  0
 23 53  1  0  0  0  0
 24 25  1  0  0  0  0
 26 27  1  0  0  0  0
 26 54  1  0  0  0  0
 26 55  1  0  0  0  0
 27 28  1  0  0  0  0
 27 56  1  0  0  0  0
 27 57  1  0  0  0  0
 28 29  1  0  0  0  0
 29 30  1  0  0  0  0
 29 58  1  0  0  0  0
 29 59  1  0  0  0  0
 30 60  1  0  0  0  0
 30 61  1  0  0  0  0
M  END
> <s_m_source_file>
AV-unprocessed.smi

> <i_m_source_file_index>
247

> <i_lp_mmshare_version>
43012

> <i_f3d_flags>
0

> <s_epik_input>
W0NIMl0xW0NIMl1PW0NIMl1bQ0gyXUMxKFtDSDJdW09IXSlbQ0gyXW4oW2NIXW4yKWMoYzIzKW5bY0hdbmMzTjRbQ0gyXVtDSDJdW0NIMl1bQ0BIXTRbQ0BASF01W0NIMl1PW0NIMl1bQ0gyXVtDQEhdNVtPSF0=

> <s_epik_cmdline>
J2VwaWtfcHl0aG9uJywgJy1waCcsICc3LjAnLCAnLXRuJywgJzgnLCAnLW1hJywgJzIwMCcsICctbWV0YWxfYmluZGluZycsICctaW1hZScsICc8aW5maWxlLm1hZT4nLCAnLW9tYWUnLCAnPG91dGZpbGUubWFlPic=

> <r_lp_tautomer_probability>
1

> <r_epik_Ionization_Penalty>
0.00362597

> <r_epik_Ionization_Penalty_Charging>
0

> <r_epik_Ionization_Penalty_Neutral>
0.00362597

> <r_epik_State_Penalty>
0.00241433

> <r_epik_Charging_Adjusted_Penalty>
0.00241433

> <i_epik_Tot_Q>
0

> <i_epik_Tot_abs_Q>
0

> <r_epik_Metal_State_Penalty>
-0

> <b_epik_Metal_Only>
0

> <s_lp_Force_Field>
OPLS_2005

> <r_lp_Energy>
58.6296

> <b_lp_Chiralities_Consistent>
1

> <s_lp_Variant>
AV-unprocessed.smi:247-1

> <Gold.Version>
5.8.1

> <Gold.Id.Protein>
6NUR|6NUR_protein|mol2

> <Gold.PLP.Fitness>
38.8014

> <Gold.PLP.PLP>
-35.0545

> <Gold.PLP.part.hbond>
-2.3487

> <Gold.PLP.part.metal>
0.0000

> <Gold.PLP.part.buried>
-5.2801

> <Gold.PLP.part.nonpolar>
-26.5672

> <Gold.PLP.part.repulsive>
0.2280

> <Gold.PLP.ligand.clash>
0.0000

> <Gold.PLP.ligand.torsion>
0.7771

> <Gold.PLP.Chemscore.Hbond>
1.6552

> <Gold.PLP.Chemscore.CHOScore>
0.0000

> <Gold.PLP.Chemscore.Metal>
0.0000

> <Gold.Chemscore.Hbonds>
donor molecule, donor type, donor heavy atom, donor atom, acceptor molecule, acceptor atom, score
      P1  H  6931  6943       L1     1  1.00
      P1  H  7989  7998       L1    21  0.65

> <Gold.PLP.Chemscore.Internal.Correction>
0.3355

> <Gold.Rescore>
     Score         DG    S(hbond)    S(metal)    S(lipo)     H(rot)  DE(clash)    DE(int)     intcor
     12.22     -13.27       1.62        0.00      91.08       3.23       0.10       0.95       ----

> <Gold.Chemscore.Fitness>
12.2205

> <Gold.Chemscore.DG>
-13.2698

> <Gold.Chemscore.ZeroCoef>
-5.4800

> <Gold.Chemscore.Hbond>
1.6157

> <Gold.Chemscore.Metal>
0.0000

> <Gold.Chemscore.Lipo>
91.0832

> <Gold.Chemscore.Internal_Hbond>
0.0000

> <Gold.Chemscore.DEClash>
0.0971

> <Gold.Chemscore.DEInternal>
0.9522

> <Gold.Chemscore.Rot>
3.2278

> <Gold.Chemscore.Internal.Correction>
   9.000000E+99

> <Gold.Chemscore.Hbonds>
donor molecule, donor type, donor heavy atom, donor atom, acceptor molecule, acceptor atom, score
      P1  H  6931  6943       L1     1  0.25
      P1  H  7989  7998       L1    21  0.58

> <Gold.Chemscore.Hbond.Weighted>
-5.3963

> <Gold.Chemscore.Metal.Weighted>
-0.0000

> <Gold.Chemscore.Lipo.Weighted>
-10.6567

> <Gold.Chemscore.Internal_Hbond.Weighted>
0.0000

> <Gold.Chemscore.DEClash.Weighted>
0.0971

> <Gold.Chemscore.DEInternal.Weighted>
0.9522

> <Gold.Chemscore.Rot.Weighted>
8.2633

> <Gold.Chemscore.Internal.Correction.Weighted>
   9.000000E+99

> <Gold.Protein.RotatedTorsions>
[ 6907 6896 6895 6894 ] final  -80.32 input  -60.11 | X-H torsion
[ 7974 7965 7964 7962 ] final  -44.22 input  175.53 | X-H torsion
[ 8008 7997 7996 7995 ] final -133.95 input   59.86 | X-H torsion
[ 10167 10162 10161 10158 ] final    1.00 input  -65.29 | X-H torsion
[ 10718 10713 10712 10709 ] final -143.69 input   66.30 | X-H torsion
[ 10763 10752 10751 10750 ] final  -96.13 input  -60.55 | X-H torsion
[ 11005 11000 10999 10996 ] final -121.17 input  -57.11 | X-H torsion

> <Gold.Protein.ActiveResidues>
 VAL166  LYS551  ARG553  GLY616  TRP617  ASP618  TYR619  PRO620  LYS621  CYS622 
 ASP623  PHE694  ASN695  SER759  ASP760  ASP761  ALA762  ILE779  LEU786  VAL792 
 PHE793  MET794  SER795  GLU796  ALA797  LYS798  CYS799  TRP800  GLU811  SER814 

> <Gold.Protein.RotatedAtoms>
  150.6932  134.3988  159.5109 H   0  0  0  0  0  0  0  0  0  0  0  0  # atno 6907 bound_to 6896
  152.1765  134.8788  160.0539 H   0  0  0  0  0  0  0  0  0  0  0  0  # atno 6908 bound_to 6896
  151.9794  133.3718  159.4138 H   0  0  0  0  0  0  0  0  0  0  0  0  # atno 6909 bound_to 6896
  145.9942  140.7146  142.9302 H   0  0  0  0  0  0  0  0  0  0  0  0  # atno 7974 bound_to 7965
  155.3540  140.0479  157.3046 H   0  0  0  0  0  0  0  0  0  0  0  0  # atno 8008 bound_to 7997
  154.5212  140.2225  155.8936 H   0  0  0  0  0  0  0  0  0  0  0  0  # atno 8009 bound_to 7997
  156.1691  140.3099  155.8948 H   0  0  0  0  0  0  0  0  0  0  0  0  # atno 8010 bound_to 7997
  140.6703  143.7067  150.7909 H   0  0  0  0  0  0  0  0  0  0  0  0  # atno 10167 bound_to 10162
  156.3610  130.7738  151.1905 H   0  0  0  0  0  0  0  0  0  0  0  0  # atno 10718 bound_to 10713
  154.7211  135.5095  153.8813 H   0  0  0  0  0  0  0  0  0  0  0  0  # atno 10763 bound_to 10752
  153.0863  135.6646  153.9951 H   0  0  0  0  0  0  0  0  0  0  0  0  # atno 10764 bound_to 10752
  153.9773  135.3032  155.3402 H   0  0  0  0  0  0  0  0  0  0  0  0  # atno 10765 bound_to 10752
  141.0089  134.0293  157.3440 H   0  0  0  0  0  0  0  0  0  0  0  0  # atno 11005 bound_to 11000
  144.6898  140.3122  143.7246 LP  0  0  0  0  0  0  0  0  0  0  0  0  # atno 17320 bound_to 7965
  145.7584  139.1816  143.2281 LP  0  0  0  0  0  0  0  0  0  0  0  0  # atno 17321 bound_to 7965
  140.0751  143.5023  152.2559 LP  0  0  0  0  0  0  0  0  0  0  0  0  # atno 17342 bound_to 10162
  139.5969  144.7570  151.3266 LP  0  0  0  0  0  0  0  0  0  0  0  0  # atno 17343 bound_to 10162
  157.7473  131.0400  150.4577 LP  0  0  0  0  0  0  0  0  0  0  0  0  # atno 17370 bound_to 10713
  156.4788  130.4069  149.6474 LP  0  0  0  0  0  0  0  0  0  0  0  0  # atno 17371 bound_to 10713
  139.9079  135.0184  156.7565 LP  0  0  0  0  0  0  0  0  0  0  0  0  # atno 17394 bound_to 11000
  140.6766  133.9512  155.7886 LP  0  0  0  0  0  0  0  0  0  0  0  0  # atno 17395 bound_to 11000

$$$$
