AV-unprocessed.smi:69|AV-procd|sdf|646|dock3
  -GOLD-   2262016543D 1   1.00000     0.00000
 Structure written by MMmdl.
 32 34  0  0  0  0  0  0  0  0  1 V2000
  152.7036  142.3089  160.6873 N   0  0  0  0  0  0  0  0  0  0  0  0
  151.9385  142.3165  159.5872 C   0  0  0  0  0  0  0  0  0  0  0  0
  151.7552  143.4911  158.9399 N   0  0  0  0  0  0  0  0  0  0  0  0
  150.9968  143.5240  157.8393 C   0  0  0  0  0  0  0  0  0  0  0  0
  150.3521  142.5205  157.2388 N   0  0  0  0  0  0  0  0  0  0  0  0
  150.5391  141.3362  157.8918 C   0  0  0  0  0  0  0  0  0  0  0  0
  151.3150  141.1528  159.0699 C   0  0  0  0  0  0  0  0  0  0  0  0
  151.2811  139.8200  159.4570 N   0  0  0  0  0  0  0  0  0  0  0  0
  150.5266  139.2511  158.5553 C   0  0  0  0  0  0  0  0  0  0  0  0
  150.0432  140.0876  157.5727 N   0  0  0  0  0  0  0  0  0  0  0  0
  149.1722  139.7227  156.4099 C   0  0  1  0  0  0  0  0  0  0  0  0
  148.0387  140.5312  156.4334 O   0  0  0  0  0  0  0  0  0  0  0  0
  147.6432  140.8156  155.0972 C   0  0  1  0  0  0  0  0  0  0  0  0
  146.7066  142.0354  155.0465 C   0  0  0  0  0  0  0  0  0  0  0  0
  146.1898  142.1960  153.7426 O   0  0  0  0  0  0  0  0  0  0  0  0
  148.9830  140.9742  154.3625 C   0  0  1  0  0  0  0  0  0  0  0  0
  149.4896  142.2910  154.5003 O   0  0  0  0  0  0  0  0  0  0  0  0
  149.8638  139.9285  155.0447 C   0  0  1  0  0  0  0  0  0  0  0  0
  151.2364  140.2853  155.0927 O   0  0  0  0  0  0  0  0  0  0  0  0
  148.8929  138.6830  156.5878 H   0  0  0  0  0  0  0  0  0  0  0  0
  147.1375  139.9364  154.6927 H   0  0  0  0  0  0  0  0  0  0  0  0
  148.8803  140.7705  153.2962 H   0  0  0  0  0  0  0  0  0  0  0  0
  149.7800  138.9856  154.5027 H   0  0  0  0  0  0  0  0  0  0  0  0
  152.8566  141.4447  161.1872 H   0  0  0  0  0  0  0  0  0  0  0  0
  153.1287  143.1654  161.0109 H   0  0  0  0  0  0  0  0  0  0  0  0
  150.8920  144.4916  157.3714 H   0  0  0  0  0  0  0  0  0  0  0  0
  150.3045  138.1941  158.5794 H   0  0  0  0  0  0  0  0  0  0  0  0
  145.8937  141.9424  155.7674 H   0  0  0  0  0  0  0  0  0  0  0  0
  147.2581  142.9438  155.2910 H   0  0  0  0  0  0  0  0  0  0  0  0
  145.6577  141.4427  153.5365 H   0  0  0  0  0  0  0  0  0  0  0  0
  148.9360  142.7602  155.1061 H   0  0  0  0  0  0  0  0  0  0  0  0
  151.6728  139.7170  155.7087 H   0  0  0  0  0  0  0  0  0  0  0  0
  1  2  1  0  0  0  0
  1 24  1  0  0  0  0
  1 25  1  0  0  0  0
  2  7  1  0  0  0  0
  2  3  2  0  0  0  0
  3  4  1  0  0  0  0
  4  5  2  0  0  0  0
  4 26  1  0  0  0  0
  5  6  1  0  0  0  0
  6 10  1  0  0  0  0
  6  7  2  0  0  0  0
  7  8  1  0  0  0  0
  8  9  2  0  0  0  0
  9 10  1  0  0  0  0
  9 27  1  0  0  0  0
 10 11  1  0  0  0  0
 11 20  1  0  0  0  0
 11 18  1  0  0  0  0
 11 12  1  0  0  0  0
 12 13  1  0  0  0  0
 13 21  1  0  0  0  0
 13 14  1  0  0  0  0
 13 16  1  0  0  0  0
 14 15  1  0  0  0  0
 14 28  1  0  0  0  0
 14 29  1  0  0  0  0
 15 30  1  0  0  0  0
 16 22  1  0  0  0  0
 16 17  1  0  0  0  0
 16 18  1  0  0  0  0
 17 31  1  0  0  0  0
 18 23  1  0  0  0  0
 18 19  1  0  0  0  0
 19 32  1  0  0  0  0
M  END
> <s_m_source_file>
AV-unprocessed.smi

> <i_m_source_file_index>
69

> <i_lp_mmshare_version>
43012

> <i_f3d_flags>
0

> <s_epik_input>
bjFbY0hdbmMoW05IMl0pYyhjMTIpbltjSF1uMltDQEBIXTNPW0NASF0oW0NIMl1bT0hdKVtDQEBIXShbT0hdKVtDQEhdM1tPSF0=

> <s_epik_cmdline>
J2VwaWtfcHl0aG9uJywgJy1waCcsICc3LjAnLCAnLXRuJywgJzgnLCAnLW1hJywgJzIwMCcsICctbWV0YWxfYmluZGluZycsICctaW1hZScsICc8aW5maWxlLm1hZT4nLCAnLW9tYWUnLCAnPG91dGZpbGUubWFlPic=

> <r_lp_tautomer_probability>
1

> <r_epik_Ionization_Penalty>
0.000428445

> <r_epik_Ionization_Penalty_Charging>
0

> <r_epik_Ionization_Penalty_Neutral>
0.000428445

> <r_epik_State_Penalty>
-0

> <r_epik_Charging_Adjusted_Penalty>
0

> <i_epik_Tot_Q>
0

> <i_epik_Tot_abs_Q>
0

> <r_epik_Metal_State_Penalty>
-0

> <b_epik_Metal_Only>
0

> <s_epik_Chemistry_Notes>
This compound contains an acetal/aminal-like group ( X-CH(R)-Y where X, Y are N, S, or O) that may be acid/base labile, releasing an aldehyde.

> <s_lp_Force_Field>
OPLS_2005

> <r_lp_Energy>
45.7014

> <b_lp_Chiralities_Consistent>
1

> <s_lp_Variant>
AV-unprocessed.smi:69-4

> <Gold.Version>
5.8.1

> <Gold.Id.Protein>
6NUR|6NUR_protein|mol2

> <Gold.PLP.Fitness>
33.5788

> <Gold.PLP.PLP>
-26.0844

> <Gold.PLP.part.hbond>
-3.7092

> <Gold.PLP.part.metal>
0.0000

> <Gold.PLP.part.buried>
-4.3342

> <Gold.PLP.part.nonpolar>
-18.5804

> <Gold.PLP.part.repulsive>
1.0485

> <Gold.PLP.ligand.clash>
0.0000

> <Gold.PLP.ligand.torsion>
0.0857

> <Gold.PLP.Chemscore.Hbond>
1.8393

> <Gold.PLP.Chemscore.CHOScore>
0.7151

> <Gold.PLP.Chemscore.Metal>
0.0000

> <Gold.Chemscore.Hbonds>
donor molecule, donor type, donor heavy atom, donor atom, acceptor molecule, acceptor atom, score
      L1  H    15    30       P1 10175  0.02
      L1  H    17    31       P1  8028  0.64
      P1  H  7989  7998       L1    19  1.00
      P1  H  8011  8017       L1    17  0.07
      L1  C     4    26       P1  8028  0.59

> <Gold.PLP.Chemscore.Internal.Correction>
0.0026

> <Gold.Rescore>
     Score         DG    S(hbond)    S(metal)    S(lipo)     H(rot)  DE(clash)    DE(int)     intcor
      3.68      -5.28       2.05        0.00      27.82       4.03       1.47       0.13       ----

> <Gold.Chemscore.Fitness>
3.6812

> <Gold.Chemscore.DG>
-5.2769

> <Gold.Chemscore.ZeroCoef>
-5.4800

> <Gold.Chemscore.Hbond>
2.0519

> <Gold.Chemscore.Metal>
0.0000

> <Gold.Chemscore.Lipo>
27.8174

> <Gold.Chemscore.Internal_Hbond>
0.0000

> <Gold.Chemscore.DEClash>
1.4677

> <Gold.Chemscore.DEInternal>
0.1280

> <Gold.Chemscore.Rot>
4.0277

> <Gold.Chemscore.Internal.Correction>
   9.000000E+99

> <Gold.Chemscore.Hbonds>
donor molecule, donor type, donor heavy atom, donor atom, acceptor molecule, acceptor atom, score
      L1  H    15    30       P1 10175  0.02
      L1  H    17    31       P1  8028  0.60
      P1  H  7989  7998       L1    19  0.54

> <Gold.Chemscore.Hbond.Weighted>
-6.8532

> <Gold.Chemscore.Metal.Weighted>
-0.0000

> <Gold.Chemscore.Lipo.Weighted>
-3.2546

> <Gold.Chemscore.Internal_Hbond.Weighted>
0.0000

> <Gold.Chemscore.DEClash.Weighted>
1.4677

> <Gold.Chemscore.DEInternal.Weighted>
0.1280

> <Gold.Chemscore.Rot.Weighted>
10.3110

> <Gold.Chemscore.Internal.Correction.Weighted>
   9.000000E+99

> <Gold.Protein.RotatedTorsions>
[ 6907 6896 6895 6894 ] final  127.40 input  -60.11 | X-H torsion
[ 7974 7965 7964 7962 ] final   76.30 input  175.53 | X-H torsion
[ 8008 7997 7996 7995 ] final  131.94 input   59.86 | X-H torsion
[ 10167 10162 10161 10158 ] final   28.75 input  -65.29 | X-H torsion
[ 10718 10713 10712 10709 ] final  141.07 input   66.30 | X-H torsion
[ 10763 10752 10751 10750 ] final -167.24 input  -60.55 | X-H torsion
[ 11005 11000 10999 10996 ] final  127.68 input  -57.11 | X-H torsion

> <Gold.Protein.ActiveResidues>
 VAL166  LYS551  ARG553  GLY616  TRP617  ASP618  TYR619  PRO620  LYS621  CYS622 
 ASP623  PHE694  ASN695  SER759  ASP760  ASP761  ALA762  ILE779  LEU786  VAL792 
 PHE793  MET794  SER795  GLU796  ALA797  LYS798  CYS799  TRP800  GLU811  SER814 

> <Gold.Protein.RotatedAtoms>
  152.3816  133.6554  159.6165 H   0  0  0  0  0  0  0  0  0  0  0  0  # atno 6907 bound_to 6896
  150.7745  133.9104  159.3376 H   0  0  0  0  0  0  0  0  0  0  0  0  # atno 6908 bound_to 6896
  151.6909  135.0948  160.0284 H   0  0  0  0  0  0  0  0  0  0  0  0  # atno 6909 bound_to 6896
  145.7047  139.2594  143.1685 H   0  0  0  0  0  0  0  0  0  0  0  0  # atno 7974 bound_to 7965
  156.2976  140.2559  156.3008 H   0  0  0  0  0  0  0  0  0  0  0  0  # atno 8008 bound_to 7997
  154.9420  140.0396  157.2120 H   0  0  0  0  0  0  0  0  0  0  0  0  # atno 8009 bound_to 7997
  154.8117  140.2845  155.5852 H   0  0  0  0  0  0  0  0  0  0  0  0  # atno 8010 bound_to 7997
  140.4825  144.0594  150.6270 H   0  0  0  0  0  0  0  0  0  0  0  0  # atno 10167 bound_to 10162
  157.3962  131.1011  151.0598 H   0  0  0  0  0  0  0  0  0  0  0  0  # atno 10718 bound_to 10713
  154.6752  135.2945  154.9688 H   0  0  0  0  0  0  0  0  0  0  0  0  # atno 10763 bound_to 10752
  154.0701  135.6619  153.4827 H   0  0  0  0  0  0  0  0  0  0  0  0  # atno 10764 bound_to 10752
  153.0512  135.5173  154.7768 H   0  0  0  0  0  0  0  0  0  0  0  0  # atno 10765 bound_to 10752
  139.9520  134.9620  156.8890 H   0  0  0  0  0  0  0  0  0  0  0  0  # atno 11005 bound_to 11000
  146.0767  140.7810  142.9662 LP  0  0  0  0  0  0  0  0  0  0  0  0  # atno 17320 bound_to 7965
  144.6959  140.3425  143.7196 LP  0  0  0  0  0  0  0  0  0  0  0  0  # atno 17321 bound_to 7965
  140.3840  143.2788  152.0138 LP  0  0  0  0  0  0  0  0  0  0  0  0  # atno 17342 bound_to 10162
  139.4836  144.6132  151.7395 LP  0  0  0  0  0  0  0  0  0  0  0  0  # atno 17343 bound_to 10162
  157.1614  130.6227  149.5612 LP  0  0  0  0  0  0  0  0  0  0  0  0  # atno 17370 bound_to 10713
  155.9811  130.4816  150.6808 LP  0  0  0  0  0  0  0  0  0  0  0  0  # atno 17371 bound_to 10713
  140.5697  134.0455  155.7426 LP  0  0  0  0  0  0  0  0  0  0  0  0  # atno 17394 bound_to 11000
  141.1185  133.9501  157.2776 LP  0  0  0  0  0  0  0  0  0  0  0  0  # atno 17395 bound_to 11000

$$$$
