AV-unprocessed.smi:193|AV-procd|sdf|1517|dock10
  -GOLD-   2262019353D 1   1.00000     0.00000
 Structure written by MMmdl.
 61 65  0  0  0  0  0  0  0  0  1 V2000
  150.0767  141.7233  155.3911 C   0  0  0  0  0  0  0  0  0  0  0  0
  150.6771  141.3529  156.7556 C   0  0  1  0  0  0  0  0  0  0  0  0
  151.7593  140.2671  156.5733 C   0  0  0  0  0  0  0  0  0  0  0  0
  151.9724  139.4431  157.7666 N   0  0  0  0  0  0  0  0  0  0  0  0
  151.3862  138.2192  157.7868 C   0  0  0  0  0  0  0  0  0  0  0  0
  150.8599  137.7367  158.9447 N   0  0  0  0  0  0  0  0  0  0  0  0
  150.3122  136.5187  158.9806 C   0  0  0  0  0  0  0  0  0  0  0  0
  150.1885  135.6299  157.9931 N   0  0  0  0  0  0  0  0  0  0  0  0
  150.7081  136.1101  156.8273 C   0  0  0  0  0  0  0  0  0  0  0  0
  151.3222  137.3806  156.6387 C   0  0  0  0  0  0  0  0  0  0  0  0
  151.7311  137.5171  155.3172 N   0  0  0  0  0  0  0  0  0  0  0  0
  151.3859  136.3890  154.7592 C   0  0  0  0  0  0  0  0  0  0  0  0
  150.7596  135.4886  155.5915 N   0  0  0  0  0  0  0  0  0  0  0  0
  150.2766  134.1627  155.2352 C   0  0  0  0  0  0  0  0  0  0  0  0
  151.0091  133.0047  155.9583 C   0  0  0  0  0  0  0  0  0  0  0  0
  150.4340  132.8614  157.2453 O   0  0  0  0  0  0  0  0  0  0  0  0
  150.8754  131.6584  155.2131 C   0  0  0  0  0  0  0  0  0  0  0  0
  151.7806  130.5690  155.8158 C   0  0  0  0  0  0  0  0  0  0  0  0
  153.1303  131.0162  155.8506 O   0  0  0  0  0  0  0  0  0  0  0  0
  153.3096  132.1544  156.6843 C   0  0  0  0  0  0  0  0  0  0  0  0
  152.5041  133.3429  156.1303 C   0  0  0  0  0  0  0  0  0  0  0  0
  151.9955  140.0697  159.0876 C   0  0  0  0  0  0  0  0  0  0  0  0
  152.5813  141.4905  159.0994 C   0  0  0  0  0  0  0  0  0  0  0  0
  151.5241  142.4701  158.8550 N   0  0  0  0  0  0  0  0  0  0  0  0
  151.9579  143.7651  159.3627 C   0  0  2  0  0  0  0  0  0  0  0  0
  151.9709  143.9632  160.8621 C   0  0  0  0  0  0  0  0  0  0  0  0
  150.9356  144.6737  160.0228 C   0  0  2  0  0  0  0  0  0  0  0  0
  149.4690  144.3075  160.1505 C   0  0  0  0  0  0  0  0  0  0  0  0
  151.2575  142.6193  157.4240 C   0  0  0  0  0  0  0  0  0  0  0  0
  150.8350  142.1296  154.7209 H   0  0  0  0  0  0  0  0  0  0  0  0
  149.2896  142.4703  155.4965 H   0  0  0  0  0  0  0  0  0  0  0  0
  149.6346  140.8518  154.9071 H   0  0  0  0  0  0  0  0  0  0  0  0
  149.8590  140.9619  157.3628 H   0  0  0  0  0  0  0  0  0  0  0  0
  151.5063  139.6242  155.7288 H   0  0  0  0  0  0  0  0  0  0  0  0
  152.7073  140.7275  156.2939 H   0  0  0  0  0  0  0  0  0  0  0  0
  149.9209  136.2103  159.9387 H   0  0  0  0  0  0  0  0  0  0  0  0
  151.5748  136.1831  153.7157 H   0  0  0  0  0  0  0  0  0  0  0  0
  149.2099  134.1257  155.4603 H   0  0  0  0  0  0  0  0  0  0  0  0
  150.3597  134.0474  154.1535 H   0  0  0  0  0  0  0  0  0  0  0  0
  149.5055  132.7167  157.1459 H   0  0  0  0  0  0  0  0  0  0  0  0
  149.8409  131.3134  155.2157 H   0  0  0  0  0  0  0  0  0  0  0  0
  151.1504  131.7985  154.1670 H   0  0  0  0  0  0  0  0  0  0  0  0
  151.4509  130.2956  156.8193 H   0  0  0  0  0  0  0  0  0  0  0  0
  151.7271  129.6643  155.2098 H   0  0  0  0  0  0  0  0  0  0  0  0
  153.0144  131.9206  157.7085 H   0  0  0  0  0  0  0  0  0  0  0  0
  154.3706  132.4042  156.7125 H   0  0  0  0  0  0  0  0  0  0  0  0
  152.9244  133.6208  155.1628 H   0  0  0  0  0  0  0  0  0  0  0  0
  152.6279  134.2130  156.7766 H   0  0  0  0  0  0  0  0  0  0  0  0
  150.9968  140.0614  159.5282 H   0  0  0  0  0  0  0  0  0  0  0  0
  152.6169  139.4550  159.7385 H   0  0  0  0  0  0  0  0  0  0  0  0
  152.9720  141.6596  160.1039 H   0  0  0  0  0  0  0  0  0  0  0  0
  153.4268  141.6071  158.4199 H   0  0  0  0  0  0  0  0  0  0  0  0
  152.7539  144.2822  158.8288 H   0  0  0  0  0  0  0  0  0  0  0  0
  151.6369  143.1361  161.4861 H   0  0  0  0  0  0  0  0  0  0  0  0
  152.7755  144.5639  161.2811 H   0  0  0  0  0  0  0  0  0  0  0  0
  151.0968  145.7392  159.8707 H   0  0  0  0  0  0  0  0  0  0  0  0
  149.3442  143.2441  160.3562 H   0  0  0  0  0  0  0  0  0  0  0  0
  148.9409  144.5483  159.2280 H   0  0  0  0  0  0  0  0  0  0  0  0
  149.0148  144.8700  160.9663 H   0  0  0  0  0  0  0  0  0  0  0  0
  152.1605  142.9427  156.9032 H   0  0  0  0  0  0  0  0  0  0  0  0
  150.5353  143.4281  157.3076 H   0  0  0  0  0  0  0  0  0  0  0  0
  1  2  1  0  0  0  0
  1 30  1  0  0  0  0
  1 31  1  0  0  0  0
  1 32  1  0  0  0  0
  2 29  1  0  0  0  0
  2  3  1  0  0  0  0
  2 33  1  0  0  0  0
  3  4  1  0  0  0  0
  3 34  1  0  0  0  0
  3 35  1  0  0  0  0
  4  5  1  0  0  0  0
  4 22  1  0  0  0  0
  5 10  1  0  0  0  0
  5  6  2  0  0  0  0
  6  7  1  0  0  0  0
  7  8  2  0  0  0  0
  7 36  1  0  0  0  0
  8  9  1  0  0  0  0
  9 13  1  0  0  0  0
  9 10  2  0  0  0  0
 10 11  1  0  0  0  0
 11 12  2  0  0  0  0
 12 13  1  0  0  0  0
 12 37  1  0  0  0  0
 13 14  1  0  0  0  0
 14 15  1  0  0  0  0
 14 38  1  0  0  0  0
 14 39  1  0  0  0  0
 15 21  1  0  0  0  0
 15 16  1  0  0  0  0
 15 17  1  0  0  0  0
 16 40  1  0  0  0  0
 17 18  1  0  0  0  0
 17 41  1  0  0  0  0
 17 42  1  0  0  0  0
 18 19  1  0  0  0  0
 18 43  1  0  0  0  0
 18 44  1  0  0  0  0
 19 20  1  0  0  0  0
 20 21  1  0  0  0  0
 20 45  1  0  0  0  0
 20 46  1  0  0  0  0
 21 47  1  0  0  0  0
 21 48  1  0  0  0  0
 22 23  1  0  0  0  0
 22 49  1  0  0  0  0
 22 50  1  0  0  0  0
 23 24  1  0  0  0  0
 23 51  1  0  0  0  0
 23 52  1  0  0  0  0
 24 25  1  0  0  0  0
 24 29  1  0  0  0  0
 25 27  1  0  0  0  0
 25 26  1  0  0  0  0
 25 53  1  0  0  0  0
 26 27  1  0  0  0  0
 26 54  1  0  0  0  0
 26 55  1  0  0  0  0
 27 28  1  0  0  0  0
 27 56  1  0  0  0  0
 28 57  1  0  0  0  0
 28 58  1  0  0  0  0
 28 59  1  0  0  0  0
 29 60  1  0  0  0  0
 29 61  1  0  0  0  0
M  END
> <s_m_source_file>
AV-unprocessed.smi

> <i_m_source_file_index>
193

> <i_lp_mmshare_version>
43012

> <i_f3d_flags>
0

> <s_epik_input>
W0NIM11bQ0BASF0xW0NIMl1bQ0BIXTFOKFtDSDJdMilbQ0gyXVtDSDJdTihbQ0gyXVtDQEhdMltDSDNdKWMobltjSF1uMyljKGMzNCluW2NIXW40W0NIMl1DNShbT0hdKVtDSDJdW0NIMl1PW0NIMl1bQ0gyXTU=

> <s_epik_cmdline>
J2VwaWtfcHl0aG9uJywgJy1waCcsICc3LjAnLCAnLXRuJywgJzgnLCAnLW1hJywgJzIwMCcsICctbWV0YWxfYmluZGluZycsICctaW1hZScsICc8aW5maWxlLm1hZT4nLCAnLW9tYWUnLCAnPG91dGZpbGUubWFlPic=

> <r_lp_tautomer_probability>
1

> <r_epik_Ionization_Penalty>
1.45227

> <r_epik_Ionization_Penalty_Charging>
0

> <r_epik_Ionization_Penalty_Neutral>
1.45227

> <r_epik_State_Penalty>
2.02377

> <r_epik_Charging_Adjusted_Penalty>
2.02377

> <i_epik_Tot_Q>
0

> <i_epik_Tot_abs_Q>
0

> <r_epik_Metal_State_Penalty>
2.01937

> <b_epik_Metal_Only>
0

> <s_lp_Force_Field>
OPLS_2005

> <r_lp_Energy>
53.149

> <b_lp_Chiralities_Consistent>
1

> <s_lp_Variant>
AV-unprocessed.smi:193-22

> <Gold.Version>
5.8.1

> <Gold.Id.Protein>
6NUR|6NUR_protein|mol2

> <Gold.PLP.Fitness>
49.4961

> <Gold.PLP.PLP>
-44.3615

> <Gold.PLP.part.hbond>
-2.1966

> <Gold.PLP.part.metal>
0.0000

> <Gold.PLP.part.buried>
-6.1687

> <Gold.PLP.part.nonpolar>
-35.8171

> <Gold.PLP.part.repulsive>
0.0680

> <Gold.PLP.ligand.clash>
0.0000

> <Gold.PLP.ligand.torsion>
1.2837

> <Gold.PLP.Chemscore.Hbond>
1.0000

> <Gold.PLP.Chemscore.CHOScore>
1.0000

> <Gold.PLP.Chemscore.Metal>
0.0000

> <Gold.Chemscore.Hbonds>
donor molecule, donor type, donor heavy atom, donor atom, acceptor molecule, acceptor atom, score
      P1  H  6896  6907       L1    16  0.49
      L1  C    12    37       P1  7949  1.00

> <Gold.PLP.Chemscore.Internal.Correction>
1.7021

> <Gold.Rescore>
     Score         DG    S(hbond)    S(metal)    S(lipo)     H(rot)  DE(clash)    DE(int)     intcor
     13.98     -17.64       0.98        0.00     123.29       2.17       1.52       2.15       ----

> <Gold.Chemscore.Fitness>
13.9760

> <Gold.Chemscore.DG>
-17.6387

> <Gold.Chemscore.ZeroCoef>
-5.4800

> <Gold.Chemscore.Hbond>
0.9820

> <Gold.Chemscore.Metal>
0.0000

> <Gold.Chemscore.Lipo>
123.2875

> <Gold.Chemscore.Internal_Hbond>
0.0000

> <Gold.Chemscore.DEClash>
1.5159

> <Gold.Chemscore.DEInternal>
2.1469

> <Gold.Chemscore.Rot>
2.1664

> <Gold.Chemscore.Internal.Correction>
   9.000000E+99

> <Gold.Chemscore.Hbonds>
donor molecule, donor type, donor heavy atom, donor atom, acceptor molecule, acceptor atom, score
      P1  H  6896  6907       L1    16  0.35

> <Gold.Chemscore.Hbond.Weighted>
-3.2800

> <Gold.Chemscore.Metal.Weighted>
-0.0000

> <Gold.Chemscore.Lipo.Weighted>
-14.4246

> <Gold.Chemscore.Internal_Hbond.Weighted>
0.0000

> <Gold.Chemscore.DEClash.Weighted>
1.5159

> <Gold.Chemscore.DEInternal.Weighted>
2.1469

> <Gold.Chemscore.Rot.Weighted>
5.5459

> <Gold.Chemscore.Internal.Correction.Weighted>
   9.000000E+99

> <Gold.Protein.RotatedTorsions>
[ 6907 6896 6895 6894 ] final -121.89 input  -60.11 | X-H torsion
[ 7974 7965 7964 7962 ] final  -28.18 input  175.53 | X-H torsion
[ 8008 7997 7996 7995 ] final  -82.11 input   59.86 | X-H torsion
[ 10167 10162 10161 10158 ] final  -55.17 input  -65.29 | X-H torsion
[ 10718 10713 10712 10709 ] final  179.89 input   66.30 | X-H torsion
[ 10763 10752 10751 10750 ] final   20.65 input  -60.55 | X-H torsion
[ 11005 11000 10999 10996 ] final  141.72 input  -57.11 | X-H torsion

> <Gold.Protein.ActiveResidues>
 VAL166  LYS551  ARG553  GLY616  TRP617  ASP618  TYR619  PRO620  LYS621  CYS622 
 ASP623  PHE694  ASN695  SER759  ASP760  ASP761  ALA762  ILE779  LEU786  VAL792 
 PHE793  MET794  SER795  GLU796  ALA797  LYS798  CYS799  TRP800  GLU811  SER814 

> <Gold.Protein.RotatedAtoms>
  150.8525  133.7765  159.3020 H   0  0  0  0  0  0  0  0  0  0  0  0  # atno 6907 bound_to 6896
  151.5433  135.1066  159.9941 H   0  0  0  0  0  0  0  0  0  0  0  0  # atno 6908 bound_to 6896
  152.4564  133.7688  159.6843 H   0  0  0  0  0  0  0  0  0  0  0  0  # atno 6909 bound_to 6896
  146.1306  140.5250  142.8695 H   0  0  0  0  0  0  0  0  0  0  0  0  # atno 7974 bound_to 7965
  154.6052  140.0638  156.9422 H   0  0  0  0  0  0  0  0  0  0  0  0  # atno 8008 bound_to 7997
  155.2064  140.3319  155.4317 H   0  0  0  0  0  0  0  0  0  0  0  0  # atno 8009 bound_to 7997
  156.2343  140.1855  156.7144 H   0  0  0  0  0  0  0  0  0  0  0  0  # atno 8010 bound_to 7997
  140.6390  143.2497  151.5041 H   0  0  0  0  0  0  0  0  0  0  0  0  # atno 10167 bound_to 10162
  156.8691  130.9777  151.3075 H   0  0  0  0  0  0  0  0  0  0  0  0  # atno 10718 bound_to 10713
  153.1060  135.6685  153.9586 H   0  0  0  0  0  0  0  0  0  0  0  0  # atno 10763 bound_to 10752
  153.9143  135.3021  155.3450 H   0  0  0  0  0  0  0  0  0  0  0  0  # atno 10764 bound_to 10752
  154.7481  135.5048  153.9316 H   0  0  0  0  0  0  0  0  0  0  0  0  # atno 10765 bound_to 10752
  140.0423  134.9298  157.0866 H   0  0  0  0  0  0  0  0  0  0  0  0  # atno 11005 bound_to 11000
  144.7686  140.5587  143.6685 LP  0  0  0  0  0  0  0  0  0  0  0  0  # atno 17320 bound_to 7965
  145.5269  139.1476  143.3521 LP  0  0  0  0  0  0  0  0  0  0  0  0  # atno 17321 bound_to 7965
  139.5599  144.2182  152.1674 LP  0  0  0  0  0  0  0  0  0  0  0  0  # atno 17342 bound_to 10162
  140.1447  144.5170  150.6723 LP  0  0  0  0  0  0  0  0  0  0  0  0  # atno 17343 bound_to 10162
  157.6206  130.8652  149.9102 LP  0  0  0  0  0  0  0  0  0  0  0  0  # atno 17370 bound_to 10713
  156.0736  130.3682  150.0724 LP  0  0  0  0  0  0  0  0  0  0  0  0  # atno 17371 bound_to 10713
  140.4049  134.2042  155.7163 LP  0  0  0  0  0  0  0  0  0  0  0  0  # atno 17394 bound_to 11000
  141.1889  133.8250  157.0977 LP  0  0  0  0  0  0  0  0  0  0  0  0  # atno 17395 bound_to 11000

$$$$
