AV-unprocessed.smi:2749|AV-procd|sdf|10586|dock4
  -GOLD-   2272015 33D 1   1.00000     0.00000
 Structure written by MMmdl.
 32 34  0  0  0  0  0  0  0  0  1 V2000
  150.5254  140.6675  156.8728 O   0  0  0  0  0  0  0  0  0  0  0  0
  150.1934  141.8070  156.5512 C   0  0  0  0  0  0  0  0  0  0  0  0
  150.4814  142.8673  157.3357 N   0  0  0  0  0  0  0  0  0  0  0  0
  151.1677  142.9529  158.5827 C   0  0  0  0  0  0  0  0  0  0  0  0
  151.0473  144.2010  159.2355 C   0  0  0  0  0  0  0  0  0  0  0  0
  151.6718  144.3978  160.4827 C   0  0  0  0  0  0  0  0  0  0  0  0
  152.3979  143.3356  161.0494 C   0  0  0  0  0  0  0  0  0  0  0  0
  153.0148  143.4765  162.2464 F   0  0  0  0  0  0  0  0  0  0  0  0
  152.4657  142.1224  160.3404 C   0  0  0  0  0  0  0  0  0  0  0  0
  151.8685  141.9341  159.1445 N   0  0  0  0  0  0  0  0  0  0  0  0
  149.5216  142.0751  155.4205 N   0  0  0  0  0  0  0  0  0  0  0  0
  149.1412  141.0923  154.4113 C   0  0  1  0  0  0  0  0  0  0  0  0
  148.6514  139.7865  155.0439 C   0  0  0  0  0  0  0  0  0  0  0  0
  147.2323  139.6672  154.4725 C   0  0  1  0  0  0  0  0  0  0  0  0
  146.2719  140.6873  155.1004 C   0  0  0  0  0  0  0  0  0  0  0  0
  146.7214  141.9886  154.4382 C   0  0  0  0  0  0  0  0  0  0  0  0
  147.9080  141.5109  153.5837 C   0  0  2  0  0  0  0  0  0  0  0  0
  147.4234  140.2382  153.1894 O   0  0  0  0  0  0  0  0  0  0  0  0
  150.0974  143.7427  157.0111 H   0  0  0  0  0  0  0  0  0  0  0  0
  150.4829  145.0059  158.7869 H   0  0  0  0  0  0  0  0  0  0  0  0
  151.5935  145.3457  160.9941 H   0  0  0  0  0  0  0  0  0  0  0  0
  153.0118  141.2816  160.7415 H   0  0  0  0  0  0  0  0  0  0  0  0
  149.2860  143.0390  155.2306 H   0  0  0  0  0  0  0  0  0  0  0  0
  149.9839  140.8792  153.7509 H   0  0  0  0  0  0  0  0  0  0  0  0
  149.2698  138.9515  154.7126 H   0  0  0  0  0  0  0  0  0  0  0  0
  148.6554  139.7960  156.1350 H   0  0  0  0  0  0  0  0  0  0  0  0
  146.8467  138.6475  154.4584 H   0  0  0  0  0  0  0  0  0  0  0  0
  145.2372  140.4627  154.8392 H   0  0  0  0  0  0  0  0  0  0  0  0
  146.3529  140.7161  156.1875 H   0  0  0  0  0  0  0  0  0  0  0  0
  145.9281  142.3794  153.8001 H   0  0  0  0  0  0  0  0  0  0  0  0
  146.9838  142.7663  155.1557 H   0  0  0  0  0  0  0  0  0  0  0  0
  148.1428  142.1739  152.7506 H   0  0  0  0  0  0  0  0  0  0  0  0
  1  2  2  0  0  0  0
  2  3  1  0  0  0  0
  2 11  1  0  0  0  0
  3  4  1  0  0  0  0
  3 19  1  0  0  0  0
  4 10  1  0  0  0  0
  4  5  2  0  0  0  0
  5  6  1  0  0  0  0
  5 20  1  0  0  0  0
  6  7  2  0  0  0  0
  6 21  1  0  0  0  0
  7  8  1  0  0  0  0
  7  9  1  0  0  0  0
  9 10  2  0  0  0  0
  9 22  1  0  0  0  0
 11 12  1  0  0  0  0
 11 23  1  0  0  0  0
 12 17  1  0  0  0  0
 12 13  1  0  0  0  0
 12 24  1  0  0  0  0
 13 14  1  0  0  0  0
 13 25  1  0  0  0  0
 13 26  1  0  0  0  0
 14 18  1  0  0  0  0
 14 15  1  0  0  0  0
 14 27  1  0  0  0  0
 15 16  1  0  0  0  0
 15 28  1  0  0  0  0
 15 29  1  0  0  0  0
 16 17  1  0  0  0  0
 16 30  1  0  0  0  0
 16 31  1  0  0  0  0
 17 18  1  0  0  0  0
 17 32  1  0  0  0  0
M  END
> <s_m_source_file>
AV-unprocessed.smi

> <i_m_source_file_index>
2749

> <i_lp_mmshare_version>
43012

> <i_f3d_flags>
0

> <s_epik_input>
W0NIMl0xW0NIMl1bQ0BIXShPMilbQ0BASF0oW0NIMl1bQ0BASF0xMilbTkhdQyg9TylbTkhdYzNbY0hdW2NIXWMoRilbY0hdbjM=

> <s_epik_cmdline>
J2VwaWtfcHl0aG9uJywgJy1waCcsICc3LjAnLCAnLXRuJywgJzgnLCAnLW1hJywgJzIwMCcsICctbWV0YWxfYmluZGluZycsICctaW1hZScsICc8aW5maWxlLm1hZT4nLCAnLW9tYWUnLCAnPG91dGZpbGUubWFlPic=

> <r_lp_tautomer_probability>
1

> <r_epik_Ionization_Penalty>
3.37159e-05

> <r_epik_Ionization_Penalty_Charging>
0

> <r_epik_Ionization_Penalty_Neutral>
3.37159e-05

> <r_epik_State_Penalty>
-0

> <r_epik_Charging_Adjusted_Penalty>
0

> <i_epik_Tot_Q>
0

> <i_epik_Tot_abs_Q>
0

> <r_epik_Metal_State_Penalty>
-0

> <b_epik_Metal_Only>
0

> <s_lp_Force_Field>
OPLS_2005

> <r_lp_Energy>
40.3406

> <b_lp_Chiralities_Consistent>
1

> <s_lp_Variant>
AV-unprocessed.smi:2749-2

> <Gold.Version>
5.8.1

> <Gold.Id.Protein>
6NUR|6NUR_protein|mol2

> <Gold.PLP.Fitness>
40.6920

> <Gold.PLP.PLP>
-35.4515

> <Gold.PLP.part.hbond>
-2.0000

> <Gold.PLP.part.metal>
0.0000

> <Gold.PLP.part.buried>
-6.7733

> <Gold.PLP.part.nonpolar>
-26.9794

> <Gold.PLP.part.repulsive>
1.1884

> <Gold.PLP.ligand.clash>
0.0000

> <Gold.PLP.ligand.torsion>
0.3407

> <Gold.PLP.Chemscore.Hbond>
1.9675

> <Gold.PLP.Chemscore.CHOScore>
0.0000

> <Gold.PLP.Chemscore.Metal>
0.0000

> <Gold.Chemscore.Hbonds>
donor molecule, donor type, donor heavy atom, donor atom, acceptor molecule, acceptor atom, score
      L1  H     3    19       P1  8028  0.94
      L1  H    11    23       P1  8028  1.00

> <Gold.PLP.Chemscore.Internal.Correction>
0.0196

> <Gold.Rescore>
     Score         DG    S(hbond)    S(metal)    S(lipo)     H(rot)  DE(clash)    DE(int)     intcor
     14.27     -18.02       1.90        0.00      74.77       1.00       0.73       3.01       ----

> <Gold.Chemscore.Fitness>
14.2711

> <Gold.Chemscore.DG>
-18.0196

> <Gold.Chemscore.ZeroCoef>
-5.4800

> <Gold.Chemscore.Hbond>
1.9016

> <Gold.Chemscore.Metal>
0.0000

> <Gold.Chemscore.Lipo>
74.7711

> <Gold.Chemscore.Internal_Hbond>
0.0000

> <Gold.Chemscore.DEClash>
0.7349

> <Gold.Chemscore.DEInternal>
3.0136

> <Gold.Chemscore.Rot>
1.0000

> <Gold.Chemscore.Internal.Correction>
   9.000000E+99

> <Gold.Chemscore.Hbonds>
donor molecule, donor type, donor heavy atom, donor atom, acceptor molecule, acceptor atom, score
      L1  H     3    19       P1  8028  0.84
      L1  H    11    23       P1  8028  0.99

> <Gold.Chemscore.Hbond.Weighted>
-6.3514

> <Gold.Chemscore.Metal.Weighted>
-0.0000

> <Gold.Chemscore.Lipo.Weighted>
-8.7482

> <Gold.Chemscore.Internal_Hbond.Weighted>
0.0000

> <Gold.Chemscore.DEClash.Weighted>
0.7349

> <Gold.Chemscore.DEInternal.Weighted>
3.0136

> <Gold.Chemscore.Rot.Weighted>
2.5600

> <Gold.Chemscore.Internal.Correction.Weighted>
   9.000000E+99

> <Gold.Protein.RotatedTorsions>
[ 6907 6896 6895 6894 ] final  172.42 input  -60.11 | X-H torsion
[ 7974 7965 7964 7962 ] final   51.46 input  175.53 | X-H torsion
[ 8008 7997 7996 7995 ] final   19.09 input   59.86 | X-H torsion
[ 10167 10162 10161 10158 ] final  153.22 input  -65.29 | X-H torsion
[ 10718 10713 10712 10709 ] final  -75.52 input   66.30 | X-H torsion
[ 10763 10752 10751 10750 ] final   15.56 input  -60.55 | X-H torsion
[ 11005 11000 10999 10996 ] final  -50.93 input  -57.11 | X-H torsion

> <Gold.Protein.ActiveResidues>
 VAL166  LYS551  ARG553  GLY616  TRP617  ASP618  TYR619  PRO620  LYS621  CYS622 
 ASP623  PHE694  ASN695  SER759  ASP760  ASP761  ALA762  ILE779  LEU786  VAL792 
 PHE793  MET794  SER795  GLU796  ALA797  LYS798  CYS799  TRP800  GLU811  SER814 

> <Gold.Protein.RotatedAtoms>
  151.7846  133.3353  159.3481 H   0  0  0  0  0  0  0  0  0  0  0  0  # atno 6907 bound_to 6896
  150.7414  134.5899  159.5991 H   0  0  0  0  0  0  0  0  0  0  0  0  # atno 6908 bound_to 6896
  152.3252  134.7331  160.0355 H   0  0  0  0  0  0  0  0  0  0  0  0  # atno 6909 bound_to 6896
  145.9911  139.4340  143.0073 H   0  0  0  0  0  0  0  0  0  0  0  0  # atno 7974 bound_to 7965
  154.9156  140.3020  155.5243 H   0  0  0  0  0  0  0  0  0  0  0  0  # atno 8008 bound_to 7997
  156.3012  140.2381  156.4136 H   0  0  0  0  0  0  0  0  0  0  0  0  # atno 8009 bound_to 7997
  154.8382  140.0415  157.1512 H   0  0  0  0  0  0  0  0  0  0  0  0  # atno 8010 bound_to 7997
  139.4828  144.5291  151.7752 H   0  0  0  0  0  0  0  0  0  0  0  0  # atno 10167 bound_to 10162
  156.0205  130.4443  150.3055 H   0  0  0  0  0  0  0  0  0  0  0  0  # atno 10718 bound_to 10713
  153.1513  135.6779  153.8877 H   0  0  0  0  0  0  0  0  0  0  0  0  # atno 10763 bound_to 10752
  153.8303  135.3118  155.3419 H   0  0  0  0  0  0  0  0  0  0  0  0  # atno 10764 bound_to 10752
  154.7864  135.4859  154.0043 H   0  0  0  0  0  0  0  0  0  0  0  0  # atno 10765 bound_to 10752
  141.0843  133.6646  156.3803 H   0  0  0  0  0  0  0  0  0  0  0  0  # atno 11005 bound_to 11000
  145.7629  140.9928  143.1190 LP  0  0  0  0  0  0  0  0  0  0  0  0  # atno 17320 bound_to 7965
  144.6889  139.9352  143.7473 LP  0  0  0  0  0  0  0  0  0  0  0  0  # atno 17321 bound_to 7965
  140.4815  144.1442  150.5933 LP  0  0  0  0  0  0  0  0  0  0  0  0  # atno 17342 bound_to 10162
  140.4272  143.2584  151.9641 LP  0  0  0  0  0  0  0  0  0  0  0  0  # atno 17343 bound_to 10162
  157.1157  131.0233  151.3030 LP  0  0  0  0  0  0  0  0  0  0  0  0  # atno 17370 bound_to 10713
  157.4669  130.7686  149.7287 LP  0  0  0  0  0  0  0  0  0  0  0  0  # atno 17371 bound_to 10713
  140.5398  134.6131  157.5376 LP  0  0  0  0  0  0  0  0  0  0  0  0  # atno 17394 bound_to 11000
  139.9660  134.7373  156.0138 LP  0  0  0  0  0  0  0  0  0  0  0  0  # atno 17395 bound_to 11000

$$$$
