#       Name:                AV-unprocessed.smi:3165
#       Creating user name   scv26
#       Creation time:       Fri Mar 27 17:52:08 2020


#       File generated by GOLD software.
#

@<TRIPOS>MOLECULE
AV-unprocessed.smi:3165
    41    42     1
SMALL
NO_CHARGES


@<TRIPOS>ATOM
      1 ****        -2.4898  -1.9142   1.6434 C.3            1 S1                 0.0000
      2 ****        -2.1970  -0.5794   0.9402 C.3            1 S1                 0.0000
      3 ****        -2.7321  -0.5497  -0.5143 C.3            1 S1                 0.0000
      4 ****        -2.1504  -1.5638  -1.3797 N.pl3          1 S1                 0.0000
      5 ****        -2.6122  -2.8370  -1.6416 C.2            1 S1                 0.0000
      6 ****        -1.7391  -3.4153  -2.5176 C.2            1 S1                 0.0000
      7 ****        -0.7647  -2.4030  -2.7408 C.2            1 S1                 0.0000
      8 ****        -1.0168  -1.2951  -2.0638 N.2            1 S1                 0.0000
      9 ****        -0.7624  -0.2858   1.0343 N.3            1 S1                 0.0000
     10 ****        -0.3504   1.0315   0.5510 C.3            1 S1                 0.0000
     11 ****         1.1454   1.2674   0.8021 C.3            1 S1                 0.0000
     12 ****         1.5332   2.7405   0.5683 C.3            1 S1                 0.0000
     13 ****         3.0451   2.9347   0.7303 C.3            1 S1                 0.0000
     14 ****         3.7928   1.9410  -0.1650 C.3            1 S1                 0.0000
     15 ****         3.2905   0.5111   0.0891 C.3            1 S1                 0.0000
     16 ****         1.8815   0.4518  -0.1081 O.3            1 S1                 0.0000
     17 ****        -3.5506  -2.1606   1.5911 H              1 S1                 0.0000
     18 ****        -2.2163  -1.8685   2.6979 H              1 S1                 0.0000
     19 ****        -1.9333  -2.7380   1.1956 H              1 S1                 0.0000
     20 ****        -2.7368   0.1903   1.4930 H              1 S1                 0.0000
     21 ****        -3.8110  -0.7078  -0.5004 H              1 S1                 0.0000
     22 ****        -2.5922   0.4296  -0.9725 H              1 S1                 0.0000
     23 ****        -3.5124  -3.2212  -1.1849 H              1 S1                 0.0000
     24 ****        -1.7889  -4.4095  -2.9356 H              1 S1                 0.0000
     25 ****         0.1106  -2.4388  -3.3725 H              1 S1                 0.0000
     26 ****        -0.4484  -0.4121   1.9911 H              1 S1                 0.0000
     27 ****        -0.5598   1.1462  -0.5122 H              1 S1                 0.0000
     28 ****        -0.9251   1.7992   1.0704 H              1 S1                 0.0000
     29 ****         1.3894   0.9883   1.8291 H              1 S1                 0.0000
     30 ****         1.2330   3.0439  -0.4357 H              1 S1                 0.0000
     31 ****         0.9986   3.3886   1.2633 H              1 S1                 0.0000
     32 ****         3.3271   3.9580   0.4811 H              1 S1                 0.0000
     33 ****         3.3265   2.7752   1.7721 H              1 S1                 0.0000
     34 ****         3.6350   2.2006  -1.2124 H              1 S1                 0.0000
     35 ****         4.8662   2.0030   0.0151 H              1 S1                 0.0000
     36 ****         3.7715  -0.1826  -0.6006 H              1 S1                 0.0000
     37 ****         3.5419   0.1819   1.0984 H              1 S1                 0.0000
     38 ****        -0.4864  -0.4474  -2.0593 LP             1 S1                 0.0000
     39 ****        -0.3252  -0.9375   0.4144 LP             1 S1                 0.0000
     40 ****         1.6791   0.7545  -1.0394 LP             1 S1                 0.0000
     41 ****         1.5855  -0.4966   0.0059 LP             1 S1                 0.0000
@<TRIPOS>BOND
    1    1    2 1     
    2    1   17 1     
    3    1   18 1     
    4    1   19 1     
    5    2    3 1     
    6    2    9 1     
    7    2   20 1     
    8    3    4 1     
    9    3   21 1     
   10    3   22 1     
   11    4    8 1     
   12    4    5 1     
   13    5    6 2     
   14    5   23 1     
   15    6    7 1     
   16    6   24 1     
   17    7    8 2     
   18    7   25 1     
   19    9   10 1     
   20    9   26 1     
   21   10   11 1     
   22   10   27 1     
   23   10   28 1     
   24   11   16 1     
   25   11   12 1     
   26   11   29 1     
   27   12   13 1     
   28   12   30 1     
   29   12   31 1     
   30   13   14 1     
   31   13   32 1     
   32   13   33 1     
   33   14   15 1     
   34   14   34 1     
   35   14   35 1     
   36   15   16 1     
   37   15   36 1     
   38   15   37 1     
   39    8   38 1     
   40    9   39 1     
   41   16   40 1     
   42   16   41 1     
@<TRIPOS>SUBSTRUCTURE
      1 S1             1
@<TRIPOS>SET
LONE_PAIRS      STATIC     ATOMS    <user>   **** ""
4 38 39 40 41
DONOR_HYDROGENS      STATIC     ATOMS    <user>   **** ""
1 26
ATOM$BLUE        STATIC     ATOMS    COLORGROUP SYSTEM
4 38 39 40 41
ATOM$RED        STATIC     ATOMS    COLORGROUP SYSTEM
1 26
