#       Name:                AV-unprocessed.smi:1433
#       Creating user name   scv26
#       Creation time:       Fri Mar 27 05:51:07 2020


#       File generated by GOLD software.
#

@<TRIPOS>MOLECULE
AV-unprocessed.smi:1433
    50    51     1
SMALL
NO_CHARGES


@<TRIPOS>ATOM
      1 ****        -0.1200  -4.3575  -2.5410 C.3            1 S1                 0.0000
      2 ****        -0.5954  -2.9026  -2.4591 C.3            1 S1                 0.0000
      3 ****         0.0158  -2.1587  -1.2557 C.3            1 S1                 0.0000
      4 ****        -0.5221  -0.7743  -1.1527 N.4            1 S1                 1.0000
      5 ****         0.0401   0.0702  -0.0476 C.3            1 S1                 0.0000
      6 ****        -0.1166   1.5669  -0.4019 C.3            1 S1                 0.0000
      7 ****         1.5160  -0.2620   0.3078 C.3            1 S1                 0.0000
      8 ****         2.0307   0.5693   1.3925 N.am           1 S1                 0.0000
      9 ****         2.9137   1.5720   1.2563 C.2            1 S1                 0.0000
     10 ****         3.4372   1.8747   0.1845 O.2            1 S1                 0.0000
     11 ****         3.2467   2.3666   2.5207 C.3            1 S1                 0.0000
     12 ****         2.0778   3.0621   3.0324 N.pl3          1 S1                 0.0000
     13 ****         1.2583   2.7039   4.0826 C.2            1 S1                 0.0000
     14 ****         0.2865   3.6577   4.1842 C.2            1 S1                 0.0000
     15 ****         0.6002   4.5726   3.1408 C.2            1 S1                 0.0000
     16 ****         1.6719   4.2136   2.4532 N.2            1 S1                 0.0000
     17 ****        -2.0092  -0.8236  -1.1316 C.3            1 S1                 0.0000
     18 ****        -2.5560  -1.5940  -2.3472 C.3            1 S1                 0.0000
     19 ****        -4.0838  -1.7130  -2.3173 C.3            1 S1                 0.0000
     20 ****        -2.0116  -2.9068  -2.3407 O.3            1 S1                 0.0000
     21 ****         0.9639  -4.4115  -2.6461 H              1 S1                 0.0000
     22 ****        -0.5619  -4.8645  -3.3992 H              1 S1                 0.0000
     23 ****        -0.3978  -4.9150  -1.6462 H              1 S1                 0.0000
     24 ****        -0.3146  -2.3960  -3.3843 H              1 S1                 0.0000
     25 ****        -0.1894  -2.6998  -0.3304 H              1 S1                 0.0000
     26 ****         1.0961  -2.1439  -1.3963 H              1 S1                 0.0000
     27 ****        -0.5489  -0.1289   0.8493 H              1 S1                 0.0000
     28 ****         0.1843   2.2118   0.4236 H              1 S1                 0.0000
     29 ****        -1.1443   1.8407  -0.6326 H              1 S1                 0.0000
     30 ****         0.4950   1.8305  -1.2653 H              1 S1                 0.0000
     31 ****         1.6030  -1.2890   0.6620 H              1 S1                 0.0000
     32 ****         2.1477  -0.1827  -0.5787 H              1 S1                 0.0000
     33 ****         1.6598   0.3933   2.3151 H              1 S1                 0.0000
     34 ****         3.6265   1.6931   3.2901 H              1 S1                 0.0000
     35 ****         4.0320   3.0952   2.3138 H              1 S1                 0.0000
     36 ****         1.4323   1.8095   4.6626 H              1 S1                 0.0000
     37 ****        -0.5241   3.6976   4.8964 H              1 S1                 0.0000
     38 ****         0.0845   5.4804   2.8643 H              1 S1                 0.0000
     39 ****        -2.3419  -1.3022  -0.2089 H              1 S1                 0.0000
     40 ****        -2.4330   0.1790  -1.1343 H              1 S1                 0.0000
     41 ****        -2.2662  -1.0853  -3.2684 H              1 S1                 0.0000
     42 ****        -4.5549  -0.7298  -2.3311 H              1 S1                 0.0000
     43 ****        -4.4227  -2.2342  -1.4214 H              1 S1                 0.0000
     44 ****        -4.4485  -2.2676  -3.1823 H              1 S1                 0.0000
     45 ****        -0.2564  -0.3167  -2.0132 H              1 S1                 0.0000
     46 ****         3.2109   1.3633  -0.6445 LP             1 S1                 0.0000
     47 ****         4.0889   2.6320   0.1426 LP             1 S1                 0.0000
     48 ****         2.0886   4.6883   1.6780 LP             1 S1                 0.0000
     49 ****        -2.2615  -3.3546  -1.4821 LP             1 S1                 0.0000
     50 ****        -2.3972  -3.4189  -3.1082 LP             1 S1                 0.0000
@<TRIPOS>BOND
    1    1    2 1     
    2    1   21 1     
    3    1   22 1     
    4    1   23 1     
    5    2   20 1     
    6    2    3 1     
    7    2   24 1     
    8    3    4 1     
    9    3   25 1     
   10    3   26 1     
   11    4    5 1     
   12    4   17 1     
   13    4   45 1     
   14    5    6 1     
   15    5    7 1     
   16    5   27 1     
   17    6   28 1     
   18    6   29 1     
   19    6   30 1     
   20    7    8 1     
   21    7   31 1     
   22    7   32 1     
   23    8    9 am    
   24    8   33 1     
   25    9   10 2     
   26    9   11 1     
   27   11   12 1     
   28   11   34 1     
   29   11   35 1     
   30   12   16 1     
   31   12   13 1     
   32   13   14 2     
   33   13   36 1     
   34   14   15 1     
   35   14   37 1     
   36   15   16 2     
   37   15   38 1     
   38   17   18 1     
   39   17   39 1     
   40   17   40 1     
   41   18   19 1     
   42   18   20 1     
   43   18   41 1     
   44   19   42 1     
   45   19   43 1     
   46   19   44 1     
   47   10   46 1     
   48   10   47 1     
   49   16   48 1     
   50   20   49 1     
   51   20   50 1     
@<TRIPOS>SUBSTRUCTURE
      1 S1             1
@<TRIPOS>SET
LONE_PAIRS      STATIC     ATOMS    <user>   **** ""
5 46 47 48 49 50
DONOR_HYDROGENS      STATIC     ATOMS    <user>   **** ""
2 45 33
ATOM$BLUE        STATIC     ATOMS    COLORGROUP SYSTEM
5 46 47 48 49 50
ATOM$RED        STATIC     ATOMS    COLORGROUP SYSTEM
2 45 33
