AV-unprocessed.smi:2780|AV-procd|sdf|10714|dock2
  -GOLD-   2272015153D 1   1.00000     0.00000
 Structure written by MMmdl.
 47 49  0  0  0  0  0  0  0  0  2 V2000
  150.8700  145.3721  158.8905 C   0  0  0  0  0  0  0  0  0  0  0  0
  151.5103  144.2736  159.7232 C   0  0  0  0  0  0  0  0  0  0  0  0
  151.7036  144.4629  161.0425 C   0  0  0  0  0  0  0  0  0  0  0  0
  152.3931  143.4742  161.9539 C   0  0  0  0  0  0  0  0  0  0  0  0
  153.2659  142.5051  161.1534 C   0  0  0  0  0  0  0  0  0  0  0  0
  152.4921  141.8932  159.9740 C   0  0  2  0  0  0  0  0  0  0  0  0
  153.3854  140.8613  159.2579 C   0  0  0  0  0  0  0  0  0  0  0  0
  151.9367  142.9789  159.0008 C   0  0  1  0  0  0  0  0  0  0  0  0
  150.8047  142.3803  158.1239 C   0  0  0  0  0  0  0  0  0  0  0  0
  150.6032  143.1207  156.8613 N   0  3  0  0  0  0  0  0  0  0  0  0
  150.2237  142.2705  155.7172 C   0  0  0  0  0  0  0  0  0  0  0  0
  149.2669  141.1544  156.1572 C   0  0  0  0  0  0  0  0  0  0  0  0
  149.3524  140.0001  155.2813 N   0  0  0  0  0  0  0  0  0  0  0  0
  148.3510  139.3103  154.7135 C   0  0  0  0  0  0  0  0  0  0  0  0
  148.7325  138.2972  153.9375 N   0  0  0  0  0  0  0  0  0  0  0  0
  150.1119  138.3210  153.9890 N   0  0  0  0  0  0  0  0  0  0  0  0
  150.4251  139.3356  154.8033 C   0  0  0  0  0  0  0  0  0  0  0  0
  151.8299  139.7446  155.1133 C   0  0  0  0  0  0  0  0  0  0  0  0
  153.0027  139.1654  154.3529 C   0  0  0  0  0  0  0  0  0  0  0  0
  152.7878  138.7938  155.7968 C   0  0  0  0  0  0  0  0  0  0  0  0
  151.4780  145.5903  158.0123 H   0  0  0  0  0  0  0  0  0  0  0  0
  150.7731  146.2963  159.4615 H   0  0  0  0  0  0  0  0  0  0  0  0
  149.8693  145.0844  158.5688 H   0  0  0  0  0  0  0  0  0  0  0  0
  151.3682  145.3769  161.5115 H   0  0  0  0  0  0  0  0  0  0  0  0
  153.0088  144.0176  162.6713 H   0  0  0  0  0  0  0  0  0  0  0  0
  151.6352  142.9359  162.5240 H   0  0  0  0  0  0  0  0  0  0  0  0
  154.1448  143.0322  160.7790 H   0  0  0  0  0  0  0  0  0  0  0  0
  153.6362  141.7218  161.8161 H   0  0  0  0  0  0  0  0  0  0  0  0
  151.6432  141.3563  160.4005 H   0  0  0  0  0  0  0  0  0  0  0  0
  154.2510  141.3396  158.7986 H   0  0  0  0  0  0  0  0  0  0  0  0
  152.8544  140.3191  158.4771 H   0  0  0  0  0  0  0  0  0  0  0  0
  153.7590  140.1158  159.9604 H   0  0  0  0  0  0  0  0  0  0  0  0
  152.7581  143.2717  158.3448 H   0  0  0  0  0  0  0  0  0  0  0  0
  151.0202  141.3479  157.8535 H   0  0  0  0  0  0  0  0  0  0  0  0
  149.8729  142.3591  158.6910 H   0  0  0  0  0  0  0  0  0  0  0  0
  149.8724  143.8025  157.0079 H   0  0  0  0  0  0  0  0  0  0  0  0
  149.7563  142.8884  154.9501 H   0  0  0  0  0  0  0  0  0  0  0  0
  151.1251  141.8398  155.2788 H   0  0  0  0  0  0  0  0  0  0  0  0
  149.5045  140.8301  157.1713 H   0  0  0  0  0  0  0  0  0  0  0  0
  148.2377  141.5141  156.1765 H   0  0  0  0  0  0  0  0  0  0  0  0
  147.3111  139.5586  154.8691 H   0  0  0  0  0  0  0  0  0  0  0  0
  151.8719  140.7972  155.3865 H   0  0  0  0  0  0  0  0  0  0  0  0
  152.7979  138.4023  153.6042 H   0  0  0  0  0  0  0  0  0  0  0  0
  153.8299  139.8334  154.1227 H   0  0  0  0  0  0  0  0  0  0  0  0
  153.4717  139.2128  156.5319 H   0  0  0  0  0  0  0  0  0  0  0  0
  152.4478  137.7804  155.9993 H   0  0  0  0  0  0  0  0  0  0  0  0
  151.4583  143.6081  156.6345 H   0  0  0  0  0  0  0  0  0  0  0  0
  1  2  1  0  0  0  0
  1 21  1  0  0  0  0
  1 22  1  0  0  0  0
  1 23  1  0  0  0  0
  2  8  1  0  0  0  0
  2  3  2  0  0  0  0
  3  4  1  0  0  0  0
  3 24  1  0  0  0  0
  4  5  1  0  0  0  0
  4 25  1  0  0  0  0
  4 26  1  0  0  0  0
  5  6  1  0  0  0  0
  5 27  1  0  0  0  0
  5 28  1  0  0  0  0
  6  7  1  0  0  0  0
  6  8  1  0  0  0  0
  6 29  1  0  0  0  0
  7 30  1  0  0  0  0
  7 31  1  0  0  0  0
  7 32  1  0  0  0  0
  8  9  1  0  0  0  0
  8 33  1  0  0  0  0
  9 10  1  0  0  0  0
  9 34  1  0  0  0  0
  9 35  1  0  0  0  0
 10 11  1  0  0  0  0
 10 36  1  0  0  0  0
 10 47  1  0  0  0  0
 11 12  1  0  0  0  0
 11 37  1  0  0  0  0
 11 38  1  0  0  0  0
 12 13  1  0  0  0  0
 12 39  1  0  0  0  0
 12 40  1  0  0  0  0
 13 17  1  0  0  0  0
 13 14  1  0  0  0  0
 14 15  2  0  0  0  0
 14 41  1  0  0  0  0
 15 16  1  0  0  0  0
 16 17  2  0  0  0  0
 17 18  1  0  0  0  0
 18 20  1  0  0  0  0
 18 19  1  0  0  0  0
 18 42  1  0  0  0  0
 19 20  1  0  0  0  0
 19 43  1  0  0  0  0
 19 44  1  0  0  0  0
 20 45  1  0  0  0  0
 20 46  1  0  0  0  0
M  CHG  1  10   1
M  END
> <s_m_source_file>
AV-unprocessed.smi

> <i_m_source_file_index>
2780

> <i_lp_mmshare_version>
43012

> <i_f3d_flags>
0

> <s_epik_input>
W0NIM11DMT1bQ0hdW0NIMl1bQ0gyXVtDQEBIXShbQ0gzXSlbQ0BIXTFbQ0gyXVtOSF1bQ0gyXVtDSDJdbjJbY0hdbm5jMltDSF0zW0NIMl1bQ0gyXTM=

> <s_epik_cmdline>
J2VwaWtfcHl0aG9uJywgJy1waCcsICc3LjAnLCAnLXRuJywgJzgnLCAnLW1hJywgJzIwMCcsICctbWV0YWxfYmluZGluZycsICctaW1hZScsICc8aW5maWxlLm1hZT4nLCAnLW9tYWUnLCAnPG91dGZpbGUubWFlPic=

> <r_lp_tautomer_probability>
1

> <r_epik_Ionization_Penalty>
0.00176214

> <r_epik_Ionization_Penalty_Charging>
0.00175191

> <r_epik_Ionization_Penalty_Neutral>
1.02377e-05

> <r_epik_State_Penalty>
-0

> <r_epik_Charging_Adjusted_Penalty>
0.00175191

> <i_epik_Tot_Q>
1

> <i_epik_Tot_abs_Q>
1

> <r_epik_Metal_State_Penalty>
-0

> <b_epik_Metal_Only>
0

> <s_lp_Force_Field>
OPLS_2005

> <r_lp_Energy>
22.2191

> <b_lp_Chiralities_Consistent>
1

> <s_lp_Variant>
AV-unprocessed.smi:2780-2

> <Gold.Version>
5.8.1

> <Gold.Id.Protein>
6NUR|6NUR_protein|mol2

> <Gold.PLP.Fitness>
47.8769

> <Gold.PLP.PLP>
-44.5240

> <Gold.PLP.part.hbond>
-1.0000

> <Gold.PLP.part.metal>
0.0000

> <Gold.PLP.part.buried>
-4.5713

> <Gold.PLP.part.nonpolar>
-40.0355

> <Gold.PLP.part.repulsive>
2.1960

> <Gold.PLP.ligand.clash>
0.0000

> <Gold.PLP.ligand.torsion>
0.9307

> <Gold.PLP.Chemscore.Hbond>
1.6224

> <Gold.PLP.Chemscore.CHOScore>
0.0000

> <Gold.PLP.Chemscore.Metal>
0.0000

> <Gold.Chemscore.Hbonds>
donor molecule, donor type, donor heavy atom, donor atom, acceptor molecule, acceptor atom, score
      L1  H    10    36       P1  8028  1.09

> <Gold.PLP.Chemscore.Internal.Correction>
0.3470

> <Gold.Rescore>
     Score         DG    S(hbond)    S(metal)    S(lipo)     H(rot)  DE(clash)    DE(int)     intcor
     16.68     -18.69       0.87        0.00     131.54       1.98       1.23       0.78       ----

> <Gold.Chemscore.Fitness>
16.6767

> <Gold.Chemscore.DG>
-18.6923

> <Gold.Chemscore.ZeroCoef>
-5.4800

> <Gold.Chemscore.Hbond>
0.8655

> <Gold.Chemscore.Metal>
0.0000

> <Gold.Chemscore.Lipo>
131.5394

> <Gold.Chemscore.Internal_Hbond>
0.0000

> <Gold.Chemscore.DEClash>
1.2330

> <Gold.Chemscore.DEInternal>
0.7825

> <Gold.Chemscore.Rot>
1.9799

> <Gold.Chemscore.Internal.Correction>
   9.000000E+99

> <Gold.Chemscore.Hbonds>
donor molecule, donor type, donor heavy atom, donor atom, acceptor molecule, acceptor atom, score
      L1  H    10    36       P1  8028  0.54

> <Gold.Chemscore.Hbond.Weighted>
-2.8907

> <Gold.Chemscore.Metal.Weighted>
-0.0000

> <Gold.Chemscore.Lipo.Weighted>
-15.3901

> <Gold.Chemscore.Internal_Hbond.Weighted>
0.0000

> <Gold.Chemscore.DEClash.Weighted>
1.2330

> <Gold.Chemscore.DEInternal.Weighted>
0.7825

> <Gold.Chemscore.Rot.Weighted>
5.0685

> <Gold.Chemscore.Internal.Correction.Weighted>
   9.000000E+99

> <Gold.Protein.RotatedTorsions>
[ 6907 6896 6895 6894 ] final   26.54 input  -60.11 | X-H torsion
[ 7974 7965 7964 7962 ] final  138.01 input  175.53 | X-H torsion
[ 8008 7997 7996 7995 ] final -124.74 input   59.86 | X-H torsion
[ 10167 10162 10161 10158 ] final   50.64 input  -65.29 | X-H torsion
[ 10718 10713 10712 10709 ] final -157.45 input   66.30 | X-H torsion
[ 10763 10752 10751 10750 ] final  -85.04 input  -60.55 | X-H torsion
[ 11005 11000 10999 10996 ] final   62.91 input  -57.11 | X-H torsion

> <Gold.Protein.ActiveResidues>
 VAL166  LYS551  ARG553  GLY616  TRP617  ASP618  TYR619  PRO620  LYS621  CYS622 
 ASP623  PHE694  ASN695  SER759  ASP760  ASP761  ALA762  ILE779  LEU786  VAL792 
 PHE793  MET794  SER795  GLU796  ALA797  LYS798  CYS799  TRP800  GLU811  SER814 

> <Gold.Protein.RotatedAtoms>
  151.9889  134.9989  160.0560 H   0  0  0  0  0  0  0  0  0  0  0  0  # atno 6907 bound_to 6896
  152.1627  133.4587  159.4877 H   0  0  0  0  0  0  0  0  0  0  0  0  # atno 6908 bound_to 6896
  150.6890  134.1969  159.4350 H   0  0  0  0  0  0  0  0  0  0  0  0  # atno 6909 bound_to 6896
  144.9413  139.4927  143.5570 H   0  0  0  0  0  0  0  0  0  0  0  0  # atno 7974 bound_to 7965
  155.2019  140.0416  157.2919 H   0  0  0  0  0  0  0  0  0  0  0  0  # atno 8008 bound_to 7997
  154.6069  140.2466  155.7690 H   0  0  0  0  0  0  0  0  0  0  0  0  # atno 8009 bound_to 7997
  156.2356  140.2923  156.0312 H   0  0  0  0  0  0  0  0  0  0  0  0  # atno 8010 bound_to 7997
  140.2703  144.3273  150.6292 H   0  0  0  0  0  0  0  0  0  0  0  0  # atno 10167 bound_to 10162
  156.5405  130.8561  151.2747 H   0  0  0  0  0  0  0  0  0  0  0  0  # atno 10718 bound_to 10713
  154.6065  135.5499  153.7428 H   0  0  0  0  0  0  0  0  0  0  0  0  # atno 10763 bound_to 10752
  153.0176  135.6379  154.1640 H   0  0  0  0  0  0  0  0  0  0  0  0  # atno 10764 bound_to 10752
  154.1578  135.2899  155.3097 H   0  0  0  0  0  0  0  0  0  0  0  0  # atno 10765 bound_to 10752
  140.0060  134.6369  155.9854 H   0  0  0  0  0  0  0  0  0  0  0  0  # atno 11005 bound_to 11000
  146.3287  139.8434  142.8886 LP  0  0  0  0  0  0  0  0  0  0  0  0  # atno 17320 bound_to 7965
  145.2987  141.0188  143.3621 LP  0  0  0  0  0  0  0  0  0  0  0  0  # atno 17321 bound_to 7965
  140.5895  143.2168  151.7280 LP  0  0  0  0  0  0  0  0  0  0  0  0  # atno 17342 bound_to 10162
  139.4991  144.3961  152.0230 LP  0  0  0  0  0  0  0  0  0  0  0  0  # atno 17343 bound_to 10162
  157.7406  130.9853  150.2389 LP  0  0  0  0  0  0  0  0  0  0  0  0  # atno 17370 bound_to 10713
  156.2976  130.3754  149.7781 LP  0  0  0  0  0  0  0  0  0  0  0  0  # atno 17371 bound_to 10713
  141.1677  133.6537  156.4539 LP  0  0  0  0  0  0  0  0  0  0  0  0  # atno 17394 bound_to 11000
  140.4640  134.6815  157.5099 LP  0  0  0  0  0  0  0  0  0  0  0  0  # atno 17395 bound_to 11000

$$$$
