AV-unprocessed.smi:1560|AV-procd|sdf|6277|dock1
  -GOLD-   22720 6473D 1   1.00000     0.00000
 Structure written by MMmdl.
 48 49  0  0  0  0  0  0  0  0  2 V2000
  144.2378  143.9207  155.7376 C   0  0  0  0  0  0  0  0  0  0  0  0
  144.4737  142.4449  155.3692 C   0  0  0  0  0  0  0  0  0  0  0  0
  145.9283  142.0797  154.9381 C   0  0  1  0  0  0  0  0  0  0  0  0
  146.3538  143.1009  153.8498 C   0  0  0  0  0  0  0  0  0  0  0  0
  146.8953  142.2116  156.1572 C   0  0  0  0  0  0  0  0  0  0  0  0
  148.2996  142.3499  155.7743 N   0  0  0  0  0  0  0  0  0  0  0  0
  149.2057  141.3607  155.7474 C   0  0  0  0  0  0  0  0  0  0  0  0
  148.9345  140.1875  156.0056 O   0  0  0  0  0  0  0  0  0  0  0  0
  150.6379  141.7618  155.3710 C   0  0  0  0  0  0  0  0  0  0  0  0
  151.4628  142.0542  156.5518 N   0  0  0  0  0  0  0  0  0  0  0  0
  151.2465  143.2072  157.2931 C   0  0  0  0  0  0  0  0  0  0  0  0
  151.9749  143.5385  158.3855 C   0  0  0  0  0  0  0  0  0  0  0  0
  153.0541  142.6708  158.8453 C   0  0  0  0  0  0  0  0  0  0  0  0
  153.7680  142.8842  159.8227 O   0  0  0  0  0  0  0  0  0  0  0  0
  153.2423  141.5219  158.0723 N   0  0  0  0  0  0  0  0  0  0  0  0
  152.4960  141.1746  156.9452 C   0  0  0  0  0  0  0  0  0  0  0  0
  152.7478  140.1377  156.3317 O   0  0  0  0  0  0  0  0  0  0  0  0
  145.9611  140.6773  154.3826 N   0  3  0  0  0  0  0  0  0  0  0  0
  147.1327  140.3376  153.5260 C   0  0  0  0  0  0  0  0  0  0  0  0
  146.9407  138.9586  152.8719 C   0  0  0  0  0  0  0  0  0  0  0  0
  146.7401  137.9719  153.8741 O   0  0  0  0  0  0  0  0  0  0  0  0
  145.5757  138.2342  154.6442 C   0  0  0  0  0  0  0  0  0  0  0  0
  145.7322  139.5816  155.3670 C   0  0  0  0  0  0  0  0  0  0  0  0
  153.9800  140.8918  158.3520 H   0  0  0  0  0  0  0  0  0  0  0  0
  143.1985  144.0769  156.0276 H   0  0  0  0  0  0  0  0  0  0  0  0
  144.4432  144.5885  154.9012 H   0  0  0  0  0  0  0  0  0  0  0  0
  144.8564  144.2325  156.5786 H   0  0  0  0  0  0  0  0  0  0  0  0
  144.1881  141.8493  156.2362 H   0  0  0  0  0  0  0  0  0  0  0  0
  143.7621  142.1545  154.5967 H   0  0  0  0  0  0  0  0  0  0  0  0
  146.1210  144.1250  154.1442 H   0  0  0  0  0  0  0  0  0  0  0  0
  145.8484  142.9178  152.9013 H   0  0  0  0  0  0  0  0  0  0  0  0
  147.4274  143.0753  153.6610 H   0  0  0  0  0  0  0  0  0  0  0  0
  146.6108  143.0471  156.7973 H   0  0  0  0  0  0  0  0  0  0  0  0
  146.8366  141.3240  156.7863 H   0  0  0  0  0  0  0  0  0  0  0  0
  148.6153  143.2800  155.5390 H   0  0  0  0  0  0  0  0  0  0  0  0
  151.0740  140.9500  154.7870 H   0  0  0  0  0  0  0  0  0  0  0  0
  150.6298  142.6263  154.7035 H   0  0  0  0  0  0  0  0  0  0  0  0
  150.4598  143.8829  156.9880 H   0  0  0  0  0  0  0  0  0  0  0  0
  151.7586  144.4513  158.9214 H   0  0  0  0  0  0  0  0  0  0  0  0
  147.2716  141.0624  152.7261 H   0  0  0  0  0  0  0  0  0  0  0  0
  148.0463  140.3339  154.1209 H   0  0  0  0  0  0  0  0  0  0  0  0
  146.0959  138.9698  152.1812 H   0  0  0  0  0  0  0  0  0  0  0  0
  147.8233  138.6938  152.2893 H   0  0  0  0  0  0  0  0  0  0  0  0
  144.6902  138.2324  154.0065 H   0  0  0  0  0  0  0  0  0  0  0  0
  145.4468  137.4314  155.3703 H   0  0  0  0  0  0  0  0  0  0  0  0
  146.5688  139.5148  156.0626 H   0  0  0  0  0  0  0  0  0  0  0  0
  144.8355  139.7532  155.9591 H   0  0  0  0  0  0  0  0  0  0  0  0
  145.1664  140.6403  153.7600 H   0  0  0  0  0  0  0  0  0  0  0  0
  1  2  1  0  0  0  0
  1 25  1  0  0  0  0
  1 26  1  0  0  0  0
  1 27  1  0  0  0  0
  2  3  1  0  0  0  0
  2 28  1  0  0  0  0
  2 29  1  0  0  0  0
  3  4  1  0  0  0  0
  3  5  1  0  0  0  0
  3 18  1  0  0  0  0
  4 30  1  0  0  0  0
  4 31  1  0  0  0  0
  4 32  1  0  0  0  0
  5  6  1  0  0  0  0
  5 33  1  0  0  0  0
  5 34  1  0  0  0  0
  6  7  1  0  0  0  0
  6 35  1  0  0  0  0
  7  8  2  0  0  0  0
  7  9  1  0  0  0  0
  9 10  1  0  0  0  0
  9 36  1  0  0  0  0
  9 37  1  0  0  0  0
 10 16  1  0  0  0  0
 10 11  1  0  0  0  0
 11 12  2  0  0  0  0
 11 38  1  0  0  0  0
 12 13  1  0  0  0  0
 12 39  1  0  0  0  0
 13 14  2  0  0  0  0
 13 15  1  0  0  0  0
 15 24  1  0  0  0  0
 15 16  1  0  0  0  0
 16 17  2  0  0  0  0
 18 23  1  0  0  0  0
 18 19  1  0  0  0  0
 18 48  1  0  0  0  0
 19 20  1  0  0  0  0
 19 40  1  0  0  0  0
 19 41  1  0  0  0  0
 20 21  1  0  0  0  0
 20 42  1  0  0  0  0
 20 43  1  0  0  0  0
 21 22  1  0  0  0  0
 22 23  1  0  0  0  0
 22 44  1  0  0  0  0
 22 45  1  0  0  0  0
 23 46  1  0  0  0  0
 23 47  1  0  0  0  0
M  CHG  1  18   1
M  END
> <s_m_source_file>
AV-unprocessed.smi

> <i_m_source_file_index>
1560

> <i_lp_mmshare_version>
43012

> <i_f3d_flags>
0

> <s_epik_input>
W0NIMl0xW0NIMl1PW0NIMl1bQ0gyXU4xW0NAQF0oW0NIM10pKFtDSDJdW0NIM10pW0NIMl1bTkhdQyg9TylbQ0gyXW4yW2NIXVtjSF1jKD1PKVtuSF1jMj1P

> <s_epik_cmdline>
J2VwaWtfcHl0aG9uJywgJy1waCcsICc3LjAnLCAnLXRuJywgJzgnLCAnLW1hJywgJzIwMCcsICctbWV0YWxfYmluZGluZycsICctaW1hZScsICc8aW5maWxlLm1hZT4nLCAnLW9tYWUnLCAnPG91dGZpbGUubWFlPic=

> <r_lp_tautomer_probability>
0.999537

> <r_epik_Ionization_Penalty>
0.523885

> <r_epik_Ionization_Penalty_Charging>
0.523885

> <r_epik_Ionization_Penalty_Neutral>
8.70177e-08

> <r_epik_State_Penalty>
0.572334

> <r_epik_Charging_Adjusted_Penalty>
1.09622

> <i_epik_Tot_Q>
1

> <i_epik_Tot_abs_Q>
1

> <r_epik_Metal_State_Penalty>
0.938906

> <b_epik_Metal_Only>
0

> <s_lp_Force_Field>
OPLS_2005

> <r_lp_Energy>
27.5913

> <b_lp_Chiralities_Consistent>
1

> <s_lp_Variant>
AV-unprocessed.smi:1560-3

> <Gold.Version>
5.8.1

> <Gold.Id.Protein>
6NUR|6NUR_protein|mol2

> <Gold.PLP.Fitness>
47.8878

> <Gold.PLP.PLP>
-34.9875

> <Gold.PLP.part.hbond>
-2.9985

> <Gold.PLP.part.metal>
0.0000

> <Gold.PLP.part.buried>
-5.8428

> <Gold.PLP.part.nonpolar>
-25.8189

> <Gold.PLP.part.repulsive>
0.3052

> <Gold.PLP.ligand.clash>
0.0000

> <Gold.PLP.ligand.torsion>
1.2405

> <Gold.PLP.Chemscore.Hbond>
4.0000

> <Gold.PLP.Chemscore.CHOScore>
1.0000

> <Gold.PLP.Chemscore.Metal>
0.0000

> <Gold.Chemscore.Hbonds>
donor molecule, donor type, donor heavy atom, donor atom, acceptor molecule, acceptor atom, score
      L1  H     6    35       P1  8028  0.81
      L1  H    18    48       P1 10175  2.00
      P1  H  7997  8008       L1    17  1.00
      L1  C    11    38       P1  8028  1.00

> <Gold.PLP.Chemscore.Internal.Correction>
0.3814

> <Gold.Rescore>
     Score         DG    S(hbond)    S(metal)    S(lipo)     H(rot)  DE(clash)    DE(int)     intcor
     14.33     -16.15       2.79        0.00      67.68       2.56       0.37       1.45       ----

> <Gold.Chemscore.Fitness>
14.3330

> <Gold.Chemscore.DG>
-16.1534

> <Gold.Chemscore.ZeroCoef>
-5.4800

> <Gold.Chemscore.Hbond>
2.7895

> <Gold.Chemscore.Metal>
0.0000

> <Gold.Chemscore.Lipo>
67.6814

> <Gold.Chemscore.Internal_Hbond>
0.0000

> <Gold.Chemscore.DEClash>
0.3718

> <Gold.Chemscore.DEInternal>
1.4486

> <Gold.Chemscore.Rot>
2.5634

> <Gold.Chemscore.Internal.Correction>
   9.000000E+99

> <Gold.Chemscore.Hbonds>
donor molecule, donor type, donor heavy atom, donor atom, acceptor molecule, acceptor atom, score
      L1  H     6    35       P1  8028  0.80
      L1  H    18    48       P1 10175  0.96
      P1  H  7997  8008       L1    17  0.25

> <Gold.Chemscore.Hbond.Weighted>
-9.3171

> <Gold.Chemscore.Metal.Weighted>
-0.0000

> <Gold.Chemscore.Lipo.Weighted>
-7.9187

> <Gold.Chemscore.Internal_Hbond.Weighted>
0.0000

> <Gold.Chemscore.DEClash.Weighted>
0.3718

> <Gold.Chemscore.DEInternal.Weighted>
1.4486

> <Gold.Chemscore.Rot.Weighted>
6.5624

> <Gold.Chemscore.Internal.Correction.Weighted>
   9.000000E+99

> <Gold.Protein.RotatedTorsions>
[ 6907 6896 6895 6894 ] final   58.63 input  -60.11 | X-H torsion
[ 7974 7965 7964 7962 ] final  -47.36 input  175.53 | X-H torsion
[ 8008 7997 7996 7995 ] final  -47.97 input   59.86 | X-H torsion
[ 10167 10162 10161 10158 ] final  -92.61 input  -65.29 | X-H torsion
[ 10718 10713 10712 10709 ] final  122.89 input   66.30 | X-H torsion
[ 10763 10752 10751 10750 ] final -107.48 input  -60.55 | X-H torsion
[ 11005 11000 10999 10996 ] final   37.15 input  -57.11 | X-H torsion

> <Gold.Protein.ActiveResidues>
 VAL166  LYS551  ARG553  GLY616  TRP617  ASP618  TYR619  PRO620  LYS621  CYS622 
 ASP623  PHE694  ASN695  SER759  ASP760  ASP761  ALA762  ILE779  LEU786  VAL792 
 PHE793  MET794  SER795  GLU796  ALA797  LYS798  CYS799  TRP800  GLU811  SER814 

> <Gold.Protein.RotatedAtoms>
  152.3842  134.6544  160.0131 H   0  0  0  0  0  0  0  0  0  0  0  0  # atno 6907 bound_to 6896
  151.6798  133.3306  159.3224 H   0  0  0  0  0  0  0  0  0  0  0  0  # atno 6908 bound_to 6896
  150.7772  134.6727  159.6445 H   0  0  0  0  0  0  0  0  0  0  0  0  # atno 6909 bound_to 6896
  145.9624  140.7465  142.9450 H   0  0  0  0  0  0  0  0  0  0  0  0  # atno 7974 bound_to 7965
  154.4023  140.1333  156.4262 H   0  0  0  0  0  0  0  0  0  0  0  0  # atno 8008 bound_to 7997
  155.7595  140.3486  155.5170 H   0  0  0  0  0  0  0  0  0  0  0  0  # atno 8009 bound_to 7997
  155.8873  140.0997  157.1434 H   0  0  0  0  0  0  0  0  0  0  0  0  # atno 8010 bound_to 7997
  140.3331  143.2984  151.9920 H   0  0  0  0  0  0  0  0  0  0  0  0  # atno 10167 bound_to 10162
  157.5707  131.1083  150.8371 H   0  0  0  0  0  0  0  0  0  0  0  0  # atno 10718 bound_to 10713
  154.8077  135.4673  154.0436 H   0  0  0  0  0  0  0  0  0  0  0  0  # atno 10763 bound_to 10752
  153.1891  135.6852  153.8383 H   0  0  0  0  0  0  0  0  0  0  0  0  # atno 10764 bound_to 10752
  153.7907  135.3243  155.3355 H   0  0  0  0  0  0  0  0  0  0  0  0  # atno 10765 bound_to 10752
  140.2254  134.3590  155.7986 H   0  0  0  0  0  0  0  0  0  0  0  0  # atno 11005 bound_to 11000
  144.6818  140.2614  143.7318 LP  0  0  0  0  0  0  0  0  0  0  0  0  # atno 17320 bound_to 7965
  145.8021  139.1968  143.2042 LP  0  0  0  0  0  0  0  0  0  0  0  0  # atno 17321 bound_to 7965
  139.4853  144.6219  151.7239 LP  0  0  0  0  0  0  0  0  0  0  0  0  # atno 17342 bound_to 10162
  140.5379  144.0627  150.6077 LP  0  0  0  0  0  0  0  0  0  0  0  0  # atno 17343 bound_to 10162
  156.8843  130.5190  149.5289 LP  0  0  0  0  0  0  0  0  0  0  0  0  # atno 17370 bound_to 10713
  156.0753  130.5777  150.9462 LP  0  0  0  0  0  0  0  0  0  0  0  0  # atno 17371 bound_to 10713
  141.2221  133.7216  156.8645 LP  0  0  0  0  0  0  0  0  0  0  0  0  # atno 17394 bound_to 11000
  140.1805  134.9036  157.2943 LP  0  0  0  0  0  0  0  0  0  0  0  0  # atno 17395 bound_to 11000

$$$$
