AV-unprocessed.smi:3195|AV-procd|sdf|12220|dock10
  -GOLD-   2272018 53D 1   1.00000     0.00000
 Structure written by MMmdl.
 29 30  0  0  0  0  0  0  0  0  2 V2000
  152.7069  139.0998  154.8485 C   0  0  0  0  0  0  0  0  0  0  0  0
  151.3217  139.4957  155.3881 C   0  0  2  0  0  0  0  0  0  0  0  0
  151.4511  140.6473  156.4092 C   0  0  0  0  0  0  0  0  0  0  0  0
  150.8603  141.7065  156.1924 O   0  0  0  0  0  0  0  0  0  0  0  0
  152.2102  140.4127  157.4970 N   0  0  0  0  0  0  0  0  0  0  0  0
  152.5136  141.2832  158.5802 C   0  0  0  0  0  0  0  0  0  0  0  0
  151.7392  142.3484  158.9079 N   0  0  0  0  0  0  0  0  0  0  0  0
  152.0929  143.1278  159.9503 C   0  0  0  0  0  0  0  0  0  0  0  0
  153.2382  142.8969  160.7320 C   0  0  0  0  0  0  0  0  0  0  0  0
  154.0511  141.7978  160.4048 C   0  0  0  0  0  0  0  0  0  0  0  0
  153.6893  140.9787  159.3163 C   0  0  0  0  0  0  0  0  0  0  0  0
  154.4832  139.9101  158.9976 O   0  5  0  0  0  0  0  0  0  0  0  0
  150.5616  138.2861  155.9828 C   0  0  0  0  0  0  0  0  0  0  0  0
  149.3653  138.0976  155.0663 C   0  0  0  0  0  0  0  0  0  0  0  0
  149.1853  139.4809  154.4627 C   0  0  0  0  0  0  0  0  0  0  0  0
  150.5252  139.9097  154.2728 O   0  0  0  0  0  0  0  0  0  0  0  0
  153.3550  138.7260  155.6420 H   0  0  0  0  0  0  0  0  0  0  0  0
  153.2076  139.9490  154.3815 H   0  0  0  0  0  0  0  0  0  0  0  0
  152.6226  138.3158  154.0953 H   0  0  0  0  0  0  0  0  0  0  0  0
  152.6332  139.4973  157.5581 H   0  0  0  0  0  0  0  0  0  0  0  0
  151.4415  143.9612  160.1671 H   0  0  0  0  0  0  0  0  0  0  0  0
  153.4863  143.5448  161.5592 H   0  0  0  0  0  0  0  0  0  0  0  0
  154.9397  141.5878  160.9822 H   0  0  0  0  0  0  0  0  0  0  0  0
  151.1719  137.3832  156.0284 H   0  0  0  0  0  0  0  0  0  0  0  0
  150.2112  138.4835  156.9975 H   0  0  0  0  0  0  0  0  0  0  0  0
  149.6093  137.3816  154.2805 H   0  0  0  0  0  0  0  0  0  0  0  0
  148.4771  137.7412  155.5884 H   0  0  0  0  0  0  0  0  0  0  0  0
  148.6299  139.4645  153.5250 H   0  0  0  0  0  0  0  0  0  0  0  0
  148.6737  140.1495  155.1571 H   0  0  0  0  0  0  0  0  0  0  0  0
  1  2  1  0  0  0  0
  1 17  1  0  0  0  0
  1 18  1  0  0  0  0
  1 19  1  0  0  0  0
  2 16  1  0  0  0  0
  2  3  1  0  0  0  0
  2 13  1  0  0  0  0
  3  4  2  0  0  0  0
  3  5  1  0  0  0  0
  5 20  1  0  0  0  0
  5  6  1  0  0  0  0
  6 11  2  0  0  0  0
  6  7  1  0  0  0  0
  7  8  2  0  0  0  0
  8 21  1  0  0  0  0
  8  9  1  0  0  0  0
  9 22  1  0  0  0  0
  9 10  2  0  0  0  0
 10 11  1  0  0  0  0
 10 23  1  0  0  0  0
 11 12  1  0  0  0  0
 13 14  1  0  0  0  0
 13 24  1  0  0  0  0
 13 25  1  0  0  0  0
 14 15  1  0  0  0  0
 14 26  1  0  0  0  0
 14 27  1  0  0  0  0
 15 16  1  0  0  0  0
 15 28  1  0  0  0  0
 15 29  1  0  0  0  0
M  CHG  1  12  -1
M  END
> <s_m_source_file>
AV-unprocessed.smi

> <i_m_source_file_index>
3195

> <i_lp_mmshare_version>
43012

> <i_f3d_flags>
0

> <s_epik_input>
TzFbQ0gyXVtDSDJdW0NIMl1bQ0BAXTEoW0NIM10pQyg9TylbTkhdYzJuW2NIXVtjSF1bY0hdYzJbT0hd

> <s_epik_cmdline>
J2VwaWtfcHl0aG9uJywgJy1waCcsICc3LjAnLCAnLXRuJywgJzgnLCAnLW1hJywgJzIwMCcsICctbWV0YWxfYmluZGluZycsICctaW1hZScsICc8aW5maWxlLm1hZT4nLCAnLW9tYWUnLCAnPG91dGZpbGUubWFlPic=

> <r_epik_Ionization_Penalty>
4.16712

> <r_epik_Ionization_Penalty_Charging>
2.09898

> <r_epik_Ionization_Penalty_Neutral>
2.06814

> <r_epik_State_Penalty>
2.6848

> <r_epik_Charging_Adjusted_Penalty>
4.78378

> <i_epik_Tot_Q>
-1

> <i_epik_Tot_abs_Q>
1

> <r_epik_Metal_State_Penalty>
0.595229

> <b_epik_Metal_Only>
0

> <s_lp_Force_Field>
OPLS_2005

> <r_lp_Energy>
19.5699

> <b_lp_Chiralities_Consistent>
1

> <s_lp_Variant>
AV-unprocessed.smi:3195-8

> <Gold.Version>
5.8.1

> <Gold.Id.Protein>
6NUR|6NUR_protein|mol2

> <Gold.PLP.Fitness>
39.6353

> <Gold.PLP.PLP>
-30.9032

> <Gold.PLP.part.hbond>
-2.0000

> <Gold.PLP.part.metal>
0.0000

> <Gold.PLP.part.buried>
-4.8435

> <Gold.PLP.part.nonpolar>
-25.1149

> <Gold.PLP.part.repulsive>
0.3056

> <Gold.PLP.ligand.clash>
0.0000

> <Gold.PLP.ligand.torsion>
0.1505

> <Gold.PLP.Chemscore.Hbond>
3.0000

> <Gold.PLP.Chemscore.CHOScore>
0.0000

> <Gold.PLP.Chemscore.Metal>
0.0000

> <Gold.Chemscore.Hbonds>
donor molecule, donor type, donor heavy atom, donor atom, acceptor molecule, acceptor atom, score
      P1  H  7989  7998       L1    16  1.00
      P1  H  7997  8008       L1    12  2.00

> <Gold.PLP.Chemscore.Internal.Correction>
0.0332

> <Gold.Rescore>
     Score         DG    S(hbond)    S(metal)    S(lipo)     H(rot)  DE(clash)    DE(int)     intcor
     15.19     -16.67       1.55        0.00      73.32       1.00       0.00       1.47       ----

> <Gold.Chemscore.Fitness>
15.1917

> <Gold.Chemscore.DG>
-16.6682

> <Gold.Chemscore.ZeroCoef>
-5.4800

> <Gold.Chemscore.Hbond>
1.5478

> <Gold.Chemscore.Metal>
0.0000

> <Gold.Chemscore.Lipo>
73.3201

> <Gold.Chemscore.Internal_Hbond>
0.0000

> <Gold.Chemscore.DEClash>
0.0038

> <Gold.Chemscore.DEInternal>
1.4727

> <Gold.Chemscore.Rot>
1.0000

> <Gold.Chemscore.Internal.Correction>
   9.000000E+99

> <Gold.Chemscore.Hbonds>
donor molecule, donor type, donor heavy atom, donor atom, acceptor molecule, acceptor atom, score
      P1  H  7989  7998       L1    16  0.25
      P1  H  7997  8008       L1    12  0.63

> <Gold.Chemscore.Hbond.Weighted>
-5.1697

> <Gold.Chemscore.Metal.Weighted>
-0.0000

> <Gold.Chemscore.Lipo.Weighted>
-8.5785

> <Gold.Chemscore.Internal_Hbond.Weighted>
0.0000

> <Gold.Chemscore.DEClash.Weighted>
0.0038

> <Gold.Chemscore.DEInternal.Weighted>
1.4727

> <Gold.Chemscore.Rot.Weighted>
2.5600

> <Gold.Chemscore.Internal.Correction.Weighted>
   9.000000E+99

> <Gold.Protein.RotatedTorsions>
[ 6907 6896 6895 6894 ] final  164.28 input  -60.11 | X-H torsion
[ 7974 7965 7964 7962 ] final -165.63 input  175.53 | X-H torsion
[ 8008 7997 7996 7995 ] final -107.27 input   59.86 | X-H torsion
[ 10167 10162 10161 10158 ] final  -84.75 input  -65.29 | X-H torsion
[ 10718 10713 10712 10709 ] final -175.31 input   66.30 | X-H torsion
[ 10763 10752 10751 10750 ] final -111.48 input  -60.55 | X-H torsion
[ 11005 11000 10999 10996 ] final -147.21 input  -57.11 | X-H torsion

> <Gold.Protein.ActiveResidues>
 VAL166  LYS551  ARG553  GLY616  TRP617  ASP618  TYR619  PRO620  LYS621  CYS622 
 ASP623  PHE694  ASN695  SER759  ASP760  ASP761  ALA762  ILE779  LEU786  VAL792 
 PHE793  MET794  SER795  GLU796  ALA797  LYS798  CYS799  TRP800  GLU811  SER814 

> <Gold.Protein.RotatedAtoms>
  151.9123  133.3564  159.3867 H   0  0  0  0  0  0  0  0  0  0  0  0  # atno 6907 bound_to 6896
  150.7055  134.4719  159.5438 H   0  0  0  0  0  0  0  0  0  0  0  0  # atno 6908 bound_to 6896
  152.2327  134.8306  160.0522 H   0  0  0  0  0  0  0  0  0  0  0  0  # atno 6909 bound_to 6896
  144.7265  140.2785  143.6239 H   0  0  0  0  0  0  0  0  0  0  0  0  # atno 7974 bound_to 7965
  154.9269  140.0406  157.2027 H   0  0  0  0  0  0  0  0  0  0  0  0  # atno 8008 bound_to 7997
  154.8199  140.2882  155.5772 H   0  0  0  0  0  0  0  0  0  0  0  0  # atno 8009 bound_to 7997
  156.2979  140.2521  156.3104 H   0  0  0  0  0  0  0  0  0  0  0  0  # atno 8010 bound_to 7997
  140.4102  143.2626  151.9027 H   0  0  0  0  0  0  0  0  0  0  0  0  # atno 10167 bound_to 10162
  156.7980  130.9542  151.3119 H   0  0  0  0  0  0  0  0  0  0  0  0  # atno 10718 bound_to 10713
  154.8302  135.4526  154.1046 H   0  0  0  0  0  0  0  0  0  0  0  0  # atno 10763 bound_to 10752
  153.2325  135.6907  153.7880 H   0  0  0  0  0  0  0  0  0  0  0  0  # atno 10764 bound_to 10752
  153.7257  135.3335  155.3252 H   0  0  0  0  0  0  0  0  0  0  0  0  # atno 10765 bound_to 10752
  140.7740  134.3156  157.5066 H   0  0  0  0  0  0  0  0  0  0  0  0  # atno 11005 bound_to 11000
  145.7972  139.1950  143.2068 LP  0  0  0  0  0  0  0  0  0  0  0  0  # atno 17320 bound_to 7965
  146.0706  140.7873  142.9690 LP  0  0  0  0  0  0  0  0  0  0  0  0  # atno 17321 bound_to 7965
  139.4783  144.5544  151.8336 LP  0  0  0  0  0  0  0  0  0  0  0  0  # atno 17342 bound_to 10162
  140.4645  144.1674  150.5910 LP  0  0  0  0  0  0  0  0  0  0  0  0  # atno 17343 bound_to 10162
  157.6568  130.8931  149.9745 LP  0  0  0  0  0  0  0  0  0  0  0  0  # atno 17370 bound_to 10713
  156.1118  130.3649  150.0036 LP  0  0  0  0  0  0  0  0  0  0  0  0  # atno 17371 bound_to 10713
  139.8751  134.9278  156.3435 LP  0  0  0  0  0  0  0  0  0  0  0  0  # atno 17394 bound_to 11000
  140.9546  133.7428  156.0319 LP  0  0  0  0  0  0  0  0  0  0  0  0  # atno 17395 bound_to 11000

$$$$
