AV-unprocessed.smi:157|AV-procd|sdf|1320|dock10
  -GOLD-   2262019 13D 1   1.00000     0.00000
 Structure written by MMmdl.
 36 38  0  0  0  0  0  0  0  0  2 V2000
  145.3387  140.3511  154.7218 O   0  0  0  0  0  0  0  0  0  0  0  0
  145.6579  138.9784  154.8048 C   0  0  0  0  0  0  0  0  0  0  0  0
  145.4763  138.2989  153.4381 C   0  0  2  0  0  0  0  0  0  0  0  0
  145.5320  136.8832  153.6031 O   0  0  0  0  0  0  0  0  0  0  0  0
  146.1648  136.2897  152.5080 C   0  0  1  0  0  0  0  0  0  0  0  0
  145.2271  135.2940  151.9051 N   0  0  0  0  0  0  0  0  0  0  0  0
  144.0343  135.5677  151.3358 C   0  0  0  0  0  0  0  0  0  0  0  0
  143.3926  134.5066  150.8769 N   0  3  0  0  0  0  0  0  0  0  0  0
  144.1947  133.4182  151.1471 C   0  0  0  0  0  0  0  0  0  0  0  0
  145.3346  133.9280  151.7745 C   0  0  0  0  0  0  0  0  0  0  0  0
  146.4749  133.2600  152.2474 N   0  0  0  0  0  0  0  0  0  0  0  0
  146.7669  132.0430  151.9203 C   0  0  0  0  0  0  0  0  0  0  0  0
  146.0385  131.1415  151.1619 N   0  0  0  0  0  0  0  0  0  0  0  0
  144.6148  130.9183  151.3400 C   0  0  0  0  0  0  0  0  0  0  0  0
  143.7398  132.0427  150.7713 C   0  0  2  0  0  0  0  0  0  0  0  0
  143.6323  131.8701  149.3733 O   0  0  0  0  0  0  0  0  0  0  0  0
  146.4814  137.3989  151.5052 C   0  0  0  0  0  0  0  0  0  0  0  0
  146.5785  138.6027  152.4173 C   0  0  1  0  0  0  0  0  0  0  0  0
  146.3356  139.7929  151.6960 O   0  0  0  0  0  0  0  0  0  0  0  0
  144.4961  138.5352  153.0191 H   0  0  0  0  0  0  0  0  0  0  0  0
  147.0394  135.7280  152.8375 H   0  0  0  0  0  0  0  0  0  0  0  0
  142.7328  131.9090  151.1683 H   0  0  0  0  0  0  0  0  0  0  0  0
  147.5583  138.6385  152.8962 H   0  0  0  0  0  0  0  0  0  0  0  0
  144.8523  140.4995  153.9250 H   0  0  0  0  0  0  0  0  0  0  0  0
  146.6789  138.8592  155.1693 H   0  0  0  0  0  0  0  0  0  0  0  0
  144.9973  138.5193  155.5405 H   0  0  0  0  0  0  0  0  0  0  0  0
  143.6434  136.5672  151.2656 H   0  0  0  0  0  0  0  0  0  0  0  0
  147.7067  131.6145  152.2716 H   0  0  0  0  0  0  0  0  0  0  0  0
  146.5023  130.3122  150.8187 H   0  0  0  0  0  0  0  0  0  0  0  0
  144.3376  129.9564  150.9073 H   0  0  0  0  0  0  0  0  0  0  0  0
  144.4289  130.8327  152.4116 H   0  0  0  0  0  0  0  0  0  0  0  0
  144.0837  132.5801  148.9436 H   0  0  0  0  0  0  0  0  0  0  0  0
  147.3964  137.1852  150.9520 H   0  0  0  0  0  0  0  0  0  0  0  0
  145.6551  137.5110  150.8003 H   0  0  0  0  0  0  0  0  0  0  0  0
  145.5062  140.1498  151.9772 H   0  0  0  0  0  0  0  0  0  0  0  0
  142.4873  134.5005  150.4245 H   0  0  0  0  0  0  0  0  0  0  0  0
  1  2  1  0  0  0  0
  1 24  1  0  0  0  0
  2  3  1  0  0  0  0
  2 25  1  0  0  0  0
  2 26  1  0  0  0  0
  3 20  1  0  0  0  0
  3 18  1  0  0  0  0
  3  4  1  0  0  0  0
  4  5  1  0  0  0  0
  5 21  1  0  0  0  0
  5  6  1  0  0  0  0
  5 17  1  0  0  0  0
  6 10  1  0  0  0  0
  6  7  1  0  0  0  0
  7  8  2  0  0  0  0
  7 27  1  0  0  0  0
  8  9  1  0  0  0  0
  8 36  1  0  0  0  0
  9 15  1  0  0  0  0
  9 10  2  0  0  0  0
 10 11  1  0  0  0  0
 11 12  2  0  0  0  0
 12 13  1  0  0  0  0
 12 28  1  0  0  0  0
 13 14  1  0  0  0  0
 13 29  1  0  0  0  0
 14 15  1  0  0  0  0
 14 30  1  0  0  0  0
 14 31  1  0  0  0  0
 15 22  1  0  0  0  0
 15 16  1  0  0  0  0
 16 32  1  0  0  0  0
 17 18  1  0  0  0  0
 17 33  1  0  0  0  0
 17 34  1  0  0  0  0
 18 23  1  0  0  0  0
 18 19  1  0  0  0  0
 19 35  1  0  0  0  0
M  CHG  1   8   1
M  END
> <s_m_source_file>
AV-unprocessed.smi

> <i_m_source_file_index>
157

> <i_lp_mmshare_version>
43012

> <i_f3d_flags>
0

> <s_epik_input>
W09IXVtDSDJdW0NASF0xT1tDQEhdKFtDSDJdW0NAQEhdMVtPSF0pbihbY0hdbjIpYyhjMjMpTj1bQ0hdW05IXVtDSDJdW0NASF0zW09IXQ==

> <s_epik_cmdline>
J2VwaWtfcHl0aG9uJywgJy1waCcsICc3LjAnLCAnLXRuJywgJzgnLCAnLW1hJywgJzIwMCcsICctbWV0YWxfYmluZGluZycsICctaW1hZScsICc8aW5maWxlLm1hZT4nLCAnLW9tYWUnLCAnPG91dGZpbGUubWFlPic=

> <r_epik_Ionization_Penalty>
1.68594

> <r_epik_Ionization_Penalty_Charging>
0

> <r_epik_Ionization_Penalty_Neutral>
1.68594

> <r_epik_State_Penalty>
1.79006

> <r_epik_Charging_Adjusted_Penalty>
1.79006

> <i_epik_Tot_Q>
1

> <i_epik_Tot_abs_Q>
1

> <r_epik_Metal_State_Penalty>
5.85324

> <b_epik_Metal_Only>
0

> <s_epik_Chemistry_Notes>
This compound has an imine and may undergo hydrolysis. This compound contains an acetal/aminal-like group ( X-CH(R)-Y where X, Y are N, S, or O) that may be acid/base labile, releasing an aldehyde.

> <s_lp_Force_Field>
OPLS_2005

> <r_lp_Energy>
53.8289

> <b_lp_Chiralities_Consistent>
1

> <s_lp_Variant>
AV-unprocessed.smi:157-30

> <Gold.Version>
5.8.1

> <Gold.Id.Protein>
6NUR|6NUR_protein|mol2

> <Gold.PLP.Fitness>
44.3856

> <Gold.PLP.PLP>
-24.4478

> <Gold.PLP.part.hbond>
-6.1332

> <Gold.PLP.part.metal>
0.0000

> <Gold.PLP.part.buried>
6.6487

> <Gold.PLP.part.nonpolar>
-26.0006

> <Gold.PLP.part.repulsive>
0.3570

> <Gold.PLP.ligand.clash>
0.0000

> <Gold.PLP.ligand.torsion>
0.1390

> <Gold.PLP.Chemscore.Hbond>
4.9600

> <Gold.PLP.Chemscore.CHOScore>
1.7752

> <Gold.PLP.Chemscore.Metal>
0.0000

> <Gold.Chemscore.Hbonds>
donor molecule, donor type, donor heavy atom, donor atom, acceptor molecule, acceptor atom, score
      L1  H     1    24       P1 10175  1.00
      L1  H     8    36       P1 10186  2.00
      L1  H    19    35       P1 10175  1.00
      P1  H 10785 10796       L1    16  0.91
      L1  C     7    27       P1 10171  1.00
      L1  C    12    28       P1 10747  0.56

> <Gold.PLP.Chemscore.Internal.Correction>
0.0100

> <Gold.Rescore>
     Score         DG    S(hbond)    S(metal)    S(lipo)     H(rot)  DE(clash)    DE(int)     intcor
      9.01     -12.30       3.18        0.00      47.71       3.67       2.89       0.40       ----

> <Gold.Chemscore.Fitness>
9.0066

> <Gold.Chemscore.DG>
-12.2952

> <Gold.Chemscore.ZeroCoef>
-5.4800

> <Gold.Chemscore.Hbond>
3.1789

> <Gold.Chemscore.Metal>
0.0000

> <Gold.Chemscore.Lipo>
47.7136

> <Gold.Chemscore.Internal_Hbond>
0.0000

> <Gold.Chemscore.DEClash>
2.8877

> <Gold.Chemscore.DEInternal>
0.4009

> <Gold.Chemscore.Rot>
3.6659

> <Gold.Chemscore.Internal.Correction>
   9.000000E+99

> <Gold.Chemscore.Hbonds>
donor molecule, donor type, donor heavy atom, donor atom, acceptor molecule, acceptor atom, score
      L1  H     1    24       P1 10175  1.00
      L1  H     8    36       P1 10186  0.40
      L1  H    19    35       P1 10175  0.40
      P1  H 10785 10796       L1    16  0.86

> <Gold.Chemscore.Hbond.Weighted>
-10.6175

> <Gold.Chemscore.Metal.Weighted>
-0.0000

> <Gold.Chemscore.Lipo.Weighted>
-5.5825

> <Gold.Chemscore.Internal_Hbond.Weighted>
0.0000

> <Gold.Chemscore.DEClash.Weighted>
2.8877

> <Gold.Chemscore.DEInternal.Weighted>
0.4009

> <Gold.Chemscore.Rot.Weighted>
9.3848

> <Gold.Chemscore.Internal.Correction.Weighted>
   9.000000E+99

> <Gold.Protein.RotatedTorsions>
[ 6907 6896 6895 6894 ] final -159.84 input  -60.11 | X-H torsion
[ 7974 7965 7964 7962 ] final   98.33 input  175.53 | X-H torsion
[ 8008 7997 7996 7995 ] final  107.61 input   59.86 | X-H torsion
[ 10167 10162 10161 10158 ] final  -89.90 input  -65.29 | X-H torsion
[ 10718 10713 10712 10709 ] final -176.09 input   66.30 | X-H torsion
[ 10763 10752 10751 10750 ] final -131.59 input  -60.55 | X-H torsion
[ 11005 11000 10999 10996 ] final    8.86 input  -57.11 | X-H torsion

> <Gold.Protein.ActiveResidues>
 VAL166  LYS551  ARG553  GLY616  TRP617  ASP618  TYR619  PRO620  LYS621  CYS622 
 ASP623  PHE694  ASN695  SER759  ASP760  ASP761  ALA762  ILE779  LEU786  VAL792 
 PHE793  MET794  SER795  GLU796  ALA797  LYS798  CYS799  TRP800  GLU811  SER814 

> <Gold.Protein.RotatedAtoms>
  151.3398  133.3967  159.2669 H   0  0  0  0  0  0  0  0  0  0  0  0  # atno 6907 bound_to 6896
  150.9887  134.9227  159.7897 H   0  0  0  0  0  0  0  0  0  0  0  0  # atno 6908 bound_to 6896
  152.5240  134.3363  159.9253 H   0  0  0  0  0  0  0  0  0  0  0  0  # atno 6909 bound_to 6896
  145.4136  139.2330  143.3234 H   0  0  0  0  0  0  0  0  0  0  0  0  # atno 7974 bound_to 7965
  156.1838  140.3091  155.9199 H   0  0  0  0  0  0  0  0  0  0  0  0  # atno 8008 bound_to 7997
  155.3325  140.0461  157.3060 H   0  0  0  0  0  0  0  0  0  0  0  0  # atno 8009 bound_to 7997
  154.5373  140.2250  155.8711 H   0  0  0  0  0  0  0  0  0  0  0  0  # atno 8010 bound_to 7997
  140.3602  143.2846  151.9623 H   0  0  0  0  0  0  0  0  0  0  0  0  # atno 10167 bound_to 10162
  156.8095  130.9581  151.3116 H   0  0  0  0  0  0  0  0  0  0  0  0  # atno 10718 bound_to 10713
  154.8749  135.3825  154.4271 H   0  0  0  0  0  0  0  0  0  0  0  0  # atno 10763 bound_to 10752
  153.4969  135.7030  153.5858 H   0  0  0  0  0  0  0  0  0  0  0  0  # atno 10764 bound_to 10752
  153.4208  135.3902  155.2076 H   0  0  0  0  0  0  0  0  0  0  0  0  # atno 10765 bound_to 10752
  140.5322  134.0455  155.7877 H   0  0  0  0  0  0  0  0  0  0  0  0  # atno 11005 bound_to 11000
  146.2692  140.4851  142.8821 LP  0  0  0  0  0  0  0  0  0  0  0  0  # atno 17320 bound_to 7965
  144.8292  140.6679  143.6302 LP  0  0  0  0  0  0  0  0  0  0  0  0  # atno 17321 bound_to 7965
  139.4815  144.5999  151.7624 LP  0  0  0  0  0  0  0  0  0  0  0  0  # atno 17342 bound_to 10162
  140.5134  144.0990  150.6001 LP  0  0  0  0  0  0  0  0  0  0  0  0  # atno 17343 bound_to 10162
  157.6513  130.8887  149.9639 LP  0  0  0  0  0  0  0  0  0  0  0  0  # atno 17370 bound_to 10713
  156.1053  130.3653  150.0145 LP  0  0  0  0  0  0  0  0  0  0  0  0  # atno 17371 bound_to 10713
  141.1275  133.9359  157.2605 LP  0  0  0  0  0  0  0  0  0  0  0  0  # atno 17394 bound_to 11000
  139.9548  135.0168  156.9097 LP  0  0  0  0  0  0  0  0  0  0  0  0  # atno 17395 bound_to 11000

$$$$
