AV-unprocessed.smi:1438|AV-procd|sdf|5868|dock4
  -GOLD-   22720 5543D 1   1.00000     0.00000
 Structure written by MMmdl.
 43 44  0  0  0  0  0  0  0  0  1 V2000
  144.4864  142.6308  156.4166 C   0  0  0  0  0  0  0  0  0  0  0  0
  145.6129  141.5980  156.5818 C   0  0  1  0  0  0  0  0  0  0  0  0
  146.6206  141.6658  155.4274 C   0  0  0  0  0  0  0  0  0  0  0  0
  146.4897  142.5009  154.5322 O   0  0  0  0  0  0  0  0  0  0  0  0
  147.6343  140.7871  155.4684 N   0  0  0  0  0  0  0  0  0  0  0  0
  148.7513  140.7601  154.5331 C   0  0  0  0  0  0  0  0  0  0  0  0
  150.0582  140.4197  155.2244 C   0  0  0  0  0  0  0  0  0  0  0  0
  150.8557  139.3517  154.7712 C   0  0  0  0  0  0  0  0  0  0  0  0
  152.0732  139.1028  155.4302 C   0  0  0  0  0  0  0  0  0  0  0  0
  152.5106  139.8339  156.4768 N   0  0  0  0  0  0  0  0  0  0  0  0
  151.7478  140.8617  156.9261 C   0  0  0  0  0  0  0  0  0  0  0  0
  152.2148  141.6115  158.0280 N   0  0  0  0  0  0  0  0  0  0  0  0
  151.5535  142.8976  158.2376 C   0  0  0  0  0  0  0  0  0  0  0  0
  152.3275  143.7397  159.2667 C   0  0  0  0  0  0  0  0  0  0  0  0
  152.4914  142.9996  160.4717 O   0  0  0  0  0  0  0  0  0  0  0  0
  153.2392  141.8066  160.2617 C   0  0  0  0  0  0  0  0  0  0  0  0
  152.4927  140.8958  159.2724 C   0  0  0  0  0  0  0  0  0  0  0  0
  150.5140  141.1899  156.3141 C   0  0  0  0  0  0  0  0  0  0  0  0
  146.4870  141.8672  158.1955 S   0  0  0  0  0  0  0  0  0  0  0  0
  145.6034  143.3160  158.9155 C   0  0  0  0  0  0  0  0  0  0  0  0
  146.2478  140.7080  159.0693 O   0  0  0  0  0  0  0  0  0  0  0  0
  147.8698  142.2726  157.9003 O   0  0  0  0  0  0  0  0  0  0  0  0
  143.9684  142.5040  155.4653 H   0  0  0  0  0  0  0  0  0  0  0  0
  144.8682  143.6517  156.4575 H   0  0  0  0  0  0  0  0  0  0  0  0
  143.7455  142.5259  157.2094 H   0  0  0  0  0  0  0  0  0  0  0  0
  145.1706  140.6019  156.6191 H   0  0  0  0  0  0  0  0  0  0  0  0
  147.6643  140.1270  156.2316 H   0  0  0  0  0  0  0  0  0  0  0  0
  148.5451  140.0081  153.7713 H   0  0  0  0  0  0  0  0  0  0  0  0
  148.8400  141.7121  154.0067 H   0  0  0  0  0  0  0  0  0  0  0  0
  150.5499  138.7439  153.9321 H   0  0  0  0  0  0  0  0  0  0  0  0
  152.7142  138.2957  155.1077 H   0  0  0  0  0  0  0  0  0  0  0  0
  151.4684  143.4641  157.3115 H   0  0  0  0  0  0  0  0  0  0  0  0
  150.5381  142.7169  158.5930 H   0  0  0  0  0  0  0  0  0  0  0  0
  153.3011  144.0359  158.8728 H   0  0  0  0  0  0  0  0  0  0  0  0
  151.7813  144.6572  159.4861 H   0  0  0  0  0  0  0  0  0  0  0  0
  154.2365  142.0494  159.8913 H   0  0  0  0  0  0  0  0  0  0  0  0
  153.3695  141.2965  161.2162 H   0  0  0  0  0  0  0  0  0  0  0  0
  151.5531  140.5587  159.7129 H   0  0  0  0  0  0  0  0  0  0  0  0
  153.0966  140.0096  159.0716 H   0  0  0  0  0  0  0  0  0  0  0  0
  149.9246  142.0268  156.6586 H   0  0  0  0  0  0  0  0  0  0  0  0
  146.1061  143.6234  159.8322 H   0  0  0  0  0  0  0  0  0  0  0  0
  144.5743  143.0457  159.1511 H   0  0  0  0  0  0  0  0  0  0  0  0
  145.6122  144.1424  158.2053 H   0  0  0  0  0  0  0  0  0  0  0  0
  1  2  1  0  0  0  0
  1 23  1  0  0  0  0
  1 24  1  0  0  0  0
  1 25  1  0  0  0  0
  2  3  1  0  0  0  0
  2 19  1  0  0  0  0
  2 26  1  0  0  0  0
  3  4  2  0  0  0  0
  3  5  1  0  0  0  0
  5  6  1  0  0  0  0
  5 27  1  0  0  0  0
  6  7  1  0  0  0  0
  6 28  1  0  0  0  0
  6 29  1  0  0  0  0
  7 18  1  0  0  0  0
  7  8  2  0  0  0  0
  8  9  1  0  0  0  0
  8 30  1  0  0  0  0
  9 10  2  0  0  0  0
  9 31  1  0  0  0  0
 10 11  1  0  0  0  0
 11 12  1  0  0  0  0
 11 18  2  0  0  0  0
 12 17  1  0  0  0  0
 12 13  1  0  0  0  0
 13 14  1  0  0  0  0
 13 32  1  0  0  0  0
 13 33  1  0  0  0  0
 14 15  1  0  0  0  0
 14 34  1  0  0  0  0
 14 35  1  0  0  0  0
 15 16  1  0  0  0  0
 16 17  1  0  0  0  0
 16 36  1  0  0  0  0
 16 37  1  0  0  0  0
 17 38  1  0  0  0  0
 17 39  1  0  0  0  0
 18 40  1  0  0  0  0
 19 20  1  0  0  0  0
 19 21  2  0  0  0  0
 19 22  2  0  0  0  0
 20 41  1  0  0  0  0
 20 42  1  0  0  0  0
 20 43  1  0  0  0  0
M  END
> <s_m_source_file>
AV-unprocessed.smi

> <i_m_source_file_index>
1438

> <i_lp_mmshare_version>
43012

> <i_f3d_flags>
0

> <s_epik_input>
W0NIM11TKD1PKSg9TylbQ0BIXShbQ0gzXSlDKD1PKVtOSF1bQ0gyXWMxW2NIXVtjSF1uYyhbY0hdMSlOMltDSDJdW0NIMl1PW0NIMl1bQ0gyXTI=

> <s_epik_cmdline>
J2VwaWtfcHl0aG9uJywgJy1waCcsICc3LjAnLCAnLXRuJywgJzgnLCAnLW1hJywgJzIwMCcsICctbWV0YWxfYmluZGluZycsICctaW1hZScsICc8aW5maWxlLm1hZT4nLCAnLW9tYWUnLCAnPG91dGZpbGUubWFlPic=

> <r_lp_tautomer_probability>
1

> <r_epik_Ionization_Penalty>
0.00387635

> <r_epik_Ionization_Penalty_Charging>
0

> <r_epik_Ionization_Penalty_Neutral>
0.00387635

> <r_epik_State_Penalty>
0.0027681

> <r_epik_Charging_Adjusted_Penalty>
0.0027681

> <i_epik_Tot_Q>
0

> <i_epik_Tot_abs_Q>
0

> <r_epik_Metal_State_Penalty>
-0

> <b_epik_Metal_Only>
0

> <s_lp_Force_Field>
OPLS_2005

> <r_lp_Energy>
13.2689

> <b_lp_Chiralities_Consistent>
1

> <s_lp_Variant>
AV-unprocessed.smi:1438-2

> <Gold.Version>
5.8.1

> <Gold.Id.Protein>
6NUR|6NUR_protein|mol2

> <Gold.PLP.Fitness>
42.1394

> <Gold.PLP.PLP>
-37.8500

> <Gold.PLP.part.hbond>
-2.0000

> <Gold.PLP.part.metal>
0.0000

> <Gold.PLP.part.buried>
-4.4639

> <Gold.PLP.part.nonpolar>
-31.3667

> <Gold.PLP.part.repulsive>
0.7359

> <Gold.PLP.ligand.clash>
0.0000

> <Gold.PLP.ligand.torsion>
0.4628

> <Gold.PLP.Chemscore.Hbond>
1.5772

> <Gold.PLP.Chemscore.CHOScore>
0.0000

> <Gold.PLP.Chemscore.Metal>
0.0000

> <Gold.Chemscore.Hbonds>
donor molecule, donor type, donor heavy atom, donor atom, acceptor molecule, acceptor atom, score
      P1  H  6934  6946       L1    21  0.37
      P1  H  7997  8009       L1    10  1.00

> <Gold.PLP.Chemscore.Internal.Correction>
0.4835

> <Gold.Rescore>
     Score         DG    S(hbond)    S(metal)    S(lipo)     H(rot)  DE(clash)    DE(int)     intcor
     12.20     -14.44       1.37        0.00      82.88       2.08       0.40       1.83       ----

> <Gold.Chemscore.Fitness>
12.2045

> <Gold.Chemscore.DG>
-14.4387

> <Gold.Chemscore.ZeroCoef>
-5.4800

> <Gold.Chemscore.Hbond>
1.3705

> <Gold.Chemscore.Metal>
0.0000

> <Gold.Chemscore.Lipo>
82.8792

> <Gold.Chemscore.Internal_Hbond>
0.0000

> <Gold.Chemscore.DEClash>
0.4020

> <Gold.Chemscore.DEInternal>
1.8322

> <Gold.Chemscore.Rot>
2.0764

> <Gold.Chemscore.Internal.Correction>
   9.000000E+99

> <Gold.Chemscore.Hbonds>
donor molecule, donor type, donor heavy atom, donor atom, acceptor molecule, acceptor atom, score
      P1  H  6934  6946       L1    21  0.33
      P1  H  7997  8009       L1    10  0.51

> <Gold.Chemscore.Hbond.Weighted>
-4.5774

> <Gold.Chemscore.Metal.Weighted>
-0.0000

> <Gold.Chemscore.Lipo.Weighted>
-9.6969

> <Gold.Chemscore.Internal_Hbond.Weighted>
0.0000

> <Gold.Chemscore.DEClash.Weighted>
0.4020

> <Gold.Chemscore.DEInternal.Weighted>
1.8322

> <Gold.Chemscore.Rot.Weighted>
5.3155

> <Gold.Chemscore.Internal.Correction.Weighted>
   9.000000E+99

> <Gold.Protein.RotatedTorsions>
[ 6907 6896 6895 6894 ] final   89.00 input  -60.11 | X-H torsion
[ 7974 7965 7964 7962 ] final -117.79 input  175.53 | X-H torsion
[ 8008 7997 7996 7995 ] final -149.95 input   59.86 | X-H torsion
[ 10167 10162 10161 10158 ] final   14.83 input  -65.29 | X-H torsion
[ 10718 10713 10712 10709 ] final  140.75 input   66.30 | X-H torsion
[ 10763 10752 10751 10750 ] final  168.37 input  -60.55 | X-H torsion
[ 11005 11000 10999 10996 ] final  -47.50 input  -57.11 | X-H torsion

> <Gold.Protein.ActiveResidues>
 VAL166  LYS551  ARG553  GLY616  TRP617  ASP618  TYR619  PRO620  LYS621  CYS622 
 ASP623  PHE694  ASN695  SER759  ASP760  ASP761  ALA762  ILE779  LEU786  VAL792 
 PHE793  MET794  SER795  GLU796  ALA797  LYS798  CYS799  TRP800  GLU811  SER814 

> <Gold.Protein.RotatedAtoms>
  152.5431  134.2035  159.8721 H   0  0  0  0  0  0  0  0  0  0  0  0  # atno 6907 bound_to 6896
  151.2022  133.4597  159.2604 H   0  0  0  0  0  0  0  0  0  0  0  0  # atno 6908 bound_to 6896
  151.0978  134.9967  159.8490 H   0  0  0  0  0  0  0  0  0  0  0  0  # atno 6909 bound_to 6896
  145.0812  140.8427  143.4038 H   0  0  0  0  0  0  0  0  0  0  0  0  # atno 7974 bound_to 7965
  155.6158  140.0676  157.2693 H   0  0  0  0  0  0  0  0  0  0  0  0  # atno 8008 bound_to 7997
  154.4242  140.1793  156.1368 H   0  0  0  0  0  0  0  0  0  0  0  0  # atno 8009 bound_to 7997
  156.0049  140.3332  155.6885 H   0  0  0  0  0  0  0  0  0  0  0  0  # atno 8010 bound_to 7997
  140.5909  143.8797  150.6873 H   0  0  0  0  0  0  0  0  0  0  0  0  # atno 10167 bound_to 10162
  157.3997  131.1015  151.0564 H   0  0  0  0  0  0  0  0  0  0  0  0  # atno 10718 bound_to 10713
  154.3676  135.2753  155.2284 H   0  0  0  0  0  0  0  0  0  0  0  0  # atno 10763 bound_to 10752
  154.4446  135.5946  153.6155 H   0  0  0  0  0  0  0  0  0  0  0  0  # atno 10764 bound_to 10752
  152.9840  135.6027  154.3904 H   0  0  0  0  0  0  0  0  0  0  0  0  # atno 10765 bound_to 10752
  141.0645  133.6698  156.3307 H   0  0  0  0  0  0  0  0  0  0  0  0  # atno 11005 bound_to 11000
  145.1176  139.2715  143.5605 LP  0  0  0  0  0  0  0  0  0  0  0  0  # atno 17320 bound_to 7965
  146.3531  140.0790  142.8619 LP  0  0  0  0  0  0  0  0  0  0  0  0  # atno 17321 bound_to 7965
  140.2320  143.3729  152.1558 LP  0  0  0  0  0  0  0  0  0  0  0  0  # atno 17342 bound_to 10162
  139.5227  144.7062  151.5347 LP  0  0  0  0  0  0  0  0  0  0  0  0  # atno 17343 bound_to 10162
  157.1567  130.6208  149.5598 LP  0  0  0  0  0  0  0  0  0  0  0  0  # atno 17370 bound_to 10713
  155.9820  130.4831  150.6857 LP  0  0  0  0  0  0  0  0  0  0  0  0  # atno 17371 bound_to 10713
  140.5802  134.5753  157.5478 LP  0  0  0  0  0  0  0  0  0  0  0  0  # atno 17394 bound_to 11000
  139.9463  134.7696  156.0554 LP  0  0  0  0  0  0  0  0  0  0  0  0  # atno 17395 bound_to 11000

$$$$
