AV-unprocessed.smi:1011|AV-procd|sdf|4420|dock7
  -GOLD-   22720 2373D 1   1.00000     0.00000
 Structure written by MMmdl.
 43 45  0  0  0  0  0  0  0  0  1 V2000
  146.9796  143.7800  152.7913 C   0  0  0  0  0  0  0  0  0  0  0  0
  147.4836  142.4401  153.2439 C   0  0  0  0  0  0  0  0  0  0  0  0
  148.7828  142.1136  153.7266 C   0  0  0  0  0  0  0  0  0  0  0  0
  148.9066  140.8362  154.0471 N   0  0  0  0  0  0  0  0  0  0  0  0
  147.6953  140.3034  153.7821 N   0  0  0  0  0  0  0  0  0  0  0  0
  147.4620  138.8929  154.0229 C   0  0  0  0  0  0  0  0  0  0  0  0
  148.6844  138.2245  154.6663 C   0  0  0  0  0  0  0  0  0  0  0  0
  149.7644  138.1400  153.6974 N   0  0  0  0  0  0  0  0  0  0  0  0
  151.0458  138.1401  154.3882 C   0  0  0  0  0  0  0  0  0  0  0  0
  151.2125  139.2588  155.3778 C   0  0  0  0  0  0  0  0  0  0  0  0
  151.1902  140.5512  155.0407 N   0  0  0  0  0  0  0  0  0  0  0  0
  151.3729  141.1876  156.2527 C   0  0  0  0  0  0  0  0  0  0  0  0
  151.4431  142.5636  156.5663 C   0  0  0  0  0  0  0  0  0  0  0  0
  151.6400  142.9834  157.8985 C   0  0  0  0  0  0  0  0  0  0  0  0
  151.7225  144.6675  158.2642 Cl  0  0  0  0  0  0  0  0  0  0  0  0
  151.7703  142.0339  158.9332 C   0  0  0  0  0  0  0  0  0  0  0  0
  151.7038  140.6576  158.6423 C   0  0  0  0  0  0  0  0  0  0  0  0
  151.5048  140.2452  157.3112 C   0  0  0  0  0  0  0  0  0  0  0  0
  151.3921  139.0022  156.6974 N   0  0  0  0  0  0  0  0  0  0  0  0
  151.4623  137.7082  157.3572 C   0  0  0  0  0  0  0  0  0  0  0  0
  150.4362  137.6010  158.4934 C   0  0  0  0  0  0  0  0  0  0  0  0
  151.0342  136.9968  159.6189 O   0  0  0  0  0  0  0  0  0  0  0  0
  146.8171  141.2485  153.2961 C   0  0  0  0  0  0  0  0  0  0  0  0
  147.7888  144.4138  152.4282 H   0  0  0  0  0  0  0  0  0  0  0  0
  146.4888  144.3182  153.6023 H   0  0  0  0  0  0  0  0  0  0  0  0
  146.2564  143.6881  151.9807 H   0  0  0  0  0  0  0  0  0  0  0  0
  149.6352  142.7647  153.8532 H   0  0  0  0  0  0  0  0  0  0  0  0
  146.5873  138.7912  154.6671 H   0  0  0  0  0  0  0  0  0  0  0  0
  147.2160  138.4143  153.0736 H   0  0  0  0  0  0  0  0  0  0  0  0
  149.0155  138.7995  155.5324 H   0  0  0  0  0  0  0  0  0  0  0  0
  148.4219  137.2250  155.0162 H   0  0  0  0  0  0  0  0  0  0  0  0
  149.6712  137.2855  153.1672 H   0  0  0  0  0  0  0  0  0  0  0  0
  151.1658  137.1964  154.9217 H   0  0  0  0  0  0  0  0  0  0  0  0
  151.8452  138.2014  153.6491 H   0  0  0  0  0  0  0  0  0  0  0  0
  151.3448  143.2965  155.7792 H   0  0  0  0  0  0  0  0  0  0  0  0
  151.9214  142.3614  159.9513 H   0  0  0  0  0  0  0  0  0  0  0  0
  151.8033  139.9287  159.4328 H   0  0  0  0  0  0  0  0  0  0  0  0
  151.2846  136.9304  156.6135 H   0  0  0  0  0  0  0  0  0  0  0  0
  152.4735  137.5474  157.7325 H   0  0  0  0  0  0  0  0  0  0  0  0
  150.0639  138.5863  158.7754 H   0  0  0  0  0  0  0  0  0  0  0  0
  149.5780  137.0037  158.1831 H   0  0  0  0  0  0  0  0  0  0  0  0
  151.9666  137.1467  159.5805 H   0  0  0  0  0  0  0  0  0  0  0  0
  145.8003  140.9980  153.0318 H   0  0  0  0  0  0  0  0  0  0  0  0
  1  2  1  0  0  0  0
  1 24  1  0  0  0  0
  1 25  1  0  0  0  0
  1 26  1  0  0  0  0
  2 23  2  0  0  0  0
  2  3  1  0  0  0  0
  3  4  2  0  0  0  0
  3 27  1  0  0  0  0
  4  5  1  0  0  0  0
  5  6  1  0  0  0  0
  5 23  1  0  0  0  0
  6  7  1  0  0  0  0
  6 28  1  0  0  0  0
  6 29  1  0  0  0  0
  7  8  1  0  0  0  0
  7 30  1  0  0  0  0
  7 31  1  0  0  0  0
  8  9  1  0  0  0  0
  8 32  1  0  0  0  0
  9 10  1  0  0  0  0
  9 33  1  0  0  0  0
  9 34  1  0  0  0  0
 10 19  1  0  0  0  0
 10 11  2  0  0  0  0
 11 12  1  0  0  0  0
 12 18  2  0  0  0  0
 12 13  1  0  0  0  0
 13 14  2  0  0  0  0
 13 35  1  0  0  0  0
 14 15  1  0  0  0  0
 14 16  1  0  0  0  0
 16 17  2  0  0  0  0
 16 36  1  0  0  0  0
 17 18  1  0  0  0  0
 17 37  1  0  0  0  0
 18 19  1  0  0  0  0
 19 20  1  0  0  0  0
 20 21  1  0  0  0  0
 20 38  1  0  0  0  0
 20 39  1  0  0  0  0
 21 22  1  0  0  0  0
 21 40  1  0  0  0  0
 21 41  1  0  0  0  0
 22 42  1  0  0  0  0
 23 43  1  0  0  0  0
M  END
> <s_m_source_file>
AV-unprocessed.smi

> <i_m_source_file_index>
1011

> <i_lp_mmshare_version>
43012

> <i_f3d_flags>
0

> <s_epik_input>
W0NIM11jMVtjSF1ubihbY0hdMSlbQ0gyXVtDSDJdW05IXVtDSDJdYyhuMiluKFtDSDJdW0NIMl1bT0hdKWMoYzIzKVtjSF1bY0hdYyhDbClbY0hdMw==

> <s_epik_cmdline>
J2VwaWtfcHl0aG9uJywgJy1waCcsICc3LjAnLCAnLXRuJywgJzgnLCAnLW1hJywgJzIwMCcsICctbWV0YWxfYmluZGluZycsICctaW1hZScsICc8aW5maWxlLm1hZT4nLCAnLW9tYWUnLCAnPG91dGZpbGUubWFlPic=

> <r_lp_tautomer_probability>
1

> <r_epik_Ionization_Penalty>
0.714951

> <r_epik_Ionization_Penalty_Charging>
0

> <r_epik_Ionization_Penalty_Neutral>
0.714951

> <r_epik_State_Penalty>
0.695393

> <r_epik_Charging_Adjusted_Penalty>
0.695393

> <i_epik_Tot_Q>
0

> <i_epik_Tot_abs_Q>
0

> <r_epik_Metal_State_Penalty>
0.662708

> <b_epik_Metal_Only>
0

> <s_lp_Force_Field>
OPLS_2005

> <r_lp_Energy>
11.4797

> <b_lp_Chiralities_Consistent>
1

> <s_lp_Variant>
AV-unprocessed.smi:1011-2

> <Gold.Version>
5.8.1

> <Gold.Id.Protein>
6NUR|6NUR_protein|mol2

> <Gold.PLP.Fitness>
55.8587

> <Gold.PLP.PLP>
-42.1608

> <Gold.PLP.part.hbond>
-3.0000

> <Gold.PLP.part.metal>
0.0000

> <Gold.PLP.part.buried>
-6.0666

> <Gold.PLP.part.nonpolar>
-33.7056

> <Gold.PLP.part.repulsive>
0.1670

> <Gold.PLP.ligand.clash>
0.0000

> <Gold.PLP.ligand.torsion>
0.5573

> <Gold.PLP.Chemscore.Hbond>
2.9040

> <Gold.PLP.Chemscore.CHOScore>
1.9852

> <Gold.PLP.Chemscore.Metal>
0.0000

> <Gold.Chemscore.Hbonds>
donor molecule, donor type, donor heavy atom, donor atom, acceptor molecule, acceptor atom, score
      L1  H     8    32       P1  7948  1.00
      P1  H  6896  6907       L1    22  0.15
      P1  H  7989  7998       L1    11  0.94
      L1  C     3    27       P1  8028  0.26
      L1  C    23    43       P1 10175  1.00

> <Gold.PLP.Chemscore.Internal.Correction>
0.1450

> <Gold.Rescore>
     Score         DG    S(hbond)    S(metal)    S(lipo)     H(rot)  DE(clash)    DE(int)     intcor
     15.32     -18.24       2.29        0.00     105.86       2.84       0.64       2.27       ----

> <Gold.Chemscore.Fitness>
15.3201

> <Gold.Chemscore.DG>
-18.2377

> <Gold.Chemscore.ZeroCoef>
-5.4800

> <Gold.Chemscore.Hbond>
2.2916

> <Gold.Chemscore.Metal>
0.0000

> <Gold.Chemscore.Lipo>
105.8561

> <Gold.Chemscore.Internal_Hbond>
0.0000

> <Gold.Chemscore.DEClash>
0.6449

> <Gold.Chemscore.DEInternal>
2.2727

> <Gold.Chemscore.Rot>
2.8442

> <Gold.Chemscore.Internal.Correction>
   9.000000E+99

> <Gold.Chemscore.Hbonds>
donor molecule, donor type, donor heavy atom, donor atom, acceptor molecule, acceptor atom, score
      L1  H     8    32       P1  7948  0.64
      P1  H  7989  7998       L1    11  0.85

> <Gold.Chemscore.Hbond.Weighted>
-7.6538

> <Gold.Chemscore.Metal.Weighted>
-0.0000

> <Gold.Chemscore.Lipo.Weighted>
-12.3852

> <Gold.Chemscore.Internal_Hbond.Weighted>
0.0000

> <Gold.Chemscore.DEClash.Weighted>
0.6449

> <Gold.Chemscore.DEInternal.Weighted>
2.2727

> <Gold.Chemscore.Rot.Weighted>
7.2812

> <Gold.Chemscore.Internal.Correction.Weighted>
   9.000000E+99

> <Gold.Protein.RotatedTorsions>
[ 6907 6896 6895 6894 ] final    2.63 input  -60.11 | X-H torsion
[ 7974 7965 7964 7962 ] final  -36.80 input  175.53 | X-H torsion
[ 8008 7997 7996 7995 ] final  147.68 input   59.86 | X-H torsion
[ 10167 10162 10161 10158 ] final   45.25 input  -65.29 | X-H torsion
[ 10718 10713 10712 10709 ] final   45.75 input   66.30 | X-H torsion
[ 10763 10752 10751 10750 ] final   67.30 input  -60.55 | X-H torsion
[ 11005 11000 10999 10996 ] final  143.19 input  -57.11 | X-H torsion

> <Gold.Protein.ActiveResidues>
 VAL166  LYS551  ARG553  GLY616  TRP617  ASP618  TYR619  PRO620  LYS621  CYS622 
 ASP623  PHE694  ASN695  SER759  ASP760  ASP761  ALA762  ILE779  LEU786  VAL792 
 PHE793  MET794  SER795  GLU796  ALA797  LYS798  CYS799  TRP800  GLU811  SER814 

> <Gold.Protein.RotatedAtoms>
  151.6120  135.1039  160.0082 H   0  0  0  0  0  0  0  0  0  0  0  0  # atno 6907 bound_to 6896
  152.4203  133.7101  159.6485 H   0  0  0  0  0  0  0  0  0  0  0  0  # atno 6908 bound_to 6896
  150.8091  133.8382  159.3213 H   0  0  0  0  0  0  0  0  0  0  0  0  # atno 6909 bound_to 6896
  146.0630  140.6321  142.8988 H   0  0  0  0  0  0  0  0  0  0  0  0  # atno 7974 bound_to 7965
  156.2816  140.2149  156.5577 H   0  0  0  0  0  0  0  0  0  0  0  0  # atno 8008 bound_to 7997
  154.7239  140.0501  157.0687 H   0  0  0  0  0  0  0  0  0  0  0  0  # atno 8009 bound_to 7997
  155.0443  140.3149  155.4717 H   0  0  0  0  0  0  0  0  0  0  0  0  # atno 8010 bound_to 7997
  140.3260  144.2647  150.6175 H   0  0  0  0  0  0  0  0  0  0  0  0  # atno 10167 bound_to 10162
  157.4409  130.8081  149.7693 H   0  0  0  0  0  0  0  0  0  0  0  0  # atno 10718 bound_to 10713
  153.0180  135.5289  154.6958 H   0  0  0  0  0  0  0  0  0  0  0  0  # atno 10763 bound_to 10752
  154.6080  135.2875  155.0465 H   0  0  0  0  0  0  0  0  0  0  0  0  # atno 10764 bound_to 10752
  154.1498  135.6565  153.5013 H   0  0  0  0  0  0  0  0  0  0  0  0  # atno 10765 bound_to 10752
  140.0535  134.9243  157.1059 H   0  0  0  0  0  0  0  0  0  0  0  0  # atno 11005 bound_to 11000
  144.7186  140.4296  143.7025 LP  0  0  0  0  0  0  0  0  0  0  0  0  # atno 17320 bound_to 7965
  145.6526  139.1567  143.2853 LP  0  0  0  0  0  0  0  0  0  0  0  0  # atno 17321 bound_to 7965
  140.5440  143.2218  151.8037 LP  0  0  0  0  0  0  0  0  0  0  0  0  # atno 17342 bound_to 10162
  139.4865  144.4563  151.9594 LP  0  0  0  0  0  0  0  0  0  0  0  0  # atno 17343 bound_to 10162
  155.9948  130.3915  150.2843 LP  0  0  0  0  0  0  0  0  0  0  0  0  # atno 17370 bound_to 10713
  157.1007  131.0195  151.3086 LP  0  0  0  0  0  0  0  0  0  0  0  0  # atno 17371 bound_to 10713
  140.3881  134.2215  155.7167 LP  0  0  0  0  0  0  0  0  0  0  0  0  # atno 17394 bound_to 11000
  141.1941  133.8135  157.0771 LP  0  0  0  0  0  0  0  0  0  0  0  0  # atno 17395 bound_to 11000

$$$$
