AV-unprocessed.smi:2330|AV-procd|sdf|9311|dock3
  -GOLD-   2272012533D 1   1.00000     0.00000
 Structure written by MMmdl.
 42 43  0  0  0  0  0  0  0  0  1 V2000
  151.4320  145.2799  158.8727 C   0  0  0  0  0  0  0  0  0  0  0  0
  151.6012  143.8250  159.3327 C   0  0  2  0  0  0  0  0  0  0  0  0
  153.0094  143.5746  159.9056 C   0  0  0  0  0  0  0  0  0  0  0  0
  153.1837  142.1181  160.3664 C   0  0  0  0  0  0  0  0  0  0  0  0
  152.8716  141.1242  159.2317 C   0  0  1  0  0  0  0  0  0  0  0  0
  152.9532  139.7547  159.7299 N   0  0  0  0  0  0  0  0  0  0  0  0
  153.8152  138.8196  159.3081 C   0  0  0  0  0  0  0  0  0  0  0  0
  154.6697  139.0012  158.4409 O   0  0  0  0  0  0  0  0  0  0  0  0
  153.6189  137.6518  159.9342 N   0  0  0  0  0  0  0  0  0  0  0  0
  154.3259  136.4098  159.6353 C   0  0  0  0  0  0  0  0  0  0  0  0
  155.3868  136.0553  160.7009 C   0  0  1  0  0  0  0  0  0  0  0  0
  156.6703  136.8870  160.5676 C   0  0  0  0  0  0  0  0  0  0  0  0
  154.8457  136.0689  162.0991 C   0  0  0  0  0  0  0  0  0  0  0  0
  154.7788  134.9862  162.8806 N   0  0  0  0  0  0  0  0  0  0  0  0
  154.2603  135.2704  164.1463 C   0  0  0  0  0  0  0  0  0  0  0  0
  153.9334  136.5911  164.3199 C   0  0  0  0  0  0  0  0  0  0  0  0
  154.2651  137.5313  162.8914 S   0  0  0  0  0  0  0  0  0  0  0  0
  151.4684  141.3771  158.6514 C   0  0  0  0  0  0  0  0  0  0  0  0
  151.3045  142.8343  158.1909 C   0  0  0  0  0  0  0  0  0  0  0  0
  152.1351  145.5286  158.0772 H   0  0  0  0  0  0  0  0  0  0  0  0
  151.6012  145.9740  159.6964 H   0  0  0  0  0  0  0  0  0  0  0  0
  150.4247  145.4575  158.4947 H   0  0  0  0  0  0  0  0  0  0  0  0
  150.8769  143.6470  160.1291 H   0  0  0  0  0  0  0  0  0  0  0  0
  153.7618  143.8076  159.1506 H   0  0  0  0  0  0  0  0  0  0  0  0
  153.1963  144.2465  160.7440 H   0  0  0  0  0  0  0  0  0  0  0  0
  154.2022  141.9671  160.7262 H   0  0  0  0  0  0  0  0  0  0  0  0
  152.5251  141.9285  161.2153 H   0  0  0  0  0  0  0  0  0  0  0  0
  153.5974  141.2740  158.4301 H   0  0  0  0  0  0  0  0  0  0  0  0
  152.2901  139.4954  160.4453 H   0  0  0  0  0  0  0  0  0  0  0  0
  152.8945  137.6035  160.6357 H   0  0  0  0  0  0  0  0  0  0  0  0
  153.6155  135.5907  159.5113 H   0  0  0  0  0  0  0  0  0  0  0  0
  154.8125  136.5434  158.6686 H   0  0  0  0  0  0  0  0  0  0  0  0
  155.6825  135.0235  160.5076 H   0  0  0  0  0  0  0  0  0  0  0  0
  157.4345  136.5431  161.2653 H   0  0  0  0  0  0  0  0  0  0  0  0
  156.4825  137.9416  160.7717 H   0  0  0  0  0  0  0  0  0  0  0  0
  157.0837  136.8121  159.5615 H   0  0  0  0  0  0  0  0  0  0  0  0
  154.1597  134.4706  164.8648 H   0  0  0  0  0  0  0  0  0  0  0  0
  153.5200  137.0659  165.1973 H   0  0  0  0  0  0  0  0  0  0  0  0
  151.2851  140.7044  157.8125 H   0  0  0  0  0  0  0  0  0  0  0  0
  150.7094  141.1491  159.4015 H   0  0  0  0  0  0  0  0  0  0  0  0
  150.2912  142.9860  157.8178 H   0  0  0  0  0  0  0  0  0  0  0  0
  151.9739  143.0269  157.3513 H   0  0  0  0  0  0  0  0  0  0  0  0
  1  2  1  0  0  0  0
  1 20  1  0  0  0  0
  1 21  1  0  0  0  0
  1 22  1  0  0  0  0
  2 19  1  0  0  0  0
  2  3  1  0  0  0  0
  2 23  1  0  0  0  0
  3  4  1  0  0  0  0
  3 24  1  0  0  0  0
  3 25  1  0  0  0  0
  4  5  1  0  0  0  0
  4 26  1  0  0  0  0
  4 27  1  0  0  0  0
  5  6  1  0  0  0  0
  5 18  1  0  0  0  0
  5 28  1  0  0  0  0
  6  7  1  0  0  0  0
  6 29  1  0  0  0  0
  7  8  2  0  0  0  0
  7  9  1  0  0  0  0
  9 10  1  0  0  0  0
  9 30  1  0  0  0  0
 10 11  1  0  0  0  0
 10 31  1  0  0  0  0
 10 32  1  0  0  0  0
 11 12  1  0  0  0  0
 11 13  1  0  0  0  0
 11 33  1  0  0  0  0
 12 34  1  0  0  0  0
 12 35  1  0  0  0  0
 12 36  1  0  0  0  0
 13 17  1  0  0  0  0
 13 14  2  0  0  0  0
 14 15  1  0  0  0  0
 15 16  2  0  0  0  0
 15 37  1  0  0  0  0
 16 17  1  0  0  0  0
 16 38  1  0  0  0  0
 18 19  1  0  0  0  0
 18 39  1  0  0  0  0
 18 40  1  0  0  0  0
 19 41  1  0  0  0  0
 19 42  1  0  0  0  0
M  END
> <s_m_source_file>
AV-unprocessed.smi

> <i_m_source_file_index>
2330

> <i_lp_mmshare_version>
43012

> <i_f3d_flags>
0

> <s_epik_input>
W0NIM11bQ0BASF0xW0NIMl1bQ0gyXVtDQEhdKFtDSDJdW0NIMl0xKVtOSF1DKD1PKVtOSF1bQ0gyXVtDQEhdKFtDSDNdKWMybltjSF1bY0hdczI=

> <s_epik_cmdline>
J2VwaWtfcHl0aG9uJywgJy1waCcsICc3LjAnLCAnLXRuJywgJzgnLCAnLW1hJywgJzIwMCcsICctbWV0YWxfYmluZGluZycsICctaW1hZScsICc8aW5maWxlLm1hZT4nLCAnLW9tYWUnLCAnPG91dGZpbGUubWFlPic=

> <r_lp_tautomer_probability>
1

> <r_epik_Ionization_Penalty>
0.000331107

> <r_epik_Ionization_Penalty_Charging>
0

> <r_epik_Ionization_Penalty_Neutral>
0.000331107

> <r_epik_State_Penalty>
-0

> <r_epik_Charging_Adjusted_Penalty>
0

> <i_epik_Tot_Q>
0

> <i_epik_Tot_abs_Q>
0

> <r_epik_Metal_State_Penalty>
-0

> <b_epik_Metal_Only>
0

> <s_lp_Force_Field>
OPLS_2005

> <r_lp_Energy>
-1.29202

> <b_lp_Chiralities_Consistent>
1

> <s_lp_Variant>
AV-unprocessed.smi:2330-2

> <Gold.Version>
5.8.1

> <Gold.Id.Protein>
6NUR|6NUR_protein|mol2

> <Gold.PLP.Fitness>
40.7958

> <Gold.PLP.PLP>
-38.1219

> <Gold.PLP.part.hbond>
-1.0000

> <Gold.PLP.part.metal>
0.0000

> <Gold.PLP.part.buried>
-4.7085

> <Gold.PLP.part.nonpolar>
-32.0883

> <Gold.PLP.part.repulsive>
0.1697

> <Gold.PLP.ligand.clash>
0.0000

> <Gold.PLP.ligand.torsion>
0.2265

> <Gold.PLP.Chemscore.Hbond>
1.0000

> <Gold.PLP.Chemscore.CHOScore>
0.0000

> <Gold.PLP.Chemscore.Metal>
0.0000

> <Gold.Chemscore.Hbonds>
donor molecule, donor type, donor heavy atom, donor atom, acceptor molecule, acceptor atom, score
      P1  H  7997  8008       L1     8  1.00

> <Gold.PLP.Chemscore.Internal.Correction>
0.1269

> <Gold.Rescore>
     Score         DG    S(hbond)    S(metal)    S(lipo)     H(rot)  DE(clash)    DE(int)     intcor
     18.92     -19.14       1.00        0.00     120.01       1.45       0.04       0.19       ----

> <Gold.Chemscore.Fitness>
18.9166

> <Gold.Chemscore.DG>
-19.1403

> <Gold.Chemscore.ZeroCoef>
-5.4800

> <Gold.Chemscore.Hbond>
1.0000

> <Gold.Chemscore.Metal>
0.0000

> <Gold.Chemscore.Lipo>
120.0130

> <Gold.Chemscore.Internal_Hbond>
0.0000

> <Gold.Chemscore.DEClash>
0.0384

> <Gold.Chemscore.DEInternal>
0.1853

> <Gold.Chemscore.Rot>
1.4536

> <Gold.Chemscore.Internal.Correction>
   9.000000E+99

> <Gold.Chemscore.Hbonds>
donor molecule, donor type, donor heavy atom, donor atom, acceptor molecule, acceptor atom, score
      P1  H  7997  8008       L1     8  0.97

> <Gold.Chemscore.Hbond.Weighted>
-3.3400

> <Gold.Chemscore.Metal.Weighted>
-0.0000

> <Gold.Chemscore.Lipo.Weighted>
-14.0415

> <Gold.Chemscore.Internal_Hbond.Weighted>
0.0000

> <Gold.Chemscore.DEClash.Weighted>
0.0384

> <Gold.Chemscore.DEInternal.Weighted>
0.1853

> <Gold.Chemscore.Rot.Weighted>
3.7212

> <Gold.Chemscore.Internal.Correction.Weighted>
   9.000000E+99

> <Gold.Protein.RotatedTorsions>
[ 6907 6896 6895 6894 ] final  165.27 input  -60.11 | X-H torsion
[ 7974 7965 7964 7962 ] final  -20.21 input  175.53 | X-H torsion
[ 8008 7997 7996 7995 ] final -105.46 input   59.86 | X-H torsion
[ 10167 10162 10161 10158 ] final -106.29 input  -65.29 | X-H torsion
[ 10718 10713 10712 10709 ] final -152.82 input   66.30 | X-H torsion
[ 10763 10752 10751 10750 ] final -163.12 input  -60.55 | X-H torsion
[ 11005 11000 10999 10996 ] final  174.16 input  -57.11 | X-H torsion

> <Gold.Protein.ActiveResidues>
 VAL166  LYS551  ARG553  GLY616  TRP617  ASP618  TYR619  PRO620  LYS621  CYS622 
 ASP623  PHE694  ASN695  SER759  ASP760  ASP761  ALA762  ILE779  LEU786  VAL792 
 PHE793  MET794  SER795  GLU796  ALA797  LYS798  CYS799  TRP800  GLU811  SER814 

> <Gold.Protein.RotatedAtoms>
  151.8969  133.3529  159.3817 H   0  0  0  0  0  0  0  0  0  0  0  0  # atno 6907 bound_to 6896
  150.7089  134.4867  159.5505 H   0  0  0  0  0  0  0  0  0  0  0  0  # atno 6908 bound_to 6896
  152.2448  134.8192  160.0506 H   0  0  0  0  0  0  0  0  0  0  0  0  # atno 6909 bound_to 6896
  146.1800  140.4170  142.8498 H   0  0  0  0  0  0  0  0  0  0  0  0  # atno 7974 bound_to 7965
  154.9001  140.0413  157.1888 H   0  0  0  0  0  0  0  0  0  0  0  0  # atno 8008 bound_to 7997
  154.8452  140.2920  155.5612 H   0  0  0  0  0  0  0  0  0  0  0  0  # atno 8009 bound_to 7997
  156.2994  140.2475  156.3402 H   0  0  0  0  0  0  0  0  0  0  0  0  # atno 8010 bound_to 7997
  140.1893  143.3904  152.1219 H   0  0  0  0  0  0  0  0  0  0  0  0  # atno 10167 bound_to 10162
  156.4776  130.8288  151.2516 H   0  0  0  0  0  0  0  0  0  0  0  0  # atno 10718 bound_to 10713
  154.7151  135.3014  154.9136 H   0  0  0  0  0  0  0  0  0  0  0  0  # atno 10763 bound_to 10752
  154.0025  135.6705  153.4764 H   0  0  0  0  0  0  0  0  0  0  0  0  # atno 10764 bound_to 10752
  153.0787  135.5021  154.8373 H   0  0  0  0  0  0  0  0  0  0  0  0  # atno 10765 bound_to 10752
  140.3483  134.7217  157.4250 H   0  0  0  0  0  0  0  0  0  0  0  0  # atno 11005 bound_to 11000
  144.8300  140.6691  143.6297 LP  0  0  0  0  0  0  0  0  0  0  0  0  # atno 17320 bound_to 7965
  145.4102  139.1581  143.4130 LP  0  0  0  0  0  0  0  0  0  0  0  0  # atno 17321 bound_to 7965
  139.5262  144.7105  151.5219 LP  0  0  0  0  0  0  0  0  0  0  0  0  # atno 17342 bound_to 10162
  140.6466  143.8781  150.6744 LP  0  0  0  0  0  0  0  0  0  0  0  0  # atno 17343 bound_to 10162
  157.7486  131.0056  150.3118 LP  0  0  0  0  0  0  0  0  0  0  0  0  # atno 17370 bound_to 10713
  156.3555  130.3838  149.7294 LP  0  0  0  0  0  0  0  0  0  0  0  0  # atno 17371 bound_to 10713
  140.0724  134.5845  155.8628 LP  0  0  0  0  0  0  0  0  0  0  0  0  # atno 17394 bound_to 11000
  141.2019  133.6621  156.5977 LP  0  0  0  0  0  0  0  0  0  0  0  0  # atno 17395 bound_to 11000

$$$$
