#       Name:                AV-unprocessed.smi:2061
#       Creating user name   scv26
#       Creation time:       Fri Mar 27 11:06:29 2020


#       File generated by GOLD software.
#

@<TRIPOS>MOLECULE
AV-unprocessed.smi:2061
    53    54     1
SMALL
NO_CHARGES


@<TRIPOS>ATOM
      1 ****        -4.0168   5.9343   2.9969 C.3            1 S1                 0.0000
      2 ****        -3.9716   4.8607   1.9634 C.2            1 S1                 0.0000
      3 ****        -2.9748   4.3922   1.1552 C.2            1 S1                 0.0000
      4 ****        -3.6129   3.3565   0.4193 C.2            1 S1                 0.0000
      5 ****        -3.0432   2.5940  -0.5269 N.pl3          1 S1                -1.0000
      6 ****        -2.3488   1.4856  -0.1842 C.2            1 S1                 0.0000
      7 ****        -2.1527   1.0671   0.9592 O.2            1 S1                 0.0000
      8 ****        -1.8429   0.8220  -1.2333 N.am           1 S1                 0.0000
      9 ****        -1.0330  -0.3902  -1.1630 C.3            1 S1                 0.0000
     10 ****         0.4271  -0.1182  -0.7149 C.3            1 S1                 0.0000
     11 ****         1.0994   0.8962  -1.6719 C.3            1 S1                 0.0000
     12 ****         1.1719  -1.4129  -0.5896 N.4            1 S1                 1.0000
     13 ****         2.6521  -1.3280  -0.7118 C.3            1 S1                 0.0000
     14 ****         3.2924  -2.7281  -0.6596 C.3            1 S1                 0.0000
     15 ****         4.8233  -2.6578  -0.6775 C.3            1 S1                 0.0000
     16 ****         2.9030  -3.3974   0.5347 O.3            1 S1                 0.0000
     17 ****         1.4943  -3.5333   0.7053 C.3            1 S1                 0.0000
     18 ****         0.8766  -4.5531  -0.2686 C.3            1 S1                 0.0000
     19 ****         0.8231  -2.1483   0.6558 C.3            1 S1                 0.0000
     20 ****        -4.8886   3.2206   0.7401 N.2            1 S1                 0.0000
     21 ****        -5.1249   4.1768   1.7349 O.3            1 S1                 0.0000
     22 ****        -3.5754   6.8553   2.6161 H              1 S1                 0.0000
     23 ****        -3.4623   5.6355   3.8863 H              1 S1                 0.0000
     24 ****        -5.0429   6.1510   3.2950 H              1 S1                 0.0000
     25 ****        -1.9519   4.7328   1.1007 H              1 S1                 0.0000
     26 ****        -2.0321   1.1952  -2.1523 H              1 S1                 0.0000
     27 ****        -1.5396  -1.0974  -0.5073 H              1 S1                 0.0000
     28 ****        -1.0332  -0.8478  -2.1527 H              1 S1                 0.0000
     29 ****         0.4143   0.3477   0.2718 H              1 S1                 0.0000
     30 ****         0.5176   1.8133  -1.7611 H              1 S1                 0.0000
     31 ****         1.2118   0.4840  -2.6752 H              1 S1                 0.0000
     32 ****         2.0816   1.2060  -1.3146 H              1 S1                 0.0000
     33 ****         2.9379  -0.8784  -1.6621 H              1 S1                 0.0000
     34 ****         3.0483  -0.6947   0.0838 H              1 S1                 0.0000
     35 ****         2.9734  -3.3079  -1.5260 H              1 S1                 0.0000
     36 ****         5.1842  -2.1704  -1.5835 H              1 S1                 0.0000
     37 ****         5.2595  -3.6565  -0.6422 H              1 S1                 0.0000
     38 ****         5.2035  -2.0985   0.1779 H              1 S1                 0.0000
     39 ****         1.3525  -3.9335   1.7098 H              1 S1                 0.0000
     40 ****        -0.1716  -4.7305  -0.0267 H              1 S1                 0.0000
     41 ****         1.3939  -5.5109  -0.2083 H              1 S1                 0.0000
     42 ****         0.9152  -4.2158  -1.3041 H              1 S1                 0.0000
     43 ****         1.1479  -1.5595   1.5154 H              1 S1                 0.0000
     44 ****        -0.2532  -2.2727   0.7605 H              1 S1                 0.0000
     45 ****         0.8656  -1.9834  -1.3647 H              1 S1                 0.0000
     46 ****        -3.1327   2.8469  -1.4902 LP             1 S1                 0.0000
     47 ****        -2.5245   1.5631   1.7438 LP             1 S1                 0.0000
     48 ****        -1.6218   0.2317   1.1017 LP             1 S1                 0.0000
     49 ****         3.2634  -2.8827   1.3126 LP             1 S1                 0.0000
     50 ****         3.3060  -4.3126   0.5252 LP             1 S1                 0.0000
     51 ****        -5.5450   2.5724   0.3541 LP             1 S1                 0.0000
     52 ****        -5.8371   4.8096   1.4313 LP             1 S1                 0.0000
     53 ****        -5.4191   3.7223   2.5757 LP             1 S1                 0.0000
@<TRIPOS>BOND
    1    1    2 1     
    2    1   22 1     
    3    1   23 1     
    4    1   24 1     
    5    2   21 1     
    6    2    3 2     
    7    3    4 1     
    8    3   25 1     
    9    4    5 1     
   10    4   20 2     
   11    5    6 1     
   12    6    7 2     
   13    6    8 am    
   14    8    9 1     
   15    8   26 1     
   16    9   10 1     
   17    9   27 1     
   18    9   28 1     
   19   10   11 1     
   20   10   12 1     
   21   10   29 1     
   22   11   30 1     
   23   11   31 1     
   24   11   32 1     
   25   12   19 1     
   26   12   13 1     
   27   12   45 1     
   28   13   14 1     
   29   13   33 1     
   30   13   34 1     
   31   14   15 1     
   32   14   16 1     
   33   14   35 1     
   34   15   36 1     
   35   15   37 1     
   36   15   38 1     
   37   16   17 1     
   38   17   18 1     
   39   17   19 1     
   40   17   39 1     
   41   18   40 1     
   42   18   41 1     
   43   18   42 1     
   44   19   43 1     
   45   19   44 1     
   46   20   21 1     
   47    5   46 1     
   48    7   47 1     
   49    7   48 1     
   50   16   49 1     
   51   16   50 1     
   52   20   51 1     
   53   21   52 1     
   54   21   53 1     
@<TRIPOS>SUBSTRUCTURE
      1 S1             1
@<TRIPOS>SET
LONE_PAIRS      STATIC     ATOMS    <user>   **** ""
8 46 47 48 49 50 51 52 53
DONOR_HYDROGENS      STATIC     ATOMS    <user>   **** ""
2 26 45
ATOM$BLUE        STATIC     ATOMS    COLORGROUP SYSTEM
8 46 47 48 49 50 51 52 53
ATOM$RED        STATIC     ATOMS    COLORGROUP SYSTEM
2 26 45
