AV-unprocessed.smi:36|AV-procd|sdf|281|dock6
  -GOLD-   2262016 53D 1   1.00000     0.00000
 Structure written by MMmdl.
 64 67  0  0  0  0  0  0  0  0  1 V2000
  147.6007  134.5086  161.5873 C   0  0  0  0  0  0  0  0  0  0  0  0
  146.7891  133.3713  160.9441 C   0  0  0  0  0  0  0  0  0  0  0  0
  147.5454  132.0407  161.0933 C   0  0  0  0  0  0  0  0  0  0  0  0
  145.4127  133.2640  161.6216 C   0  0  0  0  0  0  0  0  0  0  0  0
  146.5409  133.7399  159.0859 Si  0  0  0  0  0  0  0  0  0  0  0  0
  145.4628  132.4071  158.2653 C   0  0  0  0  0  0  0  0  0  0  0  0
  145.7616  135.4529  158.8203 C   0  0  0  0  0  0  0  0  0  0  0  0
  148.0592  133.7262  158.3403 O   0  0  0  0  0  0  0  0  0  0  0  0
  148.7860  132.5435  158.0806 C   0  0  0  0  0  0  0  0  0  0  0  0
  149.7436  132.7838  156.9060 C   0  0  2  0  0  0  0  0  0  0  0  0
  150.5186  133.9457  157.2030 O   0  0  0  0  0  0  0  0  0  0  0  0
  150.5823  134.7493  156.0739 C   0  0  2  0  0  0  0  0  0  0  0  0
  150.7906  136.1629  156.5028 N   0  0  0  0  0  0  0  0  0  0  0  0
  151.0516  136.6312  157.7711 C   0  0  0  0  0  0  0  0  0  0  0  0
  151.1787  137.9272  157.8739 N   0  0  0  0  0  0  0  0  0  0  0  0
  150.9841  138.3880  156.5779 C   0  0  0  0  0  0  0  0  0  0  0  0
  150.9784  139.6771  155.9840 C   0  0  0  0  0  0  0  0  0  0  0  0
  151.2022  140.7764  156.7419 N   0  0  0  0  0  0  0  0  0  0  0  0
  152.1301  140.9279  157.8489 C   0  0  0  0  0  0  0  0  0  0  0  0
  152.9033  140.0299  158.1836 O   0  0  0  0  0  0  0  0  0  0  0  0
  152.1572  142.2770  158.5066 C   0  0  0  0  0  0  0  0  0  0  0  0
  152.6620  142.4126  159.8192 C   0  0  0  0  0  0  0  0  0  0  0  0
  152.6766  143.6713  160.4513 C   0  0  0  0  0  0  0  0  0  0  0  0
  152.1783  144.8034  159.7795 C   0  0  0  0  0  0  0  0  0  0  0  0
  151.6626  144.6753  158.4759 C   0  0  0  0  0  0  0  0  0  0  0  0
  151.6485  143.4172  157.8423 C   0  0  0  0  0  0  0  0  0  0  0  0
  150.7507  139.7477  154.6458 N   0  0  0  0  0  0  0  0  0  0  0  0
  150.5348  138.6336  153.9398 C   0  0  0  0  0  0  0  0  0  0  0  0
  150.5072  137.3690  154.3650 N   0  0  0  0  0  0  0  0  0  0  0  0
  150.7405  137.2894  155.7074 C   0  0  0  0  0  0  0  0  0  0  0  0
  149.2504  134.5701  155.3610 C   0  0  0  0  0  0  0  0  0  0  0  0
  149.0056  133.0894  155.5844 C   0  0  1  0  0  0  0  0  0  0  0  0
  149.5649  132.3375  154.5245 O   0  0  0  0  0  0  0  0  0  0  0  0
  147.7626  134.3275  162.6504 H   0  0  0  0  0  0  0  0  0  0  0  0
  147.0879  135.4660  161.4925 H   0  0  0  0  0  0  0  0  0  0  0  0
  148.5803  134.6118  161.1198 H   0  0  0  0  0  0  0  0  0  0  0  0
  148.5301  132.0876  160.6279 H   0  0  0  0  0  0  0  0  0  0  0  0
  146.9997  131.2206  160.6254 H   0  0  0  0  0  0  0  0  0  0  0  0
  147.6915  131.7829  162.1429 H   0  0  0  0  0  0  0  0  0  0  0  0
  145.5100  133.0328  162.6831 H   0  0  0  0  0  0  0  0  0  0  0  0
  144.8080  132.4784  161.1674 H   0  0  0  0  0  0  0  0  0  0  0  0
  144.8545  134.1969  161.5398 H   0  0  0  0  0  0  0  0  0  0  0  0
  144.4780  132.3462  158.7281 H   0  0  0  0  0  0  0  0  0  0  0  0
  145.9190  131.4205  158.3418 H   0  0  0  0  0  0  0  0  0  0  0  0
  145.3099  132.6113  157.2059 H   0  0  0  0  0  0  0  0  0  0  0  0
  144.7809  135.5250  159.2899 H   0  0  0  0  0  0  0  0  0  0  0  0
  145.6306  135.6714  157.7609 H   0  0  0  0  0  0  0  0  0  0  0  0
  146.3826  136.2448  159.2386 H   0  0  0  0  0  0  0  0  0  0  0  0
  149.3488  132.2730  158.9747 H   0  0  0  0  0  0  0  0  0  0  0  0
  148.1002  131.7229  157.8660 H   0  0  0  0  0  0  0  0  0  0  0  0
  150.4058  131.9240  156.7893 H   0  0  0  0  0  0  0  0  0  0  0  0
  151.4451  134.4889  155.4588 H   0  0  0  0  0  0  0  0  0  0  0  0
  151.1459  135.9762  158.6250 H   0  0  0  0  0  0  0  0  0  0  0  0
  150.6541  141.5920  156.5100 H   0  0  0  0  0  0  0  0  0  0  0  0
  153.0464  141.5529  160.3491 H   0  0  0  0  0  0  0  0  0  0  0  0
  153.0689  143.7674  161.4530 H   0  0  0  0  0  0  0  0  0  0  0  0
  152.1883  145.7680  160.2651 H   0  0  0  0  0  0  0  0  0  0  0  0
  151.2746  145.5426  157.9620 H   0  0  0  0  0  0  0  0  0  0  0  0
  151.2396  143.3392  156.8453 H   0  0  0  0  0  0  0  0  0  0  0  0
  150.3590  138.7761  152.8837 H   0  0  0  0  0  0  0  0  0  0  0  0
  148.4800  135.1576  155.8618 H   0  0  0  0  0  0  0  0  0  0  0  0
  149.3087  134.8732  154.3149 H   0  0  0  0  0  0  0  0  0  0  0  0
  147.9390  132.8672  155.6364 H   0  0  0  0  0  0  0  0  0  0  0  0
  150.4279  132.6753  154.3387 H   0  0  0  0  0  0  0  0  0  0  0  0
  1  2  1  0  0  0  0
  1 34  1  0  0  0  0
  1 35  1  0  0  0  0
  1 36  1  0  0  0  0
  2  3  1  0  0  0  0
  2  4  1  0  0  0  0
  2  5  1  0  0  0  0
  3 37  1  0  0  0  0
  3 38  1  0  0  0  0
  3 39  1  0  0  0  0
  4 40  1  0  0  0  0
  4 41  1  0  0  0  0
  4 42  1  0  0  0  0
  5  6  1  0  0  0  0
  5  7  1  0  0  0  0
  5  8  1  0  0  0  0
  6 43  1  0  0  0  0
  6 44  1  0  0  0  0
  6 45  1  0  0  0  0
  7 46  1  0  0  0  0
  7 47  1  0  0  0  0
  7 48  1  0  0  0  0
  8  9  1  0  0  0  0
  9 10  1  0  0  0  0
  9 49  1  0  0  0  0
  9 50  1  0  0  0  0
 10 32  1  0  0  0  0
 10 11  1  0  0  0  0
 10 51  1  0  0  0  0
 11 12  1  0  0  0  0
 12 13  1  0  0  0  0
 12 31  1  0  0  0  0
 12 52  1  0  0  0  0
 13 30  1  0  0  0  0
 13 14  1  0  0  0  0
 14 15  2  0  0  0  0
 14 53  1  0  0  0  0
 15 16  1  0  0  0  0
 16 30  2  0  0  0  0
 16 17  1  0  0  0  0
 17 18  1  0  0  0  0
 17 27  2  0  0  0  0
 18 19  1  0  0  0  0
 18 54  1  0  0  0  0
 19 20  2  0  0  0  0
 19 21  1  0  0  0  0
 21 26  1  0  0  0  0
 21 22  2  0  0  0  0
 22 23  1  0  0  0  0
 22 55  1  0  0  0  0
 23 24  2  0  0  0  0
 23 56  1  0  0  0  0
 24 25  1  0  0  0  0
 24 57  1  0  0  0  0
 25 26  2  0  0  0  0
 25 58  1  0  0  0  0
 26 59  1  0  0  0  0
 27 28  1  0  0  0  0
 28 29  2  0  0  0  0
 28 60  1  0  0  0  0
 29 30  1  0  0  0  0
 31 32  1  0  0  0  0
 31 61  1  0  0  0  0
 31 62  1  0  0  0  0
 32 33  1  0  0  0  0
 32 63  1  0  0  0  0
 33 64  1  0  0  0  0
M  END
> <s_m_source_file>
AV-unprocessed.smi

> <i_m_source_file_index>
36

> <i_lp_mmshare_version>
43012

> <i_f3d_flags>
0

> <s_epik_input>
W0NIM11DKFtDSDNdKShbQ0gzXSlbU2ldKFtDSDNdKShbQ0gzXSlPW0NIMl1bQ0BASF0xT1tDQEhdKFtDSDJdW0NASF0xW09IXSluKFtjSF1uMiljKGMyMyluW2NIXW5jM1tOSF1DKD1PKWM0W2NIXVtjSF1bY0hdW2NIXVtjSF00

> <s_epik_cmdline>
J2VwaWtfcHl0aG9uJywgJy1waCcsICc3LjAnLCAnLXRuJywgJzgnLCAnLW1hJywgJzIwMCcsICctbWV0YWxfYmluZGluZycsICctaW1hZScsICc8aW5maWxlLm1hZT4nLCAnLW9tYWUnLCAnPG91dGZpbGUubWFlPic=

> <r_lp_tautomer_probability>
1

> <r_epik_Ionization_Penalty>
0.00150433

> <r_epik_Ionization_Penalty_Charging>
0

> <r_epik_Ionization_Penalty_Neutral>
0.00150433

> <r_epik_State_Penalty>
0.00724046

> <r_epik_Charging_Adjusted_Penalty>
0.00724046

> <i_epik_Tot_Q>
0

> <i_epik_Tot_abs_Q>
0

> <r_epik_Metal_State_Penalty>
0.323355

> <b_epik_Metal_Only>
0

> <s_epik_Chemistry_Notes>
This compound contains an acetal/aminal-like group ( X-CH(R)-Y where X, Y are N, S, or O) that may be acid/base labile, releasing an aldehyde.

> <s_lp_Force_Field>
OPLS_2005

> <r_lp_Energy>
37.1131

> <b_lp_Chiralities_Consistent>
1

> <s_lp_Variant>
AV-unprocessed.smi:36-3

> <Gold.Version>
5.8.1

> <Gold.Id.Protein>
6NUR|6NUR_protein|mol2

> <Gold.PLP.Fitness>
57.5534

> <Gold.PLP.PLP>
-48.1611

> <Gold.PLP.part.hbond>
-3.0000

> <Gold.PLP.part.metal>
0.0000

> <Gold.PLP.part.buried>
-8.5988

> <Gold.PLP.part.nonpolar>
-37.6499

> <Gold.PLP.part.repulsive>
0.3950

> <Gold.PLP.ligand.clash>
0.0000

> <Gold.PLP.ligand.torsion>
0.9343

> <Gold.PLP.Chemscore.Hbond>
2.6232

> <Gold.PLP.Chemscore.CHOScore>
0.9999

> <Gold.PLP.Chemscore.Metal>
0.0000

> <Gold.Chemscore.Hbonds>
donor molecule, donor type, donor heavy atom, donor atom, acceptor molecule, acceptor atom, score
      P1  H  6896  6907       L1    11  0.62
      P1  H  7989  7998       L1    27  1.00
      P1  H  7997  8010       L1    20  0.96
      L1  C    28    60       P1  7957  1.00

> <Gold.PLP.Chemscore.Internal.Correction>
0.3919

> <Gold.Rescore>
     Score         DG    S(hbond)    S(metal)    S(lipo)     H(rot)  DE(clash)    DE(int)     intcor
     15.50     -18.92       2.08        0.00     114.71       2.70       0.20       3.23       ----

> <Gold.Chemscore.Fitness>
15.5006

> <Gold.Chemscore.DG>
-18.9238

> <Gold.Chemscore.ZeroCoef>
-5.4800

> <Gold.Chemscore.Hbond>
2.0793

> <Gold.Chemscore.Metal>
0.0000

> <Gold.Chemscore.Lipo>
114.7122

> <Gold.Chemscore.Internal_Hbond>
0.0000

> <Gold.Chemscore.DEClash>
0.1961

> <Gold.Chemscore.DEInternal>
3.2270

> <Gold.Chemscore.Rot>
2.7041

> <Gold.Chemscore.Internal.Correction>
   9.000000E+99

> <Gold.Chemscore.Hbonds>
donor molecule, donor type, donor heavy atom, donor atom, acceptor molecule, acceptor atom, score
      P1  H  6896  6907       L1    11  0.18
      P1  H  7989  7998       L1    27  0.50
      P1  H  7997  8010       L1    20  0.69

> <Gold.Chemscore.Hbond.Weighted>
-6.9449

> <Gold.Chemscore.Metal.Weighted>
-0.0000

> <Gold.Chemscore.Lipo.Weighted>
-13.4213

> <Gold.Chemscore.Internal_Hbond.Weighted>
0.0000

> <Gold.Chemscore.DEClash.Weighted>
0.1961

> <Gold.Chemscore.DEInternal.Weighted>
3.2270

> <Gold.Chemscore.Rot.Weighted>
6.9225

> <Gold.Chemscore.Internal.Correction.Weighted>
   9.000000E+99

> <Gold.Protein.RotatedTorsions>
[ 6907 6896 6895 6894 ] final -135.37 input  -60.11 | X-H torsion
[ 7974 7965 7964 7962 ] final  124.88 input  175.53 | X-H torsion
[ 8008 7997 7996 7995 ] final   32.85 input   59.86 | X-H torsion
[ 10167 10162 10161 10158 ] final   86.36 input  -65.29 | X-H torsion
[ 10718 10713 10712 10709 ] final  173.93 input   66.30 | X-H torsion
[ 10763 10752 10751 10750 ] final  169.07 input  -60.55 | X-H torsion
[ 11005 11000 10999 10996 ] final    8.39 input  -57.11 | X-H torsion

> <Gold.Protein.ActiveResidues>
 VAL166  LYS551  ARG553  GLY616  TRP617  ASP618  TYR619  PRO620  LYS621  CYS622 
 ASP623  PHE694  ASN695  SER759  ASP760  ASP761  ALA762  ILE779  LEU786  VAL792 
 PHE793  MET794  SER795  GLU796  ALA797  LYS798  CYS799  TRP800  GLU811  SER814 

> <Gold.Protein.RotatedAtoms>
  150.9970  133.6093  159.2700 H   0  0  0  0  0  0  0  0  0  0  0  0  # atno 6907 bound_to 6896
  151.3293  135.0837  159.9343 H   0  0  0  0  0  0  0  0  0  0  0  0  # atno 6908 bound_to 6896
  152.5263  133.9603  159.7768 H   0  0  0  0  0  0  0  0  0  0  0  0  # atno 6909 bound_to 6896
  145.0794  139.3669  143.4917 H   0  0  0  0  0  0  0  0  0  0  0  0  # atno 7974 bound_to 7965
  155.1291  140.3255  155.4478 H   0  0  0  0  0  0  0  0  0  0  0  0  # atno 8008 bound_to 7997
  156.2640  140.2013  156.6359 H   0  0  0  0  0  0  0  0  0  0  0  0  # atno 8009 bound_to 7997
  154.6626  140.0545  157.0066 H   0  0  0  0  0  0  0  0  0  0  0  0  # atno 8010 bound_to 7997
  139.8883  144.6400  150.8767 H   0  0  0  0  0  0  0  0  0  0  0  0  # atno 10167 bound_to 10162
  156.9571  131.0049  151.2936 H   0  0  0  0  0  0  0  0  0  0  0  0  # atno 10718 bound_to 10713
  154.3778  135.2753  155.2229 H   0  0  0  0  0  0  0  0  0  0  0  0  # atno 10763 bound_to 10752
  154.4348  135.5968  153.6095 H   0  0  0  0  0  0  0  0  0  0  0  0  # atno 10764 bound_to 10752
  152.9835  135.6004  154.4017 H   0  0  0  0  0  0  0  0  0  0  0  0  # atno 10765 bound_to 10752
  140.5375  134.0406  155.7893 H   0  0  0  0  0  0  0  0  0  0  0  0  # atno 11005 bound_to 11000
  146.3530  140.0577  142.8631 LP  0  0  0  0  0  0  0  0  0  0  0  0  # atno 17320 bound_to 7965
  145.1196  140.9455  143.4608 LP  0  0  0  0  0  0  0  0  0  0  0  0  # atno 17321 bound_to 7965
  140.7731  143.3530  151.1976 LP  0  0  0  0  0  0  0  0  0  0  0  0  # atno 17342 bound_to 10162
  139.7133  143.9341  152.2956 LP  0  0  0  0  0  0  0  0  0  0  0  0  # atno 17343 bound_to 10162
  157.5683  130.8293  149.8357 LP  0  0  0  0  0  0  0  0  0  0  0  0  # atno 17370 bound_to 10713
  156.0338  130.3757  150.1616 LP  0  0  0  0  0  0  0  0  0  0  0  0  # atno 17371 bound_to 10713
  141.1246  133.9404  157.2661 LP  0  0  0  0  0  0  0  0  0  0  0  0  # atno 17394 bound_to 11000
  139.9521  135.0173  156.9024 LP  0  0  0  0  0  0  0  0  0  0  0  0  # atno 17395 bound_to 11000

$$$$
