AV-unprocessed.smi:2874|AV-procd|sdf|11039|dock6
  -GOLD-   2272015503D 1   1.00000     0.00000
 Structure written by MMmdl.
 40 42  0  0  0  0  0  0  0  0  2 V2000
  149.1498  144.1131  163.8199 C   0  0  0  0  0  0  0  0  0  0  0  0
  148.2640  145.0093  163.1732 O   0  0  0  0  0  0  0  0  0  0  0  0
  148.2587  144.8486  161.7640 C   0  0  0  0  0  0  0  0  0  0  0  0
  149.6401  145.2118  161.2013 C   0  0  0  0  0  0  0  0  0  0  0  0
  149.7419  144.9395  159.7608 N   0  0  0  0  0  0  0  0  0  0  0  0
  148.9611  145.3543  158.7239 C   0  0  0  0  0  0  0  0  0  0  0  0
  147.5305  146.3834  158.8447 S   0  0  0  0  0  0  0  0  0  0  0  0
  146.7689  146.4218  157.1948 C   0  0  0  0  0  0  0  0  0  0  0  0
  147.5122  147.3833  156.2845 C   0  0  0  0  0  0  0  0  0  0  0  0
  148.5329  148.0584  156.8229 N   0  0  0  0  0  0  0  0  0  0  0  0
  149.1828  148.9273  156.0185 C   0  0  0  0  0  0  0  0  0  0  0  0
  148.8055  149.1176  154.6736 C   0  0  0  0  0  0  0  0  0  0  0  0
  147.7173  148.3476  154.2169 C   0  0  0  0  0  0  0  0  0  0  0  0
  147.2632  148.4601  152.9056 N   0  0  0  0  0  0  0  0  0  0  0  0
  147.0715  147.4803  155.0251 N   0  0  0  0  0  0  0  0  0  0  0  0
  149.4895  144.8365  157.5805 N   0  3  0  0  0  0  0  0  0  0  0  0
  150.6169  144.0748  157.8884 C   0  0  0  0  0  0  0  0  0  0  0  0
  151.4794  143.3526  157.0700 C   0  0  0  0  0  0  0  0  0  0  0  0
  152.5452  142.6829  157.7068 C   0  0  0  0  0  0  0  0  0  0  0  0
  153.6555  141.7668  156.7561 Cl  0  0  0  0  0  0  0  0  0  0  0  0
  152.7203  142.7491  159.1048 C   0  0  0  0  0  0  0  0  0  0  0  0
  151.8390  143.4838  159.9250 C   0  0  0  0  0  0  0  0  0  0  0  0
  150.7872  144.1398  159.2868 C   0  0  0  0  0  0  0  0  0  0  0  0
  149.1132  144.2762  164.8969 H   0  0  0  0  0  0  0  0  0  0  0  0
  150.1780  144.2686  163.4906 H   0  0  0  0  0  0  0  0  0  0  0  0
  148.8726  143.0759  163.6267 H   0  0  0  0  0  0  0  0  0  0  0  0
  148.0097  143.8175  161.5089 H   0  0  0  0  0  0  0  0  0  0  0  0
  147.4971  145.4883  161.3158 H   0  0  0  0  0  0  0  0  0  0  0  0
  149.8754  146.2609  161.3821 H   0  0  0  0  0  0  0  0  0  0  0  0
  150.4129  144.6315  161.7063 H   0  0  0  0  0  0  0  0  0  0  0  0
  146.7974  145.4199  156.7654 H   0  0  0  0  0  0  0  0  0  0  0  0
  145.7188  146.7025  157.2873 H   0  0  0  0  0  0  0  0  0  0  0  0
  150.0072  149.4753  156.4507 H   0  0  0  0  0  0  0  0  0  0  0  0
  149.3266  149.8142  154.0332 H   0  0  0  0  0  0  0  0  0  0  0  0
  147.7002  149.0934  152.2511 H   0  0  0  0  0  0  0  0  0  0  0  0
  146.5706  147.8261  152.5340 H   0  0  0  0  0  0  0  0  0  0  0  0
  151.3458  143.3031  155.9994 H   0  0  0  0  0  0  0  0  0  0  0  0
  153.5483  142.2246  159.5594 H   0  0  0  0  0  0  0  0  0  0  0  0
  151.9832  143.5283  160.9944 H   0  0  0  0  0  0  0  0  0  0  0  0
  149.0967  144.9845  156.6593 H   0  0  0  0  0  0  0  0  0  0  0  0
  1  2  1  0  0  0  0
  1 24  1  0  0  0  0
  1 25  1  0  0  0  0
  1 26  1  0  0  0  0
  2  3  1  0  0  0  0
  3  4  1  0  0  0  0
  3 27  1  0  0  0  0
  3 28  1  0  0  0  0
  4  5  1  0  0  0  0
  4 29  1  0  0  0  0
  4 30  1  0  0  0  0
  5 23  1  0  0  0  0
  5  6  1  0  0  0  0
  6  7  1  0  0  0  0
  6 16  2  0  0  0  0
  7  8  1  0  0  0  0
  8  9  1  0  0  0  0
  8 31  1  0  0  0  0
  8 32  1  0  0  0  0
  9 15  1  0  0  0  0
  9 10  2  0  0  0  0
 10 11  1  0  0  0  0
 11 12  2  0  0  0  0
 11 33  1  0  0  0  0
 12 13  1  0  0  0  0
 12 34  1  0  0  0  0
 13 14  1  0  0  0  0
 13 15  2  0  0  0  0
 14 35  1  0  0  0  0
 14 36  1  0  0  0  0
 16 17  1  0  0  0  0
 16 40  1  0  0  0  0
 17 23  2  0  0  0  0
 17 18  1  0  0  0  0
 18 19  2  0  0  0  0
 18 37  1  0  0  0  0
 19 20  1  0  0  0  0
 19 21  1  0  0  0  0
 21 22  2  0  0  0  0
 21 38  1  0  0  0  0
 22 23  1  0  0  0  0
 22 39  1  0  0  0  0
M  CHG  1  16   1
M  END
> <s_m_source_file>
AV-unprocessed.smi

> <i_m_source_file_index>
2874

> <i_lp_mmshare_version>
43012

> <i_f3d_flags>
0

> <s_epik_input>
W2NIXTFjKENsKVtjSF1bY0hdYyhjMTIpbihbQ0gyXVtDSDJdT1tDSDNdKWMobjIpU1tDSDJdYzNuW2NIXVtjSF1jKG4zKVtOSDJd

> <s_epik_cmdline>
J2VwaWtfcHl0aG9uJywgJy1waCcsICc3LjAnLCAnLXRuJywgJzgnLCAnLW1hJywgJzIwMCcsICctbWV0YWxfYmluZGluZycsICctaW1hZScsICc8aW5maWxlLm1hZT4nLCAnLW9tYWUnLCAnPG91dGZpbGUubWFlPic=

> <r_lp_tautomer_probability>
1

> <r_epik_Ionization_Penalty>
2.48176

> <r_epik_Ionization_Penalty_Charging>
2.48043

> <r_epik_Ionization_Penalty_Neutral>
0.00132706

> <r_epik_State_Penalty>
2.64401

> <r_epik_Charging_Adjusted_Penalty>
5.12444

> <i_epik_Tot_Q>
1

> <i_epik_Tot_abs_Q>
1

> <r_epik_Metal_State_Penalty>
2.65168

> <b_epik_Metal_Only>
0

> <s_lp_Force_Field>
OPLS_2005

> <r_lp_Energy>
0.65944

> <b_lp_Chiralities_Consistent>
1

> <s_lp_Variant>
AV-unprocessed.smi:2874-2

> <Gold.Version>
5.8.1

> <Gold.Id.Protein>
6NUR|6NUR_protein|mol2

> <Gold.PLP.Fitness>
50.2333

> <Gold.PLP.PLP>
-44.5672

> <Gold.PLP.part.hbond>
-1.8545

> <Gold.PLP.part.metal>
0.0000

> <Gold.PLP.part.buried>
-5.5291

> <Gold.PLP.part.nonpolar>
-37.4800

> <Gold.PLP.part.repulsive>
0.4218

> <Gold.PLP.ligand.clash>
0.0000

> <Gold.PLP.ligand.torsion>
0.1946

> <Gold.PLP.Chemscore.Hbond>
2.0000

> <Gold.PLP.Chemscore.CHOScore>
0.0000

> <Gold.PLP.Chemscore.Metal>
0.0000

> <Gold.PLP.Chemscore.Internal.Correction>
0.0552

> <Gold.Rescore>
     Score         DG    S(hbond)    S(metal)    S(lipo)     H(rot)  DE(clash)    DE(int)     intcor
     14.39     -14.78       0.95        0.00     107.31       2.51       0.28       0.12       ----

> <Gold.Chemscore.Fitness>
14.3855

> <Gold.Chemscore.DG>
-14.7836

> <Gold.Chemscore.ZeroCoef>
-5.4800

> <Gold.Chemscore.Hbond>
0.9493

> <Gold.Chemscore.Metal>
0.0000

> <Gold.Chemscore.Lipo>
107.3115

> <Gold.Chemscore.Internal_Hbond>
0.0000

> <Gold.Chemscore.DEClash>
0.2827

> <Gold.Chemscore.DEInternal>
0.1154

> <Gold.Chemscore.Rot>
2.5088

> <Gold.Chemscore.Internal.Correction>
   9.000000E+99

> <Gold.Chemscore.Hbond.Weighted>
-3.1706

> <Gold.Chemscore.Metal.Weighted>
-0.0000

> <Gold.Chemscore.Lipo.Weighted>
-12.5554

> <Gold.Chemscore.Internal_Hbond.Weighted>
0.0000

> <Gold.Chemscore.DEClash.Weighted>
0.2827

> <Gold.Chemscore.DEInternal.Weighted>
0.1154

> <Gold.Chemscore.Rot.Weighted>
6.4224

> <Gold.Chemscore.Internal.Correction.Weighted>
   9.000000E+99

> <Gold.Protein.RotatedTorsions>
[ 6907 6896 6895 6894 ] final  -28.96 input  -60.11 | X-H torsion
[ 7974 7965 7964 7962 ] final   46.05 input  175.53 | X-H torsion
[ 8008 7997 7996 7995 ] final   25.18 input   59.86 | X-H torsion
[ 10167 10162 10161 10158 ] final  104.08 input  -65.29 | X-H torsion
[ 10718 10713 10712 10709 ] final   42.12 input   66.30 | X-H torsion
[ 10763 10752 10751 10750 ] final   12.86 input  -60.55 | X-H torsion
[ 11005 11000 10999 10996 ] final  -68.29 input  -57.11 | X-H torsion

> <Gold.Protein.ActiveResidues>
 VAL166  LYS551  ARG553  GLY616  TRP617  ASP618  TYR619  PRO620  LYS621  CYS622 
 ASP623  PHE694  ASN695  SER759  ASP760  ASP761  ALA762  ILE779  LEU786  VAL792 
 PHE793  MET794  SER795  GLU796  ALA797  LYS798  CYS799  TRP800  GLU811  SER814 

> <Gold.Protein.RotatedAtoms>
  151.1257  135.0103  159.8558 H   0  0  0  0  0  0  0  0  0  0  0  0  # atno 6907 bound_to 6896
  152.5449  134.1670  159.8591 H   0  0  0  0  0  0  0  0  0  0  0  0  # atno 6908 bound_to 6896
  151.1732  133.4726  159.2627 H   0  0  0  0  0  0  0  0  0  0  0  0  # atno 6909 bound_to 6896
  146.0425  139.4898  142.9769 H   0  0  0  0  0  0  0  0  0  0  0  0  # atno 7974 bound_to 7965
  155.0078  140.3133  155.4842 H   0  0  0  0  0  0  0  0  0  0  0  0  # atno 8008 bound_to 7997
  156.2914  140.2220  156.5132 H   0  0  0  0  0  0  0  0  0  0  0  0  # atno 8009 bound_to 7997
  154.7561  140.0462  157.0923 H   0  0  0  0  0  0  0  0  0  0  0  0  # atno 8010 bound_to 7997
  139.7208  144.7058  151.0876 H   0  0  0  0  0  0  0  0  0  0  0  0  # atno 10167 bound_to 10162
  157.4012  130.7861  149.7350 H   0  0  0  0  0  0  0  0  0  0  0  0  # atno 10718 bound_to 10713
  153.1779  135.6823  153.8517 H   0  0  0  0  0  0  0  0  0  0  0  0  # atno 10763 bound_to 10752
  153.7859  135.3176  155.3373 H   0  0  0  0  0  0  0  0  0  0  0  0  # atno 10764 bound_to 10752
  154.8041  135.4759  154.0442 H   0  0  0  0  0  0  0  0  0  0  0  0  # atno 10765 bound_to 10752
  141.1528  133.6737  156.6423 H   0  0  0  0  0  0  0  0  0  0  0  0  # atno 11005 bound_to 11000
  145.6861  141.0177  143.1580 LP  0  0  0  0  0  0  0  0  0  0  0  0  # atno 17320 bound_to 7965
  144.7081  139.8478  143.7423 LP  0  0  0  0  0  0  0  0  0  0  0  0  # atno 17321 bound_to 7965
  140.7753  143.5169  150.9584 LP  0  0  0  0  0  0  0  0  0  0  0  0  # atno 17342 bound_to 10162
  139.8856  143.7017  152.3152 LP  0  0  0  0  0  0  0  0  0  0  0  0  # atno 17343 bound_to 10162
  155.9824  130.4010  150.3420 LP  0  0  0  0  0  0  0  0  0  0  0  0  # atno 17370 bound_to 10713
  157.1547  131.0330  151.2869 LP  0  0  0  0  0  0  0  0  0  0  0  0  # atno 17371 bound_to 10713
  140.3384  134.7870  157.4379 LP  0  0  0  0  0  0  0  0  0  0  0  0  # atno 17394 bound_to 11000
  140.0958  134.5539  155.8400 LP  0  0  0  0  0  0  0  0  0  0  0  0  # atno 17395 bound_to 11000

$$$$
