AV-unprocessed.smi:2736|AV-procd|sdf|10546|dock10
  -GOLD-   2272014593D 1   1.00000     0.00000
 Structure written by MMmdl.
 38 40  0  0  0  0  0  0  0  0  1 V2000
  150.9509  145.2797  160.3766 C   0  0  0  0  0  0  0  0  0  0  0  0
  151.5281  143.9357  160.1871 N   0  0  0  0  0  0  0  0  0  0  0  0
  151.2055  143.2459  159.0479 C   0  0  0  0  0  0  0  0  0  0  0  0
  150.4618  143.6649  158.1602 O   0  0  0  0  0  0  0  0  0  0  0  0
  151.8296  141.9208  158.9584 C   0  0  0  0  0  0  0  0  0  0  0  0
  152.6463  141.4232  159.9198 C   0  0  0  0  0  0  0  0  0  0  0  0
  153.0935  140.1481  159.5917 N   0  0  0  0  0  0  0  0  0  0  0  0
  152.5029  139.9389  158.4150 C   0  0  0  0  0  0  0  0  0  0  0  0
  151.7296  140.9473  157.9645 N   0  0  0  0  0  0  0  0  0  0  0  0
  150.9807  140.9544  156.7167 C   0  0  0  0  0  0  0  0  0  0  0  0
  149.4740  140.7014  156.9269 C   0  0  1  0  0  0  0  0  0  0  0  0
  148.9967  141.4786  158.0096 O   0  0  0  0  0  0  0  0  0  0  0  0
  148.6909  140.9385  155.6376 C   0  0  0  0  0  0  0  0  0  0  0  0
  147.6478  141.8936  155.6115 C   0  0  0  0  0  0  0  0  0  0  0  0
  146.9177  142.1271  154.4307 C   0  0  0  0  0  0  0  0  0  0  0  0
  147.2269  141.4121  153.2599 C   0  0  0  0  0  0  0  0  0  0  0  0
  148.2708  140.4689  153.2705 C   0  0  0  0  0  0  0  0  0  0  0  0
  149.0061  140.2315  154.4492 C   0  0  0  0  0  0  0  0  0  0  0  0
  150.2930  139.0773  154.3970 Cl  0  0  0  0  0  0  0  0  0  0  0  0
  152.9110  142.2222  161.0622 N   0  0  0  0  0  0  0  0  0  0  0  0
  153.7868  141.6967  162.1135 C   0  0  0  0  0  0  0  0  0  0  0  0
  152.3511  143.4680  161.1969 C   0  0  0  0  0  0  0  0  0  0  0  0
  152.5802  144.1485  162.2010 O   0  0  0  0  0  0  0  0  0  0  0  0
  150.3906  145.6621  159.5229 H   0  0  0  0  0  0  0  0  0  0  0  0
  151.7348  146.0123  160.5761 H   0  0  0  0  0  0  0  0  0  0  0  0
  150.2684  145.2787  161.2279 H   0  0  0  0  0  0  0  0  0  0  0  0
  152.6342  139.0200  157.8627 H   0  0  0  0  0  0  0  0  0  0  0  0
  151.1518  141.8917  156.1889 H   0  0  0  0  0  0  0  0  0  0  0  0
  151.3974  140.1752  156.0770 H   0  0  0  0  0  0  0  0  0  0  0  0
  149.3309  139.6671  157.2387 H   0  0  0  0  0  0  0  0  0  0  0  0
  148.0528  141.4313  158.0190 H   0  0  0  0  0  0  0  0  0  0  0  0
  147.4004  142.4586  156.4982 H   0  0  0  0  0  0  0  0  0  0  0  0
  146.1211  142.8565  154.4235 H   0  0  0  0  0  0  0  0  0  0  0  0
  146.6680  141.5905  152.3532 H   0  0  0  0  0  0  0  0  0  0  0  0
  148.5104  139.9273  152.3672 H   0  0  0  0  0  0  0  0  0  0  0  0
  154.6301  142.3674  162.2831 H   0  0  0  0  0  0  0  0  0  0  0  0
  154.1987  140.7175  161.8702 H   0  0  0  0  0  0  0  0  0  0  0  0
  153.2378  141.5945  163.0507 H   0  0  0  0  0  0  0  0  0  0  0  0
  1  2  1  0  0  0  0
  1 24  1  0  0  0  0
  1 25  1  0  0  0  0
  1 26  1  0  0  0  0
  2 22  1  0  0  0  0
  2  3  1  0  0  0  0
  3  4  2  0  0  0  0
  3  5  1  0  0  0  0
  5  9  1  0  0  0  0
  5  6  2  0  0  0  0
  6  7  1  0  0  0  0
  6 20  1  0  0  0  0
  7  8  2  0  0  0  0
  8  9  1  0  0  0  0
  8 27  1  0  0  0  0
  9 10  1  0  0  0  0
 10 11  1  0  0  0  0
 10 28  1  0  0  0  0
 10 29  1  0  0  0  0
 11 12  1  0  0  0  0
 11 13  1  0  0  0  0
 11 30  1  0  0  0  0
 12 31  1  0  0  0  0
 13 18  1  0  0  0  0
 13 14  2  0  0  0  0
 14 15  1  0  0  0  0
 14 32  1  0  0  0  0
 15 16  2  0  0  0  0
 15 33  1  0  0  0  0
 16 17  1  0  0  0  0
 16 34  1  0  0  0  0
 17 18  2  0  0  0  0
 17 35  1  0  0  0  0
 18 19  1  0  0  0  0
 20 21  1  0  0  0  0
 20 22  1  0  0  0  0
 21 36  1  0  0  0  0
 21 37  1  0  0  0  0
 21 38  1  0  0  0  0
 22 23  2  0  0  0  0
M  END
> <s_m_source_file>
AV-unprocessed.smi

> <i_m_source_file_index>
2736

> <i_lp_mmshare_version>
43012

> <i_f3d_flags>
0

> <s_epik_input>
Tz1jMW4oW0NIM10pYyg9TyluKFtDSDNdKWMoYzEyKW5bY0hdbjJbQ0gyXVtDQEhdKFtPSF0pYzNbY0hdW2NIXVtjSF1bY0hdYzNDbA==

> <s_epik_cmdline>
J2VwaWtfcHl0aG9uJywgJy1waCcsICc3LjAnLCAnLXRuJywgJzgnLCAnLW1hJywgJzIwMCcsICctbWV0YWxfYmluZGluZycsICctaW1hZScsICc8aW5maWxlLm1hZT4nLCAnLW9tYWUnLCAnPG91dGZpbGUubWFlPic=

> <r_lp_tautomer_probability>
1

> <r_epik_Ionization_Penalty>
1.63404e-06

> <r_epik_Ionization_Penalty_Charging>
3.74189e-09

> <r_epik_Ionization_Penalty_Neutral>
1.63029e-06

> <r_epik_State_Penalty>
-0

> <r_epik_Charging_Adjusted_Penalty>
3.74189e-09

> <i_epik_Tot_Q>
0

> <i_epik_Tot_abs_Q>
0

> <r_epik_Metal_State_Penalty>
-0

> <b_epik_Metal_Only>
0

> <s_lp_Force_Field>
OPLS_2005

> <r_lp_Energy>
36.7388

> <b_lp_Chiralities_Consistent>
1

> <s_lp_Variant>
AV-unprocessed.smi:2736-2

> <Gold.Version>
5.8.1

> <Gold.Id.Protein>
6NUR|6NUR_protein|mol2

> <Gold.PLP.Fitness>
42.4172

> <Gold.PLP.PLP>
-43.0148

> <Gold.PLP.part.hbond>
0.0000

> <Gold.PLP.part.metal>
0.0000

> <Gold.PLP.part.buried>
-0.4828

> <Gold.PLP.part.nonpolar>
-43.9057

> <Gold.PLP.part.repulsive>
0.7581

> <Gold.PLP.ligand.clash>
0.0000

> <Gold.PLP.ligand.torsion>
0.3135

> <Gold.PLP.Chemscore.Hbond>
0.0000

> <Gold.PLP.Chemscore.CHOScore>
0.0000

> <Gold.PLP.Chemscore.Metal>
0.0000

> <Gold.PLP.Chemscore.Internal.Correction>
0.0295

> <Gold.Rescore>
     Score         DG    S(hbond)    S(metal)    S(lipo)     H(rot)  DE(clash)    DE(int)     intcor
      7.47      -9.61       0.00        0.00      82.28       2.15       1.63       0.50       ----

> <Gold.Chemscore.Fitness>
7.4742

> <Gold.Chemscore.DG>
-9.6090

> <Gold.Chemscore.ZeroCoef>
-5.4800

> <Gold.Chemscore.Hbond>
0.0000

> <Gold.Chemscore.Metal>
0.0000

> <Gold.Chemscore.Lipo>
82.2766

> <Gold.Chemscore.Internal_Hbond>
0.0000

> <Gold.Chemscore.DEClash>
1.6326

> <Gold.Chemscore.DEInternal>
0.5022

> <Gold.Chemscore.Rot>
2.1474

> <Gold.Chemscore.Internal.Correction>
   9.000000E+99

> <Gold.Chemscore.Hbond.Weighted>
-0.0000

> <Gold.Chemscore.Metal.Weighted>
-0.0000

> <Gold.Chemscore.Lipo.Weighted>
-9.6264

> <Gold.Chemscore.Internal_Hbond.Weighted>
0.0000

> <Gold.Chemscore.DEClash.Weighted>
1.6326

> <Gold.Chemscore.DEInternal.Weighted>
0.5022

> <Gold.Chemscore.Rot.Weighted>
5.4974

> <Gold.Chemscore.Internal.Correction.Weighted>
   9.000000E+99

> <Gold.Protein.RotatedTorsions>
[ 6907 6896 6895 6894 ] final  -28.45 input  -60.11 | X-H torsion
[ 7974 7965 7964 7962 ] final -132.09 input  175.53 | X-H torsion
[ 8008 7997 7996 7995 ] final -127.21 input   59.86 | X-H torsion
[ 10167 10162 10161 10158 ] final   68.54 input  -65.29 | X-H torsion
[ 10718 10713 10712 10709 ] final -132.48 input   66.30 | X-H torsion
[ 10763 10752 10751 10750 ] final  111.11 input  -60.55 | X-H torsion
[ 11005 11000 10999 10996 ] final  106.00 input  -57.11 | X-H torsion

> <Gold.Protein.ActiveResidues>
 VAL166  LYS551  ARG553  GLY616  TRP617  ASP618  TYR619  PRO620  LYS621  CYS622 
 ASP623  PHE694  ASN695  SER759  ASP760  ASP761  ALA762  ILE779  LEU786  VAL792 
 PHE793  MET794  SER795  GLU796  ALA797  LYS798  CYS799  TRP800  GLU811  SER814 

> <Gold.Protein.RotatedAtoms>
  151.1328  135.0139  159.8589 H   0  0  0  0  0  0  0  0  0  0  0  0  # atno 6907 bound_to 6896
  152.5451  134.1590  159.8560 H   0  0  0  0  0  0  0  0  0  0  0  0  # atno 6908 bound_to 6896
  151.1659  133.4770  159.2627 H   0  0  0  0  0  0  0  0  0  0  0  0  # atno 6909 bound_to 6896
  144.9318  140.7137  143.4901 H   0  0  0  0  0  0  0  0  0  0  0  0  # atno 7974 bound_to 7965
  155.2424  140.0429  157.2976 H   0  0  0  0  0  0  0  0  0  0  0  0  # atno 8008 bound_to 7997
  154.5820  140.2403  155.8010 H   0  0  0  0  0  0  0  0  0  0  0  0  # atno 8009 bound_to 7997
  156.2199  140.2973  155.9937 H   0  0  0  0  0  0  0  0  0  0  0  0  # atno 8010 bound_to 7997
  140.0775  144.5099  150.7184 H   0  0  0  0  0  0  0  0  0  0  0  0  # atno 10167 bound_to 10162
  156.2350  130.7061  151.0898 H   0  0  0  0  0  0  0  0  0  0  0  0  # atno 10718 bound_to 10713
  153.4586  135.3727  155.2325 H   0  0  0  0  0  0  0  0  0  0  0  0  # atno 10763 bound_to 10752
  154.8757  135.3903  154.3952 H   0  0  0  0  0  0  0  0  0  0  0  0  # atno 10764 bound_to 10752
  153.4522  135.7085  153.6166 H   0  0  0  0  0  0  0  0  0  0  0  0  # atno 10765 bound_to 10752
  139.8808  134.9355  156.5600 H   0  0  0  0  0  0  0  0  0  0  0  0  # atno 11005 bound_to 11000
  145.3130  139.1812  143.4629 LP  0  0  0  0  0  0  0  0  0  0  0  0  # atno 17320 bound_to 7965
  146.3250  140.3137  142.8628 LP  0  0  0  0  0  0  0  0  0  0  0  0  # atno 17321 bound_to 7965
  140.7094  143.2493  151.4626 LP  0  0  0  0  0  0  0  0  0  0  0  0  # atno 17342 bound_to 10162
  139.5799  144.1733  152.1954 LP  0  0  0  0  0  0  0  0  0  0  0  0  # atno 17343 bound_to 10162
  157.7150  131.0714  150.6360 LP  0  0  0  0  0  0  0  0  0  0  0  0  # atno 17370 bound_to 10713
  156.6430  130.4464  149.5746 LP  0  0  0  0  0  0  0  0  0  0  0  0  # atno 17371 bound_to 10713
  140.8176  133.8379  155.8866 LP  0  0  0  0  0  0  0  0  0  0  0  0  # atno 17394 bound_to 11000
  140.9448  134.1854  157.4771 LP  0  0  0  0  0  0  0  0  0  0  0  0  # atno 17395 bound_to 11000

$$$$
