AV-unprocessed.smi:1397|AV-procd|sdf|5679|dock5
  -GOLD-   22720 5303D 1   1.00000     0.00000
 Structure written by MMmdl.
 37 38  0  0  0  0  0  0  0  0  1 V2000
  141.9239  141.8592  160.7311 C   0  0  0  0  0  0  0  0  0  0  0  0
  141.9860  143.2748  160.1529 C   0  0  0  0  0  0  0  0  0  0  0  0
  141.2028  143.5641  159.2483 O   0  0  0  0  0  0  0  0  0  0  0  0
  142.8878  144.1552  160.6505 N   0  0  0  0  0  0  0  0  0  0  0  0
  143.8609  143.7938  161.6885 C   0  0  0  0  0  0  0  0  0  0  0  0
  145.2713  143.7799  161.0719 C   0  0  0  0  0  0  0  0  0  0  0  0
  145.6060  145.1347  160.4074 C   0  0  0  0  0  0  0  0  0  0  0  0
  146.8637  145.0529  159.6703 N   0  0  0  0  0  0  0  0  0  0  0  0
  148.0439  144.6879  160.1928 C   0  0  0  0  0  0  0  0  0  0  0  0
  148.1938  144.3671  161.3723 O   0  0  0  0  0  0  0  0  0  0  0  0
  149.0179  144.7220  159.2662 N   0  0  0  0  0  0  0  0  0  0  0  0
  150.3967  144.4199  159.4288 C   0  0  0  0  0  0  0  0  0  0  0  0
  151.2101  144.7153  158.3113 C   0  0  0  0  0  0  0  0  0  0  0  0
  152.5927  144.4537  158.3719 C   0  0  0  0  0  0  0  0  0  0  0  0
  153.1270  143.9023  159.5500 C   0  0  0  0  0  0  0  0  0  0  0  0
  152.2479  143.6374  160.6164 C   0  0  0  0  0  0  0  0  0  0  0  0
  150.9228  143.8876  160.5604 N   0  0  0  0  0  0  0  0  0  0  0  0
  144.4753  145.5872  159.4595 C   0  0  0  0  0  0  0  0  0  0  0  0
  143.1045  145.5212  160.1565 C   0  0  0  0  0  0  0  0  0  0  0  0
  141.7087  141.8863  161.7996 H   0  0  0  0  0  0  0  0  0  0  0  0
  142.8663  141.3349  160.5710 H   0  0  0  0  0  0  0  0  0  0  0  0
  141.1359  141.2806  160.2478 H   0  0  0  0  0  0  0  0  0  0  0  0
  143.8138  144.5240  162.4977 H   0  0  0  0  0  0  0  0  0  0  0  0
  143.6500  142.8277  162.1488 H   0  0  0  0  0  0  0  0  0  0  0  0
  146.0083  143.5445  161.8407 H   0  0  0  0  0  0  0  0  0  0  0  0
  145.3296  142.9798  160.3321 H   0  0  0  0  0  0  0  0  0  0  0  0
  145.6996  145.8890  161.1914 H   0  0  0  0  0  0  0  0  0  0  0  0
  146.8322  145.2976  158.6914 H   0  0  0  0  0  0  0  0  0  0  0  0
  148.7429  145.0033  158.3369 H   0  0  0  0  0  0  0  0  0  0  0  0
  150.7832  145.1390  157.4136 H   0  0  0  0  0  0  0  0  0  0  0  0
  153.2313  144.6726  157.5287 H   0  0  0  0  0  0  0  0  0  0  0  0
  154.1821  143.6876  159.6340 H   0  0  0  0  0  0  0  0  0  0  0  0
  152.6174  143.2125  161.5380 H   0  0  0  0  0  0  0  0  0  0  0  0
  144.6656  146.6022  159.1088 H   0  0  0  0  0  0  0  0  0  0  0  0
  144.4563  144.9513  158.5728 H   0  0  0  0  0  0  0  0  0  0  0  0
  142.3282  145.8701  159.4775 H   0  0  0  0  0  0  0  0  0  0  0  0
  143.0833  146.2124  161.0004 H   0  0  0  0  0  0  0  0  0  0  0  0
  1  2  1  0  0  0  0
  1 20  1  0  0  0  0
  1 21  1  0  0  0  0
  1 22  1  0  0  0  0
  2  3  2  0  0  0  0
  2  4  1  0  0  0  0
  4 19  1  0  0  0  0
  4  5  1  0  0  0  0
  5  6  1  0  0  0  0
  5 23  1  0  0  0  0
  5 24  1  0  0  0  0
  6  7  1  0  0  0  0
  6 25  1  0  0  0  0
  6 26  1  0  0  0  0
  7  8  1  0  0  0  0
  7 18  1  0  0  0  0
  7 27  1  0  0  0  0
  8  9  1  0  0  0  0
  8 28  1  0  0  0  0
  9 10  2  0  0  0  0
  9 11  1  0  0  0  0
 11 12  1  0  0  0  0
 11 29  1  0  0  0  0
 12 17  1  0  0  0  0
 12 13  2  0  0  0  0
 13 14  1  0  0  0  0
 13 30  1  0  0  0  0
 14 15  2  0  0  0  0
 14 31  1  0  0  0  0
 15 16  1  0  0  0  0
 15 32  1  0  0  0  0
 16 17  2  0  0  0  0
 16 33  1  0  0  0  0
 18 19  1  0  0  0  0
 18 34  1  0  0  0  0
 18 35  1  0  0  0  0
 19 36  1  0  0  0  0
 19 37  1  0  0  0  0
M  END
> <s_m_source_file>
AV-unprocessed.smi

> <i_m_source_file_index>
1397

> <i_lp_mmshare_version>
43012

> <i_f3d_flags>
0

> <s_epik_input>
W0NIM11DKD1PKU4xW0NIMl1bQ0gyXVtDSF0oW0NIMl1bQ0gyXTEpW05IXUMoPU8pW05IXWMyW2NIXVtjSF1bY0hdW2NIXW4y

> <s_epik_cmdline>
J2VwaWtfcHl0aG9uJywgJy1waCcsICc3LjAnLCAnLXRuJywgJzgnLCAnLW1hJywgJzIwMCcsICctbWV0YWxfYmluZGluZycsICctaW1hZScsICc8aW5maWxlLm1hZT4nLCAnLW9tYWUnLCAnPG91dGZpbGUubWFlPic=

> <r_lp_tautomer_probability>
1

> <r_epik_Ionization_Penalty>
4.8787e-05

> <r_epik_Ionization_Penalty_Charging>
0

> <r_epik_Ionization_Penalty_Neutral>
4.8787e-05

> <r_epik_State_Penalty>
-0

> <r_epik_Charging_Adjusted_Penalty>
0

> <i_epik_Tot_Q>
0

> <i_epik_Tot_abs_Q>
0

> <r_epik_Metal_State_Penalty>
-0

> <b_epik_Metal_Only>
0

> <s_lp_Force_Field>
OPLS_2005

> <r_lp_Energy>
25.5882

> <b_lp_Chiralities_Consistent>
1

> <s_lp_Variant>
AV-unprocessed.smi:1397-1

> <Gold.Version>
5.8.1

> <Gold.Id.Protein>
6NUR|6NUR_protein|mol2

> <Gold.PLP.Fitness>
43.9424

> <Gold.PLP.PLP>
-35.1687

> <Gold.PLP.part.hbond>
-4.0000

> <Gold.PLP.part.metal>
0.0000

> <Gold.PLP.part.buried>
-5.1853

> <Gold.PLP.part.nonpolar>
-26.6118

> <Gold.PLP.part.repulsive>
0.5431

> <Gold.PLP.ligand.clash>
0.0000

> <Gold.PLP.ligand.torsion>
0.0237

> <Gold.PLP.Chemscore.Hbond>
2.9360

> <Gold.PLP.Chemscore.CHOScore>
0.0000

> <Gold.PLP.Chemscore.Metal>
0.0000

> <Gold.Chemscore.Hbonds>
donor molecule, donor type, donor heavy atom, donor atom, acceptor molecule, acceptor atom, score
      L1  H     8    28       P1  8029  0.88
      L1  H    11    29       P1  8029  1.00
      P1  H  6933  6944       L1    10  0.99

> <Gold.PLP.Chemscore.Internal.Correction>
0.0131

> <Gold.Rescore>
     Score         DG    S(hbond)    S(metal)    S(lipo)     H(rot)  DE(clash)    DE(int)     intcor
     20.38     -21.74       2.86        0.00      79.18       1.00       0.05       1.32       ----

> <Gold.Chemscore.Fitness>
20.3757

> <Gold.Chemscore.DG>
-21.7411

> <Gold.Chemscore.ZeroCoef>
-5.4800

> <Gold.Chemscore.Hbond>
2.8614

> <Gold.Chemscore.Metal>
0.0000

> <Gold.Chemscore.Lipo>
79.1789

> <Gold.Chemscore.Internal_Hbond>
0.0000

> <Gold.Chemscore.DEClash>
0.0471

> <Gold.Chemscore.DEInternal>
1.3183

> <Gold.Chemscore.Rot>
1.0000

> <Gold.Chemscore.Internal.Correction>
   9.000000E+99

> <Gold.Chemscore.Hbonds>
donor molecule, donor type, donor heavy atom, donor atom, acceptor molecule, acceptor atom, score
      L1  H     8    28       P1  8029  0.86
      L1  H    11    29       P1  8029  0.83
      P1  H  6933  6944       L1    10  0.62

> <Gold.Chemscore.Hbond.Weighted>
-9.5572

> <Gold.Chemscore.Metal.Weighted>
-0.0000

> <Gold.Chemscore.Lipo.Weighted>
-9.2639

> <Gold.Chemscore.Internal_Hbond.Weighted>
0.0000

> <Gold.Chemscore.DEClash.Weighted>
0.0471

> <Gold.Chemscore.DEInternal.Weighted>
1.3183

> <Gold.Chemscore.Rot.Weighted>
2.5600

> <Gold.Chemscore.Internal.Correction.Weighted>
   9.000000E+99

> <Gold.Protein.RotatedTorsions>
[ 6907 6896 6895 6894 ] final   77.33 input  -60.11 | X-H torsion
[ 7974 7965 7964 7962 ] final  -84.19 input  175.53 | X-H torsion
[ 8008 7997 7996 7995 ] final   75.43 input   59.86 | X-H torsion
[ 10167 10162 10161 10158 ] final   16.23 input  -65.29 | X-H torsion
[ 10718 10713 10712 10709 ] final  108.46 input   66.30 | X-H torsion
[ 10763 10752 10751 10750 ] final  -71.48 input  -60.55 | X-H torsion
[ 11005 11000 10999 10996 ] final -137.30 input  -57.11 | X-H torsion

> <Gold.Protein.ActiveResidues>
 VAL166  LYS551  ARG553  GLY616  TRP617  ASP618  TYR619  PRO620  LYS621  CYS622 
 ASP623  PHE694  ASN695  SER759  ASP760  ASP761  ALA762  ILE779  LEU786  VAL792 
 PHE793  MET794  SER795  GLU796  ALA797  LYS798  CYS799  TRP800  GLU811  SER814 

> <Gold.Protein.RotatedAtoms>
  152.5113  134.3833  159.9358 H   0  0  0  0  0  0  0  0  0  0  0  0  # atno 6907 bound_to 6896
  151.3791  133.3821  159.2716 H   0  0  0  0  0  0  0  0  0  0  0  0  # atno 6908 bound_to 6896
  150.9519  134.8938  159.7735 H   0  0  0  0  0  0  0  0  0  0  0  0  # atno 6909 bound_to 6896
  145.5099  140.9541  143.1713 H   0  0  0  0  0  0  0  0  0  0  0  0  # atno 7974 bound_to 7965
  155.8128  140.3472  155.5468 H   0  0  0  0  0  0  0  0  0  0  0  0  # atno 8008 bound_to 7997
  155.8423  140.0943  157.1747 H   0  0  0  0  0  0  0  0  0  0  0  0  # atno 8009 bound_to 7997
  154.4005  140.1392  156.3731 H   0  0  0  0  0  0  0  0  0  0  0  0  # atno 8010 bound_to 7997
  140.5812  143.8978  150.6791 H   0  0  0  0  0  0  0  0  0  0  0  0  # atno 10167 bound_to 10162
  157.6585  131.0894  150.6308 H   0  0  0  0  0  0  0  0  0  0  0  0  # atno 10718 bound_to 10713
  154.4323  135.5961  153.6077 H   0  0  0  0  0  0  0  0  0  0  0  0  # atno 10763 bound_to 10752
  152.9800  135.5978  154.3823 H   0  0  0  0  0  0  0  0  0  0  0  0  # atno 10764 bound_to 10752
  154.3663  135.2841  155.2270 H   0  0  0  0  0  0  0  0  0  0  0  0  # atno 10765 bound_to 10752
  140.8724  134.2034  157.4642 H   0  0  0  0  0  0  0  0  0  0  0  0  # atno 11005 bound_to 11000
  144.7733  139.6686  143.7185 LP  0  0  0  0  0  0  0  0  0  0  0  0  # atno 17320 bound_to 7965
  146.2173  139.5572  142.9642 LP  0  0  0  0  0  0  0  0  0  0  0  0  # atno 17321 bound_to 7965
  140.2477  143.3616  152.1432 LP  0  0  0  0  0  0  0  0  0  0  0  0  # atno 17342 bound_to 10162
  139.5171  144.6986  151.5558 LP  0  0  0  0  0  0  0  0  0  0  0  0  # atno 17343 bound_to 10162
  156.6613  130.4513  149.5687 LP  0  0  0  0  0  0  0  0  0  0  0  0  # atno 17370 bound_to 10713
  156.2065  130.6652  151.1224 LP  0  0  0  0  0  0  0  0  0  0  0  0  # atno 17371 bound_to 10713
  139.8713  134.9780  156.4982 LP  0  0  0  0  0  0  0  0  0  0  0  0  # atno 17394 bound_to 11000
  140.8557  133.8098  155.9214 LP  0  0  0  0  0  0  0  0  0  0  0  0  # atno 17395 bound_to 11000

$$$$
