AV-unprocessed.smi:3068|AV-procd|sdf|11700|dock8
  -GOLD-   2272017103D 1   1.00000     0.00000
 Structure written by MMmdl.
 40 42  0  0  0  0  0  0  0  0  2 V2000
  150.2646  137.2126  154.7744 N   0  0  0  0  0  0  0  0  0  0  0  0
  149.5980  138.1160  154.4943 C   0  0  0  0  0  0  0  0  0  0  0  0
  148.7598  139.2547  154.1409 C   0  0  0  0  0  0  0  0  0  0  0  0
  149.1750  140.4700  154.5673 N   0  0  0  0  0  0  0  0  0  0  0  0
  148.4093  141.5339  154.2450 C   0  0  0  0  0  0  0  0  0  0  0  0
  147.2261  141.3903  153.4952 C   0  0  0  0  0  0  0  0  0  0  0  0
  146.8046  140.1823  153.0645 N   0  0  0  0  0  0  0  0  0  0  0  0
  147.5649  139.1040  153.3815 C   0  0  0  0  0  0  0  0  0  0  0  0
  147.1385  137.8375  152.9399 N   0  0  0  0  0  0  0  0  0  0  0  0
  145.7259  137.4943  152.8241 C   0  0  0  0  0  0  0  0  0  0  0  0
  145.5086  136.0425  152.3649 C   0  0  2  0  0  0  0  0  0  0  0  0
  145.7857  135.8825  150.8540 C   0  0  0  0  0  0  0  0  0  0  0  0
  145.4589  134.5153  150.3810 N   0  3  1  0  0  0  0  0  0  0  0  0
  146.4885  133.5023  150.7407 C   0  0  0  0  0  0  0  0  0  0  0  0
  146.1365  132.1215  150.1688 C   0  0  0  0  0  0  0  0  0  0  0  0
  144.7528  131.6731  150.6518 C   0  0  0  0  0  0  0  0  0  0  0  0
  143.7025  132.7255  150.2718 C   0  0  0  0  0  0  0  0  0  0  0  0
  144.0719  134.1384  150.7717 C   0  0  1  0  0  0  0  0  0  0  0  0
  143.8571  134.3428  152.2861 C   0  0  0  0  0  0  0  0  0  0  0  0
  144.1510  135.6940  152.6216 O   0  0  0  0  0  0  0  0  0  0  0  0
  148.7424  142.5029  154.5866 H   0  0  0  0  0  0  0  0  0  0  0  0
  146.6169  142.2448  153.2402 H   0  0  0  0  0  0  0  0  0  0  0  0
  147.8218  137.1777  152.5949 H   0  0  0  0  0  0  0  0  0  0  0  0
  145.2518  137.6514  153.7933 H   0  0  0  0  0  0  0  0  0  0  0  0
  145.2403  138.1870  152.1358 H   0  0  0  0  0  0  0  0  0  0  0  0
  146.1667  135.3831  152.9318 H   0  0  0  0  0  0  0  0  0  0  0  0
  145.1747  136.5918  150.2939 H   0  0  0  0  0  0  0  0  0  0  0  0
  146.8246  136.1210  150.6228 H   0  0  0  0  0  0  0  0  0  0  0  0
  147.4563  133.8193  150.3508 H   0  0  0  0  0  0  0  0  0  0  0  0
  146.5963  133.4303  151.8229 H   0  0  0  0  0  0  0  0  0  0  0  0
  146.1536  132.1580  149.0787 H   0  0  0  0  0  0  0  0  0  0  0  0
  146.8899  131.3915  150.4661 H   0  0  0  0  0  0  0  0  0  0  0  0
  144.4950  130.7104  150.2090 H   0  0  0  0  0  0  0  0  0  0  0  0
  144.7647  131.5250  151.7321 H   0  0  0  0  0  0  0  0  0  0  0  0
  143.6082  132.7486  149.1852 H   0  0  0  0  0  0  0  0  0  0  0  0
  142.7230  132.4336  150.6523 H   0  0  0  0  0  0  0  0  0  0  0  0
  143.4032  134.8355  150.2639 H   0  0  0  0  0  0  0  0  0  0  0  0
  142.8184  134.1409  152.5484 H   0  0  0  0  0  0  0  0  0  0  0  0
  144.4693  133.6652  152.8822 H   0  0  0  0  0  0  0  0  0  0  0  0
  145.4668  134.5547  149.3718 H   0  0  0  0  0  0  0  0  0  0  0  0
  1  2  3  0  0  0  0
  2  3  1  0  0  0  0
  3  8  1  0  0  0  0
  3  4  2  0  0  0  0
  4  5  1  0  0  0  0
  5  6  2  0  0  0  0
  5 21  1  0  0  0  0
  6  7  1  0  0  0  0
  6 22  1  0  0  0  0
  7  8  2  0  0  0  0
  8  9  1  0  0  0  0
  9 10  1  0  0  0  0
  9 23  1  0  0  0  0
 10 11  1  0  0  0  0
 10 24  1  0  0  0  0
 10 25  1  0  0  0  0
 11 20  1  0  0  0  0
 11 12  1  0  0  0  0
 11 26  1  0  0  0  0
 12 13  1  0  0  0  0
 12 27  1  0  0  0  0
 12 28  1  0  0  0  0
 13 18  1  0  0  0  0
 13 14  1  0  0  0  0
 13 40  1  0  0  0  0
 14 15  1  0  0  0  0
 14 29  1  0  0  0  0
 14 30  1  0  0  0  0
 15 16  1  0  0  0  0
 15 31  1  0  0  0  0
 15 32  1  0  0  0  0
 16 17  1  0  0  0  0
 16 33  1  0  0  0  0
 16 34  1  0  0  0  0
 17 18  1  0  0  0  0
 17 35  1  0  0  0  0
 17 36  1  0  0  0  0
 18 19  1  0  0  0  0
 18 37  1  0  0  0  0
 19 20  1  0  0  0  0
 19 38  1  0  0  0  0
 19 39  1  0  0  0  0
M  CHG  1  13   1
M  END
> <s_m_source_file>
AV-unprocessed.smi

> <i_m_source_file_index>
3068

> <i_lp_mmshare_version>
43012

> <i_f3d_flags>
0

> <s_epik_input>
TiNDYzFuW2NIXVtjSF1uYzFbTkhdW0NIMl1bQ0BIXShbQ0gyXTIpT1tDSDJdW0NAQEhdKE4yMylbQ0gyXVtDSDJdW0NIMl1bQ0gyXTM=

> <s_epik_cmdline>
J2VwaWtfcHl0aG9uJywgJy1waCcsICc3LjAnLCAnLXRuJywgJzgnLCAnLW1hJywgJzIwMCcsICctbWV0YWxfYmluZGluZycsICctaW1hZScsICc8aW5maWxlLm1hZT4nLCAnLW9tYWUnLCAnPG91dGZpbGUubWFlPic=

> <r_epik_Ionization_Penalty>
0.0804321

> <r_epik_Ionization_Penalty_Charging>
0.0803403

> <r_epik_Ionization_Penalty_Neutral>
9.17277e-05

> <r_epik_State_Penalty>
0.0711481

> <r_epik_Charging_Adjusted_Penalty>
0.151488

> <i_epik_Tot_Q>
1

> <i_epik_Tot_abs_Q>
1

> <r_epik_Metal_State_Penalty>
0.0711481

> <b_epik_Metal_Only>
0

> <s_lp_Force_Field>
OPLS_2005

> <r_lp_Energy>
39.785

> <b_lp_Chiralities_Consistent>
1

> <s_lp_Variant>
AV-unprocessed.smi:3068-3

> <Gold.Version>
5.8.1

> <Gold.Id.Protein>
6NUR|6NUR_protein|mol2

> <Gold.PLP.Fitness>
43.3434

> <Gold.PLP.PLP>
-35.0307

> <Gold.PLP.part.hbond>
-2.0000

> <Gold.PLP.part.metal>
0.0000

> <Gold.PLP.part.buried>
-3.9339

> <Gold.PLP.part.nonpolar>
-29.5143

> <Gold.PLP.part.repulsive>
0.7291

> <Gold.PLP.ligand.clash>
0.0000

> <Gold.PLP.ligand.torsion>
0.3438

> <Gold.PLP.Chemscore.Hbond>
2.0000

> <Gold.PLP.Chemscore.CHOScore>
1.0000

> <Gold.PLP.Chemscore.Metal>
0.0000

> <Gold.Chemscore.Hbonds>
donor molecule, donor type, donor heavy atom, donor atom, acceptor molecule, acceptor atom, score
      L1  H     9    23       P1  7948  1.00
      L1  H    13    40       P1  7921  1.00
      L1  C     5    21       P1  8028  1.00

> <Gold.PLP.Chemscore.Internal.Correction>
0.0003

> <Gold.Rescore>
     Score         DG    S(hbond)    S(metal)    S(lipo)     H(rot)  DE(clash)    DE(int)     intcor
     18.46     -18.99       1.98        0.00      87.83       1.32       0.14       0.39       ----

> <Gold.Chemscore.Fitness>
18.4633

> <Gold.Chemscore.DG>
-18.9942

> <Gold.Chemscore.ZeroCoef>
-5.4800

> <Gold.Chemscore.Hbond>
1.9807

> <Gold.Chemscore.Metal>
0.0000

> <Gold.Chemscore.Lipo>
87.8296

> <Gold.Chemscore.Internal_Hbond>
0.0000

> <Gold.Chemscore.DEClash>
0.1384

> <Gold.Chemscore.DEInternal>
0.3925

> <Gold.Chemscore.Rot>
1.3193

> <Gold.Chemscore.Internal.Correction>
   9.000000E+99

> <Gold.Chemscore.Hbonds>
donor molecule, donor type, donor heavy atom, donor atom, acceptor molecule, acceptor atom, score
      L1  H     9    23       P1  7948  1.00
      L1  H    13    40       P1  7921  0.97

> <Gold.Chemscore.Hbond.Weighted>
-6.6155

> <Gold.Chemscore.Metal.Weighted>
-0.0000

> <Gold.Chemscore.Lipo.Weighted>
-10.2761

> <Gold.Chemscore.Internal_Hbond.Weighted>
0.0000

> <Gold.Chemscore.DEClash.Weighted>
0.1384

> <Gold.Chemscore.DEInternal.Weighted>
0.3925

> <Gold.Chemscore.Rot.Weighted>
3.3774

> <Gold.Chemscore.Internal.Correction.Weighted>
   9.000000E+99

> <Gold.Protein.RotatedTorsions>
[ 6907 6896 6895 6894 ] final  -70.80 input  -60.11 | X-H torsion
[ 7974 7965 7964 7962 ] final  126.31 input  175.53 | X-H torsion
[ 8008 7997 7996 7995 ] final  -91.72 input   59.86 | X-H torsion
[ 10167 10162 10161 10158 ] final   52.06 input  -65.29 | X-H torsion
[ 10718 10713 10712 10709 ] final  -36.46 input   66.30 | X-H torsion
[ 10763 10752 10751 10750 ] final   56.12 input  -60.55 | X-H torsion
[ 11005 11000 10999 10996 ] final -116.89 input  -57.11 | X-H torsion

> <Gold.Protein.ActiveResidues>
 VAL166  LYS551  ARG553  GLY616  TRP617  ASP618  TYR619  PRO620  LYS621  CYS622 
 ASP623  PHE694  ASN695  SER759  ASP760  ASP761  ALA762  ILE779  LEU786  VAL792 
 PHE793  MET794  SER795  GLU796  ALA797  LYS798  CYS799  TRP800  GLU811  SER814 

> <Gold.Protein.RotatedAtoms>
  150.7241  134.5400  159.5742 H   0  0  0  0  0  0  0  0  0  0  0  0  # atno 6907 bound_to 6896
  152.2913  134.7715  160.0386 H   0  0  0  0  0  0  0  0  0  0  0  0  # atno 6908 bound_to 6896
  151.8328  133.3376  159.3655 H   0  0  0  0  0  0  0  0  0  0  0  0  # atno 6909 bound_to 6896
  145.0632  139.3789  143.4995 H   0  0  0  0  0  0  0  0  0  0  0  0  # atno 7974 bound_to 7965
  154.7142  140.0516  157.0579 H   0  0  0  0  0  0  0  0  0  0  0  0  # atno 8008 bound_to 7997
  155.0513  140.3179  155.4672 H   0  0  0  0  0  0  0  0  0  0  0  0  # atno 8009 bound_to 7997
  156.2798  140.2115  156.5639 H   0  0  0  0  0  0  0  0  0  0  0  0  # atno 8010 bound_to 7997
  140.2553  144.3433  150.6335 H   0  0  0  0  0  0  0  0  0  0  0  0  # atno 10167 bound_to 10162
  156.3266  130.4273  149.7911 H   0  0  0  0  0  0  0  0  0  0  0  0  # atno 10718 bound_to 10713
  152.9827  135.5687  154.5178 H   0  0  0  0  0  0  0  0  0  0  0  0  # atno 10763 bound_to 10752
  154.4671  135.2783  155.1672 H   0  0  0  0  0  0  0  0  0  0  0  0  # atno 10764 bound_to 10752
  154.3236  135.6264  153.5572 H   0  0  0  0  0  0  0  0  0  0  0  0  # atno 10765 bound_to 10752
  141.0392  133.9862  157.3022 H   0  0  0  0  0  0  0  0  0  0  0  0  # atno 11005 bound_to 11000
  146.3525  140.0340  142.8648 LP  0  0  0  0  0  0  0  0  0  0  0  0  # atno 17320 bound_to 7965
  145.1383  140.9557  143.4503 LP  0  0  0  0  0  0  0  0  0  0  0  0  # atno 17321 bound_to 7965
  140.6008  143.2167  151.7075 LP  0  0  0  0  0  0  0  0  0  0  0  0  # atno 17342 bound_to 10162
  139.5033  144.3795  152.0390 LP  0  0  0  0  0  0  0  0  0  0  0  0  # atno 17343 bound_to 10162
  156.5199  130.8210  151.3200 LP  0  0  0  0  0  0  0  0  0  0  0  0  # atno 17370 bound_to 10713
  157.7422  130.9886  150.2501 LP  0  0  0  0  0  0  0  0  0  0  0  0  # atno 17371 bound_to 10713
  139.9263  135.0201  156.8245 LP  0  0  0  0  0  0  0  0  0  0  0  0  # atno 17394 bound_to 11000
  140.6266  133.9944  155.7642 LP  0  0  0  0  0  0  0  0  0  0  0  0  # atno 17395 bound_to 11000

$$$$
