#       Name:                AV-unprocessed.smi:3234
#       Creating user name   scv26
#       Creation time:       Fri Mar 27 18:21:23 2020


#       File generated by GOLD software.
#

@<TRIPOS>MOLECULE
AV-unprocessed.smi:3234
    40    42     1
SMALL
NO_CHARGES


@<TRIPOS>ATOM
      1 ****        -0.7286   2.3546  -0.0325 O.2            1 S1                 0.0000
      2 ****        -1.2705   1.2661   0.1580 C.2            1 S1                 0.0000
      3 ****        -2.5914   1.0666   0.3100 N.am           1 S1                 0.0000
      4 ****        -3.6397   2.0271   0.3226 C.ar           1 S1                 0.0000
      5 ****        -4.9502   1.5714   0.0700 C.ar           1 S1                 0.0000
      6 ****        -6.0093   2.5009   0.0928 C.ar           1 S1                 0.0000
      7 ****        -5.8383   3.8136   0.3555 N.ar           1 S1                 0.0000
      8 ****        -4.5855   4.2456   0.6121 C.ar           1 S1                 0.0000
      9 ****        -3.4573   3.4007   0.6132 C.ar           1 S1                 0.0000
     10 ****        -0.5937   0.1102   0.2171 N.am           1 S1                 0.0000
     11 ****         0.8532  -0.0103   0.0704 C.3            1 S1                 0.0000
     12 ****         1.3545   0.1094  -1.3713 C.3            1 S1                 0.0000
     13 ****         2.6259  -0.7560  -1.4118 C.3            1 S1                 0.0000
     14 ****         2.6962  -1.4765  -0.1189 N.4            1 S1                 1.0000
     15 ****         3.2295  -2.8520  -0.2155 C.3            1 S1                 0.0000
     16 ****         3.9243  -3.3195   1.0408 C.3            1 S1                 0.0000
     17 ****         4.7375  -2.9203  -0.1714 C.3            1 S1                 0.0000
     18 ****         1.3548  -1.3903   0.4845 C.3            1 S1                 0.0000
     19 ****        -2.8902   0.1046   0.3744 H              1 S1                 0.0000
     20 ****        -5.1455   0.5307  -0.1438 H              1 S1                 0.0000
     21 ****        -7.0217   2.1798  -0.1032 H              1 S1                 0.0000
     22 ****        -4.4787   5.2978   0.8305 H              1 S1                 0.0000
     23 ****        -2.4902   3.8177   0.8472 H              1 S1                 0.0000
     24 ****        -1.1144  -0.7412   0.3710 H              1 S1                 0.0000
     25 ****         1.3501   0.7402   0.6890 H              1 S1                 0.0000
     26 ****         0.6163  -0.2950  -2.0660 H              1 S1                 0.0000
     27 ****         1.5447   1.1446  -1.6572 H              1 S1                 0.0000
     28 ****         2.5787  -1.4518  -2.2512 H              1 S1                 0.0000
     29 ****         3.5225  -0.1481  -1.5355 H              1 S1                 0.0000
     30 ****         2.6622  -3.5518  -0.8271 H              1 S1                 0.0000
     31 ****         3.9415  -2.6511   1.8999 H              1 S1                 0.0000
     32 ****         3.8731  -4.3802   1.2787 H              1 S1                 0.0000
     33 ****         5.2213  -3.7191  -0.7302 H              1 S1                 0.0000
     34 ****         5.2955  -1.9873  -0.1168 H              1 S1                 0.0000
     35 ****         1.3932  -1.5157   1.5672 H              1 S1                 0.0000
     36 ****         0.7140  -2.1722   0.0720 H              1 S1                 0.0000
     37 ****         3.3144  -0.9430   0.4757 H              1 S1                 0.0000
     38 ****        -1.2816   3.1860  -0.0853 LP             1 S1                 0.0000
     39 ****         0.2648   2.4076  -0.1345 LP             1 S1                 0.0000
     40 ****        -6.6137   4.4450   0.3599 LP             1 S1                 0.0000
@<TRIPOS>BOND
    1    1    2 2     
    2    2    3 am    
    3    2   10 am    
    4    3    4 1     
    5    3   19 1     
    6    4    9 ar    
    7    4    5 ar    
    8    5    6 ar    
    9    5   20 1     
   10    6    7 ar    
   11    6   21 1     
   12    7    8 ar    
   13    8    9 ar    
   14    8   22 1     
   15    9   23 1     
   16   10   11 1     
   17   10   24 1     
   18   11   18 1     
   19   11   12 1     
   20   11   25 1     
   21   12   13 1     
   22   12   26 1     
   23   12   27 1     
   24   13   14 1     
   25   13   28 1     
   26   13   29 1     
   27   14   15 1     
   28   14   18 1     
   29   14   37 1     
   30   15   17 1     
   31   15   16 1     
   32   15   30 1     
   33   16   17 1     
   34   16   31 1     
   35   16   32 1     
   36   17   33 1     
   37   17   34 1     
   38   18   35 1     
   39   18   36 1     
   40    1   38 1     
   41    1   39 1     
   42    7   40 1     
@<TRIPOS>SUBSTRUCTURE
      1 S1             1
@<TRIPOS>SET
LONE_PAIRS      STATIC     ATOMS    <user>   **** ""
3 38 39 40
DONOR_HYDROGENS      STATIC     ATOMS    <user>   **** ""
3 19 24 37
ATOM$BLUE        STATIC     ATOMS    COLORGROUP SYSTEM
3 38 39 40
ATOM$RED        STATIC     ATOMS    COLORGROUP SYSTEM
3 19 24 37
