AV-unprocessed.smi:1824|AV-procd|sdf|7406|dock9
  -GOLD-   22720 9 83D 1   1.00000     0.00000
 Structure written by MMmdl.
 45 47  0  0  0  0  0  0  0  0  2 V2000
  145.8070  143.1468  155.2838 C   0  0  0  0  0  0  0  0  0  0  0  0
  145.3822  141.6990  154.9797 C   0  0  1  0  0  0  0  0  0  0  0  0
  146.5418  140.8063  154.4970 C   0  0  0  0  0  0  0  0  0  0  0  0
  147.4504  140.4634  155.6183 N   0  3  2  0  0  0  0  0  0  0  0  0
  148.6333  139.6656  155.2056 C   0  0  0  0  0  0  0  0  0  0  0  0
  149.7376  140.5383  154.5768 C   0  0  1  0  0  0  0  0  0  0  0  0
  149.2980  140.9842  153.3075 O   0  0  0  0  0  0  0  0  0  0  0  0
  150.0829  141.7542  155.4583 C   0  0  0  0  0  0  0  0  0  0  0  0
  150.7313  141.3719  156.7005 N   0  0  0  0  0  0  0  0  0  0  0  0
  151.1247  140.1348  157.0602 C   0  0  0  0  0  0  0  0  0  0  0  0
  151.7082  140.0019  158.2475 N   0  0  0  0  0  0  0  0  0  0  0  0
  151.6928  141.3048  158.7146 C   0  0  0  0  0  0  0  0  0  0  0  0
  152.1698  141.8498  159.9281 C   0  0  0  0  0  0  0  0  0  0  0  0
  152.0470  143.2304  160.1888 C   0  0  0  0  0  0  0  0  0  0  0  0
  152.5123  143.7367  161.3554 F   0  0  0  0  0  0  0  0  0  0  0  0
  151.4443  144.0854  159.2422 C   0  0  0  0  0  0  0  0  0  0  0  0
  151.3315  145.4099  159.4998 F   0  0  0  0  0  0  0  0  0  0  0  0
  150.9596  143.5648  158.0270 C   0  0  0  0  0  0  0  0  0  0  0  0
  151.0863  142.1872  157.7703 C   0  0  0  0  0  0  0  0  0  0  0  0
  146.6884  139.8327  156.7202 C   0  0  0  0  0  0  0  0  0  0  0  0
  145.5566  140.7649  157.1898 C   0  0  2  0  0  0  0  0  0  0  0  0
  144.6865  140.1146  158.2712 C   0  0  0  0  0  0  0  0  0  0  0  0
  144.7163  141.0857  156.0838 O   0  0  0  0  0  0  0  0  0  0  0  0
  146.1921  143.6328  154.3871 H   0  0  0  0  0  0  0  0  0  0  0  0
  146.5891  143.2006  156.0408 H   0  0  0  0  0  0  0  0  0  0  0  0
  144.9588  143.7344  155.6361 H   0  0  0  0  0  0  0  0  0  0  0  0
  144.6477  141.7504  154.1753 H   0  0  0  0  0  0  0  0  0  0  0  0
  146.1397  139.8853  154.0711 H   0  0  0  0  0  0  0  0  0  0  0  0
  147.0814  141.3103  153.6959 H   0  0  0  0  0  0  0  0  0  0  0  0
  149.0508  139.1481  156.0711 H   0  0  0  0  0  0  0  0  0  0  0  0
  148.3162  138.8863  154.5109 H   0  0  0  0  0  0  0  0  0  0  0  0
  150.6448  139.9525  154.4313 H   0  0  0  0  0  0  0  0  0  0  0  0
  149.3717  140.2707  152.6918 H   0  0  0  0  0  0  0  0  0  0  0  0
  150.7325  142.4479  154.9226 H   0  0  0  0  0  0  0  0  0  0  0  0
  149.1757  142.3070  155.7059 H   0  0  0  0  0  0  0  0  0  0  0  0
  150.9765  139.2834  156.4117 H   0  0  0  0  0  0  0  0  0  0  0  0
  152.6330  141.2051  160.6603 H   0  0  0  0  0  0  0  0  0  0  0  0
  150.4988  144.2183  157.3015 H   0  0  0  0  0  0  0  0  0  0  0  0
  146.2823  138.8773  156.3833 H   0  0  0  0  0  0  0  0  0  0  0  0
  147.3552  139.6209  157.5570 H   0  0  0  0  0  0  0  0  0  0  0  0
  145.9833  141.6781  157.6054 H   0  0  0  0  0  0  0  0  0  0  0  0
  145.2784  139.8567  159.1497 H   0  0  0  0  0  0  0  0  0  0  0  0
  144.2153  139.2018  157.9054 H   0  0  0  0  0  0  0  0  0  0  0  0
  143.8942  140.7912  158.5928 H   0  0  0  0  0  0  0  0  0  0  0  0
  147.8114  141.3326  155.9858 H   0  0  0  0  0  0  0  0  0  0  0  0
  1  2  1  0  0  0  0
  1 24  1  0  0  0  0
  1 25  1  0  0  0  0
  1 26  1  0  0  0  0
  2 23  1  0  0  0  0
  2  3  1  0  0  0  0
  2 27  1  0  0  0  0
  3  4  1  0  0  0  0
  3 28  1  0  0  0  0
  3 29  1  0  0  0  0
  4  5  1  0  0  0  0
  4 20  1  0  0  0  0
  4 45  1  0  0  0  0
  5  6  1  0  0  0  0
  5 30  1  0  0  0  0
  5 31  1  0  0  0  0
  6  7  1  0  0  0  0
  6  8  1  0  0  0  0
  6 32  1  0  0  0  0
  7 33  1  0  0  0  0
  8  9  1  0  0  0  0
  8 34  1  0  0  0  0
  8 35  1  0  0  0  0
  9 19  1  0  0  0  0
  9 10  1  0  0  0  0
 10 11  2  0  0  0  0
 10 36  1  0  0  0  0
 11 12  1  0  0  0  0
 12 19  2  0  0  0  0
 12 13  1  0  0  0  0
 13 14  2  0  0  0  0
 13 37  1  0  0  0  0
 14 15  1  0  0  0  0
 14 16  1  0  0  0  0
 16 17  1  0  0  0  0
 16 18  2  0  0  0  0
 18 19  1  0  0  0  0
 18 38  1  0  0  0  0
 20 21  1  0  0  0  0
 20 39  1  0  0  0  0
 20 40  1  0  0  0  0
 21 22  1  0  0  0  0
 21 23  1  0  0  0  0
 21 41  1  0  0  0  0
 22 42  1  0  0  0  0
 22 43  1  0  0  0  0
 22 44  1  0  0  0  0
M  CHG  1   4   1
M  END
> <s_m_source_file>
AV-unprocessed.smi

> <i_m_source_file_index>
1824

> <i_lp_mmshare_version>
43012

> <i_f3d_flags>
0

> <s_epik_input>
W0NIM11bQ0BASF0xW0NIMl1OKFtDSDJdW0NASF0oTzEpW0NIM10pW0NIMl1bQ0BIXShbT0hdKVtDSDJdbihbY0hdbjIpYyhjMjMpW2NIXWMoRiljKEYpW2NIXTM=

> <s_epik_cmdline>
J2VwaWtfcHl0aG9uJywgJy1waCcsICc3LjAnLCAnLXRuJywgJzgnLCAnLW1hJywgJzIwMCcsICctbWV0YWxfYmluZGluZycsICctaW1hZScsICc8aW5maWxlLm1hZT4nLCAnLW9tYWUnLCAnPG91dGZpbGUubWFlPic=

> <r_epik_Ionization_Penalty>
0.61967

> <r_epik_Ionization_Penalty_Charging>
0.608065

> <r_epik_Ionization_Penalty_Neutral>
0.0116057

> <r_epik_State_Penalty>
0.664205

> <r_epik_Charging_Adjusted_Penalty>
1.27227

> <i_epik_Tot_Q>
1

> <i_epik_Tot_abs_Q>
1

> <r_epik_Metal_State_Penalty>
0.654947

> <b_epik_Metal_Only>
0

> <s_lp_Force_Field>
OPLS_2005

> <r_lp_Energy>
22.8883

> <b_lp_Chiralities_Consistent>
1

> <s_lp_Variant>
AV-unprocessed.smi:1824-14

> <Gold.Version>
5.8.1

> <Gold.Id.Protein>
6NUR|6NUR_protein|mol2

> <Gold.PLP.Fitness>
46.1392

> <Gold.PLP.PLP>
-41.2084

> <Gold.PLP.part.hbond>
-2.6054

> <Gold.PLP.part.metal>
0.0000

> <Gold.PLP.part.buried>
-4.8102

> <Gold.PLP.part.nonpolar>
-32.9347

> <Gold.PLP.part.repulsive>
0.0595

> <Gold.PLP.ligand.clash>
0.0000

> <Gold.PLP.ligand.torsion>
0.3561

> <Gold.PLP.Chemscore.Hbond>
1.8640

> <Gold.PLP.Chemscore.CHOScore>
0.0000

> <Gold.PLP.Chemscore.Metal>
0.0000

> <Gold.Chemscore.Hbonds>
donor molecule, donor type, donor heavy atom, donor atom, acceptor molecule, acceptor atom, score
      L1  H     7    33       P1  7957  0.78
      P1  H  8011  8017       L1     7  1.00

> <Gold.PLP.Chemscore.Internal.Correction>
0.0511

> <Gold.Rescore>
     Score         DG    S(hbond)    S(metal)    S(lipo)     H(rot)  DE(clash)    DE(int)     intcor
     13.18     -14.54       1.34        0.00      90.13       2.33       0.18       1.18       ----

> <Gold.Chemscore.Fitness>
13.1772

> <Gold.Chemscore.DG>
-14.5371

> <Gold.Chemscore.ZeroCoef>
-5.4800

> <Gold.Chemscore.Hbond>
1.3367

> <Gold.Chemscore.Metal>
0.0000

> <Gold.Chemscore.Lipo>
90.1273

> <Gold.Chemscore.Internal_Hbond>
0.0000

> <Gold.Chemscore.DEClash>
0.1758

> <Gold.Chemscore.DEInternal>
1.1841

> <Gold.Chemscore.Rot>
2.3251

> <Gold.Chemscore.Internal.Correction>
   9.000000E+99

> <Gold.Chemscore.Hbonds>
donor molecule, donor type, donor heavy atom, donor atom, acceptor molecule, acceptor atom, score
      L1  H     7    33       P1  7957  0.75
      P1  H  8011  8017       L1     7  0.39

> <Gold.Chemscore.Hbond.Weighted>
-4.4645

> <Gold.Chemscore.Metal.Weighted>
-0.0000

> <Gold.Chemscore.Lipo.Weighted>
-10.5449

> <Gold.Chemscore.Internal_Hbond.Weighted>
0.0000

> <Gold.Chemscore.DEClash.Weighted>
0.1758

> <Gold.Chemscore.DEInternal.Weighted>
1.1841

> <Gold.Chemscore.Rot.Weighted>
5.9523

> <Gold.Chemscore.Internal.Correction.Weighted>
   9.000000E+99

> <Gold.Protein.RotatedTorsions>
[ 6907 6896 6895 6894 ] final -109.95 input  -60.11 | X-H torsion
[ 7974 7965 7964 7962 ] final  -98.42 input  175.53 | X-H torsion
[ 8008 7997 7996 7995 ] final  169.58 input   59.86 | X-H torsion
[ 10167 10162 10161 10158 ] final  159.55 input  -65.29 | X-H torsion
[ 10718 10713 10712 10709 ] final   91.27 input   66.30 | X-H torsion
[ 10763 10752 10751 10750 ] final -169.72 input  -60.55 | X-H torsion
[ 11005 11000 10999 10996 ] final  -40.82 input  -57.11 | X-H torsion

> <Gold.Protein.ActiveResidues>
 VAL166  LYS551  ARG553  GLY616  TRP617  ASP618  TYR619  PRO620  LYS621  CYS622 
 ASP623  PHE694  ASN695  SER759  ASP760  ASP761  ALA762  ILE779  LEU786  VAL792 
 PHE793  MET794  SER795  GLU796  ALA797  LYS798  CYS799  TRP800  GLU811  SER814 

> <Gold.Protein.RotatedAtoms>
  150.7594  133.9454  159.3468 H   0  0  0  0  0  0  0  0  0  0  0  0  # atno 6907 bound_to 6896
  151.7366  135.0861  160.0318 H   0  0  0  0  0  0  0  0  0  0  0  0  # atno 6908 bound_to 6896
  152.3555  133.6195  159.6012 H   0  0  0  0  0  0  0  0  0  0  0  0  # atno 6909 bound_to 6896
  145.3208  140.9421  143.2716 H   0  0  0  0  0  0  0  0  0  0  0  0  # atno 7974 bound_to 7965
  156.1444  140.1560  156.8869 H   0  0  0  0  0  0  0  0  0  0  0  0  # atno 8008 bound_to 7997
  154.5016  140.0824  156.7846 H   0  0  0  0  0  0  0  0  0  0  0  0  # atno 8009 bound_to 7997
  155.4016  140.3414  155.4259 H   0  0  0  0  0  0  0  0  0  0  0  0  # atno 8010 bound_to 7997
  139.4833  144.4719  151.8565 H   0  0  0  0  0  0  0  0  0  0  0  0  # atno 10167 bound_to 10162
  157.6960  131.0401  150.3704 H   0  0  0  0  0  0  0  0  0  0  0  0  # atno 10718 bound_to 10713
  154.6492  135.2909  155.0008 H   0  0  0  0  0  0  0  0  0  0  0  0  # atno 10763 bound_to 10752
  154.1107  135.6563  153.4888 H   0  0  0  0  0  0  0  0  0  0  0  0  # atno 10764 bound_to 10752
  153.0367  135.5264  154.7393 H   0  0  0  0  0  0  0  0  0  0  0  0  # atno 10765 bound_to 10752
  141.0202  133.6866  156.2373 H   0  0  0  0  0  0  0  0  0  0  0  0  # atno 11005 bound_to 11000
  144.8941  139.4736  143.6664 LP  0  0  0  0  0  0  0  0  0  0  0  0  # atno 17320 bound_to 7965
  146.3083  139.7656  142.9039 LP  0  0  0  0  0  0  0  0  0  0  0  0  # atno 17321 bound_to 7965
  140.4188  144.2271  150.5887 LP  0  0  0  0  0  0  0  0  0  0  0  0  # atno 17342 bound_to 10162
  140.4894  143.2352  151.8840 LP  0  0  0  0  0  0  0  0  0  0  0  0  # atno 17343 bound_to 10162
  156.4130  130.3938  149.6878 LP  0  0  0  0  0  0  0  0  0  0  0  0  # atno 17370 bound_to 10713
  156.4156  130.7743  151.2758 LP  0  0  0  0  0  0  0  0  0  0  0  0  # atno 17371 bound_to 10713
  140.6586  134.4991  157.5582 LP  0  0  0  0  0  0  0  0  0  0  0  0  # atno 17394 bound_to 11000
  139.9141  134.8283  156.1426 LP  0  0  0  0  0  0  0  0  0  0  0  0  # atno 17395 bound_to 11000

$$$$
