AV-unprocessed.smi:625|AV-procd|sdf|3104|dock9
  -GOLD-   22720 0 23D 1   1.00000     0.00000
 Structure written by MMmdl.
 49 51  0  0  0  0  0  0  0  0  1 V2000
  146.8928  140.6600  153.5290 C   0  0  0  0  0  0  0  0  0  0  0  0
  147.8961  139.7578  154.0736 N   0  0  0  0  0  0  0  0  0  0  0  0
  149.1139  140.1387  154.4973 C   0  0  0  0  0  0  0  0  0  0  0  0
  149.4717  141.3165  154.4551 O   0  0  0  0  0  0  0  0  0  0  0  0
  149.9492  139.0426  154.9972 C   0  0  0  0  0  0  0  0  0  0  0  0
  151.1395  139.3544  155.7649 C   0  0  0  0  0  0  0  0  0  0  0  0
  151.9427  138.3740  156.2218 C   0  0  0  0  0  0  0  0  0  0  0  0
  151.6528  136.9605  155.9682 C   0  0  0  0  0  0  0  0  0  0  0  0
  152.3940  136.0604  156.3628 O   0  0  0  0  0  0  0  0  0  0  0  0
  150.5121  136.7064  155.2567 N   0  0  0  0  0  0  0  0  0  0  0  0
  150.1197  135.3231  154.9281 C   0  0  0  0  0  0  0  0  0  0  0  0
  148.6112  135.0400  155.0375 C   0  0  0  0  0  0  0  0  0  0  0  0
  148.1021  134.9275  156.1518 O   0  0  0  0  0  0  0  0  0  0  0  0
  147.9083  134.9214  153.8984 N   0  0  0  0  0  0  0  0  0  0  0  0
  146.4884  134.5994  153.7899 C   0  0  1  0  0  0  0  0  0  0  0  0
  145.6686  135.7117  154.4685 C   0  0  0  0  0  0  0  0  0  0  0  0
  146.1286  134.4118  152.2951 C   0  0  1  0  0  0  0  0  0  0  0  0
  146.4456  132.9948  151.7511 C   0  0  0  0  0  0  0  0  0  0  0  0
  145.1123  132.5469  151.1281 C   0  0  2  0  0  0  0  0  0  0  0  0
  144.8256  133.3797  149.8656 C   0  0  0  0  0  0  0  0  0  0  0  0
  144.4580  134.7575  150.4468 C   0  0  0  0  0  0  0  0  0  0  0  0
  144.6201  134.5419  151.9640 C   0  0  1  0  0  0  0  0  0  0  0  0
  144.1072  133.1138  152.1212 C   0  0  0  0  0  0  0  0  0  0  0  0
  149.6800  137.7370  154.7759 C   0  0  0  0  0  0  0  0  0  0  0  0
  145.9893  140.1040  153.2794 H   0  0  0  0  0  0  0  0  0  0  0  0
  147.2575  141.1428  152.6218 H   0  0  0  0  0  0  0  0  0  0  0  0
  146.6291  141.4317  154.2530 H   0  0  0  0  0  0  0  0  0  0  0  0
  147.6535  138.7795  154.1315 H   0  0  0  0  0  0  0  0  0  0  0  0
  151.3973  140.3814  155.9807 H   0  0  0  0  0  0  0  0  0  0  0  0
  152.8234  138.6351  156.7901 H   0  0  0  0  0  0  0  0  0  0  0  0
  150.4478  135.0653  153.9195 H   0  0  0  0  0  0  0  0  0  0  0  0
  150.6420  134.6198  155.5781 H   0  0  0  0  0  0  0  0  0  0  0  0
  148.4091  135.0320  153.0286 H   0  0  0  0  0  0  0  0  0  0  0  0
  146.2986  133.6606  154.3131 H   0  0  0  0  0  0  0  0  0  0  0  0
  144.6040  135.4824  154.4783 H   0  0  0  0  0  0  0  0  0  0  0  0
  145.7992  136.6675  153.9601 H   0  0  0  0  0  0  0  0  0  0  0  0
  145.9727  135.8456  155.5072 H   0  0  0  0  0  0  0  0  0  0  0  0
  146.6906  135.1512  151.7217 H   0  0  0  0  0  0  0  0  0  0  0  0
  147.2622  133.0006  151.0282 H   0  0  0  0  0  0  0  0  0  0  0  0
  146.7230  132.3080  152.5523 H   0  0  0  0  0  0  0  0  0  0  0  0
  145.0451  131.4705  150.9675 H   0  0  0  0  0  0  0  0  0  0  0  0
  145.6861  133.4244  149.1970 H   0  0  0  0  0  0  0  0  0  0  0  0
  143.9866  132.9638  149.3063 H   0  0  0  0  0  0  0  0  0  0  0  0
  145.0958  135.5559  150.0656 H   0  0  0  0  0  0  0  0  0  0  0  0
  143.4260  135.0121  150.2015 H   0  0  0  0  0  0  0  0  0  0  0  0
  144.0842  135.2849  152.5532 H   0  0  0  0  0  0  0  0  0  0  0  0
  143.0699  132.9886  151.8053 H   0  0  0  0  0  0  0  0  0  0  0  0
  144.2228  132.7156  153.1304 H   0  0  0  0  0  0  0  0  0  0  0  0
  148.8300  137.3802  154.2120 H   0  0  0  0  0  0  0  0  0  0  0  0
  1  2  1  0  0  0  0
  1 25  1  0  0  0  0
  1 26  1  0  0  0  0
  1 27  1  0  0  0  0
  2  3  1  0  0  0  0
  2 28  1  0  0  0  0
  3  4  2  0  0  0  0
  3  5  1  0  0  0  0
  5 24  2  0  0  0  0
  5  6  1  0  0  0  0
  6  7  2  0  0  0  0
  6 29  1  0  0  0  0
  7  8  1  0  0  0  0
  7 30  1  0  0  0  0
  8  9  2  0  0  0  0
  8 10  1  0  0  0  0
 10 11  1  0  0  0  0
 10 24  1  0  0  0  0
 11 12  1  0  0  0  0
 11 31  1  0  0  0  0
 11 32  1  0  0  0  0
 12 13  2  0  0  0  0
 12 14  1  0  0  0  0
 14 15  1  0  0  0  0
 14 33  1  0  0  0  0
 15 16  1  0  0  0  0
 15 17  1  0  0  0  0
 15 34  1  0  0  0  0
 16 35  1  0  0  0  0
 16 36  1  0  0  0  0
 16 37  1  0  0  0  0
 17 22  1  0  0  0  0
 17 18  1  0  0  0  0
 17 38  1  0  0  0  0
 18 19  1  0  0  0  0
 18 39  1  0  0  0  0
 18 40  1  0  0  0  0
 19 23  1  0  0  0  0
 19 20  1  0  0  0  0
 19 41  1  0  0  0  0
 20 21  1  0  0  0  0
 20 42  1  0  0  0  0
 20 43  1  0  0  0  0
 21 22  1  0  0  0  0
 21 44  1  0  0  0  0
 21 45  1  0  0  0  0
 22 23  1  0  0  0  0
 22 46  1  0  0  0  0
 23 47  1  0  0  0  0
 23 48  1  0  0  0  0
 24 49  1  0  0  0  0
M  END
> <s_m_source_file>
AV-unprocessed.smi

> <i_m_source_file_index>
625

> <i_lp_mmshare_version>
43012

> <i_f3d_flags>
0

> <s_epik_input>
W0NIM11bTkhdQyg9TyljMVtjSF1bY0hdYyg9TyluKFtjSF0xKVtDSDJdQyg9TylbTkhdW0NASF0oW0NIM10pW0NASF0oW0NIMl1bQ0BIXTIzKVtDQEhdKFtDSDJdMylbQ0gyXVtDSDJdMg==

> <s_epik_cmdline>
J2VwaWtfcHl0aG9uJywgJy1waCcsICc3LjAnLCAnLXRuJywgJzgnLCAnLW1hJywgJzIwMCcsICctbWV0YWxfYmluZGluZycsICctaW1hZScsICc8aW5maWxlLm1hZT4nLCAnLW9tYWUnLCAnPG91dGZpbGUubWFlPic=

> <r_lp_tautomer_probability>
1

> <r_epik_Ionization_Penalty>
3.7129e-07

> <r_epik_Ionization_Penalty_Charging>
5.04114e-08

> <r_epik_Ionization_Penalty_Neutral>
3.20879e-07

> <r_epik_State_Penalty>
-0

> <r_epik_Charging_Adjusted_Penalty>
5.04114e-08

> <i_epik_Tot_Q>
0

> <i_epik_Tot_abs_Q>
0

> <r_epik_Metal_State_Penalty>
-0

> <b_epik_Metal_Only>
0

> <s_lp_Force_Field>
OPLS_2005

> <r_lp_Energy>
63.0032

> <b_lp_Chiralities_Consistent>
1

> <s_lp_Variant>
AV-unprocessed.smi:625-4

> <Gold.Version>
5.8.1

> <Gold.Id.Protein>
6NUR|6NUR_protein|mol2

> <Gold.PLP.Fitness>
43.8730

> <Gold.PLP.PLP>
-34.8996

> <Gold.PLP.part.hbond>
-5.0000

> <Gold.PLP.part.metal>
0.0000

> <Gold.PLP.part.buried>
1.2371

> <Gold.PLP.part.nonpolar>
-31.0901

> <Gold.PLP.part.repulsive>
0.2909

> <Gold.PLP.ligand.clash>
0.0000

> <Gold.PLP.ligand.torsion>
1.0226

> <Gold.PLP.Chemscore.Hbond>
2.7449

> <Gold.PLP.Chemscore.CHOScore>
0.9091

> <Gold.PLP.Chemscore.Metal>
0.0000

> <Gold.Chemscore.Hbonds>
donor molecule, donor type, donor heavy atom, donor atom, acceptor molecule, acceptor atom, score
      L1  H    14    33       P1  7948  0.90
      P1  H  7989  7998       L1     4  0.04
      P1  H  8011  8017       L1     4  0.04
      P1  H 10752 10764       L1     9  1.00
      L1  C    24    49       P1  7948  0.72

> <Gold.PLP.Chemscore.Internal.Correction>
0.0565

> <Gold.Rescore>
     Score         DG    S(hbond)    S(metal)    S(lipo)     H(rot)  DE(clash)    DE(int)     intcor
     17.67     -19.06       2.52        0.00      80.81       1.67       0.12       1.27       ----

> <Gold.Chemscore.Fitness>
17.6653

> <Gold.Chemscore.DG>
-19.0577

> <Gold.Chemscore.ZeroCoef>
-5.4800

> <Gold.Chemscore.Hbond>
2.5152

> <Gold.Chemscore.Metal>
0.0000

> <Gold.Chemscore.Lipo>
80.8065

> <Gold.Chemscore.Internal_Hbond>
0.0000

> <Gold.Chemscore.DEClash>
0.1240

> <Gold.Chemscore.DEInternal>
1.2684

> <Gold.Chemscore.Rot>
1.6709

> <Gold.Chemscore.Internal.Correction>
   9.000000E+99

> <Gold.Chemscore.Hbonds>
donor molecule, donor type, donor heavy atom, donor atom, acceptor molecule, acceptor atom, score
      L1  H    14    33       P1  7948  0.69
      P1  H  7989  7998       L1     4  0.01
      P1  H  8011  8017       L1     4  0.06
      P1  H 10752 10764       L1     9  0.44

> <Gold.Chemscore.Hbond.Weighted>
-8.4008

> <Gold.Chemscore.Metal.Weighted>
-0.0000

> <Gold.Chemscore.Lipo.Weighted>
-9.4544

> <Gold.Chemscore.Internal_Hbond.Weighted>
0.0000

> <Gold.Chemscore.DEClash.Weighted>
0.1240

> <Gold.Chemscore.DEInternal.Weighted>
1.2684

> <Gold.Chemscore.Rot.Weighted>
4.2774

> <Gold.Chemscore.Internal.Correction.Weighted>
   9.000000E+99

> <Gold.Protein.RotatedTorsions>
[ 6907 6896 6895 6894 ] final  -42.20 input  -60.11 | X-H torsion
[ 7974 7965 7964 7962 ] final   76.24 input  175.53 | X-H torsion
[ 8008 7997 7996 7995 ] final  -24.76 input   59.86 | X-H torsion
[ 10167 10162 10161 10158 ] final   97.32 input  -65.29 | X-H torsion
[ 10718 10713 10712 10709 ] final   86.24 input   66.30 | X-H torsion
[ 10763 10752 10751 10750 ] final  -36.40 input  -60.55 | X-H torsion
[ 11005 11000 10999 10996 ] final  159.02 input  -57.11 | X-H torsion

> <Gold.Protein.ActiveResidues>
 VAL166  LYS551  ARG553  GLY616  TRP617  ASP618  TYR619  PRO620  LYS621  CYS622 
 ASP623  PHE694  ASN695  SER759  ASP760  ASP761  ALA762  ILE779  LEU786  VAL792 
 PHE793  MET794  SER795  GLU796  ALA797  LYS798  CYS799  TRP800  GLU811  SER814 

> <Gold.Protein.RotatedAtoms>
  150.9580  134.8972  159.7712 H   0  0  0  0  0  0  0  0  0  0  0  0  # atno 6907 bound_to 6896
  152.5145  134.3713  159.9329 H   0  0  0  0  0  0  0  0  0  0  0  0  # atno 6908 bound_to 6896
  151.3726  133.3809  159.2736 H   0  0  0  0  0  0  0  0  0  0  0  0  # atno 6909 bound_to 6896
  145.7053  139.2596  143.1681 H   0  0  0  0  0  0  0  0  0  0  0  0  # atno 7974 bound_to 7965
  154.4511  140.1945  156.0515 H   0  0  0  0  0  0  0  0  0  0  0  0  # atno 8008 bound_to 7997
  156.0650  140.3292  155.7480 H   0  0  0  0  0  0  0  0  0  0  0  0  # atno 8009 bound_to 7997
  155.5352  140.0581  157.2872 H   0  0  0  0  0  0  0  0  0  0  0  0  # atno 8010 bound_to 7997
  139.7812  144.6887  151.0020 H   0  0  0  0  0  0  0  0  0  0  0  0  # atno 10167 bound_to 10162
  157.6926  131.0207  150.2943 H   0  0  0  0  0  0  0  0  0  0  0  0  # atno 10718 bound_to 10713
  153.8791  135.6823  153.4768 H   0  0  0  0  0  0  0  0  0  0  0  0  # atno 10763 bound_to 10752
  153.1244  135.4725  154.9246 H   0  0  0  0  0  0  0  0  0  0  0  0  # atno 10764 bound_to 10752
  154.7678  135.3229  154.8203 H   0  0  0  0  0  0  0  0  0  0  0  0  # atno 10765 bound_to 10752
  140.1922  134.8399  157.2924 H   0  0  0  0  0  0  0  0  0  0  0  0  # atno 11005 bound_to 11000
  146.0761  140.7816  142.9664 LP  0  0  0  0  0  0  0  0  0  0  0  0  # atno 17320 bound_to 7965
  144.6957  140.3416  143.7198 LP  0  0  0  0  0  0  0  0  0  0  0  0  # atno 17321 bound_to 7965
  140.7818  143.4481  151.0453 LP  0  0  0  0  0  0  0  0  0  0  0  0  # atno 17342 bound_to 10162
  139.8161  143.7883  152.3174 LP  0  0  0  0  0  0  0  0  0  0  0  0  # atno 17343 bound_to 10162
  156.3469  130.3824  149.7361 LP  0  0  0  0  0  0  0  0  0  0  0  0  # atno 17370 bound_to 10713
  156.4852  130.8059  151.3072 LP  0  0  0  0  0  0  0  0  0  0  0  0  # atno 17371 bound_to 10713
  140.2147  134.4095  155.7595 LP  0  0  0  0  0  0  0  0  0  0  0  0  # atno 17394 bound_to 11000
  141.2226  133.7136  156.8395 LP  0  0  0  0  0  0  0  0  0  0  0  0  # atno 17395 bound_to 11000

$$$$
