AV-unprocessed.smi:2496|AV-procd|sdf|9828|dock9
  -GOLD-   2272013463D 1   1.00000     0.00000
 Structure written by MMmdl.
 40 40  0  0  0  0  0  0  0  0  1 V2000
  152.5119  137.1461  157.3038 C   0  0  0  0  0  0  0  0  0  0  0  0
  151.5178  137.4574  156.2197 C   0  0  0  0  0  0  0  0  0  0  0  0
  151.4509  136.6471  155.1738 N   0  0  0  0  0  0  0  0  0  0  0  0
  150.4935  137.1876  154.4027 N   0  0  0  0  0  0  0  0  0  0  0  0
  149.9479  138.3276  154.9421 C   0  0  0  0  0  0  0  0  0  0  0  0
  148.8706  139.0939  154.2505 C   0  0  0  0  0  0  0  0  0  0  0  0
  150.5868  138.5435  156.1340 C   0  0  0  0  0  0  0  0  0  0  0  0
  150.3492  139.6819  157.1053 C   0  0  1  0  0  0  0  0  0  0  0  0
  149.6072  139.2209  158.3738 C   0  0  0  0  0  0  0  0  0  0  0  0
  151.6802  140.3887  157.4049 C   0  0  0  0  0  0  0  0  0  0  0  0
  152.7498  139.9056  157.0315 O   0  0  0  0  0  0  0  0  0  0  0  0
  151.5897  141.5393  158.0923 N   0  0  0  0  0  0  0  0  0  0  0  0
  152.7001  142.4119  158.4727 C   0  0  1  0  0  0  0  0  0  0  0  0
  152.2751  143.8626  158.1868 C   0  0  0  0  0  0  0  0  0  0  0  0
  153.1058  142.1687  159.9516 C   0  0  0  0  0  0  0  0  0  0  0  0
  153.1327  140.6720  160.3102 C   0  0  0  0  0  0  0  0  0  0  0  0
  152.1914  142.9149  160.9428 C   0  0  0  0  0  0  0  0  0  0  0  0
  150.2262  136.7730  153.5213 H   0  0  0  0  0  0  0  0  0  0  0  0
  153.0002  138.0494  157.6671 H   0  0  0  0  0  0  0  0  0  0  0  0
  153.2953  136.4749  156.9502 H   0  0  0  0  0  0  0  0  0  0  0  0
  152.0255  136.6654  158.1524 H   0  0  0  0  0  0  0  0  0  0  0  0
  149.2034  140.1072  154.0255 H   0  0  0  0  0  0  0  0  0  0  0  0
  147.9820  139.1616  154.8784 H   0  0  0  0  0  0  0  0  0  0  0  0
  148.5839  138.6181  153.3122 H   0  0  0  0  0  0  0  0  0  0  0  0
  149.7124  140.4346  156.6383 H   0  0  0  0  0  0  0  0  0  0  0  0
  150.1741  138.4800  158.9370 H   0  0  0  0  0  0  0  0  0  0  0  0
  148.6448  138.7763  158.1185 H   0  0  0  0  0  0  0  0  0  0  0  0
  149.4100  140.0608  159.0410 H   0  0  0  0  0  0  0  0  0  0  0  0
  150.6658  141.8499  158.3551 H   0  0  0  0  0  0  0  0  0  0  0  0
  153.5677  142.1982  157.8459 H   0  0  0  0  0  0  0  0  0  0  0  0
  153.0969  144.5628  158.3325 H   0  0  0  0  0  0  0  0  0  0  0  0
  151.4521  144.1707  158.8327 H   0  0  0  0  0  0  0  0  0  0  0  0
  151.9437  143.9752  157.1537 H   0  0  0  0  0  0  0  0  0  0  0  0
  154.1161  142.5556  160.0933 H   0  0  0  0  0  0  0  0  0  0  0  0
  152.1651  140.2038  160.1271 H   0  0  0  0  0  0  0  0  0  0  0  0
  153.3763  140.5248  161.3627 H   0  0  0  0  0  0  0  0  0  0  0  0
  153.8823  140.1295  159.7356 H   0  0  0  0  0  0  0  0  0  0  0  0
  151.1490  142.6214  160.8153 H   0  0  0  0  0  0  0  0  0  0  0  0
  152.2511  143.9960  160.8169 H   0  0  0  0  0  0  0  0  0  0  0  0
  152.4720  142.7013  161.9745 H   0  0  0  0  0  0  0  0  0  0  0  0
  1  2  1  0  0  0  0
  1 19  1  0  0  0  0
  1 20  1  0  0  0  0
  1 21  1  0  0  0  0
  2  7  1  0  0  0  0
  2  3  2  0  0  0  0
  3  4  1  0  0  0  0
  4 18  1  0  0  0  0
  4  5  1  0  0  0  0
  5  6  1  0  0  0  0
  5  7  2  0  0  0  0
  6 22  1  0  0  0  0
  6 23  1  0  0  0  0
  6 24  1  0  0  0  0
  7  8  1  0  0  0  0
  8  9  1  0  0  0  0
  8 10  1  0  0  0  0
  8 25  1  0  0  0  0
  9 26  1  0  0  0  0
  9 27  1  0  0  0  0
  9 28  1  0  0  0  0
 10 11  2  0  0  0  0
 10 12  1  0  0  0  0
 12 13  1  0  0  0  0
 12 29  1  0  0  0  0
 13 14  1  0  0  0  0
 13 15  1  0  0  0  0
 13 30  1  0  0  0  0
 14 31  1  0  0  0  0
 14 32  1  0  0  0  0
 14 33  1  0  0  0  0
 15 16  1  0  0  0  0
 15 17  1  0  0  0  0
 15 34  1  0  0  0  0
 16 35  1  0  0  0  0
 16 36  1  0  0  0  0
 16 37  1  0  0  0  0
 17 38  1  0  0  0  0
 17 39  1  0  0  0  0
 17 40  1  0  0  0  0
M  END
> <s_m_source_file>
AV-unprocessed.smi

> <i_m_source_file_index>
2496

> <i_lp_mmshare_version>
43012

> <i_f3d_flags>
0

> <s_epik_input>
W0NIM11jMW5bbkhdYyhbQ0gzXSljMVtDQEhdKFtDSDNdKUMoPU8pW05IXVtDQEhdKFtDSDNdKVtDSF0oW0NIM10pW0NIM10=

> <s_epik_cmdline>
J2VwaWtfcHl0aG9uJywgJy1waCcsICc3LjAnLCAnLXRuJywgJzgnLCAnLW1hJywgJzIwMCcsICctbWV0YWxfYmluZGluZycsICctaW1hZScsICc8aW5maWxlLm1hZT4nLCAnLW9tYWUnLCAnPG91dGZpbGUubWFlPic=

> <r_lp_tautomer_probability>
1

> <r_epik_Ionization_Penalty>
0.000456212

> <r_epik_Ionization_Penalty_Charging>
0

> <r_epik_Ionization_Penalty_Neutral>
0.000456212

> <r_epik_State_Penalty>
-0

> <r_epik_Charging_Adjusted_Penalty>
0

> <i_epik_Tot_Q>
0

> <i_epik_Tot_abs_Q>
0

> <r_epik_Metal_State_Penalty>
-0

> <b_epik_Metal_Only>
0

> <s_lp_Force_Field>
OPLS_2005

> <r_lp_Energy>
2.25398

> <b_lp_Chiralities_Consistent>
1

> <s_lp_Variant>
AV-unprocessed.smi:2496-4

> <Gold.Version>
5.8.1

> <Gold.Id.Protein>
6NUR|6NUR_protein|mol2

> <Gold.PLP.Fitness>
34.2545

> <Gold.PLP.PLP>
-27.3673

> <Gold.PLP.part.hbond>
-3.6915

> <Gold.PLP.part.metal>
0.0000

> <Gold.PLP.part.buried>
-2.4848

> <Gold.PLP.part.nonpolar>
-21.4429

> <Gold.PLP.part.repulsive>
0.2888

> <Gold.PLP.ligand.clash>
0.0000

> <Gold.PLP.ligand.torsion>
0.8867

> <Gold.PLP.Chemscore.Hbond>
2.8500

> <Gold.PLP.Chemscore.CHOScore>
0.0000

> <Gold.PLP.Chemscore.Metal>
0.0000

> <Gold.Chemscore.Hbonds>
donor molecule, donor type, donor heavy atom, donor atom, acceptor molecule, acceptor atom, score
      L1  H     4    18       P1  7948  0.56
      P1  H  7997  8008       L1    11  1.00
      P1  H 10752 10764       L1     3  1.00

> <Gold.PLP.Chemscore.Internal.Correction>
0.1107

> <Gold.Rescore>
     Score         DG    S(hbond)    S(metal)    S(lipo)     H(rot)  DE(clash)    DE(int)     intcor
     14.87     -18.15       2.03        0.00      82.36       1.47       0.13       3.15       ----

> <Gold.Chemscore.Fitness>
14.8698

> <Gold.Chemscore.DG>
-18.1524

> <Gold.Chemscore.ZeroCoef>
-5.4800

> <Gold.Chemscore.Hbond>
2.0328

> <Gold.Chemscore.Metal>
0.0000

> <Gold.Chemscore.Lipo>
82.3603

> <Gold.Chemscore.Internal_Hbond>
0.0000

> <Gold.Chemscore.DEClash>
0.1307

> <Gold.Chemscore.DEInternal>
3.1519

> <Gold.Chemscore.Rot>
1.4662

> <Gold.Chemscore.Internal.Correction>
   9.000000E+99

> <Gold.Chemscore.Hbonds>
donor molecule, donor type, donor heavy atom, donor atom, acceptor molecule, acceptor atom, score
      L1  H     4    18       P1  7948  0.06
      P1  H  7997  8008       L1    11  1.00
      P1  H 10752 10764       L1     3  0.99

> <Gold.Chemscore.Hbond.Weighted>
-6.7896

> <Gold.Chemscore.Metal.Weighted>
-0.0000

> <Gold.Chemscore.Lipo.Weighted>
-9.6362

> <Gold.Chemscore.Internal_Hbond.Weighted>
0.0000

> <Gold.Chemscore.DEClash.Weighted>
0.1307

> <Gold.Chemscore.DEInternal.Weighted>
3.1519

> <Gold.Chemscore.Rot.Weighted>
3.7534

> <Gold.Chemscore.Internal.Correction.Weighted>
   9.000000E+99

> <Gold.Protein.RotatedTorsions>
[ 6907 6896 6895 6894 ] final  171.09 input  -60.11 | X-H torsion
[ 7974 7965 7964 7962 ] final   93.60 input  175.53 | X-H torsion
[ 8008 7997 7996 7995 ] final  -60.84 input   59.86 | X-H torsion
[ 10167 10162 10161 10158 ] final -145.69 input  -65.29 | X-H torsion
[ 10718 10713 10712 10709 ] final  -98.27 input   66.30 | X-H torsion
[ 10763 10752 10751 10750 ] final  -61.20 input  -60.55 | X-H torsion
[ 11005 11000 10999 10996 ] final -172.80 input  -57.11 | X-H torsion

> <Gold.Protein.ActiveResidues>
 VAL166  LYS551  ARG553  GLY616  TRP617  ASP618  TYR619  PRO620  LYS621  CYS622 
 ASP623  PHE694  ASN695  SER759  ASP760  ASP761  ALA762  ILE779  LEU786  VAL792 
 PHE793  MET794  SER795  GLU796  ALA797  LYS798  CYS799  TRP800  GLU811  SER814 

> <Gold.Protein.RotatedAtoms>
  151.8057  133.3375  159.3539 H   0  0  0  0  0  0  0  0  0  0  0  0  # atno 6907 bound_to 6896
  150.7343  134.5711  159.5900 H   0  0  0  0  0  0  0  0  0  0  0  0  # atno 6908 bound_to 6896
  152.3111  134.7497  160.0387 H   0  0  0  0  0  0  0  0  0  0  0  0  # atno 6909 bound_to 6896
  145.4767  139.2280  143.2905 H   0  0  0  0  0  0  0  0  0  0  0  0  # atno 7974 bound_to 7965
  154.4418  140.1031  156.6337 H   0  0  0  0  0  0  0  0  0  0  0  0  # atno 8008 bound_to 7997
  155.5577  140.3487  155.4465 H   0  0  0  0  0  0  0  0  0  0  0  0  # atno 8009 bound_to 7997
  156.0483  140.1298  157.0069 H   0  0  0  0  0  0  0  0  0  0  0  0  # atno 8010 bound_to 7997
  139.7782  143.8139  152.2635 H   0  0  0  0  0  0  0  0  0  0  0  0  # atno 10167 bound_to 10162
  156.0103  130.5230  150.6498 H   0  0  0  0  0  0  0  0  0  0  0  0  # atno 10718 bound_to 10713
  154.2810  135.6272  153.5347 H   0  0  0  0  0  0  0  0  0  0  0  0  # atno 10763 bound_to 10752
  152.9866  135.5633  154.5496 H   0  0  0  0  0  0  0  0  0  0  0  0  # atno 10764 bound_to 10752
  154.5086  135.2876  155.1337 H   0  0  0  0  0  0  0  0  0  0  0  0  # atno 10765 bound_to 10752
  140.4930  134.5967  157.4961 H   0  0  0  0  0  0  0  0  0  0  0  0  # atno 11005 bound_to 11000
  146.2365  140.5550  142.8952 LP  0  0  0  0  0  0  0  0  0  0  0  0  # atno 17320 bound_to 7965
  144.7913  140.6037  143.6540 LP  0  0  0  0  0  0  0  0  0  0  0  0  # atno 17321 bound_to 7965
  139.8194  144.7302  150.9593 LP  0  0  0  0  0  0  0  0  0  0  0  0  # atno 17342 bound_to 10162
  140.7817  143.4174  151.0896 LP  0  0  0  0  0  0  0  0  0  0  0  0  # atno 17343 bound_to 10162
  157.4261  131.0843  151.1084 LP  0  0  0  0  0  0  0  0  0  0  0  0  # atno 17370 bound_to 10713
  157.1671  130.6251  149.5629 LP  0  0  0  0  0  0  0  0  0  0  0  0  # atno 17371 bound_to 10713
  139.9758  134.7218  155.9953 LP  0  0  0  0  0  0  0  0  0  0  0  0  # atno 17394 bound_to 11000
  141.1474  133.6553  156.3910 LP  0  0  0  0  0  0  0  0  0  0  0  0  # atno 17395 bound_to 11000

$$$$
