AV-unprocessed.smi:1905|AV-procd|sdf|7726|dock1
  -GOLD-   22720 9463D 1   1.00000     0.00000
 Structure written by MMmdl.
 38 39  0  0  0  0  0  0  0  0  1 V2000
  144.8159  134.6170  151.0309 C   0  0  0  0  0  0  0  0  0  0  0  0
  145.5357  133.2697  151.1235 C   0  0  0  0  0  0  0  0  0  0  0  0
  146.7615  133.4561  151.8243 O   0  0  0  0  0  0  0  0  0  0  0  0
  147.4289  132.3453  152.3048 C   0  0  0  0  0  0  0  0  0  0  0  0
  146.9089  131.1189  152.0478 N   0  0  0  0  0  0  0  0  0  0  0  0
  147.5612  130.0342  152.5127 C   0  0  0  0  0  0  0  0  0  0  0  0
  148.7587  130.1119  153.2463 C   0  0  0  0  0  0  0  0  0  0  0  0
  149.3005  131.3828  153.5144 C   0  0  0  0  0  0  0  0  0  0  0  0
  148.6209  132.5332  153.0433 C   0  0  0  0  0  0  0  0  0  0  0  0
  149.0749  133.8682  153.2389 N   0  0  0  0  0  0  0  0  0  0  0  0
  150.0002  134.3395  154.0920 C   0  0  0  0  0  0  0  0  0  0  0  0
  150.6413  133.6674  154.8988 O   0  0  0  0  0  0  0  0  0  0  0  0
  150.1359  135.6670  153.9657 N   0  0  0  0  0  0  0  0  0  0  0  0
  151.0542  136.4967  154.7385 C   0  0  0  0  0  0  0  0  0  0  0  0
  150.9620  137.9874  154.3577 C   0  0  1  0  0  0  0  0  0  0  0  0
  149.6225  138.6308  154.6986 C   0  0  0  0  0  0  0  0  0  0  0  0
  149.9880  140.0351  155.1920 C   0  0  0  0  0  0  0  0  0  0  0  0
  151.3778  140.1766  154.9350 O   0  0  0  0  0  0  0  0  0  0  0  0
  151.9633  138.8937  155.0720 C   0  0  0  0  0  0  0  0  0  0  0  0
  143.8714  134.5188  150.4955 H   0  0  0  0  0  0  0  0  0  0  0  0
  145.4254  135.3505  150.5027 H   0  0  0  0  0  0  0  0  0  0  0  0
  144.5988  135.0131  152.0233 H   0  0  0  0  0  0  0  0  0  0  0  0
  144.9009  132.5515  151.6453 H   0  0  0  0  0  0  0  0  0  0  0  0
  145.7270  132.8870  150.1196 H   0  0  0  0  0  0  0  0  0  0  0  0
  147.1170  129.0755  152.2895 H   0  0  0  0  0  0  0  0  0  0  0  0
  149.2526  129.2164  153.5933 H   0  0  0  0  0  0  0  0  0  0  0  0
  150.2267  131.4410  154.0631 H   0  0  0  0  0  0  0  0  0  0  0  0
  148.5993  134.5628  152.6818 H   0  0  0  0  0  0  0  0  0  0  0  0
  149.5660  136.1389  153.2788 H   0  0  0  0  0  0  0  0  0  0  0  0
  150.8608  136.3669  155.8046 H   0  0  0  0  0  0  0  0  0  0  0  0
  152.0648  136.1277  154.5613 H   0  0  0  0  0  0  0  0  0  0  0  0
  151.1187  138.0977  153.2833 H   0  0  0  0  0  0  0  0  0  0  0  0
  148.9734  138.6654  153.8229 H   0  0  0  0  0  0  0  0  0  0  0  0
  149.0936  138.0848  155.4808 H   0  0  0  0  0  0  0  0  0  0  0  0
  149.4169  140.8167  154.6908 H   0  0  0  0  0  0  0  0  0  0  0  0
  149.8123  140.1208  156.2651 H   0  0  0  0  0  0  0  0  0  0  0  0
  152.0482  138.6397  156.1300 H   0  0  0  0  0  0  0  0  0  0  0  0
  152.9576  138.8576  154.6260 H   0  0  0  0  0  0  0  0  0  0  0  0
  1  2  1  0  0  0  0
  1 20  1  0  0  0  0
  1 21  1  0  0  0  0
  1 22  1  0  0  0  0
  2  3  1  0  0  0  0
  2 23  1  0  0  0  0
  2 24  1  0  0  0  0
  3  4  1  0  0  0  0
  4  9  1  0  0  0  0
  4  5  2  0  0  0  0
  5  6  1  0  0  0  0
  6  7  2  0  0  0  0
  6 25  1  0  0  0  0
  7  8  1  0  0  0  0
  7 26  1  0  0  0  0
  8  9  2  0  0  0  0
  8 27  1  0  0  0  0
  9 10  1  0  0  0  0
 10 11  1  0  0  0  0
 10 28  1  0  0  0  0
 11 12  2  0  0  0  0
 11 13  1  0  0  0  0
 13 14  1  0  0  0  0
 13 29  1  0  0  0  0
 14 15  1  0  0  0  0
 14 30  1  0  0  0  0
 14 31  1  0  0  0  0
 15 19  1  0  0  0  0
 15 16  1  0  0  0  0
 15 32  1  0  0  0  0
 16 17  1  0  0  0  0
 16 33  1  0  0  0  0
 16 34  1  0  0  0  0
 17 18  1  0  0  0  0
 17 35  1  0  0  0  0
 17 36  1  0  0  0  0
 18 19  1  0  0  0  0
 19 37  1  0  0  0  0
 19 38  1  0  0  0  0
M  END
> <s_m_source_file>
AV-unprocessed.smi

> <i_m_source_file_index>
1905

> <i_lp_mmshare_version>
43012

> <i_f3d_flags>
0

> <s_epik_input>
W0NIM11bQ0gyXU9jMW5bY0hdW2NIXVtjSF1jMVtOSF1DKD1PKVtOSF1bQ0gyXVtDQEBIXTJbQ0gyXVtDSDJdT1tDSDJdMg==

> <s_epik_cmdline>
J2VwaWtfcHl0aG9uJywgJy1waCcsICc3LjAnLCAnLXRuJywgJzgnLCAnLW1hJywgJzIwMCcsICctbWV0YWxfYmluZGluZycsICctaW1hZScsICc8aW5maWxlLm1hZT4nLCAnLW9tYWUnLCAnPG91dGZpbGUubWFlPic=

> <r_lp_tautomer_probability>
1

> <r_epik_Ionization_Penalty>
0.000115153

> <r_epik_Ionization_Penalty_Charging>
0

> <r_epik_Ionization_Penalty_Neutral>
0.000115153

> <r_epik_State_Penalty>
-0

> <r_epik_Charging_Adjusted_Penalty>
0

> <i_epik_Tot_Q>
0

> <i_epik_Tot_abs_Q>
0

> <r_epik_Metal_State_Penalty>
-0

> <b_epik_Metal_Only>
0

> <s_lp_Force_Field>
OPLS_2005

> <r_lp_Energy>
21.5364

> <b_lp_Chiralities_Consistent>
1

> <s_lp_Variant>
AV-unprocessed.smi:1905-2

> <Gold.Version>
5.8.1

> <Gold.Id.Protein>
6NUR|6NUR_protein|mol2

> <Gold.PLP.Fitness>
41.9835

> <Gold.PLP.PLP>
-33.5467

> <Gold.PLP.part.hbond>
-3.9261

> <Gold.PLP.part.metal>
0.0000

> <Gold.PLP.part.buried>
-1.4439

> <Gold.PLP.part.nonpolar>
-27.9969

> <Gold.PLP.part.repulsive>
0.4759

> <Gold.PLP.ligand.clash>
0.0000

> <Gold.PLP.ligand.torsion>
0.1218

> <Gold.PLP.Chemscore.Hbond>
2.8640

> <Gold.PLP.Chemscore.CHOScore>
0.0000

> <Gold.PLP.Chemscore.Metal>
0.0000

> <Gold.Chemscore.Hbonds>
donor molecule, donor type, donor heavy atom, donor atom, acceptor molecule, acceptor atom, score
      L1  H    10    28       P1  7948  0.58
      L1  H    13    29       P1  7948  0.93
      P1  H  7989  7998       L1    18  1.00

> <Gold.PLP.Chemscore.Internal.Correction>
0.0883

> <Gold.Rescore>
     Score         DG    S(hbond)    S(metal)    S(lipo)     H(rot)  DE(clash)    DE(int)     intcor
     13.80     -15.23       1.99        0.00      61.94       1.61       0.01       1.43       ----

> <Gold.Chemscore.Fitness>
13.7950

> <Gold.Chemscore.DG>
-15.2308

> <Gold.Chemscore.ZeroCoef>
-5.4800

> <Gold.Chemscore.Hbond>
1.9861

> <Gold.Chemscore.Metal>
0.0000

> <Gold.Chemscore.Lipo>
61.9387

> <Gold.Chemscore.Internal_Hbond>
0.0000

> <Gold.Chemscore.DEClash>
0.0089

> <Gold.Chemscore.DEInternal>
1.4268

> <Gold.Chemscore.Rot>
1.6131

> <Gold.Chemscore.Internal.Correction>
   9.000000E+99

> <Gold.Chemscore.Hbonds>
donor molecule, donor type, donor heavy atom, donor atom, acceptor molecule, acceptor atom, score
      L1  H    10    28       P1  7948  0.07
      L1  H    13    29       P1  7948  0.25
      P1  H  7989  7998       L1    18  0.71

> <Gold.Chemscore.Hbond.Weighted>
-6.6336

> <Gold.Chemscore.Metal.Weighted>
-0.0000

> <Gold.Chemscore.Lipo.Weighted>
-7.2468

> <Gold.Chemscore.Internal_Hbond.Weighted>
0.0000

> <Gold.Chemscore.DEClash.Weighted>
0.0089

> <Gold.Chemscore.DEInternal.Weighted>
1.4268

> <Gold.Chemscore.Rot.Weighted>
4.1296

> <Gold.Chemscore.Internal.Correction.Weighted>
   9.000000E+99

> <Gold.Protein.RotatedTorsions>
[ 6907 6896 6895 6894 ] final   76.18 input  -60.11 | X-H torsion
[ 7974 7965 7964 7962 ] final   75.14 input  175.53 | X-H torsion
[ 8008 7997 7996 7995 ] final  -15.94 input   59.86 | X-H torsion
[ 10167 10162 10161 10158 ] final -139.13 input  -65.29 | X-H torsion
[ 10718 10713 10712 10709 ] final   86.93 input   66.30 | X-H torsion
[ 10763 10752 10751 10750 ] final -139.33 input  -60.55 | X-H torsion
[ 11005 11000 10999 10996 ] final -107.95 input  -57.11 | X-H torsion

> <Gold.Protein.ActiveResidues>
 VAL166  LYS551  ARG553  GLY616  TRP617  ASP618  TYR619  PRO620  LYS621  CYS622 
 ASP623  PHE694  ASN695  SER759  ASP760  ASP761  ALA762  ILE779  LEU786  VAL792 
 PHE793  MET794  SER795  GLU796  ALA797  LYS798  CYS799  TRP800  GLU811  SER814 

> <Gold.Protein.RotatedAtoms>
  152.5061  134.4007  159.9415 H   0  0  0  0  0  0  0  0  0  0  0  0  # atno 6907 bound_to 6896
  151.3971  133.3763  159.2735 H   0  0  0  0  0  0  0  0  0  0  0  0  # atno 6908 bound_to 6896
  150.9389  134.8820  159.7658 H   0  0  0  0  0  0  0  0  0  0  0  0  # atno 6909 bound_to 6896
  145.7193  139.2642  143.1605 H   0  0  0  0  0  0  0  0  0  0  0  0  # atno 7974 bound_to 7965
  154.5091  140.2183  155.9192 H   0  0  0  0  0  0  0  0  0  0  0  0  # atno 8008 bound_to 7997
  156.1530  140.3157  155.8646 H   0  0  0  0  0  0  0  0  0  0  0  0  # atno 8009 bound_to 7997
  155.3901  140.0478  157.3031 H   0  0  0  0  0  0  0  0  0  0  0  0  # atno 8010 bound_to 7997
  139.8410  143.7322  152.2663 H   0  0  0  0  0  0  0  0  0  0  0  0  # atno 10167 bound_to 10162
  157.6934  131.0235  150.3047 H   0  0  0  0  0  0  0  0  0  0  0  0  # atno 10718 bound_to 10713
  154.8612  135.3585  154.5530 H   0  0  0  0  0  0  0  0  0  0  0  0  # atno 10763 bound_to 10752
  153.6147  135.7008  153.5338 H   0  0  0  0  0  0  0  0  0  0  0  0  # atno 10764 bound_to 10752
  153.3179  135.4159  155.1352 H   0  0  0  0  0  0  0  0  0  0  0  0  # atno 10765 bound_to 10752
  141.0927  133.9026  157.2036 H   0  0  0  0  0  0  0  0  0  0  0  0  # atno 11005 bound_to 11000
  146.0640  140.7940  142.9720 LP  0  0  0  0  0  0  0  0  0  0  0  0  # atno 17320 bound_to 7965
  144.6921  140.3241  143.7227 LP  0  0  0  0  0  0  0  0  0  0  0  0  # atno 17321 bound_to 7965
  139.7559  144.7521  151.0436 LP  0  0  0  0  0  0  0  0  0  0  0  0  # atno 17342 bound_to 10162
  140.7798  143.4806  151.0023 LP  0  0  0  0  0  0  0  0  0  0  0  0  # atno 17343 bound_to 10162
  156.3558  130.3838  149.7292 LP  0  0  0  0  0  0  0  0  0  0  0  0  # atno 17370 bound_to 10713
  156.4754  130.8016  151.3033 LP  0  0  0  0  0  0  0  0  0  0  0  0  # atno 17371 bound_to 10713
  139.9757  135.0114  156.9624 LP  0  0  0  0  0  0  0  0  0  0  0  0  # atno 17394 bound_to 11000
  140.5213  134.0904  155.7293 LP  0  0  0  0  0  0  0  0  0  0  0  0  # atno 17395 bound_to 11000

$$$$
