AV-unprocessed.smi:230|AV-procd|sdf|1763|dock7
  -GOLD-   2262020293D 1   1.00000     0.00000
 Structure written by MMmdl.
 56 59  0  0  0  0  0  0  0  0  1 V2000
  147.8975  134.0350  156.2072 C   0  0  0  0  0  0  0  0  0  0  0  0
  148.0020  135.3178  157.0434 C   0  0  0  0  0  0  0  0  0  0  0  0
  148.1736  135.0720  158.5657 C   0  0  2  0  0  0  0  0  0  0  0  0
  146.9650  134.2951  159.1355 C   0  0  0  0  0  0  0  0  0  0  0  0
  147.0621  134.1438  160.5494 O   0  0  0  0  0  0  0  0  0  0  0  0
  147.1698  135.3633  161.2857 C   0  0  0  0  0  0  0  0  0  0  0  0
  145.8717  136.1944  161.1975 C   0  0  0  0  0  0  0  0  0  0  0  0
  147.4051  134.9441  162.7451 C   0  0  0  0  0  0  0  0  0  0  0  0
  148.3930  136.1405  160.7612 C   0  0  0  0  0  0  0  0  0  0  0  0
  148.3299  136.3245  159.3153 N   0  0  0  0  0  0  0  0  0  0  0  0
  149.3089  137.1679  158.9142 C   0  0  0  0  0  0  0  0  0  0  0  0
  150.6154  136.8123  159.0389 N   0  0  0  0  0  0  0  0  0  0  0  0
  151.5758  137.6566  158.6497 C   0  0  0  0  0  0  0  0  0  0  0  0
  151.4522  138.8782  158.1252 N   0  0  0  0  0  0  0  0  0  0  0  0
  150.1411  139.2370  158.0072 C   0  0  0  0  0  0  0  0  0  0  0  0
  149.0169  138.4495  158.3796 C   0  0  0  0  0  0  0  0  0  0  0  0
  147.8407  139.1403  158.1195 N   0  0  0  0  0  0  0  0  0  0  0  0
  148.2470  140.2733  157.6139 C   0  0  0  0  0  0  0  0  0  0  0  0
  149.6128  140.4127  157.5036 N   0  0  0  0  0  0  0  0  0  0  0  0
  150.3318  141.5616  156.9748 C   0  0  0  0  0  0  0  0  0  0  0  0
  151.0587  142.3989  158.0565 C   0  0  0  0  0  0  0  0  0  0  0  0
  150.0933  142.7889  159.0184 O   0  0  0  0  0  0  0  0  0  0  0  0
  152.1337  141.5486  158.7629 C   0  0  0  0  0  0  0  0  0  0  0  0
  152.9952  142.3845  159.7267 C   0  0  0  0  0  0  0  0  0  0  0  0
  153.5769  143.4814  159.0328 O   0  0  0  0  0  0  0  0  0  0  0  0
  152.6055  144.3837  158.5179 C   0  0  0  0  0  0  0  0  0  0  0  0
  151.7174  143.6721  157.4816 C   0  0  0  0  0  0  0  0  0  0  0  0
  147.8787  134.2714  155.1433 H   0  0  0  0  0  0  0  0  0  0  0  0
  146.9875  133.4784  156.4300 H   0  0  0  0  0  0  0  0  0  0  0  0
  148.7499  133.3788  156.3854 H   0  0  0  0  0  0  0  0  0  0  0  0
  148.8476  135.8830  156.6521 H   0  0  0  0  0  0  0  0  0  0  0  0
  147.1221  135.9377  156.8672 H   0  0  0  0  0  0  0  0  0  0  0  0
  149.0701  134.4710  158.7267 H   0  0  0  0  0  0  0  0  0  0  0  0
  146.0253  134.7789  158.8687 H   0  0  0  0  0  0  0  0  0  0  0  0
  146.9223  133.2936  158.7086 H   0  0  0  0  0  0  0  0  0  0  0  0
  145.9225  137.0653  161.8516 H   0  0  0  0  0  0  0  0  0  0  0  0
  145.0065  135.6044  161.5017 H   0  0  0  0  0  0  0  0  0  0  0  0
  145.6809  136.5671  160.1915 H   0  0  0  0  0  0  0  0  0  0  0  0
  147.5297  135.8125  163.3928 H   0  0  0  0  0  0  0  0  0  0  0  0
  148.3010  134.3295  162.8407 H   0  0  0  0  0  0  0  0  0  0  0  0
  146.5662  134.3622  163.1283 H   0  0  0  0  0  0  0  0  0  0  0  0
  148.4599  137.1074  161.2633 H   0  0  0  0  0  0  0  0  0  0  0  0
  149.3078  135.5962  161.0028 H   0  0  0  0  0  0  0  0  0  0  0  0
  152.5882  137.3025  158.7768 H   0  0  0  0  0  0  0  0  0  0  0  0
  147.5571  141.0428  157.2989 H   0  0  0  0  0  0  0  0  0  0  0  0
  151.0436  141.2046  156.2290 H   0  0  0  0  0  0  0  0  0  0  0  0
  149.6188  142.1866  156.4358 H   0  0  0  0  0  0  0  0  0  0  0  0
  150.5448  143.0869  159.7932 H   0  0  0  0  0  0  0  0  0  0  0  0
  151.6741  140.7162  159.2975 H   0  0  0  0  0  0  0  0  0  0  0  0
  152.7905  141.1039  158.0140 H   0  0  0  0  0  0  0  0  0  0  0  0
  152.4059  142.7448  160.5713 H   0  0  0  0  0  0  0  0  0  0  0  0
  153.7938  141.7689  160.1410 H   0  0  0  0  0  0  0  0  0  0  0  0
  152.0072  144.7959  159.3320 H   0  0  0  0  0  0  0  0  0  0  0  0
  153.1206  145.2233  158.0512 H   0  0  0  0  0  0  0  0  0  0  0  0
  152.3353  143.4006  156.6248 H   0  0  0  0  0  0  0  0  0  0  0  0
  150.9643  144.3668  157.1081 H   0  0  0  0  0  0  0  0  0  0  0  0
  1  2  1  0  0  0  0
  1 28  1  0  0  0  0
  1 29  1  0  0  0  0
  1 30  1  0  0  0  0
  2  3  1  0  0  0  0
  2 31  1  0  0  0  0
  2 32  1  0  0  0  0
  3 10  1  0  0  0  0
  3  4  1  0  0  0  0
  3 33  1  0  0  0  0
  4  5  1  0  0  0  0
  4 34  1  0  0  0  0
  4 35  1  0  0  0  0
  5  6  1  0  0  0  0
  6  7  1  0  0  0  0
  6  8  1  0  0  0  0
  6  9  1  0  0  0  0
  7 36  1  0  0  0  0
  7 37  1  0  0  0  0
  7 38  1  0  0  0  0
  8 39  1  0  0  0  0
  8 40  1  0  0  0  0
  8 41  1  0  0  0  0
  9 10  1  0  0  0  0
  9 42  1  0  0  0  0
  9 43  1  0  0  0  0
 10 11  1  0  0  0  0
 11 16  1  0  0  0  0
 11 12  2  0  0  0  0
 12 13  1  0  0  0  0
 13 14  2  0  0  0  0
 13 44  1  0  0  0  0
 14 15  1  0  0  0  0
 15 19  1  0  0  0  0
 15 16  2  0  0  0  0
 16 17  1  0  0  0  0
 17 18  2  0  0  0  0
 18 19  1  0  0  0  0
 18 45  1  0  0  0  0
 19 20  1  0  0  0  0
 20 21  1  0  0  0  0
 20 46  1  0  0  0  0
 20 47  1  0  0  0  0
 21 27  1  0  0  0  0
 21 22  1  0  0  0  0
 21 23  1  0  0  0  0
 22 48  1  0  0  0  0
 23 24  1  0  0  0  0
 23 49  1  0  0  0  0
 23 50  1  0  0  0  0
 24 25  1  0  0  0  0
 24 51  1  0  0  0  0
 24 52  1  0  0  0  0
 25 26  1  0  0  0  0
 26 27  1  0  0  0  0
 26 53  1  0  0  0  0
 26 54  1  0  0  0  0
 27 55  1  0  0  0  0
 27 56  1  0  0  0  0
M  END
> <s_m_source_file>
AV-unprocessed.smi

> <i_m_source_file_index>
230

> <i_lp_mmshare_version>
43012

> <i_f3d_flags>
0

> <s_epik_input>
W0NIM11DMShbQ0gzXSlPW0NIMl1bQ0BASF0oW0NIMl1bQ0gzXSlOKFtDSDJdMSljKG5bY0hdbjIpYyhjMjMpbltjSF1uM1tDSDJdQzQoW09IXSlbQ0gyXVtDSDJdT1tDSDJdW0NIMl00

> <s_epik_cmdline>
J2VwaWtfcHl0aG9uJywgJy1waCcsICc3LjAnLCAnLXRuJywgJzgnLCAnLW1hJywgJzIwMCcsICctbWV0YWxfYmluZGluZycsICctaW1hZScsICc8aW5maWxlLm1hZT4nLCAnLW9tYWUnLCAnPG91dGZpbGUubWFlPic=

> <r_lp_tautomer_probability>
1

> <r_epik_Ionization_Penalty>
0.000120535

> <r_epik_Ionization_Penalty_Charging>
0

> <r_epik_Ionization_Penalty_Neutral>
0.000120535

> <r_epik_State_Penalty>
-0

> <r_epik_Charging_Adjusted_Penalty>
0

> <i_epik_Tot_Q>
0

> <i_epik_Tot_abs_Q>
0

> <r_epik_Metal_State_Penalty>
-0

> <b_epik_Metal_Only>
0

> <s_lp_Force_Field>
OPLS_2005

> <r_lp_Energy>
33.8878

> <b_lp_Chiralities_Consistent>
1

> <s_lp_Variant>
AV-unprocessed.smi:230-1

> <Gold.Version>
5.8.1

> <Gold.Id.Protein>
6NUR|6NUR_protein|mol2

> <Gold.PLP.Fitness>
44.0722

> <Gold.PLP.PLP>
-41.3491

> <Gold.PLP.part.hbond>
-1.9879

> <Gold.PLP.part.metal>
0.0000

> <Gold.PLP.part.buried>
-6.1380

> <Gold.PLP.part.nonpolar>
-32.9094

> <Gold.PLP.part.repulsive>
0.0000

> <Gold.PLP.ligand.clash>
0.0000

> <Gold.PLP.ligand.torsion>
0.2185

> <Gold.PLP.Chemscore.Hbond>
1.0000

> <Gold.PLP.Chemscore.CHOScore>
0.0000

> <Gold.PLP.Chemscore.Metal>
0.0000

> <Gold.Chemscore.Hbonds>
donor molecule, donor type, donor heavy atom, donor atom, acceptor molecule, acceptor atom, score
      P1  H  6896  6909       L1    12  1.00

> <Gold.PLP.Chemscore.Internal.Correction>
0.1601

> <Gold.Rescore>
     Score         DG    S(hbond)    S(metal)    S(lipo)     H(rot)  DE(clash)    DE(int)     intcor
     13.61     -15.20       0.93        0.00     105.02       2.21       0.06       1.53       ----

> <Gold.Chemscore.Fitness>
13.6062

> <Gold.Chemscore.DG>
-15.2007

> <Gold.Chemscore.ZeroCoef>
-5.4800

> <Gold.Chemscore.Hbond>
0.9261

> <Gold.Chemscore.Metal>
0.0000

> <Gold.Chemscore.Lipo>
105.0173

> <Gold.Chemscore.Internal_Hbond>
0.0000

> <Gold.Chemscore.DEClash>
0.0647

> <Gold.Chemscore.DEInternal>
1.5298

> <Gold.Chemscore.Rot>
2.2107

> <Gold.Chemscore.Internal.Correction>
   9.000000E+99

> <Gold.Chemscore.Hbonds>
donor molecule, donor type, donor heavy atom, donor atom, acceptor molecule, acceptor atom, score
      P1  H  6896  6909       L1    12  0.93

> <Gold.Chemscore.Hbond.Weighted>
-3.0932

> <Gold.Chemscore.Metal.Weighted>
-0.0000

> <Gold.Chemscore.Lipo.Weighted>
-12.2870

> <Gold.Chemscore.Internal_Hbond.Weighted>
0.0000

> <Gold.Chemscore.DEClash.Weighted>
0.0647

> <Gold.Chemscore.DEInternal.Weighted>
1.5298

> <Gold.Chemscore.Rot.Weighted>
5.6595

> <Gold.Chemscore.Internal.Correction.Weighted>
   9.000000E+99

> <Gold.Protein.RotatedTorsions>
[ 6907 6896 6895 6894 ] final   87.59 input  -60.11 | X-H torsion
[ 7974 7965 7964 7962 ] final -144.10 input  175.53 | X-H torsion
[ 8008 7997 7996 7995 ] final -137.70 input   59.86 | X-H torsion
[ 10167 10162 10161 10158 ] final   15.45 input  -65.29 | X-H torsion
[ 10718 10713 10712 10709 ] final  -75.00 input   66.30 | X-H torsion
[ 10763 10752 10751 10750 ] final  -56.64 input  -60.55 | X-H torsion
[ 11005 11000 10999 10996 ] final -103.72 input  -57.11 | X-H torsion

> <Gold.Protein.ActiveResidues>
 VAL166  LYS551  ARG553  GLY616  TRP617  ASP618  TYR619  PRO620  LYS621  CYS622 
 ASP623  PHE694  ASN695  SER759  ASP760  ASP761  ALA762  ILE779  LEU786  VAL792 
 PHE793  MET794  SER795  GLU796  ALA797  LYS798  CYS799  TRP800  GLU811  SER814 

> <Gold.Protein.RotatedAtoms>
  152.5413  134.2252  159.8803 H   0  0  0  0  0  0  0  0  0  0  0  0  # atno 6907 bound_to 6896
  151.2227  133.4487  159.2609 H   0  0  0  0  0  0  0  0  0  0  0  0  # atno 6908 bound_to 6896
  151.0790  134.9859  159.8402 H   0  0  0  0  0  0  0  0  0  0  0  0  # atno 6909 bound_to 6896
  144.8322  140.5752  143.5508 H   0  0  0  0  0  0  0  0  0  0  0  0  # atno 7974 bound_to 7965
  155.4161  140.0515  157.3028 H   0  0  0  0  0  0  0  0  0  0  0  0  # atno 8008 bound_to 7997
  154.4924  140.2125  155.9480 H   0  0  0  0  0  0  0  0  0  0  0  0  # atno 8009 bound_to 7997
  156.1359  140.3163  155.8426 H   0  0  0  0  0  0  0  0  0  0  0  0  # atno 8010 bound_to 7997
  140.5866  143.8878  150.6836 H   0  0  0  0  0  0  0  0  0  0  0  0  # atno 10167 bound_to 10162
  156.0222  130.4430  150.2977 H   0  0  0  0  0  0  0  0  0  0  0  0  # atno 10718 bound_to 10713
  154.2098  135.6396  153.5112 H   0  0  0  0  0  0  0  0  0  0  0  0  # atno 10763 bound_to 10752
  152.9992  135.5471  154.6227 H   0  0  0  0  0  0  0  0  0  0  0  0  # atno 10764 bound_to 10752
  154.5661  135.2913  155.0846 H   0  0  0  0  0  0  0  0  0  0  0  0  # atno 10765 bound_to 10752
  141.1133  133.8663  157.1521 H   0  0  0  0  0  0  0  0  0  0  0  0  # atno 11005 bound_to 11000
  145.4872  139.1491  143.3729 LP  0  0  0  0  0  0  0  0  0  0  0  0  # atno 17320 bound_to 7965
  146.2624  140.5009  142.8848 LP  0  0  0  0  0  0  0  0  0  0  0  0  # atno 17321 bound_to 7965
  140.2390  143.3678  152.1502 LP  0  0  0  0  0  0  0  0  0  0  0  0  # atno 17342 bound_to 10162
  139.5201  144.7029  151.5441 LP  0  0  0  0  0  0  0  0  0  0  0  0  # atno 17343 bound_to 10162
  157.1080  131.0214  151.3059 LP  0  0  0  0  0  0  0  0  0  0  0  0  # atno 17370 bound_to 10713
  157.4727  130.7718  149.7338 LP  0  0  0  0  0  0  0  0  0  0  0  0  # atno 17371 bound_to 10713
  140.0040  135.0016  157.0251 LP  0  0  0  0  0  0  0  0  0  0  0  0  # atno 17394 bound_to 11000
  140.4715  134.1381  155.7204 LP  0  0  0  0  0  0  0  0  0  0  0  0  # atno 17395 bound_to 11000

$$$$
