AV-unprocessed.smi:229|AV-procd|sdf|1748|dock7
  -GOLD-   2262020263D 1   1.00000     0.00000
 Structure written by MMmdl.
 58 62  0  0  0  0  0  0  0  0  1 V2000
  147.4429  132.3405  158.8116 C   0  0  0  0  0  0  0  0  0  0  0  0
  147.7667  133.8296  158.6389 C   0  0  0  0  0  0  0  0  0  0  0  0
  148.6599  134.1089  157.4210 C   0  0  1  0  0  0  0  0  0  0  0  0
  149.1412  135.5690  157.3862 C   0  0  0  0  0  0  0  0  0  0  0  0
  150.0784  135.7579  156.2844 N   0  0  0  0  0  0  0  0  0  0  0  0
  150.3852  137.0270  155.9161 C   0  0  0  0  0  0  0  0  0  0  0  0
  150.1561  137.4409  154.6406 N   0  0  0  0  0  0  0  0  0  0  0  0
  150.4456  138.6931  154.2746 C   0  0  0  0  0  0  0  0  0  0  0  0
  150.9655  139.6780  155.0095 N   0  0  0  0  0  0  0  0  0  0  0  0
  151.2059  139.2670  156.2872 C   0  0  0  0  0  0  0  0  0  0  0  0
  150.9469  137.9724  156.8199 C   0  0  0  0  0  0  0  0  0  0  0  0
  151.3286  137.9267  158.1561 N   0  0  0  0  0  0  0  0  0  0  0  0
  151.7779  139.1274  158.4013 C   0  0  0  0  0  0  0  0  0  0  0  0
  151.7395  139.9962  157.3348 N   0  0  0  0  0  0  0  0  0  0  0  0
  152.1724  141.3826  157.3304 C   0  0  0  0  0  0  0  0  0  0  0  0
  151.0119  142.3588  157.6047 C   0  0  2  0  0  0  0  0  0  0  0  0
  150.1336  142.4170  156.4959 O   0  0  0  0  0  0  0  0  0  0  0  0
  151.4942  143.7735  157.9867 C   0  0  2  0  0  0  0  0  0  0  0  0
  152.7060  143.8370  158.9327 C   0  0  0  0  0  0  0  0  0  0  0  0
  152.1860  144.6109  160.1308 C   0  0  0  0  0  0  0  0  0  0  0  0
  151.0412  145.4193  159.5345 C   0  0  0  0  0  0  0  0  0  0  0  0
  150.4517  144.5120  158.6184 O   0  0  0  0  0  0  0  0  0  0  0  0
  151.2177  134.8504  156.3509 C   0  0  0  0  0  0  0  0  0  0  0  0
  150.7465  133.3830  156.4283 C   0  0  1  0  0  0  0  0  0  0  0  0
  150.2374  132.8179  155.1056 C   0  0  0  0  0  0  0  0  0  0  0  0
  150.4365  131.3230  155.3015 C   0  0  0  0  0  0  0  0  0  0  0  0
  151.6836  131.2340  155.9730 O   0  0  0  0  0  0  0  0  0  0  0  0
  151.8977  132.4142  156.7444 C   0  0  0  0  0  0  0  0  0  0  0  0
  149.7921  133.2401  157.4873 O   0  0  0  0  0  0  0  0  0  0  0  0
  146.7962  132.1819  159.6747 H   0  0  0  0  0  0  0  0  0  0  0  0
  148.3489  131.7531  158.9634 H   0  0  0  0  0  0  0  0  0  0  0  0
  146.9302  131.9446  157.9347 H   0  0  0  0  0  0  0  0  0  0  0  0
  146.8316  134.3811  158.5342 H   0  0  0  0  0  0  0  0  0  0  0  0
  148.2461  134.2067  159.5431 H   0  0  0  0  0  0  0  0  0  0  0  0
  148.0801  133.9037  156.5215 H   0  0  0  0  0  0  0  0  0  0  0  0
  148.2850  136.2353  157.2702 H   0  0  0  0  0  0  0  0  0  0  0  0
  149.6309  135.8274  158.3264 H   0  0  0  0  0  0  0  0  0  0  0  0
  150.2291  138.9417  153.2461 H   0  0  0  0  0  0  0  0  0  0  0  0
  152.1517  139.4148  159.3733 H   0  0  0  0  0  0  0  0  0  0  0  0
  152.9492  141.4998  158.0869 H   0  0  0  0  0  0  0  0  0  0  0  0
  152.6403  141.5996  156.3692 H   0  0  0  0  0  0  0  0  0  0  0  0
  150.4276  141.9704  158.4398 H   0  0  0  0  0  0  0  0  0  0  0  0
  149.8344  143.3078  156.3967 H   0  0  0  0  0  0  0  0  0  0  0  0
  151.7492  144.3108  157.0720 H   0  0  0  0  0  0  0  0  0  0  0  0
  153.0936  142.8587  159.2177 H   0  0  0  0  0  0  0  0  0  0  0  0
  153.5198  144.3842  158.4555 H   0  0  0  0  0  0  0  0  0  0  0  0
  151.7979  143.9184  160.8789 H   0  0  0  0  0  0  0  0  0  0  0  0
  152.9471  145.2321  160.6034 H   0  0  0  0  0  0  0  0  0  0  0  0
  150.3257  145.7561  160.2848 H   0  0  0  0  0  0  0  0  0  0  0  0
  151.4164  146.2913  158.9964 H   0  0  0  0  0  0  0  0  0  0  0  0
  151.8881  134.9806  155.5017 H   0  0  0  0  0  0  0  0  0  0  0  0
  151.7965  135.0974  157.2423 H   0  0  0  0  0  0  0  0  0  0  0  0
  149.2109  133.0801  154.8556 H   0  0  0  0  0  0  0  0  0  0  0  0
  150.8687  133.1605  154.2843 H   0  0  0  0  0  0  0  0  0  0  0  0
  149.6529  130.9094  155.9381 H   0  0  0  0  0  0  0  0  0  0  0  0
  150.4455  130.7699  154.3624 H   0  0  0  0  0  0  0  0  0  0  0  0
  152.8598  132.8326  156.4469 H   0  0  0  0  0  0  0  0  0  0  0  0
  151.9581  132.1789  157.8077 H   0  0  0  0  0  0  0  0  0  0  0  0
  1  2  1  0  0  0  0
  1 30  1  0  0  0  0
  1 31  1  0  0  0  0
  1 32  1  0  0  0  0
  2  3  1  0  0  0  0
  2 33  1  0  0  0  0
  2 34  1  0  0  0  0
  3 29  1  0  0  0  0
  3  4  1  0  0  0  0
  3 35  1  0  0  0  0
  4  5  1  0  0  0  0
  4 36  1  0  0  0  0
  4 37  1  0  0  0  0
  5  6  1  0  0  0  0
  5 23  1  0  0  0  0
  6 11  1  0  0  0  0
  6  7  2  0  0  0  0
  7  8  1  0  0  0  0
  8  9  2  0  0  0  0
  8 38  1  0  0  0  0
  9 10  1  0  0  0  0
 10 14  1  0  0  0  0
 10 11  2  0  0  0  0
 11 12  1  0  0  0  0
 12 13  2  0  0  0  0
 13 14  1  0  0  0  0
 13 39  1  0  0  0  0
 14 15  1  0  0  0  0
 15 16  1  0  0  0  0
 15 40  1  0  0  0  0
 15 41  1  0  0  0  0
 16 17  1  0  0  0  0
 16 18  1  0  0  0  0
 16 42  1  0  0  0  0
 17 43  1  0  0  0  0
 18 22  1  0  0  0  0
 18 19  1  0  0  0  0
 18 44  1  0  0  0  0
 19 20  1  0  0  0  0
 19 45  1  0  0  0  0
 19 46  1  0  0  0  0
 20 21  1  0  0  0  0
 20 47  1  0  0  0  0
 20 48  1  0  0  0  0
 21 22  1  0  0  0  0
 21 49  1  0  0  0  0
 21 50  1  0  0  0  0
 23 24  1  0  0  0  0
 23 51  1  0  0  0  0
 23 52  1  0  0  0  0
 24 28  1  0  0  0  0
 24 25  1  0  0  0  0
 24 29  1  0  0  0  0
 25 26  1  0  0  0  0
 25 53  1  0  0  0  0
 25 54  1  0  0  0  0
 26 27  1  0  0  0  0
 26 55  1  0  0  0  0
 26 56  1  0  0  0  0
 27 28  1  0  0  0  0
 28 57  1  0  0  0  0
 28 58  1  0  0  0  0
M  END
> <s_m_source_file>
AV-unprocessed.smi

> <i_m_source_file_index>
229

> <i_lp_mmshare_version>
43012

> <i_f3d_flags>
0

> <s_epik_input>
W0NIMl0xT1tDSDJdW0NIMl1bQ0BdMTJbQ0gyXU4oW0NIMl1bQ0BIXShPMilbQ0gyXVtDSDNdKWMobltjSF1uMyljKGMzNCluW2NIXW40W0NIMl1bQ0BIXShbT0hdKVtDQEBIXTVbQ0gyXVtDSDJdW0NIMl1PNQ==

> <s_epik_cmdline>
J2VwaWtfcHl0aG9uJywgJy1waCcsICc3LjAnLCAnLXRuJywgJzgnLCAnLW1hJywgJzIwMCcsICctbWV0YWxfYmluZGluZycsICctaW1hZScsICc8aW5maWxlLm1hZT4nLCAnLW9tYWUnLCAnPG91dGZpbGUubWFlPic=

> <r_lp_tautomer_probability>
1

> <r_epik_Ionization_Penalty>
0.00318402

> <r_epik_Ionization_Penalty_Charging>
0

> <r_epik_Ionization_Penalty_Neutral>
0.00318402

> <r_epik_State_Penalty>
0.00215642

> <r_epik_Charging_Adjusted_Penalty>
0.00215642

> <i_epik_Tot_Q>
0

> <i_epik_Tot_abs_Q>
0

> <r_epik_Metal_State_Penalty>
-0

> <b_epik_Metal_Only>
0

> <s_lp_Force_Field>
OPLS_2005

> <r_lp_Energy>
56.2374

> <b_lp_Chiralities_Consistent>
1

> <s_lp_Variant>
AV-unprocessed.smi:229-2

> <Gold.Version>
5.8.1

> <Gold.Id.Protein>
6NUR|6NUR_protein|mol2

> <Gold.PLP.Fitness>
49.6609

> <Gold.PLP.PLP>
-39.4930

> <Gold.PLP.part.hbond>
-2.9324

> <Gold.PLP.part.metal>
0.0000

> <Gold.PLP.part.buried>
-7.5352

> <Gold.PLP.part.nonpolar>
-29.3292

> <Gold.PLP.part.repulsive>
0.4459

> <Gold.PLP.ligand.clash>
0.0000

> <Gold.PLP.ligand.torsion>
1.0049

> <Gold.PLP.Chemscore.Hbond>
2.9588

> <Gold.PLP.Chemscore.CHOScore>
1.0000

> <Gold.PLP.Chemscore.Metal>
0.0000

> <Gold.Chemscore.Hbonds>
donor molecule, donor type, donor heavy atom, donor atom, acceptor molecule, acceptor atom, score
      L1  H    17    43       P1  8028  1.00
      P1  H  6896  6907       L1    29  0.83
      P1  H  7989  7998       L1     9  0.94
      L1  C     8    38       P1  7957  1.00

> <Gold.PLP.Chemscore.Internal.Correction>
0.3014

> <Gold.Rescore>
     Score         DG    S(hbond)    S(metal)    S(lipo)     H(rot)  DE(clash)    DE(int)     intcor
     14.92     -17.34       1.73        0.00     105.87       2.46       1.39       1.03       ----

> <Gold.Chemscore.Fitness>
14.9201

> <Gold.Chemscore.DG>
-17.3448

> <Gold.Chemscore.ZeroCoef>
-5.4800

> <Gold.Chemscore.Hbond>
1.7285

> <Gold.Chemscore.Metal>
0.0000

> <Gold.Chemscore.Lipo>
105.8707

> <Gold.Chemscore.Internal_Hbond>
0.0000

> <Gold.Chemscore.DEClash>
1.3933

> <Gold.Chemscore.DEInternal>
1.0314

> <Gold.Chemscore.Rot>
2.4591

> <Gold.Chemscore.Internal.Correction>
   9.000000E+99

> <Gold.Chemscore.Hbonds>
donor molecule, donor type, donor heavy atom, donor atom, acceptor molecule, acceptor atom, score
      L1  H    17    43       P1  8028  0.99
      P1  H  6896  6907       L1    29  0.27
      P1  H  7989  7998       L1     9  0.20

> <Gold.Chemscore.Hbond.Weighted>
-5.7732

> <Gold.Chemscore.Metal.Weighted>
-0.0000

> <Gold.Chemscore.Lipo.Weighted>
-12.3869

> <Gold.Chemscore.Internal_Hbond.Weighted>
0.0000

> <Gold.Chemscore.DEClash.Weighted>
1.3933

> <Gold.Chemscore.DEInternal.Weighted>
1.0314

> <Gold.Chemscore.Rot.Weighted>
6.2953

> <Gold.Chemscore.Internal.Correction.Weighted>
   9.000000E+99

> <Gold.Protein.RotatedTorsions>
[ 6907 6896 6895 6894 ] final -126.15 input  -60.11 | X-H torsion
[ 7974 7965 7964 7962 ] final  -98.20 input  175.53 | X-H torsion
[ 8008 7997 7996 7995 ] final   98.15 input   59.86 | X-H torsion
[ 10167 10162 10161 10158 ] final  133.15 input  -65.29 | X-H torsion
[ 10718 10713 10712 10709 ] final -120.22 input   66.30 | X-H torsion
[ 10763 10752 10751 10750 ] final   37.41 input  -60.55 | X-H torsion
[ 11005 11000 10999 10996 ] final -137.62 input  -57.11 | X-H torsion

> <Gold.Protein.ActiveResidues>
 VAL166  LYS551  ARG553  GLY616  TRP617  ASP618  TYR619  PRO620  LYS621  CYS622 
 ASP623  PHE694  ASN695  SER759  ASP760  ASP761  ALA762  ILE779  LEU786  VAL792 
 PHE793  MET794  SER795  GLU796  ALA797  LYS798  CYS799  TRP800  GLU811  SER814 

> <Gold.Protein.RotatedAtoms>
  150.8940  133.7205  159.2896 H   0  0  0  0  0  0  0  0  0  0  0  0  # atno 6907 bound_to 6896
  151.4746  135.1047  159.9770 H   0  0  0  0  0  0  0  0  0  0  0  0  # atno 6908 bound_to 6896
  152.4837  133.8272  159.7139 H   0  0  0  0  0  0  0  0  0  0  0  0  # atno 6909 bound_to 6896
  145.3238  140.9427  143.2701 H   0  0  0  0  0  0  0  0  0  0  0  0  # atno 7974 bound_to 7965
  156.0974  140.3248  155.7896 H   0  0  0  0  0  0  0  0  0  0  0  0  # atno 8008 bound_to 7997
  155.4894  140.0560  157.2973 H   0  0  0  0  0  0  0  0  0  0  0  0  # atno 8009 bound_to 7997
  154.4675  140.1996  156.0095 H   0  0  0  0  0  0  0  0  0  0  0  0  # atno 8010 bound_to 7997
  139.5309  144.6629  151.4954 H   0  0  0  0  0  0  0  0  0  0  0  0  # atno 10167 bound_to 10162
  156.1241  130.6345  150.9513 H   0  0  0  0  0  0  0  0  0  0  0  0  # atno 10718 bound_to 10713
  153.0039  135.6278  154.2140 H   0  0  0  0  0  0  0  0  0  0  0  0  # atno 10763 bound_to 10752
  154.1883  135.2810  155.3032 H   0  0  0  0  0  0  0  0  0  0  0  0  # atno 10764 bound_to 10752
  154.5779  135.5656  153.7217 H   0  0  0  0  0  0  0  0  0  0  0  0  # atno 10765 bound_to 10752
  140.8694  134.2070  157.4660 H   0  0  0  0  0  0  0  0  0  0  0  0  # atno 11005 bound_to 11000
  144.8918  139.4764  143.6674 LP  0  0  0  0  0  0  0  0  0  0  0  0  # atno 17320 bound_to 7965
  146.3072  139.7621  142.9047 LP  0  0  0  0  0  0  0  0  0  0  0  0  # atno 17321 bound_to 7965
  140.6486  143.8743  150.6763 LP  0  0  0  0  0  0  0  0  0  0  0  0  # atno 17342 bound_to 10162
  140.2100  143.3891  152.1725 LP  0  0  0  0  0  0  0  0  0  0  0  0  # atno 17343 bound_to 10162
  157.6423  131.0908  150.8225 LP  0  0  0  0  0  0  0  0  0  0  0  0  # atno 17370 bound_to 10713
  156.8318  130.5018  149.5331 LP  0  0  0  0  0  0  0  0  0  0  0  0  # atno 17371 bound_to 10713
  139.8711  134.9767  156.4931 LP  0  0  0  0  0  0  0  0  0  0  0  0  # atno 17394 bound_to 11000
  140.8591  133.8073  155.9246 LP  0  0  0  0  0  0  0  0  0  0  0  0  # atno 17395 bound_to 11000

$$$$
