#       Name:                AV-unprocessed.smi:458
#       Creating user name   scv26
#       Creation time:       Thu Mar 26 23:02:36 2020


#       File generated by GOLD software.
#

@<TRIPOS>MOLECULE
AV-unprocessed.smi:458
    41    43     1
SMALL
NO_CHARGES


@<TRIPOS>ATOM
      1 ****        -1.0856   3.1993  -1.9183 O.3            1 S1                 0.0000
      2 ****        -1.4854   2.7871  -0.6303 C.3            1 S1                 0.0000
      3 ****        -1.9554   1.3701  -0.6086 C.2            1 S1                 0.0000
      4 ****        -3.2544   0.9590  -0.6386 N.pl3          1 S1                 1.0000
      5 ****        -3.3098  -0.4351  -0.6140 C.ar           1 S1                 0.0000
      6 ****        -4.3971  -1.3035  -0.6290 C.ar           1 S1                 0.0000
      7 ****        -4.1057  -2.6830  -0.5943 C.ar           1 S1                 0.0000
      8 ****        -2.7767  -3.1514  -0.5447 C.ar           1 S1                 0.0000
      9 ****        -1.6828  -2.2613  -0.5297 C.ar           1 S1                 0.0000
     10 ****        -1.9787  -0.8986  -0.5675 C.ar           1 S1                 0.0000
     11 ****        -1.1775   0.2501  -0.5679 N.pl3          1 S1                 0.0000
     12 ****         0.2882   0.1180  -0.5344 C.3            1 S1                 0.0000
     13 ****         0.8710   0.2088   0.8904 C.3            1 S1                 0.0000
     14 ****         0.3139  -0.7983   1.7125 O.3            1 S1                 0.0000
     15 ****         2.3904   0.1559   0.8658 C.ar           1 S1                 0.0000
     16 ****         3.0651  -1.0768   0.7227 C.ar           1 S1                 0.0000
     17 ****         4.4727  -1.1166   0.6913 C.ar           1 S1                 0.0000
     18 ****         5.2138   0.0757   0.7992 C.ar           1 S1                 0.0000
     19 ****         6.5668   0.0378   0.7674 F              1 S1                 0.0000
     20 ****         4.5465   1.3078   0.9383 C.ar           1 S1                 0.0000
     21 ****         3.1388   1.3483   0.9705 C.ar           1 S1                 0.0000
     22 ****        -0.7970   4.0982  -1.8715 H              1 S1                 0.0000
     23 ****        -0.6494   2.9050   0.0589 H              1 S1                 0.0000
     24 ****        -2.2845   3.4411  -0.2801 H              1 S1                 0.0000
     25 ****        -5.4162  -0.9470  -0.6650 H              1 S1                 0.0000
     26 ****        -4.9175  -3.3959  -0.6043 H              1 S1                 0.0000
     27 ****        -2.5916  -4.2155  -0.5168 H              1 S1                 0.0000
     28 ****        -0.6694  -2.6320  -0.4854 H              1 S1                 0.0000
     29 ****         0.5774  -0.8125  -1.0231 H              1 S1                 0.0000
     30 ****         0.6965   0.9194  -1.1515 H              1 S1                 0.0000
     31 ****         0.5730   1.1617   1.3293 H              1 S1                 0.0000
     32 ****         0.6231  -0.6674   2.5961 H              1 S1                 0.0000
     33 ****         2.5058  -1.9967   0.6337 H              1 S1                 0.0000
     34 ****         4.9837  -2.0619   0.5825 H              1 S1                 0.0000
     35 ****         5.1148   2.2228   1.0187 H              1 S1                 0.0000
     36 ****         2.6368   2.2991   1.0738 H              1 S1                 0.0000
     37 ****        -4.0445   1.5899  -0.6779 H              1 S1                 0.0000
     38 ****        -1.8572   3.1257  -2.5501 LP             1 S1                 0.0000
     39 ****        -0.3356   2.6210  -2.2393 LP             1 S1                 0.0000
     40 ****         0.6001  -1.6986   1.3845 LP             1 S1                 0.0000
     41 ****        -0.6840  -0.7377   1.6915 LP             1 S1                 0.0000
@<TRIPOS>BOND
    1    1    2 1     
    2    1   22 1     
    3    2    3 1     
    4    2   23 1     
    5    2   24 1     
    6    3   11 1     
    7    3    4 2     
    8    4    5 1     
    9    4   37 1     
   10    5   10 ar    
   11    5    6 ar    
   12    6    7 ar    
   13    6   25 1     
   14    7    8 ar    
   15    7   26 1     
   16    8    9 ar    
   17    8   27 1     
   18    9   10 ar    
   19    9   28 1     
   20   10   11 1     
   21   11   12 1     
   22   12   13 1     
   23   12   29 1     
   24   12   30 1     
   25   13   14 1     
   26   13   15 1     
   27   13   31 1     
   28   14   32 1     
   29   15   21 ar    
   30   15   16 ar    
   31   16   17 ar    
   32   16   33 1     
   33   17   18 ar    
   34   17   34 1     
   35   18   19 1     
   36   18   20 ar    
   37   20   21 ar    
   38   20   35 1     
   39   21   36 1     
   40    1   38 1     
   41    1   39 1     
   42   14   40 1     
   43   14   41 1     
@<TRIPOS>SUBSTRUCTURE
      1 S1             1
@<TRIPOS>SET
LONE_PAIRS      STATIC     ATOMS    <user>   **** ""
4 38 39 40 41
DONOR_HYDROGENS      STATIC     ATOMS    <user>   **** ""
3 22 37 32
ATOM$BLUE        STATIC     ATOMS    COLORGROUP SYSTEM
4 38 39 40 41
ATOM$RED        STATIC     ATOMS    COLORGROUP SYSTEM
3 22 37 32
