#       Name:                AV-unprocessed.smi:72
#       Creating user name   scv26
#       Creation time:       Thu Mar 26 16:58:45 2020


#       File generated by GOLD software.
#

@<TRIPOS>MOLECULE
AV-unprocessed.smi:72
    41    42     1
SMALL
NO_CHARGES


@<TRIPOS>ATOM
      1 ****        -2.2215   4.5200   1.0495 N.2            1 S1                 0.0000
      2 ****        -1.7408   3.3794   0.7031 C.2            1 S1                 0.0000
      3 ****        -0.4065   2.9779   0.8698 N.2            1 S1                 0.0000
      4 ****        -0.0559   1.7983   0.4588 C.2            1 S1                 0.0000
      5 ****        -0.9971   0.8850  -0.1696 N.am           1 S1                 0.0000
      6 ****        -0.5565  -0.4827  -0.6376 C.3            1 S1                 0.0000
      7 ****         0.7227  -0.3786  -1.1893 O.3            1 S1                 0.0000
      8 ****         1.5322  -1.4564  -0.7321 C.3            1 S1                 0.0000
      9 ****         3.0134  -1.0525  -0.7904 C.3            1 S1                 0.0000
     10 ****         3.5142  -1.2307  -2.0980 O.3            1 S1                 0.0000
     11 ****         1.0121  -1.6748   0.6900 C.3            1 S1                 0.0000
     12 ****         1.3578  -2.9406   1.2206 O.3            1 S1                 0.0000
     13 ****        -0.4930  -1.4698   0.5389 C.3            1 S1                 0.0000
     14 ****        -1.1778  -2.6690   0.2273 O.3            1 S1                 0.0000
     15 ****        -2.3541   1.2613  -0.3173 C.2            1 S1                 0.0000
     16 ****        -3.2020   0.5129  -0.8027 O.2            1 S1                 0.0000
     17 ****        -2.6648   2.5012   0.1196 N.am           1 S1                 0.0000
     18 ****        -1.2450  -0.7873  -1.4274 H              1 S1                 0.0000
     19 ****         1.3342  -2.3431  -1.3381 H              1 S1                 0.0000
     20 ****         1.4113  -0.8997   1.3459 H              1 S1                 0.0000
     21 ****        -0.9351  -1.0423   1.4400 H              1 S1                 0.0000
     22 ****        -3.2053   4.5729   0.8302 H              1 S1                 0.0000
     23 ****         0.9605   1.4155   0.5597 H              1 S1                 0.0000
     24 ****         3.1565  -0.0214  -0.4654 H              1 S1                 0.0000
     25 ****         3.6019  -1.6863  -0.1265 H              1 S1                 0.0000
     26 ****         4.4259  -0.9824  -2.1072 H              1 S1                 0.0000
     27 ****         0.9236  -3.0457   2.0532 H              1 S1                 0.0000
     28 ****        -2.0879  -2.4641   0.0759 H              1 S1                 0.0000
     29 ****        -3.6234   2.8017   0.0214 H              1 S1                 0.0000
     30 ****        -1.6937   5.2538   1.4772 LP             1 S1                 0.0000
     31 ****         0.2605   3.5886   1.2967 LP             1 S1                 0.0000
     32 ****         1.1353   0.4885  -0.9103 LP             1 S1                 0.0000
     33 ****         0.6581  -0.4113  -2.1867 LP             1 S1                 0.0000
     34 ****         3.0019  -0.6562  -2.7364 LP             1 S1                 0.0000
     35 ****         3.4233  -2.1898  -2.3660 LP             1 S1                 0.0000
     36 ****         2.3483  -2.9939   1.3476 LP             1 S1                 0.0000
     37 ****         1.0629  -3.6612   0.5931 LP             1 S1                 0.0000
     38 ****        -1.0989  -3.3105   0.9903 LP             1 S1                 0.0000
     39 ****        -0.7831  -3.0789  -0.5950 LP             1 S1                 0.0000
     40 ****        -2.9431  -0.4023  -1.1116 LP             1 S1                 0.0000
     41 ****        -4.1498   0.8200  -0.8882 LP             1 S1                 0.0000
@<TRIPOS>BOND
    1    1    2 2     
    2    1   22 1     
    3    2   17 1     
    4    2    3 1     
    5    3    4 2     
    6    4    5 1     
    7    4   23 1     
    8    5    6 1     
    9    5   15 am    
   10    6   18 1     
   11    6   13 1     
   12    6    7 1     
   13    7    8 1     
   14    8   19 1     
   15    8    9 1     
   16    8   11 1     
   17    9   10 1     
   18    9   24 1     
   19    9   25 1     
   20   10   26 1     
   21   11   20 1     
   22   11   12 1     
   23   11   13 1     
   24   12   27 1     
   25   13   21 1     
   26   13   14 1     
   27   14   28 1     
   28   15   16 2     
   29   15   17 am    
   30   17   29 1     
   31    1   30 1     
   32    3   31 1     
   33    7   32 1     
   34    7   33 1     
   35   10   34 1     
   36   10   35 1     
   37   12   36 1     
   38   12   37 1     
   39   14   38 1     
   40   14   39 1     
   41   16   40 1     
   42   16   41 1     
@<TRIPOS>SUBSTRUCTURE
      1 S1             1
@<TRIPOS>SET
LONE_PAIRS      STATIC     ATOMS    <user>   **** ""
12 30 31 32 33 34 35 36 37 38 39 40 41
DONOR_HYDROGENS      STATIC     ATOMS    <user>   **** ""
5 22 26 27 28 29
ATOM$BLUE        STATIC     ATOMS    COLORGROUP SYSTEM
12 30 31 32 33 34 35 36 37 38 39 40 41
ATOM$RED        STATIC     ATOMS    COLORGROUP SYSTEM
5 22 26 27 28 29
