AV-unprocessed.smi:72|AV-procd|sdf|695|dock1
  -GOLD-   2262017 13D 1   1.00000     0.00000
 Structure written by MMmdl.
 30 31  0  0  0  0  0  0  0  0  2 V2000
  151.0557  134.4831  156.2695 N   0  0  0  0  0  0  0  0  0  0  0  0
  151.1397  135.8125  155.9111 C   0  0  0  0  0  0  0  0  0  0  0  0
  149.9948  136.4219  155.4285 N   0  3  0  0  0  0  0  0  0  0  0  0
  149.9069  137.7035  155.0466 C   0  0  0  0  0  0  0  0  0  0  0  0
  150.9731  138.4718  155.1373 N   0  0  0  0  0  0  0  0  0  0  0  0
  150.9244  139.9166  154.7240 C   0  0  2  0  0  0  0  0  0  0  0  0
  151.4170  140.6799  155.7837 O   0  0  0  0  0  0  0  0  0  0  0  0
  150.5339  141.7623  156.0611 C   0  0  2  0  0  0  0  0  0  0  0  0
  150.6662  142.1779  157.5343 C   0  0  0  0  0  0  0  0  0  0  0  0
  149.7502  143.2102  157.8292 O   0  0  0  0  0  0  0  0  0  0  0  0
  149.1689  141.1706  155.7101 C   0  0  1  0  0  0  0  0  0  0  0  0
  148.1730  142.1538  155.5022 O   0  0  0  0  0  0  0  0  0  0  0  0
  149.4720  140.3457  154.4645 C   0  0  1  0  0  0  0  0  0  0  0  0
  149.3752  141.1001  153.2706 O   0  0  0  0  0  0  0  0  0  0  0  0
  152.2021  137.9289  155.5901 C   0  0  0  0  0  0  0  0  0  0  0  0
  153.2139  138.6279  155.6324 O   0  0  0  0  0  0  0  0  0  0  0  0
  152.1941  136.5786  155.9688 N   0  0  0  0  0  0  0  0  0  0  0  0
  151.5874  140.0164  153.8625 H   0  0  0  0  0  0  0  0  0  0  0  0
  150.7583  142.5943  155.3902 H   0  0  0  0  0  0  0  0  0  0  0  0
  148.8444  140.5023  156.5091 H   0  0  0  0  0  0  0  0  0  0  0  0
  148.8092  139.4831  154.3808 H   0  0  0  0  0  0  0  0  0  0  0  0
  151.8402  133.9557  156.6264 H   0  0  0  0  0  0  0  0  0  0  0  0
  150.2113  133.9329  156.2048 H   0  0  0  0  0  0  0  0  0  0  0  0
  148.9674  138.0843  154.6660 H   0  0  0  0  0  0  0  0  0  0  0  0
  150.4295  141.3360  158.1854 H   0  0  0  0  0  0  0  0  0  0  0  0
  151.6831  142.4932  157.7694 H   0  0  0  0  0  0  0  0  0  0  0  0
  149.6636  143.7636  157.0681 H   0  0  0  0  0  0  0  0  0  0  0  0
  148.5471  143.0049  155.6717 H   0  0  0  0  0  0  0  0  0  0  0  0
  149.2725  140.5059  152.5426 H   0  0  0  0  0  0  0  0  0  0  0  0
  149.1627  135.8534  155.3605 H   0  0  0  0  0  0  0  0  0  0  0  0
  1  2  1  0  0  0  0
  1 22  1  0  0  0  0
  1 23  1  0  0  0  0
  2 17  2  0  0  0  0
  2  3  1  0  0  0  0
  3  4  2  0  0  0  0
  3 30  1  0  0  0  0
  4  5  1  0  0  0  0
  4 24  1  0  0  0  0
  5  6  1  0  0  0  0
  5 15  1  0  0  0  0
  6 18  1  0  0  0  0
  6 13  1  0  0  0  0
  6  7  1  0  0  0  0
  7  8  1  0  0  0  0
  8 19  1  0  0  0  0
  8  9  1  0  0  0  0
  8 11  1  0  0  0  0
  9 10  1  0  0  0  0
  9 25  1  0  0  0  0
  9 26  1  0  0  0  0
 10 27  1  0  0  0  0
 11 20  1  0  0  0  0
 11 12  1  0  0  0  0
 11 13  1  0  0  0  0
 12 28  1  0  0  0  0
 13 21  1  0  0  0  0
 13 14  1  0  0  0  0
 14 29  1  0  0  0  0
 15 16  2  0  0  0  0
 15 17  1  0  0  0  0
M  CHG  1   3   1
M  END
> <s_m_source_file>
AV-unprocessed.smi

> <i_m_source_file_index>
72

> <i_lp_mmshare_version>
43012

> <i_f3d_flags>
0

> <s_epik_input>
W05IMl1jMW5bY0hdbihjKD1PKW4xKVtDQEBIXTJPW0NASF0oW0NIMl1bT0hdKVtDQEBIXShbT0hdKVtDQEhdMltPSF0=

> <s_epik_cmdline>
J2VwaWtfcHl0aG9uJywgJy1waCcsICc3LjAnLCAnLXRuJywgJzgnLCAnLW1hJywgJzIwMCcsICctbWV0YWxfYmluZGluZycsICctaW1hZScsICc8aW5maWxlLm1hZT4nLCAnLW9tYWUnLCAnPG91dGZpbGUubWFlPic=

> <r_lp_tautomer_probability>
4.77166e-05

> <r_epik_Ionization_Penalty>
0.104979

> <r_epik_Ionization_Penalty_Charging>
0.0999619

> <r_epik_Ionization_Penalty_Neutral>
0.00501745

> <r_epik_State_Penalty>
2.51541

> <r_epik_Charging_Adjusted_Penalty>
2.61537

> <i_epik_Tot_Q>
1

> <i_epik_Tot_abs_Q>
1

> <r_epik_Metal_State_Penalty>
3.53763

> <b_epik_Metal_Only>
0

> <s_epik_Chemistry_Notes>
This compound contains an acetal/aminal-like group ( X-CH(R)-Y where X, Y are N, S, or O) that may be acid/base labile, releasing an aldehyde.

> <s_lp_Force_Field>
OPLS_2005

> <r_lp_Energy>
34.3488

> <b_lp_Chiralities_Consistent>
1

> <s_lp_Variant>
AV-unprocessed.smi:72-33

> <Gold.Version>
5.8.1

> <Gold.Id.Protein>
6NUR|6NUR_protein|mol2

> <Gold.PLP.Fitness>
42.6086

> <Gold.PLP.PLP>
-26.3163

> <Gold.PLP.part.hbond>
-7.1416

> <Gold.PLP.part.metal>
0.0000

> <Gold.PLP.part.buried>
-2.8635

> <Gold.PLP.part.nonpolar>
-17.5926

> <Gold.PLP.part.repulsive>
0.2086

> <Gold.PLP.ligand.clash>
0.3527

> <Gold.PLP.ligand.torsion>
0.1297

> <Gold.PLP.Chemscore.Hbond>
5.6280

> <Gold.PLP.Chemscore.CHOScore>
0.0000

> <Gold.PLP.Chemscore.Metal>
0.0000

> <Gold.Chemscore.Hbonds>
donor molecule, donor type, donor heavy atom, donor atom, acceptor molecule, acceptor atom, score
      L1  H    10    27       P1  8028  1.00
      L1  H    12    28       P1  8028  1.00
      L1  H    14    29       P1  7957  0.91
      P1  H  7997  8010       L1    16  0.99
      P1  H  8011  8017       L1    14  0.75
      P1  H 10752 10764       L1    17  0.78

> <Gold.PLP.Chemscore.Internal.Correction>
0.0204

> <Gold.Rescore>
     Score         DG    S(hbond)    S(metal)    S(lipo)     H(rot)  DE(clash)    DE(int)     intcor
      9.99     -11.86       4.11        0.00      26.35       4.08       0.57       1.29       ----

> <Gold.Chemscore.Fitness>
9.9937

> <Gold.Chemscore.DG>
-11.8552

> <Gold.Chemscore.ZeroCoef>
-5.4800

> <Gold.Chemscore.Hbond>
4.1117

> <Gold.Chemscore.Metal>
0.0000

> <Gold.Chemscore.Lipo>
26.3465

> <Gold.Chemscore.Internal_Hbond>
0.0000

> <Gold.Chemscore.DEClash>
0.5749

> <Gold.Chemscore.DEInternal>
1.2866

> <Gold.Chemscore.Rot>
4.0783

> <Gold.Chemscore.Internal.Correction>
   9.000000E+99

> <Gold.Chemscore.Hbonds>
donor molecule, donor type, donor heavy atom, donor atom, acceptor molecule, acceptor atom, score
      L1  H    10    27       P1  8028  0.88
      L1  H    12    28       P1  8028  1.00
      L1  H    14    29       P1  7957  0.83
      P1  H  7997  8010       L1    16  0.92
      P1  H  8011  8017       L1    14  0.09
      P1  H 10752 10764       L1    17  0.15

> <Gold.Chemscore.Hbond.Weighted>
-13.7331

> <Gold.Chemscore.Metal.Weighted>
-0.0000

> <Gold.Chemscore.Lipo.Weighted>
-3.0825

> <Gold.Chemscore.Internal_Hbond.Weighted>
0.0000

> <Gold.Chemscore.DEClash.Weighted>
0.5749

> <Gold.Chemscore.DEInternal.Weighted>
1.2866

> <Gold.Chemscore.Rot.Weighted>
10.4404

> <Gold.Chemscore.Internal.Correction.Weighted>
   9.000000E+99

> <Gold.Protein.RotatedTorsions>
[ 6907 6896 6895 6894 ] final -131.54 input  -60.11 | X-H torsion
[ 7974 7965 7964 7962 ] final  -80.80 input  175.53 | X-H torsion
[ 8008 7997 7996 7995 ] final   82.63 input   59.86 | X-H torsion
[ 10167 10162 10161 10158 ] final  128.99 input  -65.29 | X-H torsion
[ 10718 10713 10712 10709 ] final -152.97 input   66.30 | X-H torsion
[ 10763 10752 10751 10750 ] final  -12.04 input  -60.55 | X-H torsion
[ 11005 11000 10999 10996 ] final -119.60 input  -57.11 | X-H torsion

> <Gold.Protein.ActiveResidues>
 VAL166  LYS551  ARG553  GLY616  TRP617  ASP618  TYR619  PRO620  LYS621  CYS622 
 ASP623  PHE694  ASN695  SER759  ASP760  ASP761  ALA762  ILE779  LEU786  VAL792 
 PHE793  MET794  SER795  GLU796  ALA797  LYS798  CYS799  TRP800  GLU811  SER814 

> <Gold.Protein.RotatedAtoms>
  150.9521  133.6538  159.2769 H   0  0  0  0  0  0  0  0  0  0  0  0  # atno 6907 bound_to 6896
  151.3890  135.0951  159.9530 H   0  0  0  0  0  0  0  0  0  0  0  0  # atno 6908 bound_to 6896
  152.5114  133.9039  159.7509 H   0  0  0  0  0  0  0  0  0  0  0  0  # atno 6909 bound_to 6896
  145.5551  140.9491  143.1478 H   0  0  0  0  0  0  0  0  0  0  0  0  # atno 7974 bound_to 7965
  155.9132  140.3426  155.6115 H   0  0  0  0  0  0  0  0  0  0  0  0  # atno 8008 bound_to 7997
  155.7363  140.0802  157.2285 H   0  0  0  0  0  0  0  0  0  0  0  0  # atno 8009 bound_to 7997
  154.4058  140.1579  156.2552 H   0  0  0  0  0  0  0  0  0  0  0  0  # atno 8010 bound_to 7997
  139.5499  144.6805  151.4355 H   0  0  0  0  0  0  0  0  0  0  0  0  # atno 10167 bound_to 10162
  156.4795  130.8296  151.2524 H   0  0  0  0  0  0  0  0  0  0  0  0  # atno 10718 bound_to 10713
  153.4925  135.7017  153.5876 H   0  0  0  0  0  0  0  0  0  0  0  0  # atno 10763 bound_to 10752
  153.4042  135.3864  155.2008 H   0  0  0  0  0  0  0  0  0  0  0  0  # atno 10764 bound_to 10752
  154.8716  135.3889  154.4387 H   0  0  0  0  0  0  0  0  0  0  0  0  # atno 10765 bound_to 10752
  141.0204  134.0132  157.3290 H   0  0  0  0  0  0  0  0  0  0  0  0  # atno 11005 bound_to 11000
  144.7510  139.7194  143.7273 LP  0  0  0  0  0  0  0  0  0  0  0  0  # atno 17320 bound_to 7965
  146.1890  139.5120  142.9817 LP  0  0  0  0  0  0  0  0  0  0  0  0  # atno 17321 bound_to 7965
  140.6759  143.8191  150.7058 LP  0  0  0  0  0  0  0  0  0  0  0  0  # atno 17342 bound_to 10162
  140.1629  143.4260  152.2054 LP  0  0  0  0  0  0  0  0  0  0  0  0  # atno 17343 bound_to 10162
  157.7484  131.0049  150.3095 LP  0  0  0  0  0  0  0  0  0  0  0  0  # atno 17370 bound_to 10713
  156.3536  130.3835  149.7309 LP  0  0  0  0  0  0  0  0  0  0  0  0  # atno 17371 bound_to 10713
  139.9142  135.0194  156.7817 LP  0  0  0  0  0  0  0  0  0  0  0  0  # atno 17394 bound_to 11000
  140.6582  133.9669  155.7791 LP  0  0  0  0  0  0  0  0  0  0  0  0  # atno 17395 bound_to 11000

$$$$
