AV-unprocessed.smi:311|AV-procd|sdf|2297|dock1
  -GOLD-   2262022193D 1   1.00000     0.00000
 Structure written by MMmdl.
 44 46  0  0  0  0  0  0  0  0  2 V2000
  148.8065  136.0993  158.4640 C   0  0  0  0  0  0  0  0  0  0  0  0
  149.1169  135.1411  157.3497 C   0  0  0  0  0  0  0  0  0  0  0  0
  149.8939  134.0964  157.5810 N   0  0  0  0  0  0  0  0  0  0  0  0
  149.9977  133.4185  156.3626 O   0  0  0  0  0  0  0  0  0  0  0  0
  149.2698  134.0896  155.4344 C   0  0  0  0  0  0  0  0  0  0  0  0
  149.2650  133.5258  154.0537 C   0  0  0  0  0  0  0  0  0  0  0  0
  148.6842  135.1926  155.9936 C   0  0  0  0  0  0  0  0  0  0  0  0
  147.8053  136.2289  155.3426 C   0  0  0  0  0  0  0  0  0  0  0  0
  146.6043  135.5330  154.7058 C   0  0  0  0  0  0  0  0  0  0  0  0
  145.8013  134.9223  155.4109 O   0  0  0  0  0  0  0  0  0  0  0  0
  146.4761  135.6622  153.3764 N   0  0  0  0  0  0  0  0  0  0  0  0
  145.3459  135.1803  152.5900 C   0  0  2  0  0  0  0  0  0  0  0  0
  143.9930  135.5772  153.1691 C   0  0  0  0  0  0  0  0  0  0  0  0
  143.0539  134.5671  152.5076 C   0  0  0  0  0  0  0  0  0  0  0  0
  143.8323  133.3139  152.3841 N   0  3  1  0  0  0  0  0  0  0  0  0
  143.5016  132.4897  151.1960 C   0  0  0  0  0  0  0  0  0  0  0  0
  144.3660  131.2162  151.1677 C   0  0  0  0  0  0  0  0  0  0  0  0
  145.8758  131.5100  151.2944 C   0  0  0  0  0  0  0  0  0  0  0  0
  146.1732  133.0077  151.4723 C   0  0  0  0  0  0  0  0  0  0  0  0
  145.2754  133.6433  152.5579 C   0  0  1  0  0  0  0  0  0  0  0  0
  149.2484  137.0765  158.2690 H   0  0  0  0  0  0  0  0  0  0  0  0
  149.1912  135.7462  159.4217 H   0  0  0  0  0  0  0  0  0  0  0  0
  147.7307  136.2373  158.5715 H   0  0  0  0  0  0  0  0  0  0  0  0
  148.3029  133.6914  153.5691 H   0  0  0  0  0  0  0  0  0  0  0  0
  149.4533  132.4519  154.0687 H   0  0  0  0  0  0  0  0  0  0  0  0
  150.0366  133.9962  153.4441 H   0  0  0  0  0  0  0  0  0  0  0  0
  147.4632  136.9726  156.0636 H   0  0  0  0  0  0  0  0  0  0  0  0
  148.3418  136.7813  154.5705 H   0  0  0  0  0  0  0  0  0  0  0  0
  147.1922  136.1747  152.8819 H   0  0  0  0  0  0  0  0  0  0  0  0
  145.3970  135.5704  151.5710 H   0  0  0  0  0  0  0  0  0  0  0  0
  143.9843  135.4427  154.2520 H   0  0  0  0  0  0  0  0  0  0  0  0
  143.7230  136.6111  152.9520 H   0  0  0  0  0  0  0  0  0  0  0  0
  142.1358  134.4133  153.0752 H   0  0  0  0  0  0  0  0  0  0  0  0
  142.7767  134.9304  151.5166 H   0  0  0  0  0  0  0  0  0  0  0  0
  142.4444  132.2236  151.2231 H   0  0  0  0  0  0  0  0  0  0  0  0
  143.6566  133.0710  150.2854 H   0  0  0  0  0  0  0  0  0  0  0  0
  144.0620  130.5602  151.9845 H   0  0  0  0  0  0  0  0  0  0  0  0
  144.1707  130.6606  150.2499 H   0  0  0  0  0  0  0  0  0  0  0  0
  146.2768  130.9603  152.1467 H   0  0  0  0  0  0  0  0  0  0  0  0
  146.4057  131.1347  150.4182 H   0  0  0  0  0  0  0  0  0  0  0  0
  147.2249  133.1473  151.7240 H   0  0  0  0  0  0  0  0  0  0  0  0
  146.0227  133.5177  150.5196 H   0  0  0  0  0  0  0  0  0  0  0  0
  145.5593  133.2438  153.5331 H   0  0  0  0  0  0  0  0  0  0  0  0
  143.5924  132.7519  153.1882 H   0  0  0  0  0  0  0  0  0  0  0  0
  1  2  1  0  0  0  0
  1 21  1  0  0  0  0
  1 22  1  0  0  0  0
  1 23  1  0  0  0  0
  2  7  1  0  0  0  0
  2  3  2  0  0  0  0
  3  4  1  0  0  0  0
  4  5  1  0  0  0  0
  5  6  1  0  0  0  0
  5  7  2  0  0  0  0
  6 24  1  0  0  0  0
  6 25  1  0  0  0  0
  6 26  1  0  0  0  0
  7  8  1  0  0  0  0
  8  9  1  0  0  0  0
  8 27  1  0  0  0  0
  8 28  1  0  0  0  0
  9 10  2  0  0  0  0
  9 11  1  0  0  0  0
 11 12  1  0  0  0  0
 11 29  1  0  0  0  0
 12 20  1  0  0  0  0
 12 13  1  0  0  0  0
 12 30  1  0  0  0  0
 13 14  1  0  0  0  0
 13 31  1  0  0  0  0
 13 32  1  0  0  0  0
 14 15  1  0  0  0  0
 14 33  1  0  0  0  0
 14 34  1  0  0  0  0
 15 20  1  0  0  0  0
 15 16  1  0  0  0  0
 15 44  1  0  0  0  0
 16 17  1  0  0  0  0
 16 35  1  0  0  0  0
 16 36  1  0  0  0  0
 17 18  1  0  0  0  0
 17 37  1  0  0  0  0
 17 38  1  0  0  0  0
 18 19  1  0  0  0  0
 18 39  1  0  0  0  0
 18 40  1  0  0  0  0
 19 20  1  0  0  0  0
 19 41  1  0  0  0  0
 19 42  1  0  0  0  0
 20 43  1  0  0  0  0
M  CHG  1  15   1
M  END
> <s_m_source_file>
AV-unprocessed.smi

> <i_m_source_file_index>
311

> <i_lp_mmshare_version>
43012

> <i_f3d_flags>
0

> <s_epik_input>
W0NIM11jMW5vYyhbQ0gzXSljMVtDSDJdQyg9TylbTkhdW0NASF0oW0NIMl1bQ0gyXTIpW0NAQEhdKE4yMylbQ0gyXVtDSDJdW0NIMl1bQ0gyXTM=

> <s_epik_cmdline>
J2VwaWtfcHl0aG9uJywgJy1waCcsICc3LjAnLCAnLXRuJywgJzgnLCAnLW1hJywgJzIwMCcsICctbWV0YWxfYmluZGluZycsICctaW1hZScsICc8aW5maWxlLm1hZT4nLCAnLW9tYWUnLCAnPG91dGZpbGUubWFlPic=

> <r_epik_Ionization_Penalty>
0.00173669

> <r_epik_Ionization_Penalty_Charging>
0.0017366

> <r_epik_Ionization_Penalty_Neutral>
9.2145e-08

> <r_epik_State_Penalty>
0.00117499

> <r_epik_Charging_Adjusted_Penalty>
0.00291159

> <i_epik_Tot_Q>
1

> <i_epik_Tot_abs_Q>
1

> <r_epik_Metal_State_Penalty>
-0

> <b_epik_Metal_Only>
0

> <s_lp_Force_Field>
OPLS_2005

> <r_lp_Energy>
32.9133

> <b_lp_Chiralities_Consistent>
1

> <s_lp_Variant>
AV-unprocessed.smi:311-1

> <Gold.Version>
5.8.1

> <Gold.Id.Protein>
6NUR|6NUR_protein|mol2

> <Gold.PLP.Fitness>
36.8899

> <Gold.PLP.PLP>
-26.3103

> <Gold.PLP.part.hbond>
-2.7821

> <Gold.PLP.part.metal>
0.0000

> <Gold.PLP.part.buried>
-5.5182

> <Gold.PLP.part.nonpolar>
-20.0070

> <Gold.PLP.part.repulsive>
0.0274

> <Gold.PLP.ligand.clash>
0.0000

> <Gold.PLP.ligand.torsion>
0.1084

> <Gold.PLP.Chemscore.Hbond>
3.5930

> <Gold.PLP.Chemscore.CHOScore>
0.0000

> <Gold.PLP.Chemscore.Metal>
0.0000

> <Gold.Chemscore.Hbonds>
donor molecule, donor type, donor heavy atom, donor atom, acceptor molecule, acceptor atom, score
      L1  H    11    29       P1  7948  1.00
      L1  H    15    44       P1 10957  1.76
      P1  H  6896  6909       L1     3  0.98

> <Gold.PLP.Chemscore.Internal.Correction>
0.0174

> <Gold.Rescore>
     Score         DG    S(hbond)    S(metal)    S(lipo)     H(rot)  DE(clash)    DE(int)     intcor
     17.52     -18.56       2.65        0.00      65.86       1.36       0.01       1.02       ----

> <Gold.Chemscore.Fitness>
17.5237

> <Gold.Chemscore.DG>
-18.5612

> <Gold.Chemscore.ZeroCoef>
-5.4800

> <Gold.Chemscore.Hbond>
2.6493

> <Gold.Chemscore.Metal>
0.0000

> <Gold.Chemscore.Lipo>
65.8600

> <Gold.Chemscore.Internal_Hbond>
0.0000

> <Gold.Chemscore.DEClash>
0.0149

> <Gold.Chemscore.DEInternal>
1.0226

> <Gold.Chemscore.Rot>
1.3567

> <Gold.Chemscore.Internal.Correction>
   9.000000E+99

> <Gold.Chemscore.Hbonds>
donor molecule, donor type, donor heavy atom, donor atom, acceptor molecule, acceptor atom, score
      L1  H    11    29       P1  7948  0.88
      L1  H    15    44       P1 10957  0.34
      P1  H  6896  6909       L1     3  0.91

> <Gold.Chemscore.Hbond.Weighted>
-8.8487

> <Gold.Chemscore.Metal.Weighted>
-0.0000

> <Gold.Chemscore.Lipo.Weighted>
-7.7056

> <Gold.Chemscore.Internal_Hbond.Weighted>
0.0000

> <Gold.Chemscore.DEClash.Weighted>
0.0149

> <Gold.Chemscore.DEInternal.Weighted>
1.0226

> <Gold.Chemscore.Rot.Weighted>
3.4731

> <Gold.Chemscore.Internal.Correction.Weighted>
   9.000000E+99

> <Gold.Protein.RotatedTorsions>
[ 6907 6896 6895 6894 ] final    0.27 input  -60.11 | X-H torsion
[ 7974 7965 7964 7962 ] final  -87.55 input  175.53 | X-H torsion
[ 8008 7997 7996 7995 ] final  -17.79 input   59.86 | X-H torsion
[ 10167 10162 10161 10158 ] final  141.63 input  -65.29 | X-H torsion
[ 10718 10713 10712 10709 ] final  -31.02 input   66.30 | X-H torsion
[ 10763 10752 10751 10750 ] final   16.02 input  -60.55 | X-H torsion
[ 11005 11000 10999 10996 ] final   74.08 input  -57.11 | X-H torsion

> <Gold.Protein.ActiveResidues>
 VAL166  LYS551  ARG553  GLY616  TRP617  ASP618  TYR619  PRO620  LYS621  CYS622 
 ASP623  PHE694  ASN695  SER759  ASP760  ASP761  ALA762  ILE779  LEU786  VAL792 
 PHE793  MET794  SER795  GLU796  ALA797  LYS798  CYS799  TRP800  GLU811  SER814 

> <Gold.Protein.RotatedAtoms>
  151.5737  135.1061  160.0000 H   0  0  0  0  0  0  0  0  0  0  0  0  # atno 6907 bound_to 6896
  152.4388  133.7406  159.6649 H   0  0  0  0  0  0  0  0  0  0  0  0  # atno 6908 bound_to 6896
  150.8290  133.8054  159.3130 H   0  0  0  0  0  0  0  0  0  0  0  0  # atno 6909 bound_to 6896
  145.4650  140.9560  143.1948 H   0  0  0  0  0  0  0  0  0  0  0  0  # atno 7974 bound_to 7965
  154.4953  140.2133  155.9461 H   0  0  0  0  0  0  0  0  0  0  0  0  # atno 8008 bound_to 7997
  156.1361  140.3188  155.8391 H   0  0  0  0  0  0  0  0  0  0  0  0  # atno 8009 bound_to 7997
  155.4206  140.0496  157.3016 H   0  0  0  0  0  0  0  0  0  0  0  0  # atno 8010 bound_to 7997
  139.5015  144.6159  151.6165 H   0  0  0  0  0  0  0  0  0  0  0  0  # atno 10167 bound_to 10162
  156.3924  130.4375  149.7384 H   0  0  0  0  0  0  0  0  0  0  0  0  # atno 10718 bound_to 10713
  153.1470  135.6771  153.8940 H   0  0  0  0  0  0  0  0  0  0  0  0  # atno 10763 bound_to 10752
  153.8379  135.3109  155.3425 H   0  0  0  0  0  0  0  0  0  0  0  0  # atno 10764 bound_to 10752
  154.7832  135.4876  153.9975 H   0  0  0  0  0  0  0  0  0  0  0  0  # atno 10765 bound_to 10752
  139.9408  134.7402  156.1104 H   0  0  0  0  0  0  0  0  0  0  0  0  # atno 11005 bound_to 11000
  144.7979  139.6197  143.7084 LP  0  0  0  0  0  0  0  0  0  0  0  0  # atno 17320 bound_to 7965
  146.2429  139.6038  142.9479 LP  0  0  0  0  0  0  0  0  0  0  0  0  # atno 17321 bound_to 7965
  140.5847  143.9885  150.6288 LP  0  0  0  0  0  0  0  0  0  0  0  0  # atno 17342 bound_to 10162
  140.3046  143.3238  152.0939 LP  0  0  0  0  0  0  0  0  0  0  0  0  # atno 17343 bound_to 10162
  156.4432  130.7871  151.2892 LP  0  0  0  0  0  0  0  0  0  0  0  0  # atno 17370 bound_to 10713
  157.7500  131.0118  150.3360 LP  0  0  0  0  0  0  0  0  0  0  0  0  # atno 17371 bound_to 10713
  141.1042  133.6666  156.2824 LP  0  0  0  0  0  0  0  0  0  0  0  0  # atno 17394 bound_to 11000
  140.5956  134.5606  157.5508 LP  0  0  0  0  0  0  0  0  0  0  0  0  # atno 17395 bound_to 11000

$$$$
