AV-unprocessed.smi:73|AV-procd|sdf|762|dock2
  -GOLD-   2262017103D 1   1.00000     0.00000
 Structure written by MMmdl.
 35 36  0  0  0  0  0  0  0  0  2 V2000
  151.0472  138.0266  154.4510 C   0  0  0  0  0  0  0  0  0  0  0  0
  150.4347  138.8021  155.6283 C   0  0  0  0  0  0  0  0  0  0  0  0
  148.9596  138.8191  155.7066 N   0  0  0  0  0  0  0  0  0  0  0  0
  148.4880  137.4562  156.0111 C   0  0  0  0  0  0  0  0  0  0  0  0
  148.8041  137.0040  157.4022 C   0  0  0  0  0  0  0  0  0  0  0  0
  150.0122  136.8405  157.9474 N   0  0  0  0  0  0  0  0  0  0  0  0
  149.7859  136.4102  159.2360 N   0  0  0  0  0  0  0  0  0  0  0  0
  148.4590  136.3487  159.3707 C   0  0  0  0  0  0  0  0  0  0  0  0
  147.6899  135.9441  160.5814 C   0  0  0  0  0  0  0  0  0  0  0  0
  147.7838  136.7134  158.2500 O   0  0  0  0  0  0  0  0  0  0  0  0
  148.3195  139.3091  154.4638 C   0  0  1  0  0  0  0  0  0  0  0  0
  146.7781  139.0985  154.4360 C   0  0  0  0  0  0  0  0  0  0  0  0
  146.1391  140.4046  154.2145 N   0  3  0  0  0  0  0  0  0  0  0  0
  147.1311  141.2480  153.5507 C   0  0  0  0  0  0  0  0  0  0  0  0
  148.4535  140.8252  154.1820 C   0  0  2  0  0  0  0  0  0  0  0  0
  149.5080  141.1019  153.2827 O   0  0  0  0  0  0  0  0  0  0  0  0
  148.5683  141.3859  155.1093 H   0  0  0  0  0  0  0  0  0  0  0  0
  152.0888  138.3180  154.3143 H   0  0  0  0  0  0  0  0  0  0  0  0
  150.5242  138.2463  153.5197 H   0  0  0  0  0  0  0  0  0  0  0  0
  151.0506  136.9497  154.5983 H   0  0  0  0  0  0  0  0  0  0  0  0
  150.8603  138.4572  156.5715 H   0  0  0  0  0  0  0  0  0  0  0  0
  150.8094  139.8190  155.5130 H   0  0  0  0  0  0  0  0  0  0  0  0
  147.4088  137.3690  155.9057 H   0  0  0  0  0  0  0  0  0  0  0  0
  148.9138  136.7457  155.3008 H   0  0  0  0  0  0  0  0  0  0  0  0
  148.2284  135.1697  161.1283 H   0  0  0  0  0  0  0  0  0  0  0  0
  146.7120  135.5546  160.2969 H   0  0  0  0  0  0  0  0  0  0  0  0
  147.5488  136.8037  161.2367 H   0  0  0  0  0  0  0  0  0  0  0  0
  148.7355  138.7637  153.6143 H   0  0  0  0  0  0  0  0  0  0  0  0
  146.5054  138.4225  153.6248 H   0  0  0  0  0  0  0  0  0  0  0  0
  146.3724  138.6905  155.3618 H   0  0  0  0  0  0  0  0  0  0  0  0
  145.2923  140.3209  153.6705 H   0  0  0  0  0  0  0  0  0  0  0  0
  147.1148  141.0200  152.4835 H   0  0  0  0  0  0  0  0  0  0  0  0
  146.9169  142.3097  153.6775 H   0  0  0  0  0  0  0  0  0  0  0  0
  149.5538  140.4024  152.6480 H   0  0  0  0  0  0  0  0  0  0  0  0
  145.9312  140.8114  155.1155 H   0  0  0  0  0  0  0  0  0  0  0  0
  1  2  1  0  0  0  0
  1 18  1  0  0  0  0
  1 19  1  0  0  0  0
  1 20  1  0  0  0  0
  2  3  1  0  0  0  0
  2 21  1  0  0  0  0
  2 22  1  0  0  0  0
  3  4  1  0  0  0  0
  3 11  1  0  0  0  0
  4  5  1  0  0  0  0
  4 23  1  0  0  0  0
  4 24  1  0  0  0  0
  5 10  1  0  0  0  0
  5  6  2  0  0  0  0
  6  7  1  0  0  0  0
  7  8  2  0  0  0  0
  8  9  1  0  0  0  0
  8 10  1  0  0  0  0
  9 25  1  0  0  0  0
  9 26  1  0  0  0  0
  9 27  1  0  0  0  0
 11 15  1  0  0  0  0
 11 12  1  0  0  0  0
 11 28  1  0  0  0  0
 12 13  1  0  0  0  0
 12 29  1  0  0  0  0
 12 30  1  0  0  0  0
 13 14  1  0  0  0  0
 13 31  1  0  0  0  0
 13 35  1  0  0  0  0
 14 15  1  0  0  0  0
 14 32  1  0  0  0  0
 14 33  1  0  0  0  0
 15 17  1  0  0  0  0
 15 16  1  0  0  0  0
 16 34  1  0  0  0  0
M  CHG  1  13   1
M  END
> <s_m_source_file>
AV-unprocessed.smi

> <i_m_source_file_index>
73

> <i_lp_mmshare_version>
43012

> <i_f3d_flags>
0

> <s_epik_input>
W09IXVtDQEBIXTFbQ0gyXVtOSF1bQ0gyXVtDQEhdMU4oW0NIMl1bQ0gzXSlbQ0gyXWMybm5jKG8yKVtDSDNd

> <s_epik_cmdline>
J2VwaWtfcHl0aG9uJywgJy1waCcsICc3LjAnLCAnLXRuJywgJzgnLCAnLW1hJywgJzIwMCcsICctbWV0YWxfYmluZGluZycsICctaW1hZScsICc8aW5maWxlLm1hZT4nLCAnLW9tYWUnLCAnPG91dGZpbGUubWFlPic=

> <r_lp_tautomer_probability>
1

> <r_epik_Ionization_Penalty>
0.00160433

> <r_epik_Ionization_Penalty_Charging>
0.000122314

> <r_epik_Ionization_Penalty_Neutral>
0.00148202

> <r_epik_State_Penalty>
-0

> <r_epik_Charging_Adjusted_Penalty>
0.000122314

> <i_epik_Tot_Q>
1

> <i_epik_Tot_abs_Q>
1

> <r_epik_Metal_State_Penalty>
-0

> <b_epik_Metal_Only>
0

> <s_lp_Force_Field>
OPLS_2005

> <r_lp_Energy>
41.961

> <b_lp_Chiralities_Consistent>
1

> <s_lp_Variant>
AV-unprocessed.smi:73-4

> <Gold.Version>
5.8.1

> <Gold.Id.Protein>
6NUR|6NUR_protein|mol2

> <Gold.PLP.Fitness>
35.7674

> <Gold.PLP.PLP>
-21.2655

> <Gold.PLP.part.hbond>
-4.4954

> <Gold.PLP.part.metal>
0.0000

> <Gold.PLP.part.buried>
-3.8340

> <Gold.PLP.part.nonpolar>
-13.3156

> <Gold.PLP.part.repulsive>
0.0293

> <Gold.PLP.ligand.clash>
0.0000

> <Gold.PLP.ligand.torsion>
0.2451

> <Gold.PLP.Chemscore.Hbond>
4.9784

> <Gold.PLP.Chemscore.CHOScore>
0.0000

> <Gold.PLP.Chemscore.Metal>
0.0000

> <Gold.Chemscore.Hbonds>
donor molecule, donor type, donor heavy atom, donor atom, acceptor molecule, acceptor atom, score
      L1  H    13    31       P1 10175  2.00
      L1  H    16    34       P1  7957  0.90
      P1  H  6896  6909       L1     7  1.00
      P1  H  7989  7998       L1    16  0.04
      P1  H  8011  8017       L1    16  1.00

> <Gold.PLP.Chemscore.Internal.Correction>
0.0570

> <Gold.Rescore>
     Score         DG    S(hbond)    S(metal)    S(lipo)     H(rot)  DE(clash)    DE(int)     intcor
     14.72     -14.97       3.26        0.00      42.86       2.51       0.04       0.22       ----

> <Gold.Chemscore.Fitness>
14.7156

> <Gold.Chemscore.DG>
-14.9734

> <Gold.Chemscore.ZeroCoef>
-5.4800

> <Gold.Chemscore.Hbond>
3.2609

> <Gold.Chemscore.Metal>
0.0000

> <Gold.Chemscore.Lipo>
42.8624

> <Gold.Chemscore.Internal_Hbond>
0.0000

> <Gold.Chemscore.DEClash>
0.0376

> <Gold.Chemscore.DEInternal>
0.2201

> <Gold.Chemscore.Rot>
2.5051

> <Gold.Chemscore.Internal.Correction>
   9.000000E+99

> <Gold.Chemscore.Hbonds>
donor molecule, donor type, donor heavy atom, donor atom, acceptor molecule, acceptor atom, score
      L1  H    13    31       P1 10175  0.95
      L1  H    16    34       P1  7957  0.81
      P1  H  6896  6909       L1     7  0.72
      P1  H  8011  8017       L1    16  0.30

> <Gold.Chemscore.Hbond.Weighted>
-10.8915

> <Gold.Chemscore.Metal.Weighted>
-0.0000

> <Gold.Chemscore.Lipo.Weighted>
-5.0149

> <Gold.Chemscore.Internal_Hbond.Weighted>
0.0000

> <Gold.Chemscore.DEClash.Weighted>
0.0376

> <Gold.Chemscore.DEInternal.Weighted>
0.2201

> <Gold.Chemscore.Rot.Weighted>
6.4131

> <Gold.Chemscore.Internal.Correction.Weighted>
   9.000000E+99

> <Gold.Protein.RotatedTorsions>
[ 6907 6896 6895 6894 ] final   58.13 input  -60.11 | X-H torsion
[ 7974 7965 7964 7962 ] final  152.65 input  175.53 | X-H torsion
[ 8008 7997 7996 7995 ] final  -15.13 input   59.86 | X-H torsion
[ 10167 10162 10161 10158 ] final    0.57 input  -65.29 | X-H torsion
[ 10718 10713 10712 10709 ] final  -87.65 input   66.30 | X-H torsion
[ 10763 10752 10751 10750 ] final  101.95 input  -60.55 | X-H torsion
[ 11005 11000 10999 10996 ] final  -80.91 input  -57.11 | X-H torsion

> <Gold.Protein.ActiveResidues>
 VAL166  LYS551  ARG553  GLY616  TRP617  ASP618  TYR619  PRO620  LYS621  CYS622 
 ASP623  PHE694  ASN695  SER759  ASP760  ASP761  ALA762  ILE779  LEU786  VAL792 
 PHE793  MET794  SER795  GLU796  ALA797  LYS798  CYS799  TRP800  GLU811  SER814 

> <Gold.Protein.RotatedAtoms>
  152.3795  134.6611  160.0147 H   0  0  0  0  0  0  0  0  0  0  0  0  # atno 6907 bound_to 6896
  151.6879  133.3306  159.3243 H   0  0  0  0  0  0  0  0  0  0  0  0  # atno 6908 bound_to 6896
  150.7736  134.6660  159.6410 H   0  0  0  0  0  0  0  0  0  0  0  0  # atno 6909 bound_to 6896
  144.8208  139.6696  143.6101 H   0  0  0  0  0  0  0  0  0  0  0  0  # atno 7974 bound_to 7965
  154.5155  140.2204  155.9075 H   0  0  0  0  0  0  0  0  0  0  0  0  # atno 8008 bound_to 7997
  156.1602  140.3143  155.8760 H   0  0  0  0  0  0  0  0  0  0  0  0  # atno 8009 bound_to 7997
  155.3766  140.0470  157.3035 H   0  0  0  0  0  0  0  0  0  0  0  0  # atno 8010 bound_to 7997
  140.6722  143.7015  150.7948 H   0  0  0  0  0  0  0  0  0  0  0  0  # atno 10167 bound_to 10162
  155.9985  130.4807  150.4900 H   0  0  0  0  0  0  0  0  0  0  0  0  # atno 10718 bound_to 10713
  153.3333  135.4027  155.1513 H   0  0  0  0  0  0  0  0  0  0  0  0  # atno 10763 bound_to 10752
  154.8628  135.3616  154.5441 H   0  0  0  0  0  0  0  0  0  0  0  0  # atno 10764 bound_to 10752
  153.5881  135.7074  153.5494 H   0  0  0  0  0  0  0  0  0  0  0  0  # atno 10765 bound_to 10752
  141.1667  133.7172  156.8344 H   0  0  0  0  0  0  0  0  0  0  0  0  # atno 11005 bound_to 11000
  146.2513  139.6206  142.9425 LP  0  0  0  0  0  0  0  0  0  0  0  0  # atno 17320 bound_to 7965
  145.5109  141.0435  143.2488 LP  0  0  0  0  0  0  0  0  0  0  0  0  # atno 17321 bound_to 7965
  140.0703  143.5068  152.2583 LP  0  0  0  0  0  0  0  0  0  0  0  0  # atno 17342 bound_to 10162
  139.5997  144.7578  151.3202 LP  0  0  0  0  0  0  0  0  0  0  0  0  # atno 17343 bound_to 10162
  157.2896  131.0623  151.2143 LP  0  0  0  0  0  0  0  0  0  0  0  0  # atno 17370 bound_to 10713
  157.3160  130.6913  149.6242 LP  0  0  0  0  0  0  0  0  0  0  0  0  # atno 17371 bound_to 10713
  140.2028  134.8885  157.3188 LP  0  0  0  0  0  0  0  0  0  0  0  0  # atno 17394 bound_to 11000
  140.2169  134.4070  155.7584 LP  0  0  0  0  0  0  0  0  0  0  0  0  # atno 17395 bound_to 11000

$$$$
