AV-unprocessed.smi:2410|AV-procd|sdf|9528|dock5
  -GOLD-   2272013163D 1   1.00000     0.00000
 Structure written by MMmdl.
 47 49  0  0  0  0  0  0  0  0  2 V2000
  152.0415  144.4920  160.8217 C   0  0  0  0  0  0  0  0  0  0  0  0
  151.6635  143.2782  159.9900 C   0  0  0  0  0  0  0  0  0  0  0  0
  150.8306  143.4650  158.8632 C   0  0  0  0  0  0  0  0  0  0  0  0
  150.5047  142.3359  158.1207 C   0  0  0  0  0  0  0  0  0  0  0  0
  149.7210  142.1864  156.9738 N   0  3  0  0  0  0  0  0  0  0  0  0
  149.6982  140.8747  156.6062 C   0  0  0  0  0  0  0  0  0  0  0  0
  150.4551  140.1859  157.5028 N   0  0  0  0  0  0  0  0  0  0  0  0
  150.7738  138.7550  157.5781 C   0  0  0  0  0  0  0  0  0  0  0  0
  149.9530  138.0250  158.6592 C   0  0  2  0  0  0  0  0  0  0  0  0
  150.7600  137.0038  159.2127 O   0  0  0  0  0  0  0  0  0  0  0  0
  148.6667  137.3943  158.0821 C   0  0  0  0  0  0  0  0  0  0  0  0
  148.2678  136.1882  158.8255 N   0  0  0  0  0  0  0  0  0  0  0  0
  148.4519  134.9611  158.1684 C   0  0  0  0  0  0  0  0  0  0  0  0
  148.1378  133.8383  158.7274 N   0  0  0  0  0  0  0  0  0  0  0  0
  147.6044  133.8275  160.0197 C   0  0  0  0  0  0  0  0  0  0  0  0
  147.2648  132.4566  160.5775 C   0  0  0  0  0  0  0  0  0  0  0  0
  147.4122  134.9818  160.7151 C   0  0  0  0  0  0  0  0  0  0  0  0
  146.8355  135.0320  162.1244 C   0  0  0  0  0  0  0  0  0  0  0  0
  147.7720  136.2670  160.0948 C   0  0  0  0  0  0  0  0  0  0  0  0
  147.6454  137.3489  160.6731 O   0  0  0  0  0  0  0  0  0  0  0  0
  150.9762  141.0553  158.4662 C   0  0  0  0  0  0  0  0  0  0  0  0
  151.7954  140.8522  159.5741 C   0  0  0  0  0  0  0  0  0  0  0  0
  152.1396  141.9879  160.3408 C   0  0  0  0  0  0  0  0  0  0  0  0
  153.0367  141.7977  161.5521 C   0  0  0  0  0  0  0  0  0  0  0  0
  151.6141  145.4068  160.4098 H   0  0  0  0  0  0  0  0  0  0  0  0
  153.1244  144.6150  160.8512 H   0  0  0  0  0  0  0  0  0  0  0  0
  151.6766  144.3845  161.8434 H   0  0  0  0  0  0  0  0  0  0  0  0
  150.4650  144.4440  158.5901 H   0  0  0  0  0  0  0  0  0  0  0  0
  149.1782  140.4581  155.7556 H   0  0  0  0  0  0  0  0  0  0  0  0
  150.5958  138.3207  156.5934 H   0  0  0  0  0  0  0  0  0  0  0  0
  151.8431  138.6581  157.7715 H   0  0  0  0  0  0  0  0  0  0  0  0
  149.7056  138.7310  159.4525 H   0  0  0  0  0  0  0  0  0  0  0  0
  151.6672  137.2466  159.1073 H   0  0  0  0  0  0  0  0  0  0  0  0
  147.8464  138.1118  158.1458 H   0  0  0  0  0  0  0  0  0  0  0  0
  148.7712  137.2096  157.0109 H   0  0  0  0  0  0  0  0  0  0  0  0
  148.8773  135.0237  157.1654 H   0  0  0  0  0  0  0  0  0  0  0  0
  146.2008  132.3898  160.8061 H   0  0  0  0  0  0  0  0  0  0  0  0
  147.8314  132.2636  161.4888 H   0  0  0  0  0  0  0  0  0  0  0  0
  147.5033  131.6673  159.8633 H   0  0  0  0  0  0  0  0  0  0  0  0
  147.5454  135.5031  162.8052 H   0  0  0  0  0  0  0  0  0  0  0  0
  146.6002  134.0481  162.5269 H   0  0  0  0  0  0  0  0  0  0  0  0
  145.9163  135.6188  162.1337 H   0  0  0  0  0  0  0  0  0  0  0  0
  152.1596  139.8698  159.8386 H   0  0  0  0  0  0  0  0  0  0  0  0
  153.2860  140.7468  161.7031 H   0  0  0  0  0  0  0  0  0  0  0  0
  152.5429  142.1550  162.4561 H   0  0  0  0  0  0  0  0  0  0  0  0
  153.9702  142.3465  161.4260 H   0  0  0  0  0  0  0  0  0  0  0  0
  149.2384  142.9233  156.4753 H   0  0  0  0  0  0  0  0  0  0  0  0
  1  2  1  0  0  0  0
  1 25  1  0  0  0  0
  1 26  1  0  0  0  0
  1 27  1  0  0  0  0
  2 23  1  0  0  0  0
  2  3  2  0  0  0  0
  3  4  1  0  0  0  0
  3 28  1  0  0  0  0
  4 21  2  0  0  0  0
  4  5  1  0  0  0  0
  5  6  2  0  0  0  0
  5 47  1  0  0  0  0
  6  7  1  0  0  0  0
  6 29  1  0  0  0  0
  7  8  1  0  0  0  0
  7 21  1  0  0  0  0
  8  9  1  0  0  0  0
  8 30  1  0  0  0  0
  8 31  1  0  0  0  0
  9 10  1  0  0  0  0
  9 11  1  0  0  0  0
  9 32  1  0  0  0  0
 10 33  1  0  0  0  0
 11 12  1  0  0  0  0
 11 34  1  0  0  0  0
 11 35  1  0  0  0  0
 12 19  1  0  0  0  0
 12 13  1  0  0  0  0
 13 14  2  0  0  0  0
 13 36  1  0  0  0  0
 14 15  1  0  0  0  0
 15 16  1  0  0  0  0
 15 17  2  0  0  0  0
 16 37  1  0  0  0  0
 16 38  1  0  0  0  0
 16 39  1  0  0  0  0
 17 18  1  0  0  0  0
 17 19  1  0  0  0  0
 18 40  1  0  0  0  0
 18 41  1  0  0  0  0
 18 42  1  0  0  0  0
 19 20  2  0  0  0  0
 21 22  1  0  0  0  0
 22 23  2  0  0  0  0
 22 43  1  0  0  0  0
 23 24  1  0  0  0  0
 24 44  1  0  0  0  0
 24 45  1  0  0  0  0
 24 46  1  0  0  0  0
M  CHG  1   5   1
M  END
> <s_m_source_file>
AV-unprocessed.smi

> <i_m_source_file_index>
2410

> <i_lp_mmshare_version>
43012

> <i_f3d_flags>
0

> <s_epik_input>
W0NIM11jKFtjSF0xKWMoW0NIM10pW2NIXWMoYzEyKW4oW2NIXW4yKVtDSDJdW0NASF0oW09IXSlbQ0gyXW4zW2NIXW5jKFtDSDNdKWMoW0NIM10pYzM9Tw==

> <s_epik_cmdline>
J2VwaWtfcHl0aG9uJywgJy1waCcsICc3LjAnLCAnLXRuJywgJzgnLCAnLW1hJywgJzIwMCcsICctbWV0YWxfYmluZGluZycsICctaW1hZScsICc8aW5maWxlLm1hZT4nLCAnLW9tYWUnLCAnPG91dGZpbGUubWFlPic=

> <r_lp_tautomer_probability>
1

> <r_epik_Ionization_Penalty>
1.03571

> <r_epik_Ionization_Penalty_Charging>
1.03568

> <r_epik_Ionization_Penalty_Neutral>
3.18232e-05

> <r_epik_State_Penalty>
1.08724

> <r_epik_Charging_Adjusted_Penalty>
2.12292

> <i_epik_Tot_Q>
1

> <i_epik_Tot_abs_Q>
1

> <r_epik_Metal_State_Penalty>
1.18374

> <b_epik_Metal_Only>
0

> <s_lp_Force_Field>
OPLS_2005

> <r_lp_Energy>
24.5371

> <b_lp_Chiralities_Consistent>
1

> <s_lp_Variant>
AV-unprocessed.smi:2410-3

> <Gold.Version>
5.8.1

> <Gold.Id.Protein>
6NUR|6NUR_protein|mol2

> <Gold.PLP.Fitness>
55.2219

> <Gold.PLP.PLP>
-44.2948

> <Gold.PLP.part.hbond>
-4.1686

> <Gold.PLP.part.metal>
0.0000

> <Gold.PLP.part.buried>
-5.2928

> <Gold.PLP.part.nonpolar>
-35.4451

> <Gold.PLP.part.repulsive>
0.0130

> <Gold.PLP.ligand.clash>
0.0000

> <Gold.PLP.ligand.torsion>
1.1636

> <Gold.PLP.Chemscore.Hbond>
4.4125

> <Gold.PLP.Chemscore.CHOScore>
0.0000

> <Gold.PLP.Chemscore.Metal>
0.0000

> <Gold.Chemscore.Hbonds>
donor molecule, donor type, donor heavy atom, donor atom, acceptor molecule, acceptor atom, score
      L1  H     5    47       P1  8028  2.00
      P1  H  6896  6907       L1    10  0.67
      P1  H  6931  6943       L1    20  0.67
      P1  H  6934  6947       L1    20  0.93

> <Gold.PLP.Chemscore.Internal.Correction>
0.0168

> <Gold.Rescore>
     Score         DG    S(hbond)    S(metal)    S(lipo)     H(rot)  DE(clash)    DE(int)     intcor
     20.49     -21.77       3.05        0.00     104.86       2.41       0.14       1.13       ----

> <Gold.Chemscore.Fitness>
20.4902

> <Gold.Chemscore.DG>
-21.7685

> <Gold.Chemscore.ZeroCoef>
-5.4800

> <Gold.Chemscore.Hbond>
3.0471

> <Gold.Chemscore.Metal>
0.0000

> <Gold.Chemscore.Lipo>
104.8596

> <Gold.Chemscore.Internal_Hbond>
0.0000

> <Gold.Chemscore.DEClash>
0.1449

> <Gold.Chemscore.DEInternal>
1.1334

> <Gold.Chemscore.Rot>
2.4052

> <Gold.Chemscore.Internal.Correction>
   9.000000E+99

> <Gold.Chemscore.Hbonds>
donor molecule, donor type, donor heavy atom, donor atom, acceptor molecule, acceptor atom, score
      L1  H     5    47       P1  8028  0.96
      P1  H  6896  6907       L1    10  0.07
      P1  H  6931  6943       L1    20  0.64
      P1  H  6934  6947       L1    20  0.90

> <Gold.Chemscore.Hbond.Weighted>
-10.1772

> <Gold.Chemscore.Metal.Weighted>
-0.0000

> <Gold.Chemscore.Lipo.Weighted>
-12.2686

> <Gold.Chemscore.Internal_Hbond.Weighted>
0.0000

> <Gold.Chemscore.DEClash.Weighted>
0.1449

> <Gold.Chemscore.DEInternal.Weighted>
1.1334

> <Gold.Chemscore.Rot.Weighted>
6.1573

> <Gold.Chemscore.Internal.Correction.Weighted>
   9.000000E+99

> <Gold.Protein.RotatedTorsions>
[ 6907 6896 6895 6894 ] final  -22.18 input  -60.11 | X-H torsion
[ 7974 7965 7964 7962 ] final   29.76 input  175.53 | X-H torsion
[ 8008 7997 7996 7995 ] final -152.50 input   59.86 | X-H torsion
[ 10167 10162 10161 10158 ] final  -49.67 input  -65.29 | X-H torsion
[ 10718 10713 10712 10709 ] final  126.85 input   66.30 | X-H torsion
[ 10763 10752 10751 10750 ] final  166.66 input  -60.55 | X-H torsion
[ 11005 11000 10999 10996 ] final   47.70 input  -57.11 | X-H torsion

> <Gold.Protein.ActiveResidues>
 VAL166  LYS551  ARG553  GLY616  TRP617  ASP618  TYR619  PRO620  LYS621  CYS622 
 ASP623  PHE694  ASN695  SER759  ASP760  ASP761  ALA762  ILE779  LEU786  VAL792 
 PHE793  MET794  SER795  GLU796  ALA797  LYS798  CYS799  TRP800  GLU811  SER814 

> <Gold.Protein.RotatedAtoms>
  151.2224  135.0523  159.8954 H   0  0  0  0  0  0  0  0  0  0  0  0  # atno 6907 bound_to 6896
  152.5414  134.0626  159.8169 H   0  0  0  0  0  0  0  0  0  0  0  0  # atno 6908 bound_to 6896
  151.0794  133.5354  159.2653 H   0  0  0  0  0  0  0  0  0  0  0  0  # atno 6909 bound_to 6896
  146.1652  139.6878  142.9006 H   0  0  0  0  0  0  0  0  0  0  0  0  # atno 7974 bound_to 7965
  155.6561  140.0717  157.2570 H   0  0  0  0  0  0  0  0  0  0  0  0  # atno 8008 bound_to 7997
  154.4152  140.1724  156.1776 H   0  0  0  0  0  0  0  0  0  0  0  0  # atno 8009 bound_to 7997
  155.9737  140.3360  155.6602 H   0  0  0  0  0  0  0  0  0  0  0  0  # atno 8010 bound_to 7997
  140.6674  143.2688  151.4248 H   0  0  0  0  0  0  0  0  0  0  0  0  # atno 10167 bound_to 10162
  157.5384  131.1097  150.8898 H   0  0  0  0  0  0  0  0  0  0  0  0  # atno 10718 bound_to 10713
  154.3422  135.2754  155.2416 H   0  0  0  0  0  0  0  0  0  0  0  0  # atno 10763 bound_to 10752
  154.4682  135.5890  153.6306 H   0  0  0  0  0  0  0  0  0  0  0  0  # atno 10764 bound_to 10752
  152.9856  135.6081  154.3625 H   0  0  0  0  0  0  0  0  0  0  0  0  # atno 10765 bound_to 10752
  140.1256  134.4772  155.8562 H   0  0  0  0  0  0  0  0  0  0  0  0  # atno 11005 bound_to 11000
  145.4485  141.0427  143.2817 LP  0  0  0  0  0  0  0  0  0  0  0  0  # atno 17320 bound_to 7965
  144.8083  139.6010  143.7041 LP  0  0  0  0  0  0  0  0  0  0  0  0  # atno 17321 bound_to 7965
  139.5928  144.1462  152.2109 LP  0  0  0  0  0  0  0  0  0  0  0  0  # atno 17342 bound_to 10162
  140.0821  144.5691  150.7114 LP  0  0  0  0  0  0  0  0  0  0  0  0  # atno 17343 bound_to 10162
  156.9458  130.5401  149.5281 LP  0  0  0  0  0  0  0  0  0  0  0  0  # atno 17370 bound_to 10713
  156.0477  130.5551  150.8918 LP  0  0  0  0  0  0  0  0  0  0  0  0  # atno 17371 bound_to 10713
  141.2160  133.6776  156.6972 LP  0  0  0  0  0  0  0  0  0  0  0  0  # atno 17394 bound_to 11000
  140.2908  134.8242  157.4015 LP  0  0  0  0  0  0  0  0  0  0  0  0  # atno 17395 bound_to 11000

$$$$
