#       Name:                AV-unprocessed.smi:229
#       Creating user name   scv26
#       Creation time:       Thu Mar 26 20:28:41 2020


#       File generated by GOLD software.
#

@<TRIPOS>MOLECULE
AV-unprocessed.smi:229
    70    74     1
SMALL
NO_CHARGES


@<TRIPOS>ATOM
      1 ****        -5.7563  -1.7839   2.6839 C.3            1 S1                 0.0000
      2 ****        -4.2886  -1.9315   2.2638 C.3            1 S1                 0.0000
      3 ****        -3.9239  -1.0646   1.0494 C.3            1 S1                 0.0000
      4 ****        -2.4199  -1.1233   0.7370 C.3            1 S1                 0.0000
      5 ****        -2.1357  -0.3764  -0.4802 N.3            1 S1                 0.0000
      6 ****        -0.8635   0.0230  -0.7390 C.ar           1 S1                 0.0000
      7 ****        -0.7015   1.0246  -1.6428 N.ar           1 S1                 0.0000
      8 ****         0.5175   1.4831  -1.9393 C.ar           1 S1                 0.0000
      9 ****         1.6966   1.0888  -1.4573 N.ar           1 S1                 0.0000
     10 ****         1.5465   0.0798  -0.5530 C.ar           1 S1                 0.0000
     11 ****         0.3173  -0.5104  -0.1372 C.ar           1 S1                 0.0000
     12 ****         0.5785  -1.5164   0.7886 N.2            1 S1                 0.0000
     13 ****         1.8765  -1.5122   0.9191 C.2            1 S1                 0.0000
     14 ****         2.5363  -0.5823   0.1507 N.pl3          1 S1                 0.0000
     15 ****         3.9698  -0.3546   0.0965 C.3            1 S1                 0.0000
     16 ****         4.3987   0.8914   0.8971 C.3            1 S1                 0.0000
     17 ****         4.0152   0.7290   2.2499 O.3            1 S1                 0.0000
     18 ****         5.9190   1.1306   0.8377 C.3            1 S1                 0.0000
     19 ****         6.3905   2.3882   1.5686 C.3            1 S1                 0.0000
     20 ****         7.7190   2.6497   0.8971 C.3            1 S1                 0.0000
     21 ****         7.4254   2.2656  -0.5511 C.3            1 S1                 0.0000
     22 ****         6.3429   1.3384  -0.5071 O.3            1 S1                 0.0000
     23 ****        -2.9256  -0.8099  -1.6282 C.3            1 S1                 0.0000
     24 ****        -4.4354  -0.8107  -1.2922 C.3            1 S1                 0.0000
     25 ****        -5.2416  -1.4925  -2.3936 C.3            1 S1                 0.0000
     26 ****        -5.7139  -0.3309  -3.2544 C.3            1 S1                 0.0000
     27 ****        -6.0418   0.6470  -2.2856 O.3            1 S1                 0.0000
     28 ****        -5.0506   0.6088  -1.2651 C.3            1 S1                 0.0000
     29 ****        -4.6577  -1.5392  -0.0809 O.3            1 S1                 0.0000
     30 ****        -5.9730  -2.3995   3.5569 H              1 S1                 0.0000
     31 ****        -6.4304  -2.0931   1.8846 H              1 S1                 0.0000
     32 ****        -5.9904  -0.7500   2.9391 H              1 S1                 0.0000
     33 ****        -3.6547  -1.6558   3.1071 H              1 S1                 0.0000
     34 ****        -4.0733  -2.9786   2.0479 H              1 S1                 0.0000
     35 ****        -4.1978  -0.0322   1.2686 H              1 S1                 0.0000
     36 ****        -1.8606  -0.7054   1.5748 H              1 S1                 0.0000
     37 ****        -2.1017  -2.1586   0.6082 H              1 S1                 0.0000
     38 ****         0.5524   2.2823  -2.6650 H              1 S1                 0.0000
     39 ****         2.3905  -2.1897   1.5854 H              1 S1                 0.0000
     40 ****         4.4792  -1.2441   0.4701 H              1 S1                 0.0000
     41 ****         4.2552  -0.2498  -0.9509 H              1 S1                 0.0000
     42 ****         3.8813   1.7675   0.5037 H              1 S1                 0.0000
     43 ****         4.4766  -0.0153   2.6048 H              1 S1                 0.0000
     44 ****         6.4561   0.2642   1.2281 H              1 S1                 0.0000
     45 ****         5.7085   3.2199   1.3850 H              1 S1                 0.0000
     46 ****         6.4782   2.2478   2.6464 H              1 S1                 0.0000
     47 ****         8.0613   3.6793   1.0052 H              1 S1                 0.0000
     48 ****         8.4818   1.9902   1.3133 H              1 S1                 0.0000
     49 ****         7.1107   3.1378  -1.1248 H              1 S1                 0.0000
     50 ****         8.2962   1.8329  -1.0443 H              1 S1                 0.0000
     51 ****        -2.7440  -0.1882  -2.5056 H              1 S1                 0.0000
     52 ****        -2.6027  -1.8184  -1.8906 H              1 S1                 0.0000
     53 ****        -4.6777  -2.2375  -2.9557 H              1 S1                 0.0000
     54 ****        -6.1127  -1.9925  -1.9671 H              1 S1                 0.0000
     55 ****        -4.9127   0.0366  -3.8977 H              1 S1                 0.0000
     56 ****        -6.5718  -0.5865  -3.8765 H              1 S1                 0.0000
     57 ****        -5.5210   0.8533  -0.3133 H              1 S1                 0.0000
     58 ****        -4.2985   1.3725  -1.4676 H              1 S1                 0.0000
     59 ****        -2.4861   0.5270  -0.2330 LP             1 S1                 0.0000
     60 ****        -1.5025   1.4223  -2.0903 LP             1 S1                 0.0000
     61 ****         2.5764   1.4821  -1.7244 LP             1 S1                 0.0000
     62 ****        -0.0811  -2.1095   1.2502 LP             1 S1                 0.0000
     63 ****         3.0291   0.5721   2.3045 LP             1 S1                 0.0000
     64 ****         4.2512   1.5509   2.7684 LP             1 S1                 0.0000
     65 ****         5.5784   1.6993  -1.0413 LP             1 S1                 0.0000
     66 ****         6.6399   0.4668  -0.8971 LP             1 S1                 0.0000
     67 ****        -6.9398   0.4477  -1.8934 LP             1 S1                 0.0000
     68 ****        -6.0568   1.5525  -2.7097 LP             1 S1                 0.0000
     69 ****        -5.6322  -1.4885   0.1377 LP             1 S1                 0.0000
     70 ****        -4.4009  -2.4924  -0.2401 LP             1 S1                 0.0000
@<TRIPOS>BOND
    1    1    2 1     
    2    1   30 1     
    3    1   31 1     
    4    1   32 1     
    5    2    3 1     
    6    2   33 1     
    7    2   34 1     
    8    3   29 1     
    9    3    4 1     
   10    3   35 1     
   11    4    5 1     
   12    4   36 1     
   13    4   37 1     
   14    5    6 1     
   15    5   23 1     
   16    6   11 ar    
   17    6    7 ar    
   18    7    8 ar    
   19    8    9 ar    
   20    8   38 1     
   21    9   10 ar    
   22   10   14 1     
   23   10   11 ar    
   24   11   12 1     
   25   12   13 2     
   26   13   14 1     
   27   13   39 1     
   28   14   15 1     
   29   15   16 1     
   30   15   40 1     
   31   15   41 1     
   32   16   17 1     
   33   16   18 1     
   34   16   42 1     
   35   17   43 1     
   36   18   22 1     
   37   18   19 1     
   38   18   44 1     
   39   19   20 1     
   40   19   45 1     
   41   19   46 1     
   42   20   21 1     
   43   20   47 1     
   44   20   48 1     
   45   21   22 1     
   46   21   49 1     
   47   21   50 1     
   48   23   24 1     
   49   23   51 1     
   50   23   52 1     
   51   24   28 1     
   52   24   25 1     
   53   24   29 1     
   54   25   26 1     
   55   25   53 1     
   56   25   54 1     
   57   26   27 1     
   58   26   55 1     
   59   26   56 1     
   60   27   28 1     
   61   28   57 1     
   62   28   58 1     
   63    5   59 1     
   64    7   60 1     
   65    9   61 1     
   66   12   62 1     
   67   17   63 1     
   68   17   64 1     
   69   22   65 1     
   70   22   66 1     
   71   27   67 1     
   72   27   68 1     
   73   29   69 1     
   74   29   70 1     
@<TRIPOS>SUBSTRUCTURE
      1 S1             1
@<TRIPOS>SET
LONE_PAIRS      STATIC     ATOMS    <user>   **** ""
12 59 60 61 62 63 64 65 66 67 68 69 70
DONOR_HYDROGENS      STATIC     ATOMS    <user>   **** ""
1 43
ATOM$BLUE        STATIC     ATOMS    COLORGROUP SYSTEM
12 59 60 61 62 63 64 65 66 67 68 69 70
ATOM$RED        STATIC     ATOMS    COLORGROUP SYSTEM
1 43
