AV-unprocessed.smi:3044|AV-procd|sdf|11606|dock1
  -GOLD-   2272016583D 1   1.00000     0.00000
 Structure written by MMmdl.
 41 42  0  0  0  0  0  0  0  0  1 V2000
  151.6123  141.5845  156.1947 C   0  0  0  0  0  0  0  0  0  0  0  0
  151.9078  140.1637  155.7451 C   0  0  0  0  0  0  0  0  0  0  0  0
  151.6643  139.9075  154.4402 N   0  0  0  0  0  0  0  0  0  0  0  0
  151.9098  138.6645  153.9766 C   0  0  0  0  0  0  0  0  0  0  0  0
  152.4139  137.6269  154.7826 C   0  0  0  0  0  0  0  0  0  0  0  0
  152.6656  137.8944  156.1413 C   0  0  0  0  0  0  0  0  0  0  0  0
  152.3965  139.1885  156.6494 C   0  0  0  0  0  0  0  0  0  0  0  0
  152.6332  139.5571  158.0025 N   0  0  0  0  0  0  0  0  0  0  0  0
  152.9113  138.7604  159.0506 C   0  0  0  0  0  0  0  0  0  0  0  0
  153.0365  137.5378  158.9920 O   0  0  0  0  0  0  0  0  0  0  0  0
  153.0575  139.4698  160.4002 C   0  0  0  0  0  0  0  0  0  0  0  0
  154.0619  140.4796  160.3395 O   0  0  0  0  0  0  0  0  0  0  0  0
  153.6135  141.8165  160.5505 C   0  0  1  0  0  0  0  0  0  0  0  0
  152.3995  142.0603  159.6393 C   0  0  0  0  0  0  0  0  0  0  0  0
  151.7827  143.4440  159.8946 C   0  0  0  0  0  0  0  0  0  0  0  0
  151.4021  143.6181  161.3737 C   0  0  0  0  0  0  0  0  0  0  0  0
  152.6099  143.3784  162.3002 C   0  0  1  0  0  0  0  0  0  0  0  0
  152.2279  143.5430  163.7781 C   0  0  0  0  0  0  0  0  0  0  0  0
  153.2293  141.9933  162.0317 C   0  0  0  0  0  0  0  0  0  0  0  0
  150.8134  141.5894  156.9355 H   0  0  0  0  0  0  0  0  0  0  0  0
  151.2998  142.2125  155.3596 H   0  0  0  0  0  0  0  0  0  0  0  0
  152.4992  142.0359  156.6397 H   0  0  0  0  0  0  0  0  0  0  0  0
  151.7046  138.4937  152.9300 H   0  0  0  0  0  0  0  0  0  0  0  0
  152.6075  136.6491  154.3670 H   0  0  0  0  0  0  0  0  0  0  0  0
  153.0720  137.1102  156.7612 H   0  0  0  0  0  0  0  0  0  0  0  0
  152.4766  140.5304  158.2220 H   0  0  0  0  0  0  0  0  0  0  0  0
  152.1054  139.8925  160.7254 H   0  0  0  0  0  0  0  0  0  0  0  0
  153.3500  138.7340  161.1497 H   0  0  0  0  0  0  0  0  0  0  0  0
  154.3873  142.5433  160.2943 H   0  0  0  0  0  0  0  0  0  0  0  0
  152.6959  141.9731  158.5936 H   0  0  0  0  0  0  0  0  0  0  0  0
  151.6474  141.2898  159.8138 H   0  0  0  0  0  0  0  0  0  0  0  0
  152.4929  144.2198  159.6055 H   0  0  0  0  0  0  0  0  0  0  0  0
  150.9026  143.5802  159.2656 H   0  0  0  0  0  0  0  0  0  0  0  0
  151.0024  144.6205  161.5323 H   0  0  0  0  0  0  0  0  0  0  0  0
  150.6000  142.9231  161.6259 H   0  0  0  0  0  0  0  0  0  0  0  0
  153.3637  144.1328  162.0705 H   0  0  0  0  0  0  0  0  0  0  0  0
  151.4795  142.8090  164.0784 H   0  0  0  0  0  0  0  0  0  0  0  0
  151.8169  144.5345  163.9697 H   0  0  0  0  0  0  0  0  0  0  0  0
  153.0969  143.4163  164.4245 H   0  0  0  0  0  0  0  0  0  0  0  0
  152.5244  141.2127  162.3213 H   0  0  0  0  0  0  0  0  0  0  0  0
  154.1104  141.8621  162.6594 H   0  0  0  0  0  0  0  0  0  0  0  0
  1  2  1  0  0  0  0
  1 20  1  0  0  0  0
  1 21  1  0  0  0  0
  1 22  1  0  0  0  0
  2  7  1  0  0  0  0
  2  3  2  0  0  0  0
  3  4  1  0  0  0  0
  4  5  2  0  0  0  0
  4 23  1  0  0  0  0
  5  6  1  0  0  0  0
  5 24  1  0  0  0  0
  6  7  2  0  0  0  0
  6 25  1  0  0  0  0
  7  8  1  0  0  0  0
  8  9  1  0  0  0  0
  8 26  1  0  0  0  0
  9 10  2  0  0  0  0
  9 11  1  0  0  0  0
 11 12  1  0  0  0  0
 11 27  1  0  0  0  0
 11 28  1  0  0  0  0
 12 13  1  0  0  0  0
 13 19  1  0  0  0  0
 13 14  1  0  0  0  0
 13 29  1  0  0  0  0
 14 15  1  0  0  0  0
 14 30  1  0  0  0  0
 14 31  1  0  0  0  0
 15 16  1  0  0  0  0
 15 32  1  0  0  0  0
 15 33  1  0  0  0  0
 16 17  1  0  0  0  0
 16 34  1  0  0  0  0
 16 35  1  0  0  0  0
 17 18  1  0  0  0  0
 17 19  1  0  0  0  0
 17 36  1  0  0  0  0
 18 37  1  0  0  0  0
 18 38  1  0  0  0  0
 18 39  1  0  0  0  0
 19 40  1  0  0  0  0
 19 41  1  0  0  0  0
M  END
> <s_m_source_file>
AV-unprocessed.smi

> <i_m_source_file_index>
3044

> <i_lp_mmshare_version>
43012

> <i_f3d_flags>
0

> <s_epik_input>
W0NIM11jMW5bY0hdW2NIXVtjSF1jMVtOSF1DKD1PKVtDSDJdT1tDQEBIXTJbQ0gyXVtDSDJdW0NIMl1bQ0BASF0oW0NIM10pW0NIMl0y

> <s_epik_cmdline>
J2VwaWtfcHl0aG9uJywgJy1waCcsICc3LjAnLCAnLXRuJywgJzgnLCAnLW1hJywgJzIwMCcsICctbWV0YWxfYmluZGluZycsICctaW1hZScsICc8aW5maWxlLm1hZT4nLCAnLW9tYWUnLCAnPG91dGZpbGUubWFlPic=

> <r_epik_Ionization_Penalty>
0.0077122

> <r_epik_Ionization_Penalty_Charging>
0

> <r_epik_Ionization_Penalty_Neutral>
0.0077122

> <r_epik_State_Penalty>
0.00577497

> <r_epik_Charging_Adjusted_Penalty>
0.00577497

> <i_epik_Tot_Q>
0

> <i_epik_Tot_abs_Q>
0

> <r_epik_Metal_State_Penalty>
-0

> <b_epik_Metal_Only>
0

> <s_lp_Force_Field>
OPLS_2005

> <r_lp_Energy>
17.5643

> <b_lp_Chiralities_Consistent>
1

> <s_lp_Variant>
AV-unprocessed.smi:3044-2

> <Gold.Version>
5.8.1

> <Gold.Id.Protein>
6NUR|6NUR_protein|mol2

> <Gold.PLP.Fitness>
47.6090

> <Gold.PLP.PLP>
-38.3236

> <Gold.PLP.part.hbond>
-2.0000

> <Gold.PLP.part.metal>
0.0000

> <Gold.PLP.part.buried>
-4.7897

> <Gold.PLP.part.nonpolar>
-31.9797

> <Gold.PLP.part.repulsive>
0.1949

> <Gold.PLP.ligand.clash>
0.0017

> <Gold.PLP.ligand.torsion>
0.4691

> <Gold.PLP.Chemscore.Hbond>
1.4186

> <Gold.PLP.Chemscore.CHOScore>
1.9746

> <Gold.PLP.Chemscore.Metal>
0.0000

> <Gold.Chemscore.Hbonds>
donor molecule, donor type, donor heavy atom, donor atom, acceptor molecule, acceptor atom, score
      P1  H  7989  7998       L1     3  0.52
      L1  C     4    23       P1  7949  0.01

> <Gold.PLP.Chemscore.Internal.Correction>
0.0458

> <Gold.Rescore>
     Score         DG    S(hbond)    S(metal)    S(lipo)     H(rot)  DE(clash)    DE(int)     intcor
     17.56     -19.60       1.03        0.00     119.84       1.31       0.40       1.64       ----

> <Gold.Chemscore.Fitness>
17.5597

> <Gold.Chemscore.DG>
-19.6027

> <Gold.Chemscore.ZeroCoef>
-5.4800

> <Gold.Chemscore.Hbond>
1.0318

> <Gold.Chemscore.Metal>
0.0000

> <Gold.Chemscore.Lipo>
119.8364

> <Gold.Chemscore.Internal_Hbond>
0.0000

> <Gold.Chemscore.DEClash>
0.3998

> <Gold.Chemscore.DEInternal>
1.6432

> <Gold.Chemscore.Rot>
1.3064

> <Gold.Chemscore.Internal.Correction>
   9.000000E+99

> <Gold.Chemscore.Hbonds>
donor molecule, donor type, donor heavy atom, donor atom, acceptor molecule, acceptor atom, score
      P1  H  7989  7998       L1     3  0.45

> <Gold.Chemscore.Hbond.Weighted>
-3.4461

> <Gold.Chemscore.Metal.Weighted>
-0.0000

> <Gold.Chemscore.Lipo.Weighted>
-14.0209

> <Gold.Chemscore.Internal_Hbond.Weighted>
0.0000

> <Gold.Chemscore.DEClash.Weighted>
0.3998

> <Gold.Chemscore.DEInternal.Weighted>
1.6432

> <Gold.Chemscore.Rot.Weighted>
3.3443

> <Gold.Chemscore.Internal.Correction.Weighted>
   9.000000E+99

> <Gold.Protein.RotatedTorsions>
[ 6907 6896 6895 6894 ] final  126.85 input  -60.11 | X-H torsion
[ 7974 7965 7964 7962 ] final  -74.46 input  175.53 | X-H torsion
[ 8008 7997 7996 7995 ] final  144.27 input   59.86 | X-H torsion
[ 10167 10162 10161 10158 ] final  175.35 input  -65.29 | X-H torsion
[ 10718 10713 10712 10709 ] final   80.12 input   66.30 | X-H torsion
[ 10763 10752 10751 10750 ] final  -13.51 input  -60.55 | X-H torsion
[ 11005 11000 10999 10996 ] final  -38.55 input  -57.11 | X-H torsion

> <Gold.Protein.ActiveResidues>
 VAL166  LYS551  ARG553  GLY616  TRP617  ASP618  TYR619  PRO620  LYS621  CYS622 
 ASP623  PHE694  ASN695  SER759  ASP760  ASP761  ALA762  ILE779  LEU786  VAL792 
 PHE793  MET794  SER795  GLU796  ALA797  LYS798  CYS799  TRP800  GLU811  SER814 

> <Gold.Protein.RotatedAtoms>
  152.3866  133.6620  159.6203 H   0  0  0  0  0  0  0  0  0  0  0  0  # atno 6907 bound_to 6896
  150.7784  133.9025  159.3354 H   0  0  0  0  0  0  0  0  0  0  0  0  # atno 6908 bound_to 6896
  151.6820  135.0961  160.0269 H   0  0  0  0  0  0  0  0  0  0  0  0  # atno 6909 bound_to 6896
  145.6388  140.9317  143.1047 H   0  0  0  0  0  0  0  0  0  0  0  0  # atno 7974 bound_to 7965
  156.2912  140.2240  156.5027 H   0  0  0  0  0  0  0  0  0  0  0  0  # atno 8008 bound_to 7997
  154.7676  140.0469  157.1046 H   0  0  0  0  0  0  0  0  0  0  0  0  # atno 8009 bound_to 7997
  154.9913  140.3090  155.4908 H   0  0  0  0  0  0  0  0  0  0  0  0  # atno 8010 bound_to 7997
  139.5174  144.3042  152.0351 H   0  0  0  0  0  0  0  0  0  0  0  0  # atno 10167 bound_to 10162
  157.6797  130.9945  150.2032 H   0  0  0  0  0  0  0  0  0  0  0  0  # atno 10718 bound_to 10713
  153.5144  135.7016  153.5764 H   0  0  0  0  0  0  0  0  0  0  0  0  # atno 10763 bound_to 10752
  153.3840  135.3913  155.1877 H   0  0  0  0  0  0  0  0  0  0  0  0  # atno 10764 bound_to 10752
  154.8700  135.3842  154.4627 H   0  0  0  0  0  0  0  0  0  0  0  0  # atno 10765 bound_to 10752
  141.0036  133.6943  156.2068 H   0  0  0  0  0  0  0  0  0  0  0  0  # atno 11005 bound_to 11000
  144.7165  139.8178  143.7397 LP  0  0  0  0  0  0  0  0  0  0  0  0  # atno 17320 bound_to 7965
  146.1298  139.4331  143.0176 LP  0  0  0  0  0  0  0  0  0  0  0  0  # atno 17321 bound_to 7965
  140.2488  144.4191  150.6230 LP  0  0  0  0  0  0  0  0  0  0  0  0  # atno 17342 bound_to 10162
  140.6239  143.2179  151.6637 LP  0  0  0  0  0  0  0  0  0  0  0  0  # atno 17343 bound_to 10162
  156.2718  130.3723  149.8023 LP  0  0  0  0  0  0  0  0  0  0  0  0  # atno 17370 bound_to 10713
  156.5738  130.8436  151.3364 LP  0  0  0  0  0  0  0  0  0  0  0  0  # atno 17371 bound_to 10713
  140.6849  134.4727  157.5589 LP  0  0  0  0  0  0  0  0  0  0  0  0  # atno 17394 bound_to 11000
  139.9051  134.8466  156.1737 LP  0  0  0  0  0  0  0  0  0  0  0  0  # atno 17395 bound_to 11000

$$$$
