AV-unprocessed.smi:2860|AV-procd|sdf|11006|dock5
  -GOLD-   2272015463D 1   1.00000     0.00000
 Structure written by MMmdl.
 45 46  0  0  0  0  0  0  0  0  1 V2000
  147.1592  127.9040  151.6296 C   0  0  0  0  0  0  0  0  0  0  0  0
  146.7331  129.2403  152.2518 C   0  0  0  0  0  0  0  0  0  0  0  0
  146.6806  130.2995  151.2517 N   0  0  0  0  0  0  0  0  0  0  0  0
  145.6542  131.1473  151.0795 C   0  0  0  0  0  0  0  0  0  0  0  0
  144.6430  131.1407  151.7809 O   0  0  0  0  0  0  0  0  0  0  0  0
  145.7840  132.1514  149.9335 C   0  0  0  0  0  0  0  0  0  0  0  0
  145.4707  133.4957  150.3838 N   0  0  0  0  0  0  0  0  0  0  0  0
  144.2553  134.1514  150.3472 C   0  0  0  0  0  0  0  0  0  0  0  0
  144.4388  135.3896  150.8939 C   0  0  0  0  0  0  0  0  0  0  0  0
  145.8190  135.3946  151.2354 C   0  0  0  0  0  0  0  0  0  0  0  0
  146.4071  136.5299  151.8481 N   0  0  0  0  0  0  0  0  0  0  0  0
  145.7835  137.6140  152.3440 C   0  0  0  0  0  0  0  0  0  0  0  0
  144.5617  137.7329  152.4354 O   0  0  0  0  0  0  0  0  0  0  0  0
  146.7236  138.6446  152.8813 C   0  0  0  0  0  0  0  0  0  0  0  0
  147.5893  138.3250  154.0995 C   0  0  0  0  0  0  0  0  0  0  0  0
  147.5305  136.9917  154.8454 C   0  0  0  0  0  0  0  0  0  0  0  0
  149.0367  138.7991  154.0910 C   0  0  0  0  0  0  0  0  0  0  0  0
  146.4395  139.3263  154.2172 C   0  0  0  0  0  0  0  0  0  0  0  0
  146.7156  140.8196  154.3298 C   0  0  0  0  0  0  0  0  0  0  0  0
  145.2080  139.0022  155.0637 C   0  0  0  0  0  0  0  0  0  0  0  0
  146.4387  134.2628  150.9315 N   0  0  0  0  0  0  0  0  0  0  0  0
  147.2233  127.1257  152.3899 H   0  0  0  0  0  0  0  0  0  0  0  0
  148.1367  127.9852  151.1533 H   0  0  0  0  0  0  0  0  0  0  0  0
  146.4453  127.5712  150.8753 H   0  0  0  0  0  0  0  0  0  0  0  0
  145.7671  129.1384  152.7490 H   0  0  0  0  0  0  0  0  0  0  0  0
  147.4487  129.5328  153.0203 H   0  0  0  0  0  0  0  0  0  0  0  0
  147.4735  130.3815  150.6318 H   0  0  0  0  0  0  0  0  0  0  0  0
  146.7979  132.1296  149.5303 H   0  0  0  0  0  0  0  0  0  0  0  0
  145.1090  131.8851  149.1190 H   0  0  0  0  0  0  0  0  0  0  0  0
  143.3693  133.6840  149.9433 H   0  0  0  0  0  0  0  0  0  0  0  0
  143.7013  136.1668  151.0292 H   0  0  0  0  0  0  0  0  0  0  0  0
  147.4157  136.5352  151.8853 H   0  0  0  0  0  0  0  0  0  0  0  0
  147.2114  139.2362  152.1084 H   0  0  0  0  0  0  0  0  0  0  0  0
  147.8420  137.1279  155.8812 H   0  0  0  0  0  0  0  0  0  0  0  0
  148.1992  136.2679  154.3785 H   0  0  0  0  0  0  0  0  0  0  0  0
  146.5338  136.5550  154.8507 H   0  0  0  0  0  0  0  0  0  0  0  0
  149.3525  139.0671  155.0995 H   0  0  0  0  0  0  0  0  0  0  0  0
  149.1721  139.6662  153.4457 H   0  0  0  0  0  0  0  0  0  0  0  0
  149.6937  138.0119  153.7196 H   0  0  0  0  0  0  0  0  0  0  0  0
  147.0305  141.0696  155.3433 H   0  0  0  0  0  0  0  0  0  0  0  0
  145.8181  141.3929  154.0947 H   0  0  0  0  0  0  0  0  0  0  0  0
  147.4945  141.1376  153.6379 H   0  0  0  0  0  0  0  0  0  0  0  0
  145.4197  139.1843  156.1177 H   0  0  0  0  0  0  0  0  0  0  0  0
  144.8853  137.9680  154.9589 H   0  0  0  0  0  0  0  0  0  0  0  0
  144.3690  139.6331  154.7690 H   0  0  0  0  0  0  0  0  0  0  0  0
  1  2  1  0  0  0  0
  1 22  1  0  0  0  0
  1 23  1  0  0  0  0
  1 24  1  0  0  0  0
  2  3  1  0  0  0  0
  2 25  1  0  0  0  0
  2 26  1  0  0  0  0
  3  4  1  0  0  0  0
  3 27  1  0  0  0  0
  4  5  2  0  0  0  0
  4  6  1  0  0  0  0
  6  7  1  0  0  0  0
  6 28  1  0  0  0  0
  6 29  1  0  0  0  0
  7 21  1  0  0  0  0
  7  8  1  0  0  0  0
  8  9  2  0  0  0  0
  8 30  1  0  0  0  0
  9 10  1  0  0  0  0
  9 31  1  0  0  0  0
 10 11  1  0  0  0  0
 10 21  2  0  0  0  0
 11 12  1  0  0  0  0
 11 32  1  0  0  0  0
 12 13  2  0  0  0  0
 12 14  1  0  0  0  0
 14 18  1  0  0  0  0
 14 15  1  0  0  0  0
 14 33  1  0  0  0  0
 15 16  1  0  0  0  0
 15 17  1  0  0  0  0
 15 18  1  0  0  0  0
 16 34  1  0  0  0  0
 16 35  1  0  0  0  0
 16 36  1  0  0  0  0
 17 37  1  0  0  0  0
 17 38  1  0  0  0  0
 17 39  1  0  0  0  0
 18 19  1  0  0  0  0
 18 20  1  0  0  0  0
 19 40  1  0  0  0  0
 19 41  1  0  0  0  0
 19 42  1  0  0  0  0
 20 43  1  0  0  0  0
 20 44  1  0  0  0  0
 20 45  1  0  0  0  0
M  END
> <s_m_source_file>
AV-unprocessed.smi

> <i_m_source_file_index>
2860

> <i_lp_mmshare_version>
43012

> <i_f3d_flags>
0

> <s_epik_input>
W0NIM11bQ0gyXVtOSF1DKD1PKVtDSDJdbjFbY0hdW2NIXWMobjEpW05IXUMoPU8pW0NIXShDMihbQ0gzXSlbQ0gzXSlDMihbQ0gzXSlbQ0gzXQ==

> <s_epik_cmdline>
J2VwaWtfcHl0aG9uJywgJy1waCcsICc3LjAnLCAnLXRuJywgJzgnLCAnLW1hJywgJzIwMCcsICctbWV0YWxfYmluZGluZycsICctaW1hZScsICc8aW5maWxlLm1hZT4nLCAnLW9tYWUnLCAnPG91dGZpbGUubWFlPic=

> <r_lp_tautomer_probability>
1

> <r_epik_Ionization_Penalty>
1.3586e-05

> <r_epik_Ionization_Penalty_Charging>
0

> <r_epik_Ionization_Penalty_Neutral>
1.3586e-05

> <r_epik_State_Penalty>
-0

> <r_epik_Charging_Adjusted_Penalty>
0

> <i_epik_Tot_Q>
0

> <i_epik_Tot_abs_Q>
0

> <r_epik_Metal_State_Penalty>
-0

> <b_epik_Metal_Only>
0

> <s_lp_Force_Field>
OPLS_2005

> <r_lp_Energy>
28.3378

> <b_lp_Chiralities_Consistent>
1

> <s_lp_Variant>
AV-unprocessed.smi:2860-1

> <Gold.Version>
5.8.1

> <Gold.Id.Protein>
6NUR|6NUR_protein|mol2

> <Gold.PLP.Fitness>
38.2649

> <Gold.PLP.PLP>
-30.8531

> <Gold.PLP.part.hbond>
-1.7266

> <Gold.PLP.part.metal>
0.0000

> <Gold.PLP.part.buried>
-4.3735

> <Gold.PLP.part.nonpolar>
-28.6022

> <Gold.PLP.part.repulsive>
3.0366

> <Gold.PLP.ligand.clash>
0.0000

> <Gold.PLP.ligand.torsion>
0.8563

> <Gold.PLP.Chemscore.Hbond>
1.9920

> <Gold.PLP.Chemscore.CHOScore>
1.0000

> <Gold.PLP.Chemscore.Metal>
0.0000

> <Gold.Chemscore.Hbonds>
donor molecule, donor type, donor heavy atom, donor atom, acceptor molecule, acceptor atom, score
      L1  H     3    27       P1 10747  1.00
      L1  H    11    32       P1  7948  1.00
      L1  C     8    30       P1 10186  1.00

> <Gold.PLP.Chemscore.Internal.Correction>
0.1484

> <Gold.Rescore>
     Score         DG    S(hbond)    S(metal)    S(lipo)     H(rot)  DE(clash)    DE(int)     intcor
     12.12     -15.73       1.98        0.00      67.84       1.68       0.76       2.85       ----

> <Gold.Chemscore.Fitness>
12.1181

> <Gold.Chemscore.DG>
-15.7288

> <Gold.Chemscore.ZeroCoef>
-5.4800

> <Gold.Chemscore.Hbond>
1.9790

> <Gold.Chemscore.Metal>
0.0000

> <Gold.Chemscore.Lipo>
67.8381

> <Gold.Chemscore.Internal_Hbond>
0.0000

> <Gold.Chemscore.DEClash>
0.7640

> <Gold.Chemscore.DEInternal>
2.8468

> <Gold.Chemscore.Rot>
1.6789

> <Gold.Chemscore.Internal.Correction>
   9.000000E+99

> <Gold.Chemscore.Hbonds>
donor molecule, donor type, donor heavy atom, donor atom, acceptor molecule, acceptor atom, score
      L1  H     3    27       P1 10747  0.96
      L1  H    11    32       P1  7948  0.94

> <Gold.Chemscore.Hbond.Weighted>
-6.6099

> <Gold.Chemscore.Metal.Weighted>
-0.0000

> <Gold.Chemscore.Lipo.Weighted>
-7.9371

> <Gold.Chemscore.Internal_Hbond.Weighted>
0.0000

> <Gold.Chemscore.DEClash.Weighted>
0.7640

> <Gold.Chemscore.DEInternal.Weighted>
2.8468

> <Gold.Chemscore.Rot.Weighted>
4.2981

> <Gold.Chemscore.Internal.Correction.Weighted>
   9.000000E+99

> <Gold.Protein.RotatedTorsions>
[ 6907 6896 6895 6894 ] final -165.00 input  -60.11 | X-H torsion
[ 7974 7965 7964 7962 ] final  -40.60 input  175.53 | X-H torsion
[ 8008 7997 7996 7995 ] final   65.93 input   59.86 | X-H torsion
[ 10167 10162 10161 10158 ] final -172.89 input  -65.29 | X-H torsion
[ 10718 10713 10712 10709 ] final  -54.12 input   66.30 | X-H torsion
[ 10763 10752 10751 10750 ] final   40.00 input  -60.55 | X-H torsion
[ 11005 11000 10999 10996 ] final   88.57 input  -57.11 | X-H torsion

> <Gold.Protein.ActiveResidues>
 VAL166  LYS551  ARG553  GLY616  TRP617  ASP618  TYR619  PRO620  LYS621  CYS622 
 ASP623  PHE694  ASN695  SER759  ASP760  ASP761  ALA762  ILE779  LEU786  VAL792 
 PHE793  MET794  SER795  GLU796  ALA797  LYS798  CYS799  TRP800  GLU811  SER814 

> <Gold.Protein.RotatedAtoms>
  151.4207  133.3699  159.2755 H   0  0  0  0  0  0  0  0  0  0  0  0  # atno 6907 bound_to 6896
  150.9295  134.8712  159.7553 H   0  0  0  0  0  0  0  0  0  0  0  0  # atno 6908 bound_to 6896
  152.5021  134.4151  159.9514 H   0  0  0  0  0  0  0  0  0  0  0  0  # atno 6909 bound_to 6896
  146.0289  140.6757  142.9142 H   0  0  0  0  0  0  0  0  0  0  0  0  # atno 7974 bound_to 7965
  155.6694  140.3497  155.4812 H   0  0  0  0  0  0  0  0  0  0  0  0  # atno 8008 bound_to 7997
  155.9701  140.1154  157.0842 H   0  0  0  0  0  0  0  0  0  0  0  0  # atno 8009 bound_to 7997
  154.4164  140.1158  156.5281 H   0  0  0  0  0  0  0  0  0  0  0  0  # atno 8010 bound_to 7997
  139.5719  144.1622  152.1395 H   0  0  0  0  0  0  0  0  0  0  0  0  # atno 10167 bound_to 10162
  156.1478  130.4152  149.9996 H   0  0  0  0  0  0  0  0  0  0  0  0  # atno 10718 bound_to 10713
  152.9949  135.6204  154.2556 H   0  0  0  0  0  0  0  0  0  0  0  0  # atno 10763 bound_to 10752
  154.2294  135.2793  155.2897 H   0  0  0  0  0  0  0  0  0  0  0  0  # atno 10764 bound_to 10752
  154.5462  135.5746  153.6940 H   0  0  0  0  0  0  0  0  0  0  0  0  # atno 10765 bound_to 10752
  139.8893  134.8496  156.3019 H   0  0  0  0  0  0  0  0  0  0  0  0  # atno 11005 bound_to 11000
  144.7021  140.3700  143.7147 LP  0  0  0  0  0  0  0  0  0  0  0  0  # atno 17320 bound_to 7965
  145.7073  139.1676  143.2559 LP  0  0  0  0  0  0  0  0  0  0  0  0  # atno 17321 bound_to 7965
  140.1157  144.5418  150.6895 LP  0  0  0  0  0  0  0  0  0  0  0  0  # atno 17342 bound_to 10162
  140.7003  143.2430  151.4884 LP  0  0  0  0  0  0  0  0  0  0  0  0  # atno 17343 bound_to 10162
  156.7862  130.9239  151.3646 LP  0  0  0  0  0  0  0  0  0  0  0  0  # atno 17370 bound_to 10713
  157.6631  130.8983  149.9873 LP  0  0  0  0  0  0  0  0  0  0  0  0  # atno 17371 bound_to 10713
  140.9907  133.7210  156.0810 LP  0  0  0  0  0  0  0  0  0  0  0  0  # atno 17394 bound_to 11000
  140.7628  134.3920  157.5522 LP  0  0  0  0  0  0  0  0  0  0  0  0  # atno 17395 bound_to 11000

$$$$
