AV-unprocessed.smi:1005|AV-procd|sdf|4379|dock6
  -GOLD-   22720 2293D 1   1.00000     0.00000
 Structure written by MMmdl.
 58 60  0  0  0  0  0  0  0  0  4 V2000
  152.1974  143.5894  160.4090 C   0  0  0  0  0  0  0  0  0  0  0  0
  151.9840  142.6331  159.2477 C   0  0  0  0  0  0  0  0  0  0  0  0
  151.0440  142.9809  158.2518 C   0  0  0  0  0  0  0  0  0  0  0  0
  150.8742  142.0882  157.2002 C   0  0  0  0  0  0  0  0  0  0  0  0
  150.0412  142.1426  156.0810 N   0  3  0  0  0  0  0  0  0  0  0  0
  150.2269  141.0281  155.3209 C   0  0  0  0  0  0  0  0  0  0  0  0
  151.1701  140.2632  155.9358 N   0  0  0  0  0  0  0  0  0  0  0  0
  151.7313  138.9642  155.5350 C   0  0  0  0  0  0  0  0  0  0  0  0
  150.8147  138.1846  154.5706 C   0  0  1  0  0  0  0  0  0  0  0  0
  151.5371  137.1179  153.9869 O   0  0  0  0  0  0  0  0  0  0  0  0
  149.5835  137.6058  155.2975 C   0  0  0  0  0  0  0  0  0  0  0  0
  149.0626  136.3702  154.6577 N   0  3  1  0  0  0  0  0  0  0  0  0
  149.6499  135.1405  155.2393 C   0  0  0  0  0  0  0  0  0  0  0  0
  149.1359  133.8985  154.4941 C   0  0  0  0  0  0  0  0  0  0  0  0
  147.7144  133.8707  154.5427 O   0  0  0  0  0  0  0  0  0  0  0  0
  147.1263  135.0002  153.9051 C   0  0  1  0  0  0  0  0  0  0  0  0
  145.5962  134.8293  153.9519 C   0  0  0  0  0  0  0  0  0  0  0  0
  144.8940  135.6535  152.9346 N   0  3  0  0  0  0  0  0  0  0  0  0
  145.4861  135.5475  151.5806 C   0  0  0  0  0  0  0  0  0  0  0  0
  144.7599  137.0654  153.3568 C   0  0  0  0  0  0  0  0  0  0  0  0
  147.5813  136.2756  154.6440 C   0  0  0  0  0  0  0  0  0  0  0  0
  151.5992  140.8832  157.1165 C   0  0  0  0  0  0  0  0  0  0  0  0
  152.5270  140.5241  158.0920 C   0  0  0  0  0  0  0  0  0  0  0  0
  152.7145  141.4191  159.1697 C   0  0  0  0  0  0  0  0  0  0  0  0
  153.7213  141.0542  160.2473 C   0  0  0  0  0  0  0  0  0  0  0  0
  151.5966  144.4926  160.2983 H   0  0  0  0  0  0  0  0  0  0  0  0
  153.2428  143.8923  160.4703 H   0  0  0  0  0  0  0  0  0  0  0  0
  151.9176  143.1160  161.3503 H   0  0  0  0  0  0  0  0  0  0  0  0
  150.4830  143.9025  158.3060 H   0  0  0  0  0  0  0  0  0  0  0  0
  149.7164  140.7947  154.3975 H   0  0  0  0  0  0  0  0  0  0  0  0
  152.7224  139.1168  155.1072 H   0  0  0  0  0  0  0  0  0  0  0  0
  151.8814  138.3876  156.4486 H   0  0  0  0  0  0  0  0  0  0  0  0
  150.5037  138.8592  153.7737 H   0  0  0  0  0  0  0  0  0  0  0  0
  151.1166  136.8800  153.1740 H   0  0  0  0  0  0  0  0  0  0  0  0
  149.8655  137.3860  156.3287 H   0  0  0  0  0  0  0  0  0  0  0  0
  148.7862  138.3486  155.3522 H   0  0  0  0  0  0  0  0  0  0  0  0
  150.7380  135.1800  155.1749 H   0  0  0  0  0  0  0  0  0  0  0  0
  149.3928  135.0758  156.2979 H   0  0  0  0  0  0  0  0  0  0  0  0
  149.4779  133.8950  153.4578 H   0  0  0  0  0  0  0  0  0  0  0  0
  149.5236  132.9926  154.9604 H   0  0  0  0  0  0  0  0  0  0  0  0
  147.4660  135.0540  152.8702 H   0  0  0  0  0  0  0  0  0  0  0  0
  145.3660  133.7751  153.7889 H   0  0  0  0  0  0  0  0  0  0  0  0
  145.2116  135.0754  154.9431 H   0  0  0  0  0  0  0  0  0  0  0  0
  146.5176  135.9025  151.5764 H   0  0  0  0  0  0  0  0  0  0  0  0
  144.9199  136.1474  150.8673 H   0  0  0  0  0  0  0  0  0  0  0  0
  145.4767  134.5212  151.2161 H   0  0  0  0  0  0  0  0  0  0  0  0
  145.7378  137.5365  153.4632 H   0  0  0  0  0  0  0  0  0  0  0  0
  144.2387  137.1375  154.3119 H   0  0  0  0  0  0  0  0  0  0  0  0
  144.1839  137.6343  152.6258 H   0  0  0  0  0  0  0  0  0  0  0  0
  147.2080  136.2713  155.6696 H   0  0  0  0  0  0  0  0  0  0  0  0
  147.1505  137.1467  154.1519 H   0  0  0  0  0  0  0  0  0  0  0  0
  153.0880  139.6033  158.0338 H   0  0  0  0  0  0  0  0  0  0  0  0
  154.1492  140.0661  160.0760 H   0  0  0  0  0  0  0  0  0  0  0  0
  153.2472  141.0438  161.2289 H   0  0  0  0  0  0  0  0  0  0  0  0
  154.5396  141.7745  160.2647 H   0  0  0  0  0  0  0  0  0  0  0  0
  143.9515  135.2945  152.8734 H   0  0  0  0  0  0  0  0  0  0  0  0
  149.3697  136.4020  153.6953 H   0  0  0  0  0  0  0  0  0  0  0  0
  149.3908  142.8836  155.8517 H   0  0  0  0  0  0  0  0  0  0  0  0
  1  2  1  0  0  0  0
  1 26  1  0  0  0  0
  1 27  1  0  0  0  0
  1 28  1  0  0  0  0
  2 24  1  0  0  0  0
  2  3  2  0  0  0  0
  3  4  1  0  0  0  0
  3 29  1  0  0  0  0
  4 22  2  0  0  0  0
  4  5  1  0  0  0  0
  5  6  2  0  0  0  0
  5 58  1  0  0  0  0
  6  7  1  0  0  0  0
  6 30  1  0  0  0  0
  7  8  1  0  0  0  0
  7 22  1  0  0  0  0
  8  9  1  0  0  0  0
  8 31  1  0  0  0  0
  8 32  1  0  0  0  0
  9 10  1  0  0  0  0
  9 11  1  0  0  0  0
  9 33  1  0  0  0  0
 10 34  1  0  0  0  0
 11 12  1  0  0  0  0
 11 35  1  0  0  0  0
 11 36  1  0  0  0  0
 12 21  1  0  0  0  0
 12 13  1  0  0  0  0
 12 57  1  0  0  0  0
 13 14  1  0  0  0  0
 13 37  1  0  0  0  0
 13 38  1  0  0  0  0
 14 15  1  0  0  0  0
 14 39  1  0  0  0  0
 14 40  1  0  0  0  0
 15 16  1  0  0  0  0
 16 17  1  0  0  0  0
 16 21  1  0  0  0  0
 16 41  1  0  0  0  0
 17 18  1  0  0  0  0
 17 42  1  0  0  0  0
 17 43  1  0  0  0  0
 18 19  1  0  0  0  0
 18 20  1  0  0  0  0
 18 56  1  0  0  0  0
 19 44  1  0  0  0  0
 19 45  1  0  0  0  0
 19 46  1  0  0  0  0
 20 47  1  0  0  0  0
 20 48  1  0  0  0  0
 20 49  1  0  0  0  0
 21 50  1  0  0  0  0
 21 51  1  0  0  0  0
 22 23  1  0  0  0  0
 23 24  2  0  0  0  0
 23 52  1  0  0  0  0
 24 25  1  0  0  0  0
 25 53  1  0  0  0  0
 25 54  1  0  0  0  0
 25 55  1  0  0  0  0
M  CHG  1   5   1
M  CHG  1  12   1
M  CHG  1  18   1
M  END
> <s_m_source_file>
AV-unprocessed.smi

> <i_m_source_file_index>
1005

> <i_lp_mmshare_version>
43012

> <i_f3d_flags>
0

> <s_epik_input>
W0NIM11jKFtjSF0xKWMoW0NIM10pW2NIXWMoYzEyKW4oW2NIXW4yKVtDSDJdW0NASF0oW09IXSlbQ0gyXU4zW0NIMl1bQ0gyXU9bQ0BIXShbQ0gyXTMpW0NIMl1OKFtDSDNdKVtDSDNd

> <s_epik_cmdline>
J2VwaWtfcHl0aG9uJywgJy1waCcsICc3LjAnLCAnLXRuJywgJzgnLCAnLW1hJywgJzIwMCcsICctbWV0YWxfYmluZGluZycsICctaW1hZScsICc8aW5maWxlLm1hZT4nLCAnLW9tYWUnLCAnPG91dGZpbGUubWFlPic=

> <r_epik_Ionization_Penalty>
2.30802

> <r_epik_Ionization_Penalty_Charging>
2.30798

> <r_epik_Ionization_Penalty_Neutral>
3.4851e-05

> <r_epik_State_Penalty>
2.52618

> <r_epik_Charging_Adjusted_Penalty>
4.83416

> <i_epik_Tot_Q>
3

> <i_epik_Tot_abs_Q>
3

> <r_epik_Metal_State_Penalty>
6.53149

> <b_epik_Metal_Only>
0

> <s_lp_Force_Field>
OPLS_2005

> <r_lp_Energy>
42.4596

> <b_lp_Chiralities_Consistent>
1

> <s_lp_Variant>
AV-unprocessed.smi:1005-18

> <Gold.Version>
5.8.1

> <Gold.Id.Protein>
6NUR|6NUR_protein|mol2

> <Gold.PLP.Fitness>
58.7194

> <Gold.PLP.PLP>
-43.7201

> <Gold.PLP.part.hbond>
-4.0000

> <Gold.PLP.part.metal>
0.0000

> <Gold.PLP.part.buried>
-2.6628

> <Gold.PLP.part.nonpolar>
-36.2815

> <Gold.PLP.part.repulsive>
0.1787

> <Gold.PLP.ligand.clash>
0.0000

> <Gold.PLP.ligand.torsion>
1.5537

> <Gold.PLP.Chemscore.Hbond>
6.0000

> <Gold.PLP.Chemscore.CHOScore>
0.0000

> <Gold.PLP.Chemscore.Metal>
0.0000

> <Gold.Chemscore.Hbonds>
donor molecule, donor type, donor heavy atom, donor atom, acceptor molecule, acceptor atom, score
      L1  H     5    58       P1  8028  2.00
      L1  H    10    34       P1  7949  0.99
      L1  H    12    57       P1  7948  2.00
      P1  H 10752 10765       L1    10  0.99

> <Gold.PLP.Chemscore.Internal.Correction>
0.1068

> <Gold.Rescore>
     Score         DG    S(hbond)    S(metal)    S(lipo)     H(rot)  DE(clash)    DE(int)     intcor
     18.36     -21.50       2.85        0.00     111.57       2.56       0.37       2.77       ----

> <Gold.Chemscore.Fitness>
18.3589

> <Gold.Chemscore.DG>
-21.4985

> <Gold.Chemscore.ZeroCoef>
-5.4800

> <Gold.Chemscore.Hbond>
2.8473

> <Gold.Chemscore.Metal>
0.0000

> <Gold.Chemscore.Lipo>
111.5674

> <Gold.Chemscore.Internal_Hbond>
0.0000

> <Gold.Chemscore.DEClash>
0.3694

> <Gold.Chemscore.DEInternal>
2.7702

> <Gold.Chemscore.Rot>
2.5566

> <Gold.Chemscore.Internal.Correction>
   9.000000E+99

> <Gold.Chemscore.Hbonds>
donor molecule, donor type, donor heavy atom, donor atom, acceptor molecule, acceptor atom, score
      L1  H     5    58       P1  8028  0.97
      L1  H    10    34       P1  7949  0.42
      L1  H    12    57       P1  7948  0.81
      P1  H 10752 10765       L1    10  0.28

> <Gold.Chemscore.Hbond.Weighted>
-9.5101

> <Gold.Chemscore.Metal.Weighted>
-0.0000

> <Gold.Chemscore.Lipo.Weighted>
-13.0534

> <Gold.Chemscore.Internal_Hbond.Weighted>
0.0000

> <Gold.Chemscore.DEClash.Weighted>
0.3694

> <Gold.Chemscore.DEInternal.Weighted>
2.7702

> <Gold.Chemscore.Rot.Weighted>
6.5450

> <Gold.Chemscore.Internal.Correction.Weighted>
   9.000000E+99

> <Gold.Protein.RotatedTorsions>
[ 6907 6896 6895 6894 ] final  -18.59 input  -60.11 | X-H torsion
[ 7974 7965 7964 7962 ] final   98.66 input  175.53 | X-H torsion
[ 8008 7997 7996 7995 ] final  -58.41 input   59.86 | X-H torsion
[ 10167 10162 10161 10158 ] final  112.10 input  -65.29 | X-H torsion
[ 10718 10713 10712 10709 ] final -116.08 input   66.30 | X-H torsion
[ 10763 10752 10751 10750 ] final  150.57 input  -60.55 | X-H torsion
[ 11005 11000 10999 10996 ] final   86.27 input  -57.11 | X-H torsion

> <Gold.Protein.ActiveResidues>
 VAL166  LYS551  ARG553  GLY616  TRP617  ASP618  TYR619  PRO620  LYS621  CYS622 
 ASP623  PHE694  ASN695  SER759  ASP760  ASP761  ALA762  ILE779  LEU786  VAL792 
 PHE793  MET794  SER795  GLU796  ALA797  LYS798  CYS799  TRP800  GLU811  SER814 

> <Gold.Protein.RotatedAtoms>
  151.2759  135.0699  159.9150 H   0  0  0  0  0  0  0  0  0  0  0  0  # atno 6907 bound_to 6896
  152.5342  134.0082  159.7936 H   0  0  0  0  0  0  0  0  0  0  0  0  # atno 6908 bound_to 6896
  151.0328  133.5725  159.2690 H   0  0  0  0  0  0  0  0  0  0  0  0  # atno 6909 bound_to 6896
  145.4092  139.2336  143.3257 H   0  0  0  0  0  0  0  0  0  0  0  0  # atno 7974 bound_to 7965
  154.4308  140.1085  156.5953 H   0  0  0  0  0  0  0  0  0  0  0  0  # atno 8008 bound_to 7997
  155.5969  140.3493  155.4564 H   0  0  0  0  0  0  0  0  0  0  0  0  # atno 8009 bound_to 7997
  156.0203  140.1238  157.0353 H   0  0  0  0  0  0  0  0  0  0  0  0  # atno 8010 bound_to 7997
  139.6561  144.7129  151.1954 H   0  0  0  0  0  0  0  0  0  0  0  0  # atno 10167 bound_to 10162
  156.0939  130.6116  150.8990 H   0  0  0  0  0  0  0  0  0  0  0  0  # atno 10718 bound_to 10713
  154.0897  135.2853  155.3274 H   0  0  0  0  0  0  0  0  0  0  0  0  # atno 10763 bound_to 10752
  154.6628  135.5328  153.8043 H   0  0  0  0  0  0  0  0  0  0  0  0  # atno 10764 bound_to 10752
  153.0418  135.6538  154.1067 H   0  0  0  0  0  0  0  0  0  0  0  0  # atno 10765 bound_to 10752
  139.8949  134.8344  156.2698 H   0  0  0  0  0  0  0  0  0  0  0  0  # atno 11005 bound_to 11000
  146.2713  140.4801  142.8813 LP  0  0  0  0  0  0  0  0  0  0  0  0  # atno 17320 bound_to 7965
  144.8320  140.6722  143.6285 LP  0  0  0  0  0  0  0  0  0  0  0  0  # atno 17321 bound_to 7965
  140.7560  143.6070  150.8643 LP  0  0  0  0  0  0  0  0  0  0  0  0  # atno 17342 bound_to 10162
  139.9723  143.6043  152.2969 LP  0  0  0  0  0  0  0  0  0  0  0  0  # atno 17343 bound_to 10162
  157.6096  131.0937  150.8819 LP  0  0  0  0  0  0  0  0  0  0  0  0  # atno 17370 bound_to 10713
  156.8961  130.5230  149.5284 LP  0  0  0  0  0  0  0  0  0  0  0  0  # atno 17371 bound_to 10713
  141.0108  133.7096  156.1109 LP  0  0  0  0  0  0  0  0  0  0  0  0  # atno 17394 bound_to 11000
  140.7369  134.4192  157.5559 LP  0  0  0  0  0  0  0  0  0  0  0  0  # atno 17395 bound_to 11000

$$$$
