#       Name:                AV-unprocessed.smi:3019
#       Creating user name   scv26
#       Creation time:       Fri Mar 27 16:42:49 2020


#       File generated by GOLD software.
#

@<TRIPOS>MOLECULE
AV-unprocessed.smi:3019
    35    36     1
SMALL
NO_CHARGES


@<TRIPOS>ATOM
      1 ****        -3.6024   0.9839   1.5006 C.3            1 S1                 0.0000
      2 ****        -3.0900   1.3590   0.1023 C.3            1 S1                 0.0000
      3 ****        -3.7015   0.4725  -0.9925 C.3            1 S1                 0.0000
      4 ****        -1.5929   1.3595   0.0427 C.2            1 S1                 0.0000
      5 ****        -0.8911   2.4644  -0.2195 N.pl3          1 S1                 0.0000
      6 ****         0.4262   2.1705  -0.2170 N.2            1 S1                 0.0000
      7 ****         0.4205   0.8705   0.0745 C.2            1 S1                 0.0000
      8 ****         1.6991   0.0952   0.1435 C.3            1 S1                 0.0000
      9 ****         2.0637  -0.5498  -1.2072 C.3            1 S1                 0.0000
     10 ****         3.2748  -1.3795  -1.0553 N.4            1 S1                 1.0000
     11 ****         3.1142  -2.3794   0.0193 C.3            1 S1                 0.0000
     12 ****         2.7018  -1.6882   1.3314 C.3            1 S1                 0.0000
     13 ****         1.5181  -0.9249   1.1234 O.3            1 S1                 0.0000
     14 ****        -0.8129   0.2989   0.2306 N.2            1 S1                 0.0000
     15 ****        -3.2087   1.6627   2.2575 H              1 S1                 0.0000
     16 ****        -3.3050  -0.0289   1.7744 H              1 S1                 0.0000
     17 ****        -4.6905   1.0341   1.5466 H              1 S1                 0.0000
     18 ****        -3.4215   2.3798  -0.0939 H              1 S1                 0.0000
     19 ****        -3.3737   0.7899  -1.9828 H              1 S1                 0.0000
     20 ****        -4.7906   0.5213  -0.9745 H              1 S1                 0.0000
     21 ****        -3.4140  -0.5716  -0.8650 H              1 S1                 0.0000
     22 ****         2.4981   0.7656   0.4673 H              1 S1                 0.0000
     23 ****         1.2449  -1.1758  -1.5649 H              1 S1                 0.0000
     24 ****         2.2407   0.2140  -1.9649 H              1 S1                 0.0000
     25 ****         3.4721  -1.8504  -1.9270 H              1 S1                 0.0000
     26 ****         2.3569  -3.1064  -0.2774 H              1 S1                 0.0000
     27 ****         4.0499  -2.9236   0.1497 H              1 S1                 0.0000
     28 ****         2.5111  -2.4326   2.1047 H              1 S1                 0.0000
     29 ****         3.5017  -1.0442   1.7004 H              1 S1                 0.0000
     30 ****         4.0515  -0.7771  -0.8231 H              1 S1                 0.0000
     31 ****        -1.2501   3.3905  -0.4044 H              1 S1                 0.0000
     32 ****         1.2054   2.7730  -0.3894 LP             1 S1                 0.0000
     33 ****         0.7891  -1.5380   0.8190 LP             1 S1                 0.0000
     34 ****         1.2546  -0.4974   1.9882 LP             1 S1                 0.0000
     35 ****        -1.0587  -0.6497   0.4300 LP             1 S1                 0.0000
@<TRIPOS>BOND
    1    1    2 1     
    2    1   15 1     
    3    1   16 1     
    4    1   17 1     
    5    2    3 1     
    6    2    4 1     
    7    2   18 1     
    8    3   19 1     
    9    3   20 1     
   10    3   21 1     
   11    4   14 2     
   12    4    5 1     
   13    5    6 1     
   14    5   31 1     
   15    6    7 2     
   16    7    8 1     
   17    7   14 1     
   18    8   13 1     
   19    8    9 1     
   20    8   22 1     
   21    9   10 1     
   22    9   23 1     
   23    9   24 1     
   24   10   11 1     
   25   10   25 1     
   26   10   30 1     
   27   11   12 1     
   28   11   26 1     
   29   11   27 1     
   30   12   13 1     
   31   12   28 1     
   32   12   29 1     
   33    6   32 1     
   34   13   33 1     
   35   13   34 1     
   36   14   35 1     
@<TRIPOS>SUBSTRUCTURE
      1 S1             1
@<TRIPOS>SET
LONE_PAIRS      STATIC     ATOMS    <user>   **** ""
4 32 33 34 35
DONOR_HYDROGENS      STATIC     ATOMS    <user>   **** ""
3 31 25 30
ATOM$BLUE        STATIC     ATOMS    COLORGROUP SYSTEM
4 32 33 34 35
ATOM$RED        STATIC     ATOMS    COLORGROUP SYSTEM
3 31 25 30
