AV-unprocessed.smi:1945|AV-procd|sdf|7860|dock8
  -GOLD-   2272010 13D 1   1.00000     0.00000
 Structure written by MMmdl.
 47 48  0  0  0  0  0  0  0  0  1 V2000
  144.2386  131.2414  150.8492 C   0  0  0  0  0  0  0  0  0  0  0  0
  145.0897  132.3896  151.3043 C   0  0  0  0  0  0  0  0  0  0  0  0
  146.3378  132.3394  151.9900 C   0  0  0  0  0  0  0  0  0  0  0  0
  146.6483  133.6626  152.1495 C   0  0  0  0  0  0  0  0  0  0  0  0
  147.7382  134.2161  152.7454 N   0  0  0  0  0  0  0  0  0  0  0  0
  148.4506  133.7557  153.7883 C   0  0  0  0  0  0  0  0  0  0  0  0
  148.2461  132.6956  154.3801 O   0  0  0  0  0  0  0  0  0  0  0  0
  149.4273  134.6122  154.1212 N   0  0  0  0  0  0  0  0  0  0  0  0
  150.3345  134.4520  155.2531 C   0  0  0  0  0  0  0  0  0  0  0  0
  151.0261  135.7774  155.6032 C   0  0  0  0  0  0  0  0  0  0  0  0
  151.5954  136.3280  154.4249 O   0  0  0  0  0  0  0  0  0  0  0  0
  151.5570  137.7460  154.3497 C   0  0  1  0  0  0  0  0  0  0  0  0
  150.0858  138.2137  154.3707 C   0  0  0  0  0  0  0  0  0  0  0  0
  149.9779  139.7436  154.4445 C   0  0  0  0  0  0  0  0  0  0  0  0
  150.7419  140.2912  155.6578 C   0  0  0  0  0  0  0  0  0  0  0  0
  152.2092  139.8373  155.6355 C   0  0  0  0  0  0  0  0  0  0  0  0
  152.3320  138.3018  155.5659 C   0  0  2  0  0  0  0  0  0  0  0  0
  153.8088  137.8756  155.5446 C   0  0  0  0  0  0  0  0  0  0  0  0
  145.6466  134.4248  151.5871 N   0  0  0  0  0  0  0  0  0  0  0  0
  145.5050  135.8653  151.4969 C   0  0  0  0  0  0  0  0  0  0  0  0
  144.6844  133.6322  151.0686 N   0  0  0  0  0  0  0  0  0  0  0  0
  144.7010  130.2859  151.0968 H   0  0  0  0  0  0  0  0  0  0  0  0
  144.0886  131.2672  149.7698 H   0  0  0  0  0  0  0  0  0  0  0  0
  143.2577  131.2679  151.3242 H   0  0  0  0  0  0  0  0  0  0  0  0
  146.8929  131.4680  152.3027 H   0  0  0  0  0  0  0  0  0  0  0  0
  148.0278  135.1063  152.3686 H   0  0  0  0  0  0  0  0  0  0  0  0
  149.5275  135.4556  153.5758 H   0  0  0  0  0  0  0  0  0  0  0  0
  149.8136  134.0458  156.1219 H   0  0  0  0  0  0  0  0  0  0  0  0
  151.0859  133.7142  154.9716 H   0  0  0  0  0  0  0  0  0  0  0  0
  150.2982  136.4807  156.0095 H   0  0  0  0  0  0  0  0  0  0  0  0
  151.7793  135.6104  156.3735 H   0  0  0  0  0  0  0  0  0  0  0  0
  152.0446  138.0908  153.4357 H   0  0  0  0  0  0  0  0  0  0  0  0
  149.5558  137.8605  153.4868 H   0  0  0  0  0  0  0  0  0  0  0  0
  149.5767  137.7734  155.2293 H   0  0  0  0  0  0  0  0  0  0  0  0
  150.3768  140.1835  153.5297 H   0  0  0  0  0  0  0  0  0  0  0  0
  148.9301  140.0399  154.5002 H   0  0  0  0  0  0  0  0  0  0  0  0
  150.6889  141.3802  155.6703 H   0  0  0  0  0  0  0  0  0  0  0  0
  150.2658  139.9473  156.5767 H   0  0  0  0  0  0  0  0  0  0  0  0
  152.7141  140.2865  154.7789 H   0  0  0  0  0  0  0  0  0  0  0  0
  152.7184  140.2120  156.5241 H   0  0  0  0  0  0  0  0  0  0  0  0
  151.8821  137.8897  156.4706 H   0  0  0  0  0  0  0  0  0  0  0  0
  154.3175  138.2530  154.6570 H   0  0  0  0  0  0  0  0  0  0  0  0
  153.9097  136.7900  155.5495 H   0  0  0  0  0  0  0  0  0  0  0  0
  154.3384  138.2554  156.4188 H   0  0  0  0  0  0  0  0  0  0  0  0
  146.4282  136.3627  151.7942 H   0  0  0  0  0  0  0  0  0  0  0  0
  144.6982  136.1953  152.1519 H   0  0  0  0  0  0  0  0  0  0  0  0
  145.2698  136.1498  150.4707 H   0  0  0  0  0  0  0  0  0  0  0  0
  1  2  1  0  0  0  0
  1 22  1  0  0  0  0
  1 23  1  0  0  0  0
  1 24  1  0  0  0  0
  2 21  2  0  0  0  0
  2  3  1  0  0  0  0
  3  4  2  0  0  0  0
  3 25  1  0  0  0  0
  4  5  1  0  0  0  0
  4 19  1  0  0  0  0
  5  6  1  0  0  0  0
  5 26  1  0  0  0  0
  6  7  2  0  0  0  0
  6  8  1  0  0  0  0
  8  9  1  0  0  0  0
  8 27  1  0  0  0  0
  9 10  1  0  0  0  0
  9 28  1  0  0  0  0
  9 29  1  0  0  0  0
 10 11  1  0  0  0  0
 10 30  1  0  0  0  0
 10 31  1  0  0  0  0
 11 12  1  0  0  0  0
 12 17  1  0  0  0  0
 12 13  1  0  0  0  0
 12 32  1  0  0  0  0
 13 14  1  0  0  0  0
 13 33  1  0  0  0  0
 13 34  1  0  0  0  0
 14 15  1  0  0  0  0
 14 35  1  0  0  0  0
 14 36  1  0  0  0  0
 15 16  1  0  0  0  0
 15 37  1  0  0  0  0
 15 38  1  0  0  0  0
 16 17  1  0  0  0  0
 16 39  1  0  0  0  0
 16 40  1  0  0  0  0
 17 18  1  0  0  0  0
 17 41  1  0  0  0  0
 18 42  1  0  0  0  0
 18 43  1  0  0  0  0
 18 44  1  0  0  0  0
 19 20  1  0  0  0  0
 19 21  1  0  0  0  0
 20 45  1  0  0  0  0
 20 46  1  0  0  0  0
 20 47  1  0  0  0  0
M  END
> <s_m_source_file>
AV-unprocessed.smi

> <i_m_source_file_index>
1945

> <i_lp_mmshare_version>
43012

> <i_f3d_flags>
0

> <s_epik_input>
W0NIM11jMVtjSF1jKG4objEpW0NIM10pW05IXUMoPU8pW05IXVtDSDJdW0NIMl1PW0NAQEhdMltDSDJdW0NIMl1bQ0gyXVtDSDJdW0NASF0yW0NIM10=

> <s_epik_cmdline>
J2VwaWtfcHl0aG9uJywgJy1waCcsICc3LjAnLCAnLXRuJywgJzgnLCAnLW1hJywgJzIwMCcsICctbWV0YWxfYmluZGluZycsICctaW1hZScsICc8aW5maWxlLm1hZT4nLCAnLW9tYWUnLCAnPG91dGZpbGUubWFlPic=

> <r_lp_tautomer_probability>
1

> <r_epik_Ionization_Penalty>
9.47735e-05

> <r_epik_Ionization_Penalty_Charging>
0

> <r_epik_Ionization_Penalty_Neutral>
9.47735e-05

> <r_epik_State_Penalty>
-0

> <r_epik_Charging_Adjusted_Penalty>
0

> <i_epik_Tot_Q>
0

> <i_epik_Tot_abs_Q>
0

> <r_epik_Metal_State_Penalty>
-0

> <b_epik_Metal_Only>
0

> <s_lp_Force_Field>
OPLS_2005

> <r_lp_Energy>
11.6834

> <b_lp_Chiralities_Consistent>
1

> <s_lp_Variant>
AV-unprocessed.smi:1945-4

> <Gold.Version>
5.8.1

> <Gold.Id.Protein>
6NUR|6NUR_protein|mol2

> <Gold.PLP.Fitness>
44.3787

> <Gold.PLP.PLP>
-37.1687

> <Gold.PLP.part.hbond>
-2.8792

> <Gold.PLP.part.metal>
0.0000

> <Gold.PLP.part.buried>
-1.4786

> <Gold.PLP.part.nonpolar>
-33.1503

> <Gold.PLP.part.repulsive>
0.3360

> <Gold.PLP.ligand.clash>
0.0000

> <Gold.PLP.ligand.torsion>
0.5937

> <Gold.PLP.Chemscore.Hbond>
2.7913

> <Gold.PLP.Chemscore.CHOScore>
0.0000

> <Gold.PLP.Chemscore.Metal>
0.0000

> <Gold.Chemscore.Hbonds>
donor molecule, donor type, donor heavy atom, donor atom, acceptor molecule, acceptor atom, score
      L1  H     5    26       P1  7948  0.94
      L1  H     8    27       P1  7948  0.68
      P1  H 10752 10765       L1    11  0.98

> <Gold.PLP.Chemscore.Internal.Correction>
0.0236

> <Gold.Rescore>
     Score         DG    S(hbond)    S(metal)    S(lipo)     H(rot)  DE(clash)    DE(int)     intcor
     16.82     -18.14       2.01        0.00      86.41       1.63       0.56       0.75       ----

> <Gold.Chemscore.Fitness>
16.8210

> <Gold.Chemscore.DG>
-18.1399

> <Gold.Chemscore.ZeroCoef>
-5.4800

> <Gold.Chemscore.Hbond>
2.0141

> <Gold.Chemscore.Metal>
0.0000

> <Gold.Chemscore.Lipo>
86.4072

> <Gold.Chemscore.Internal_Hbond>
0.0000

> <Gold.Chemscore.DEClash>
0.5644

> <Gold.Chemscore.DEInternal>
0.7545

> <Gold.Chemscore.Rot>
1.6316

> <Gold.Chemscore.Internal.Correction>
   9.000000E+99

> <Gold.Chemscore.Hbonds>
donor molecule, donor type, donor heavy atom, donor atom, acceptor molecule, acceptor atom, score
      L1  H     5    26       P1  7948  0.79
      L1  H     8    27       P1  7948  0.12
      P1  H 10752 10765       L1    11  0.57

> <Gold.Chemscore.Hbond.Weighted>
-6.7271

> <Gold.Chemscore.Metal.Weighted>
-0.0000

> <Gold.Chemscore.Lipo.Weighted>
-10.1096

> <Gold.Chemscore.Internal_Hbond.Weighted>
0.0000

> <Gold.Chemscore.DEClash.Weighted>
0.5644

> <Gold.Chemscore.DEInternal.Weighted>
0.7545

> <Gold.Chemscore.Rot.Weighted>
4.1768

> <Gold.Chemscore.Internal.Correction.Weighted>
   9.000000E+99

> <Gold.Protein.RotatedTorsions>
[ 6907 6896 6895 6894 ] final -133.08 input  -60.11 | X-H torsion
[ 7974 7965 7964 7962 ] final  169.79 input  175.53 | X-H torsion
[ 8008 7997 7996 7995 ] final  -74.61 input   59.86 | X-H torsion
[ 10167 10162 10161 10158 ] final -144.89 input  -65.29 | X-H torsion
[ 10718 10713 10712 10709 ] final  100.72 input   66.30 | X-H torsion
[ 10763 10752 10751 10750 ] final  156.80 input  -60.55 | X-H torsion
[ 11005 11000 10999 10996 ] final  111.44 input  -57.11 | X-H torsion

> <Gold.Protein.ActiveResidues>
 VAL166  LYS551  ARG553  GLY616  TRP617  ASP618  TYR619  PRO620  LYS621  CYS622 
 ASP623  PHE694  ASN695  SER759  ASP760  ASP761  ALA762  ILE779  LEU786  VAL792 
 PHE793  MET794  SER795  GLU796  ALA797  LYS798  CYS799  TRP800  GLU811  SER814 

> <Gold.Protein.RotatedAtoms>
  150.9699  133.6355  159.2739 H   0  0  0  0  0  0  0  0  0  0  0  0  # atno 6907 bound_to 6896
  151.3648  135.0910  159.9456 H   0  0  0  0  0  0  0  0  0  0  0  0  # atno 6908 bound_to 6896
  152.5179  133.9265  159.7614 H   0  0  0  0  0  0  0  0  0  0  0  0  # atno 6909 bound_to 6896
  144.7344  139.9106  143.6415 H   0  0  0  0  0  0  0  0  0  0  0  0  # atno 7974 bound_to 7965
  154.5345  140.0758  156.8403 H   0  0  0  0  0  0  0  0  0  0  0  0  # atno 8008 bound_to 7997
  155.3306  140.3401  155.4221 H   0  0  0  0  0  0  0  0  0  0  0  0  # atno 8009 bound_to 7997
  156.1814  140.1653  156.8253 H   0  0  0  0  0  0  0  0  0  0  0  0  # atno 8010 bound_to 7997
  139.7856  143.8038  152.2644 H   0  0  0  0  0  0  0  0  0  0  0  0  # atno 10167 bound_to 10162
  157.6847  131.0706  150.5144 H   0  0  0  0  0  0  0  0  0  0  0  0  # atno 10718 bound_to 10713
  154.1902  135.2795  155.3024 H   0  0  0  0  0  0  0  0  0  0  0  0  # atno 10763 bound_to 10752
  154.5935  135.5552  153.7305 H   0  0  0  0  0  0  0  0  0  0  0  0  # atno 10764 bound_to 10752
  153.0114  135.6374  154.2040 H   0  0  0  0  0  0  0  0  0  0  0  0  # atno 10765 bound_to 10752
  139.8904  134.9508  156.6433 H   0  0  0  0  0  0  0  0  0  0  0  0  # atno 11005 bound_to 11000
  146.1004  139.3999  143.0350 LP  0  0  0  0  0  0  0  0  0  0  0  0  # atno 17320 bound_to 7965
  145.7587  140.9944  143.1212 LP  0  0  0  0  0  0  0  0  0  0  0  0  # atno 17321 bound_to 7965
  139.8114  144.7334  150.9692 LP  0  0  0  0  0  0  0  0  0  0  0  0  # atno 17342 bound_to 10162
  140.7819  143.4247  151.0787 LP  0  0  0  0  0  0  0  0  0  0  0  0  # atno 17343 bound_to 10162
  156.5459  130.4219  149.6131 LP  0  0  0  0  0  0  0  0  0  0  0  0  # atno 17370 bound_to 10713
  156.2944  130.7142  151.1999 LP  0  0  0  0  0  0  0  0  0  0  0  0  # atno 17371 bound_to 10713
  140.7577  133.8844  155.8394 LP  0  0  0  0  0  0  0  0  0  0  0  0  # atno 17394 bound_to 11000
  140.9948  134.1229  157.4374 LP  0  0  0  0  0  0  0  0  0  0  0  0  # atno 17395 bound_to 11000

$$$$
