#       Name:                AV-unprocessed.smi:3149
#       Creating user name   scv26
#       Creation time:       Fri Mar 27 17:40:46 2020


#       File generated by GOLD software.
#

@<TRIPOS>MOLECULE
AV-unprocessed.smi:3149
    41    42     1
SMALL
NO_CHARGES


@<TRIPOS>ATOM
      1 ****        -1.8936  -1.3731   1.7648 C.3            1 S1                 0.0000
      2 ****        -1.5119  -0.8333   0.3728 C.3            1 S1                 0.0000
      3 ****        -0.0440  -0.6476   0.2876 N.4            1 S1                 1.0000
      4 ****         0.4814   0.5758   0.9286 C.3            1 S1                 0.0000
      5 ****         1.9812   0.7412   0.6669 C.2            1 S1                 0.0000
      6 ****         2.4837   0.3304  -0.3797 O.2            1 S1                 0.0000
      7 ****         2.7234   1.4534   1.6111 N.am           1 S1                 0.0000
      8 ****         2.1656   2.6033   2.3072 C.3            1 S1                 0.0000
      9 ****         3.6030   3.1307   2.3619 C.3            1 S1                 0.0000
     10 ****         3.9470   2.1474   1.2380 C.3            1 S1                 0.0000
     11 ****        -1.9936  -1.7618  -0.7761 C.3            1 S1                 0.0000
     12 ****        -3.5246  -1.9203  -0.8284 C.3            1 S1                 0.0000
     13 ****        -1.5097  -1.3124  -2.0776 N.pl3          1 S1                 0.0000
     14 ****        -0.8570  -2.0499  -3.0443 C.2            1 S1                 0.0000
     15 ****        -0.6149  -1.2180  -4.0995 C.2            1 S1                 0.0000
     16 ****        -1.1745   0.0231  -3.6878 C.2            1 S1                 0.0000
     17 ****        -1.7133  -0.0375  -2.4810 N.2            1 S1                 0.0000
     18 ****        -2.9738  -1.4466   1.8860 H              1 S1                 0.0000
     19 ****        -1.5388  -0.7203   2.5619 H              1 S1                 0.0000
     20 ****        -1.4707  -2.3637   1.9359 H              1 S1                 0.0000
     21 ****        -1.9849   0.1414   0.2423 H              1 S1                 0.0000
     22 ****         0.4205  -1.4571   0.6730 H              1 S1                 0.0000
     23 ****        -0.0382   1.4498   0.5342 H              1 S1                 0.0000
     24 ****         0.2968   0.5355   2.0020 H              1 S1                 0.0000
     25 ****         1.5083   3.2152   1.6859 H              1 S1                 0.0000
     26 ****         1.7314   2.3689   3.2797 H              1 S1                 0.0000
     27 ****         3.7055   4.1806   2.0855 H              1 S1                 0.0000
     28 ****         4.1106   2.9077   3.3024 H              1 S1                 0.0000
     29 ****         4.8546   1.5657   1.4035 H              1 S1                 0.0000
     30 ****         3.9106   2.6004   0.2450 H              1 S1                 0.0000
     31 ****        -1.5671  -2.7524  -0.6094 H              1 S1                 0.0000
     32 ****        -3.9118  -2.4187   0.0596 H              1 S1                 0.0000
     33 ****        -3.8252  -2.5241  -1.6855 H              1 S1                 0.0000
     34 ****        -4.0224  -0.9539  -0.9150 H              1 S1                 0.0000
     35 ****        -0.6201  -3.0943  -2.9031 H              1 S1                 0.0000
     36 ****        -0.1188  -1.4611  -5.0276 H              1 S1                 0.0000
     37 ****        -1.2075   0.9583  -4.2271 H              1 S1                 0.0000
     38 ****         0.1934  -0.5822  -0.6925 H              1 S1                 0.0000
     39 ****         1.9113  -0.1158  -1.0677 LP             1 S1                 0.0000
     40 ****         3.4641   0.4430  -0.5416 LP             1 S1                 0.0000
     41 ****        -2.1699   0.6966  -1.9784 LP             1 S1                 0.0000
@<TRIPOS>BOND
    1    1    2 1     
    2    1   18 1     
    3    1   19 1     
    4    1   20 1     
    5    2    3 1     
    6    2   11 1     
    7    2   21 1     
    8    3    4 1     
    9    3   22 1     
   10    3   38 1     
   11    4    5 1     
   12    4   23 1     
   13    4   24 1     
   14    5    6 2     
   15    5    7 am    
   16    7   10 1     
   17    7    8 1     
   18    8    9 1     
   19    8   25 1     
   20    8   26 1     
   21    9   10 1     
   22    9   27 1     
   23    9   28 1     
   24   10   29 1     
   25   10   30 1     
   26   11   12 1     
   27   11   13 1     
   28   11   31 1     
   29   12   32 1     
   30   12   33 1     
   31   12   34 1     
   32   13   17 1     
   33   13   14 1     
   34   14   15 2     
   35   14   35 1     
   36   15   16 1     
   37   15   36 1     
   38   16   17 2     
   39   16   37 1     
   40    6   39 1     
   41    6   40 1     
   42   17   41 1     
@<TRIPOS>SUBSTRUCTURE
      1 S1             1
@<TRIPOS>SET
LONE_PAIRS      STATIC     ATOMS    <user>   **** ""
3 39 40 41
DONOR_HYDROGENS      STATIC     ATOMS    <user>   **** ""
2 22 38
ATOM$BLUE        STATIC     ATOMS    COLORGROUP SYSTEM
3 39 40 41
ATOM$RED        STATIC     ATOMS    COLORGROUP SYSTEM
2 22 38
