AV-unprocessed.smi:807|AV-procd|sdf|3803|dock8
  -GOLD-   22720 1243D 1   1.00000     0.00000
 Structure written by MMmdl.
 35 37  0  0  0  0  0  0  0  0  1 V2000
  152.2467  137.2956  158.1973 C   0  0  0  0  0  0  0  0  0  0  0  0
  151.7627  138.5671  157.6842 N   0  0  0  0  0  0  0  0  0  0  0  0
  151.3483  138.6881  156.3501 C   0  0  0  0  0  0  0  0  0  0  0  0
  151.5881  137.6855  155.4735 N   0  0  0  0  0  0  0  0  0  0  0  0
  151.1718  137.8457  154.2104 C   0  0  0  0  0  0  0  0  0  0  0  0
  150.5290  138.8860  153.6568 N   0  0  0  0  0  0  0  0  0  0  0  0
  150.2886  139.8852  154.5169 C   0  0  0  0  0  0  0  0  0  0  0  0
  149.6468  141.0760  154.2220 N   0  0  0  0  0  0  0  0  0  0  0  0
  149.6748  141.6969  155.3991 C   0  0  0  0  0  0  0  0  0  0  0  0
  150.2585  141.0519  156.4281 N   0  0  0  0  0  0  0  0  0  0  0  0
  150.4049  141.5394  157.7884 C   0  0  0  0  0  0  0  0  0  0  0  0
  151.3982  142.7160  157.8871 C   0  0  1  0  0  0  0  0  0  0  0  0
  150.8356  143.8954  157.3451 O   0  0  0  0  0  0  0  0  0  0  0  0
  151.9325  142.9027  159.3051 C   0  0  0  0  0  0  0  0  0  0  0  0
  152.7891  141.9091  159.8311 C   0  0  0  0  0  0  0  0  0  0  0  0
  153.3100  142.0223  161.1335 C   0  0  0  0  0  0  0  0  0  0  0  0
  152.9765  143.1327  161.9288 C   0  0  0  0  0  0  0  0  0  0  0  0
  152.1203  144.1259  161.4195 C   0  0  0  0  0  0  0  0  0  0  0  0
  151.5945  144.0195  160.1158 C   0  0  0  0  0  0  0  0  0  0  0  0
  150.5395  145.2746  159.5646 Cl  0  0  0  0  0  0  0  0  0  0  0  0
  150.6803  139.8394  155.8884 C   0  0  0  0  0  0  0  0  0  0  0  0
  152.5168  137.3970  159.2483 H   0  0  0  0  0  0  0  0  0  0  0  0
  153.1301  136.9681  157.6479 H   0  0  0  0  0  0  0  0  0  0  0  0
  151.4775  136.5268  158.1150 H   0  0  0  0  0  0  0  0  0  0  0  0
  151.7369  139.3687  158.2975 H   0  0  0  0  0  0  0  0  0  0  0  0
  151.3829  137.0222  153.5444 H   0  0  0  0  0  0  0  0  0  0  0  0
  149.2487  142.6822  155.5204 H   0  0  0  0  0  0  0  0  0  0  0  0
  149.4213  141.8243  158.1614 H   0  0  0  0  0  0  0  0  0  0  0  0
  150.7377  140.7097  158.4126 H   0  0  0  0  0  0  0  0  0  0  0  0
  152.2485  142.4886  157.2434 H   0  0  0  0  0  0  0  0  0  0  0  0
  150.0703  143.6596  156.8432 H   0  0  0  0  0  0  0  0  0  0  0  0
  153.0532  141.0477  159.2349 H   0  0  0  0  0  0  0  0  0  0  0  0
  153.9650  141.2564  161.5223 H   0  0  0  0  0  0  0  0  0  0  0  0
  153.3748  143.2219  162.9288 H   0  0  0  0  0  0  0  0  0  0  0  0
  151.8640  144.9756  162.0350 H   0  0  0  0  0  0  0  0  0  0  0  0
  1  2  1  0  0  0  0
  1 22  1  0  0  0  0
  1 23  1  0  0  0  0
  1 24  1  0  0  0  0
  2  3  1  0  0  0  0
  2 25  1  0  0  0  0
  3 21  1  0  0  0  0
  3  4  2  0  0  0  0
  4  5  1  0  0  0  0
  5  6  2  0  0  0  0
  5 26  1  0  0  0  0
  6  7  1  0  0  0  0
  7 21  2  0  0  0  0
  7  8  1  0  0  0  0
  8  9  2  0  0  0  0
  9 10  1  0  0  0  0
  9 27  1  0  0  0  0
 10 11  1  0  0  0  0
 10 21  1  0  0  0  0
 11 12  1  0  0  0  0
 11 28  1  0  0  0  0
 11 29  1  0  0  0  0
 12 13  1  0  0  0  0
 12 14  1  0  0  0  0
 12 30  1  0  0  0  0
 13 31  1  0  0  0  0
 14 19  1  0  0  0  0
 14 15  2  0  0  0  0
 15 16  1  0  0  0  0
 15 32  1  0  0  0  0
 16 17  2  0  0  0  0
 16 33  1  0  0  0  0
 17 18  1  0  0  0  0
 17 34  1  0  0  0  0
 18 19  2  0  0  0  0
 18 35  1  0  0  0  0
 19 20  1  0  0  0  0
M  END
> <s_m_source_file>
AV-unprocessed.smi

> <i_m_source_file_index>
807

> <i_lp_mmshare_version>
43012

> <i_f3d_flags>
0

> <s_epik_input>
bjFbY0hdbmMoW05IXVtDSDNdKWMoYzEyKW4oW2NIXW4yKVtDSDJdW0NASF0oW09IXSljM1tjSF1bY0hdW2NIXVtjSF1jM0Ns

> <s_epik_cmdline>
J2VwaWtfcHl0aG9uJywgJy1waCcsICc3LjAnLCAnLXRuJywgJzgnLCAnLW1hJywgJzIwMCcsICctbWV0YWxfYmluZGluZycsICctaW1hZScsICc8aW5maWxlLm1hZT4nLCAnLW9tYWUnLCAnPG91dGZpbGUubWFlPic=

> <r_lp_tautomer_probability>
1

> <r_epik_Ionization_Penalty>
0.00695285

> <r_epik_Ionization_Penalty_Charging>
0

> <r_epik_Ionization_Penalty_Neutral>
0.00695285

> <r_epik_State_Penalty>
-0

> <r_epik_Charging_Adjusted_Penalty>
0

> <i_epik_Tot_Q>
0

> <i_epik_Tot_abs_Q>
0

> <r_epik_Metal_State_Penalty>
-0

> <b_epik_Metal_Only>
0

> <s_lp_Force_Field>
OPLS_2005

> <r_lp_Energy>
12.6911

> <b_lp_Chiralities_Consistent>
1

> <s_lp_Variant>
AV-unprocessed.smi:807-2

> <Gold.Version>
5.8.1

> <Gold.Id.Protein>
6NUR|6NUR_protein|mol2

> <Gold.PLP.Fitness>
51.7110

> <Gold.PLP.PLP>
-44.3100

> <Gold.PLP.part.hbond>
-2.9620

> <Gold.PLP.part.metal>
0.0000

> <Gold.PLP.part.buried>
-2.4153

> <Gold.PLP.part.nonpolar>
-38.7602

> <Gold.PLP.part.repulsive>
1.2829

> <Gold.PLP.ligand.clash>
0.0000

> <Gold.PLP.ligand.torsion>
0.5008

> <Gold.PLP.Chemscore.Hbond>
0.7790

> <Gold.PLP.Chemscore.CHOScore>
2.0000

> <Gold.PLP.Chemscore.Metal>
0.0000

> <Gold.Chemscore.Hbonds>
donor molecule, donor type, donor heavy atom, donor atom, acceptor molecule, acceptor atom, score
      L1  H    13    31       P1  8028  0.62
      P1  H  8011  8017       L1     8  0.22
      L1  C     5    26       P1  7949  1.00
      L1  C     9    27       P1  8028  1.00

> <Gold.PLP.Chemscore.Internal.Correction>
0.0657

> <Gold.Rescore>
     Score         DG    S(hbond)    S(metal)    S(lipo)     H(rot)  DE(clash)    DE(int)     intcor
     11.15     -13.44       0.60        0.00     101.43       2.31       0.18       2.11       ----

> <Gold.Chemscore.Fitness>
11.1452

> <Gold.Chemscore.DG>
-13.4437

> <Gold.Chemscore.ZeroCoef>
-5.4800

> <Gold.Chemscore.Hbond>
0.6030

> <Gold.Chemscore.Metal>
0.0000

> <Gold.Chemscore.Lipo>
101.4292

> <Gold.Chemscore.Internal_Hbond>
0.0000

> <Gold.Chemscore.DEClash>
0.1842

> <Gold.Chemscore.DEInternal>
2.1143

> <Gold.Chemscore.Rot>
2.3115

> <Gold.Chemscore.Internal.Correction>
   9.000000E+99

> <Gold.Chemscore.Hbonds>
donor molecule, donor type, donor heavy atom, donor atom, acceptor molecule, acceptor atom, score
      L1  H    13    31       P1  8028  0.61
      P1  H  8011  8017       L1     8  0.21

> <Gold.Chemscore.Hbond.Weighted>
-2.0139

> <Gold.Chemscore.Metal.Weighted>
-0.0000

> <Gold.Chemscore.Lipo.Weighted>
-11.8672

> <Gold.Chemscore.Internal_Hbond.Weighted>
0.0000

> <Gold.Chemscore.DEClash.Weighted>
0.1842

> <Gold.Chemscore.DEInternal.Weighted>
2.1143

> <Gold.Chemscore.Rot.Weighted>
5.9174

> <Gold.Chemscore.Internal.Correction.Weighted>
   9.000000E+99

> <Gold.Protein.RotatedTorsions>
[ 6907 6896 6895 6894 ] final  160.38 input  -60.11 | X-H torsion
[ 7974 7965 7964 7962 ] final  155.13 input  175.53 | X-H torsion
[ 8008 7997 7996 7995 ] final -130.00 input   59.86 | X-H torsion
[ 10167 10162 10161 10158 ] final -154.77 input  -65.29 | X-H torsion
[ 10718 10713 10712 10709 ] final  131.73 input   66.30 | X-H torsion
[ 10763 10752 10751 10750 ] final  -76.19 input  -60.55 | X-H torsion
[ 11005 11000 10999 10996 ] final -110.32 input  -57.11 | X-H torsion

> <Gold.Protein.ActiveResidues>
 VAL166  LYS551  ARG553  GLY616  TRP617  ASP618  TYR619  PRO620  LYS621  CYS622 
 ASP623  PHE694  ASN695  SER759  ASP760  ASP761  ALA762  ILE779  LEU786  VAL792 
 PHE793  MET794  SER795  GLU796  ALA797  LYS798  CYS799  TRP800  GLU811  SER814 

> <Gold.Protein.RotatedAtoms>
  151.9715  133.3727  159.4072 H   0  0  0  0  0  0  0  0  0  0  0  0  # atno 6907 bound_to 6896
  150.6948  134.4135  159.5181 H   0  0  0  0  0  0  0  0  0  0  0  0  # atno 6908 bound_to 6896
  152.1839  134.8730  160.0574 H   0  0  0  0  0  0  0  0  0  0  0  0  # atno 6909 bound_to 6896
  144.8044  139.7026  143.6168 H   0  0  0  0  0  0  0  0  0  0  0  0  # atno 7974 bound_to 7965
  155.2885  140.0447  157.3021 H   0  0  0  0  0  0  0  0  0  0  0  0  # atno 8008 bound_to 7997
  154.5555  140.2330  155.8384 H   0  0  0  0  0  0  0  0  0  0  0  0  # atno 8009 bound_to 7997
  156.2004  140.3027  155.9521 H   0  0  0  0  0  0  0  0  0  0  0  0  # atno 8010 bound_to 7997
  139.6986  143.9301  152.2418 H   0  0  0  0  0  0  0  0  0  0  0  0  # atno 10167 bound_to 10162
  157.4940  131.1091  150.9518 H   0  0  0  0  0  0  0  0  0  0  0  0  # atno 10718 bound_to 10713
  154.4966  135.5806  153.6499 H   0  0  0  0  0  0  0  0  0  0  0  0  # atno 10763 bound_to 10752
  152.9871  135.6125  154.3056 H   0  0  0  0  0  0  0  0  0  0  0  0  # atno 10764 bound_to 10752
  154.2960  135.2847  155.2612 H   0  0  0  0  0  0  0  0  0  0  0  0  # atno 10765 bound_to 10752
  141.0798  133.9239  157.2312 H   0  0  0  0  0  0  0  0  0  0  0  0  # atno 11005 bound_to 11000
  146.2333  139.5856  142.9540 LP  0  0  0  0  0  0  0  0  0  0  0  0  # atno 17320 bound_to 7965
  145.5473  141.0416  143.2298 LP  0  0  0  0  0  0  0  0  0  0  0  0  # atno 17321 bound_to 7965
  139.9137  144.6841  150.8535 LP  0  0  0  0  0  0  0  0  0  0  0  0  # atno 17342 bound_to 10162
  140.7703  143.3425  151.2179 LP  0  0  0  0  0  0  0  0  0  0  0  0  # atno 17343 bound_to 10162
  157.0211  130.5674  149.5331 LP  0  0  0  0  0  0  0  0  0  0  0  0  # atno 17370 bound_to 10713
  156.0189  130.5284  150.8219 LP  0  0  0  0  0  0  0  0  0  0  0  0  # atno 17371 bound_to 10713
  139.9612  135.0154  156.9265 LP  0  0  0  0  0  0  0  0  0  0  0  0  # atno 17394 bound_to 11000
  140.5493  134.0643  155.7364 LP  0  0  0  0  0  0  0  0  0  0  0  0  # atno 17395 bound_to 11000

$$$$
