AV-unprocessed.smi:1299|AV-procd|sdf|5418|dock4
  -GOLD-   22720 4573D 1   1.00000     0.00000
 Structure written by MMmdl.
 39 40  0  0  0  0  0  0  0  0  1 V2000
  143.5753  145.4596  158.8861 C   0  0  0  0  0  0  0  0  0  0  0  0
  143.9752  144.7048  160.1422 C   0  0  0  0  0  0  0  0  0  0  0  0
  143.1764  144.4533  161.1845 C   0  0  0  0  0  0  0  0  0  0  0  0
  143.9679  143.5256  162.4347 S   0  0  0  0  0  0  0  0  0  0  0  0
  145.4793  143.4830  161.4579 C   0  0  0  0  0  0  0  0  0  0  0  0
  146.5025  142.9153  161.8369 O   0  0  0  0  0  0  0  0  0  0  0  0
  145.2692  144.1794  160.2678 N   0  0  0  0  0  0  0  0  0  0  0  0
  146.3158  144.3431  159.2498 C   0  0  0  0  0  0  0  0  0  0  0  0
  146.9124  143.0115  158.7738 C   0  0  0  0  0  0  0  0  0  0  0  0
  146.4270  141.9352  159.1258 O   0  0  0  0  0  0  0  0  0  0  0  0
  147.9700  143.1042  157.9536 N   0  0  0  0  0  0  0  0  0  0  0  0
  148.6901  141.9710  157.3835 C   0  0  0  0  0  0  0  0  0  0  0  0
  150.1891  142.2850  157.2014 C   0  0  0  0  0  0  0  0  0  0  0  0
  151.1215  141.2714  157.8858 C   0  0  0  0  0  0  0  0  0  0  0  0
  151.1375  140.0990  157.5081 O   0  0  0  0  0  0  0  0  0  0  0  0
  151.9029  141.7080  158.8956 N   0  0  0  0  0  0  0  0  0  0  0  0
  152.8404  140.8906  159.6654 C   0  0  0  0  0  0  0  0  0  0  0  0
  153.2933  141.7689  160.8321 C   0  0  0  0  0  0  0  0  0  0  0  0
  153.1053  143.1915  160.3241 C   0  0  0  0  0  0  0  0  0  0  0  0
  151.9190  143.0923  159.3648 C   0  0  0  0  0  0  0  0  0  0  0  0
  142.4894  145.4900  158.7936 H   0  0  0  0  0  0  0  0  0  0  0  0
  143.9647  144.9840  157.9861 H   0  0  0  0  0  0  0  0  0  0  0  0
  143.9403  146.4858  158.9291 H   0  0  0  0  0  0  0  0  0  0  0  0
  142.1449  144.7560  161.2882 H   0  0  0  0  0  0  0  0  0  0  0  0
  145.9416  144.9003  158.3911 H   0  0  0  0  0  0  0  0  0  0  0  0
  147.1221  144.9544  159.6587 H   0  0  0  0  0  0  0  0  0  0  0  0
  148.3047  144.0255  157.7113 H   0  0  0  0  0  0  0  0  0  0  0  0
  148.5627  141.1233  158.0577 H   0  0  0  0  0  0  0  0  0  0  0  0
  148.2351  141.6854  156.4330 H   0  0  0  0  0  0  0  0  0  0  0  0
  150.4282  142.3083  156.1377 H   0  0  0  0  0  0  0  0  0  0  0  0
  150.4006  143.2787  157.5978 H   0  0  0  0  0  0  0  0  0  0  0  0
  152.3885  139.9665  160.0280 H   0  0  0  0  0  0  0  0  0  0  0  0
  153.6900  140.6310  159.0321 H   0  0  0  0  0  0  0  0  0  0  0  0
  152.6412  141.5998  161.6901 H   0  0  0  0  0  0  0  0  0  0  0  0
  154.3170  141.5623  161.1453 H   0  0  0  0  0  0  0  0  0  0  0  0
  152.9407  143.9100  161.1276 H   0  0  0  0  0  0  0  0  0  0  0  0
  153.9947  143.5025  159.7748 H   0  0  0  0  0  0  0  0  0  0  0  0
  152.0138  143.8043  158.5432 H   0  0  0  0  0  0  0  0  0  0  0  0
  150.9844  143.3003  159.8879 H   0  0  0  0  0  0  0  0  0  0  0  0
  1  2  1  0  0  0  0
  1 21  1  0  0  0  0
  1 22  1  0  0  0  0
  1 23  1  0  0  0  0
  2  7  1  0  0  0  0
  2  3  2  0  0  0  0
  3  4  1  0  0  0  0
  3 24  1  0  0  0  0
  4  5  1  0  0  0  0
  5  6  2  0  0  0  0
  5  7  1  0  0  0  0
  7  8  1  0  0  0  0
  8  9  1  0  0  0  0
  8 25  1  0  0  0  0
  8 26  1  0  0  0  0
  9 10  2  0  0  0  0
  9 11  1  0  0  0  0
 11 12  1  0  0  0  0
 11 27  1  0  0  0  0
 12 13  1  0  0  0  0
 12 28  1  0  0  0  0
 12 29  1  0  0  0  0
 13 14  1  0  0  0  0
 13 30  1  0  0  0  0
 13 31  1  0  0  0  0
 14 15  2  0  0  0  0
 14 16  1  0  0  0  0
 16 20  1  0  0  0  0
 16 17  1  0  0  0  0
 17 18  1  0  0  0  0
 17 32  1  0  0  0  0
 17 33  1  0  0  0  0
 18 19  1  0  0  0  0
 18 34  1  0  0  0  0
 18 35  1  0  0  0  0
 19 20  1  0  0  0  0
 19 36  1  0  0  0  0
 19 37  1  0  0  0  0
 20 38  1  0  0  0  0
 20 39  1  0  0  0  0
M  END
> <s_m_source_file>
AV-unprocessed.smi

> <i_m_source_file_index>
1299

> <i_lp_mmshare_version>
43012

> <i_f3d_flags>
0

> <s_epik_input>
W0NIM11jMVtjSF1zYyg9TyluMVtDSDJdQyg9TylbTkhdW0NIMl1bQ0gyXUMoPU8pTjJbQ0gyXVtDSDJdW0NIMl1bQ0gyXTI=

> <s_epik_cmdline>
J2VwaWtfcHl0aG9uJywgJy1waCcsICc3LjAnLCAnLXRuJywgJzgnLCAnLW1hJywgJzIwMCcsICctbWV0YWxfYmluZGluZycsICctaW1hZScsICc8aW5maWxlLm1hZT4nLCAnLW9tYWUnLCAnPG91dGZpbGUubWFlPic=

> <r_lp_tautomer_probability>
1

> <r_epik_Ionization_Penalty>
1.42672e-06

> <r_epik_Ionization_Penalty_Charging>
1.08064e-06

> <r_epik_Ionization_Penalty_Neutral>
3.46085e-07

> <r_epik_State_Penalty>
-0

> <r_epik_Charging_Adjusted_Penalty>
1.08064e-06

> <i_epik_Tot_Q>
0

> <i_epik_Tot_abs_Q>
0

> <r_epik_Metal_State_Penalty>
-0

> <b_epik_Metal_Only>
0

> <s_lp_Force_Field>
OPLS_2005

> <r_lp_Energy>
30.8751

> <b_lp_Chiralities_Consistent>
1

> <s_lp_Variant>
AV-unprocessed.smi:1299-1

> <Gold.Version>
5.8.1

> <Gold.Id.Protein>
6NUR|6NUR_protein|mol2

> <Gold.PLP.Fitness>
41.0362

> <Gold.PLP.PLP>
-36.5090

> <Gold.PLP.part.hbond>
-4.8495

> <Gold.PLP.part.metal>
0.0000

> <Gold.PLP.part.buried>
-1.8174

> <Gold.PLP.part.nonpolar>
-28.8720

> <Gold.PLP.part.repulsive>
0.1317

> <Gold.PLP.ligand.clash>
0.0000

> <Gold.PLP.ligand.torsion>
0.6449

> <Gold.PLP.Chemscore.Hbond>
1.9287

> <Gold.PLP.Chemscore.CHOScore>
0.0000

> <Gold.PLP.Chemscore.Metal>
0.0000

> <Gold.Chemscore.Hbonds>
donor molecule, donor type, donor heavy atom, donor atom, acceptor molecule, acceptor atom, score
      L1  H    11    27       P1  8029  0.34
      P1  H  6933  6944       L1     6  0.58
      P1  H  6934  6946       L1    10  0.90

> <Gold.PLP.Chemscore.Internal.Correction>
0.0308

> <Gold.Rescore>
     Score         DG    S(hbond)    S(metal)    S(lipo)     H(rot)  DE(clash)    DE(int)     intcor
     14.26     -15.21       1.73        0.00      77.88       2.02       0.24       0.71       ----

> <Gold.Chemscore.Fitness>
14.2591

> <Gold.Chemscore.DG>
-15.2117

> <Gold.Chemscore.ZeroCoef>
-5.4800

> <Gold.Chemscore.Hbond>
1.7308

> <Gold.Chemscore.Metal>
0.0000

> <Gold.Chemscore.Lipo>
77.8814

> <Gold.Chemscore.Internal_Hbond>
0.0000

> <Gold.Chemscore.DEClash>
0.2445

> <Gold.Chemscore.DEInternal>
0.7081

> <Gold.Chemscore.Rot>
2.0162

> <Gold.Chemscore.Internal.Correction>
   9.000000E+99

> <Gold.Chemscore.Hbonds>
donor molecule, donor type, donor heavy atom, donor atom, acceptor molecule, acceptor atom, score
      L1  H    11    27       P1  8029  0.01
      P1  H  6933  6944       L1     6  0.57
      P1  H  6934  6946       L1    10  0.87

> <Gold.Chemscore.Hbond.Weighted>
-5.7810

> <Gold.Chemscore.Metal.Weighted>
-0.0000

> <Gold.Chemscore.Lipo.Weighted>
-9.1121

> <Gold.Chemscore.Internal_Hbond.Weighted>
0.0000

> <Gold.Chemscore.DEClash.Weighted>
0.2445

> <Gold.Chemscore.DEInternal.Weighted>
0.7081

> <Gold.Chemscore.Rot.Weighted>
5.1614

> <Gold.Chemscore.Internal.Correction.Weighted>
   9.000000E+99

> <Gold.Protein.RotatedTorsions>
[ 6907 6896 6895 6894 ] final    8.85 input  -60.11 | X-H torsion
[ 7974 7965 7964 7962 ] final   63.10 input  175.53 | X-H torsion
[ 8008 7997 7996 7995 ] final  -22.18 input   59.86 | X-H torsion
[ 10167 10162 10161 10158 ] final   56.09 input  -65.29 | X-H torsion
[ 10718 10713 10712 10709 ] final   60.28 input   66.30 | X-H torsion
[ 10763 10752 10751 10750 ] final  128.44 input  -60.55 | X-H torsion
[ 11005 11000 10999 10996 ] final   -7.33 input  -57.11 | X-H torsion

> <Gold.Protein.ActiveResidues>
 VAL166  LYS551  ARG553  GLY616  TRP617  ASP618  TYR619  PRO620  LYS621  CYS622 
 ASP623  PHE694  ASN695  SER759  ASP760  ASP761  ALA762  ILE779  LEU786  VAL792 
 PHE793  MET794  SER795  GLU796  ALA797  LYS798  CYS799  TRP800  GLU811  SER814 

> <Gold.Protein.RotatedAtoms>
  151.7127  135.0909  160.0270 H   0  0  0  0  0  0  0  0  0  0  0  0  # atno 6907 bound_to 6896
  152.3652  133.6343  159.6053 H   0  0  0  0  0  0  0  0  0  0  0  0  # atno 6908 bound_to 6896
  150.7632  133.9276  159.3458 H   0  0  0  0  0  0  0  0  0  0  0  0  # atno 6909 bound_to 6896
  145.8657  139.3344  143.0792 H   0  0  0  0  0  0  0  0  0  0  0  0  # atno 7974 bound_to 7965
  154.4660  140.2015  156.0118 H   0  0  0  0  0  0  0  0  0  0  0  0  # atno 8008 bound_to 7997
  156.0927  140.3255  155.7808 H   0  0  0  0  0  0  0  0  0  0  0  0  # atno 8009 bound_to 7997
  155.4930  140.0547  157.2941 H   0  0  0  0  0  0  0  0  0  0  0  0  # atno 8010 bound_to 7997
  140.2124  144.3875  150.6483 H   0  0  0  0  0  0  0  0  0  0  0  0  # atno 10167 bound_to 10162
  157.5741  130.8930  149.9316 H   0  0  0  0  0  0  0  0  0  0  0  0  # atno 10718 bound_to 10713
  153.7256  135.3246  155.3275 H   0  0  0  0  0  0  0  0  0  0  0  0  # atno 10763 bound_to 10752
  154.8342  135.4510  154.1173 H   0  0  0  0  0  0  0  0  0  0  0  0  # atno 10764 bound_to 10752
  153.2306  135.6959  153.7975 H   0  0  0  0  0  0  0  0  0  0  0  0  # atno 10765 bound_to 10752
  140.7116  133.8904  155.8755 H   0  0  0  0  0  0  0  0  0  0  0  0  # atno 11005 bound_to 11000
  145.9196  140.9124  143.0412 LP  0  0  0  0  0  0  0  0  0  0  0  0  # atno 17320 bound_to 7965
  144.6726  140.1270  143.7446 LP  0  0  0  0  0  0  0  0  0  0  0  0  # atno 17321 bound_to 7965
  140.6314  143.2188  151.6488 LP  0  0  0  0  0  0  0  0  0  0  0  0  # atno 17342 bound_to 10162
  139.5175  144.3314  152.0823 LP  0  0  0  0  0  0  0  0  0  0  0  0  # atno 17343 bound_to 10162
  156.0785  130.3676  150.0627 LP  0  0  0  0  0  0  0  0  0  0  0  0  # atno 17370 bound_to 10713
  156.8776  130.9545  151.3603 LP  0  0  0  0  0  0  0  0  0  0  0  0  # atno 17371 bound_to 10713
  141.0079  134.1060  157.4251 LP  0  0  0  0  0  0  0  0  0  0  0  0  # atno 17394 bound_to 11000
  139.8870  135.0086  156.6534 LP  0  0  0  0  0  0  0  0  0  0  0  0  # atno 17395 bound_to 11000

$$$$
