#       Name:                AV-unprocessed.smi:1240
#       Creating user name   scv26
#       Creation time:       Fri Mar 27 04:28:27 2020


#       File generated by GOLD software.
#

@<TRIPOS>MOLECULE
AV-unprocessed.smi:1240
    55    57     1
SMALL
NO_CHARGES


@<TRIPOS>ATOM
      1 ****        -0.9444   1.0295  -2.1943 O.2            1 S1                 0.0000
      2 ****        -1.5218   1.2574  -1.1314 C.2            1 S1                 0.0000
      3 ****        -1.5829   0.3769  -0.1224 N.am           1 S1                 0.0000
      4 ****        -0.9527  -0.9398  -0.1215 C.3            1 S1                 0.0000
      5 ****         0.5849  -0.8707   0.1058 C.3            1 S1                 0.0000
      6 ****         0.9685  -0.0073   1.3460 C.3            1 S1                 0.0000
      7 ****         0.2423  -0.2786   2.6660 C.3            1 S1                 0.0000
      8 ****         1.3539  -0.2290   3.7166 C.3            1 S1                 0.0000
      9 ****         2.4186   0.4602   3.0791 O.3            1 S1                 0.0000
     10 ****         2.4510   0.0070   1.7360 C.3            1 S1                 0.0000
     11 ****         1.2867  -2.1654   0.0071 N.3            1 S1                 0.0000
     12 ****         0.9136  -3.1634   1.0073 C.3            1 S1                 0.0000
     13 ****         1.7613  -4.4419   0.8817 C.3            1 S1                 0.0000
     14 ****         1.6668  -4.9609  -0.4405 O.3            1 S1                 0.0000
     15 ****         2.0888  -4.0255  -1.4273 C.3            1 S1                 0.0000
     16 ****         1.2264  -2.7569  -1.3276 C.3            1 S1                 0.0000
     17 ****        -2.1427   2.4057  -0.8110 N.am           1 S1                 0.0000
     18 ****        -2.2614   3.5933  -1.5823 C.ar           1 S1                 0.0000
     19 ****        -2.5206   4.7984  -0.8972 C.ar           1 S1                 0.0000
     20 ****        -2.6555   5.9871  -1.6416 C.ar           1 S1                 0.0000
     21 ****        -2.5596   6.0343  -2.9870 N.ar           1 S1                 0.0000
     22 ****        -2.3272   4.8773  -3.6423 C.ar           1 S1                 0.0000
     23 ****        -2.1752   3.6350  -2.9947 C.ar           1 S1                 0.0000
     24 ****        -2.0776   0.6444   0.7159 H              1 S1                 0.0000
     25 ****        -1.4323  -1.5317   0.6573 H              1 S1                 0.0000
     26 ****        -1.1927  -1.4332  -1.0633 H              1 S1                 0.0000
     27 ****         0.9693  -0.2842  -0.7300 H              1 S1                 0.0000
     28 ****         0.7321   1.0274   1.0925 H              1 S1                 0.0000
     29 ****        -0.4945   0.5041   2.8503 H              1 S1                 0.0000
     30 ****        -0.2882  -1.2286   2.6987 H              1 S1                 0.0000
     31 ****         1.0440   0.2724   4.6337 H              1 S1                 0.0000
     32 ****         1.6840  -1.2365   3.9740 H              1 S1                 0.0000
     33 ****         2.9017  -0.9859   1.7132 H              1 S1                 0.0000
     34 ****         3.0451   0.6670   1.1036 H              1 S1                 0.0000
     35 ****         1.0568  -2.7674   2.0098 H              1 S1                 0.0000
     36 ****        -0.1412  -3.4202   0.9084 H              1 S1                 0.0000
     37 ****         2.8053  -4.2347   1.1218 H              1 S1                 0.0000
     38 ****         1.4150  -5.1967   1.5874 H              1 S1                 0.0000
     39 ****         3.1450  -3.7888  -1.2899 H              1 S1                 0.0000
     40 ****         1.9867  -4.4772  -2.4140 H              1 S1                 0.0000
     41 ****         0.1993  -3.0186  -1.5802 H              1 S1                 0.0000
     42 ****         1.5605  -2.0335  -2.0723 H              1 S1                 0.0000
     43 ****        -2.5050   2.4645   0.1292 H              1 S1                 0.0000
     44 ****        -2.6084   4.8181   0.1793 H              1 S1                 0.0000
     45 ****        -2.8473   6.9253  -1.1421 H              1 S1                 0.0000
     46 ****        -2.2665   4.9416  -4.7187 H              1 S1                 0.0000
     47 ****        -2.0094   2.7495  -3.5885 H              1 S1                 0.0000
     48 ****        -0.4898   0.1505  -2.3379 LP             1 S1                 0.0000
     49 ****        -0.9300   1.7234  -2.9143 LP             1 S1                 0.0000
     50 ****         3.2847   0.2527   3.5338 LP             1 S1                 0.0000
     51 ****         2.2559   1.4465   3.1062 LP             1 S1                 0.0000
     52 ****         2.2322  -1.9075   0.2057 LP             1 S1                 0.0000
     53 ****         0.7147  -5.2083  -0.6202 LP             1 S1                 0.0000
     54 ****         2.2413  -5.7768  -0.5061 LP             1 S1                 0.0000
     55 ****        -2.6575   6.8977  -3.4820 LP             1 S1                 0.0000
@<TRIPOS>BOND
    1    1    2 2     
    2    2    3 am    
    3    2   17 am    
    4    3    4 1     
    5    3   24 1     
    6    4    5 1     
    7    4   25 1     
    8    4   26 1     
    9    5    6 1     
   10    5   11 1     
   11    5   27 1     
   12    6   10 1     
   13    6    7 1     
   14    6   28 1     
   15    7    8 1     
   16    7   29 1     
   17    7   30 1     
   18    8    9 1     
   19    8   31 1     
   20    8   32 1     
   21    9   10 1     
   22   10   33 1     
   23   10   34 1     
   24   11   16 1     
   25   11   12 1     
   26   12   13 1     
   27   12   35 1     
   28   12   36 1     
   29   13   14 1     
   30   13   37 1     
   31   13   38 1     
   32   14   15 1     
   33   15   16 1     
   34   15   39 1     
   35   15   40 1     
   36   16   41 1     
   37   16   42 1     
   38   17   18 1     
   39   17   43 1     
   40   18   23 ar    
   41   18   19 ar    
   42   19   20 ar    
   43   19   44 1     
   44   20   21 ar    
   45   20   45 1     
   46   21   22 ar    
   47   22   23 ar    
   48   22   46 1     
   49   23   47 1     
   50    1   48 1     
   51    1   49 1     
   52    9   50 1     
   53    9   51 1     
   54   11   52 1     
   55   14   53 1     
   56   14   54 1     
   57   21   55 1     
@<TRIPOS>SUBSTRUCTURE
      1 S1             1
@<TRIPOS>SET
LONE_PAIRS      STATIC     ATOMS    <user>   **** ""
8 48 49 50 51 52 53 54 55
DONOR_HYDROGENS      STATIC     ATOMS    <user>   **** ""
2 24 43
ATOM$BLUE        STATIC     ATOMS    COLORGROUP SYSTEM
8 48 49 50 51 52 53 54 55
ATOM$RED        STATIC     ATOMS    COLORGROUP SYSTEM
2 24 43
