AV-unprocessed.smi:2036|AV-procd|sdf|8273|dock2
  -GOLD-   2272010543D 1   1.00000     0.00000
 Structure written by MMmdl.
 41 42  0  0  0  0  0  0  0  0  1 V2000
  155.9445  144.6165  168.8178 C   0  0  0  0  0  0  0  0  0  0  0  0
  156.1722  143.2376  168.5854 O   0  0  0  0  0  0  0  0  0  0  0  0
  156.8395  142.9999  167.3557 C   0  0  0  0  0  0  0  0  0  0  0  0
  155.9153  143.3899  166.2029 C   0  0  0  0  0  0  0  0  0  0  0  0
  155.5457  144.5583  166.0965 O   0  0  0  0  0  0  0  0  0  0  0  0
  155.5668  142.3915  165.3696 N   0  0  0  0  0  0  0  0  0  0  0  0
  154.7246  142.4301  164.2247 C   0  0  0  0  0  0  0  0  0  0  0  0
  153.7184  143.3997  163.9978 C   0  0  0  0  0  0  0  0  0  0  0  0
  152.9587  143.3284  162.8142 C   0  0  0  0  0  0  0  0  0  0  0  0
  153.2312  142.2992  161.8903 C   0  0  0  0  0  0  0  0  0  0  0  0
  152.4720  142.2226  160.7143 N   0  0  0  0  0  0  0  0  0  0  0  0
  152.7080  141.0022  159.9541 C   0  0  0  0  0  0  0  0  0  0  0  0
  151.7422  140.9302  158.7563 C   0  0  2  0  0  0  0  0  0  0  0  0
  152.0188  139.7131  157.8680 C   0  0  0  0  0  0  0  0  0  0  0  0
  151.8923  142.1071  157.9651 O   0  0  0  0  0  0  0  0  0  0  0  0
  151.5910  143.2985  158.6891 C   0  0  2  0  0  0  0  0  0  0  0  0
  151.7107  144.4877  157.7307 C   0  0  0  0  0  0  0  0  0  0  0  0
  152.5559  143.4175  159.8843 C   0  0  0  0  0  0  0  0  0  0  0  0
  154.2010  141.3767  162.0935 N   0  0  0  0  0  0  0  0  0  0  0  0
  154.9245  141.4497  163.2305 C   0  0  0  0  0  0  0  0  0  0  0  0
  155.4380  144.7490  169.7738 H   0  0  0  0  0  0  0  0  0  0  0  0
  155.3131  145.0478  168.0401 H   0  0  0  0  0  0  0  0  0  0  0  0
  156.8835  145.1699  168.8542 H   0  0  0  0  0  0  0  0  0  0  0  0
  157.7606  143.5832  167.3043 H   0  0  0  0  0  0  0  0  0  0  0  0
  157.1053  141.9459  167.2625 H   0  0  0  0  0  0  0  0  0  0  0  0
  155.9011  141.4740  165.6274 H   0  0  0  0  0  0  0  0  0  0  0  0
  153.5183  144.1989  164.6932 H   0  0  0  0  0  0  0  0  0  0  0  0
  152.1825  144.0544  162.6206 H   0  0  0  0  0  0  0  0  0  0  0  0
  153.7405  140.9829  159.6018 H   0  0  0  0  0  0  0  0  0  0  0  0
  152.5713  140.1345  160.6007 H   0  0  0  0  0  0  0  0  0  0  0  0
  150.7136  140.8706  159.1164 H   0  0  0  0  0  0  0  0  0  0  0  0
  151.9061  138.7850  158.4288 H   0  0  0  0  0  0  0  0  0  0  0  0
  153.0319  139.7408  157.4658 H   0  0  0  0  0  0  0  0  0  0  0  0
  151.3268  139.6795  157.0263 H   0  0  0  0  0  0  0  0  0  0  0  0
  150.5623  143.2464  159.0507 H   0  0  0  0  0  0  0  0  0  0  0  0
  151.4769  145.4244  158.2371 H   0  0  0  0  0  0  0  0  0  0  0  0
  151.0219  144.3828  156.8923 H   0  0  0  0  0  0  0  0  0  0  0  0
  152.7196  144.5682  157.3251 H   0  0  0  0  0  0  0  0  0  0  0  0
  152.3095  144.2966  160.4810 H   0  0  0  0  0  0  0  0  0  0  0  0
  153.5786  143.5462  159.5264 H   0  0  0  0  0  0  0  0  0  0  0  0
  155.6869  140.6940  163.3518 H   0  0  0  0  0  0  0  0  0  0  0  0
  1  2  1  0  0  0  0
  1 21  1  0  0  0  0
  1 22  1  0  0  0  0
  1 23  1  0  0  0  0
  2  3  1  0  0  0  0
  3  4  1  0  0  0  0
  3 24  1  0  0  0  0
  3 25  1  0  0  0  0
  4  5  2  0  0  0  0
  4  6  1  0  0  0  0
  6  7  1  0  0  0  0
  6 26  1  0  0  0  0
  7 20  1  0  0  0  0
  7  8  2  0  0  0  0
  8  9  1  0  0  0  0
  8 27  1  0  0  0  0
  9 10  2  0  0  0  0
  9 28  1  0  0  0  0
 10 11  1  0  0  0  0
 10 19  1  0  0  0  0
 11 18  1  0  0  0  0
 11 12  1  0  0  0  0
 12 13  1  0  0  0  0
 12 29  1  0  0  0  0
 12 30  1  0  0  0  0
 13 14  1  0  0  0  0
 13 15  1  0  0  0  0
 13 31  1  0  0  0  0
 14 32  1  0  0  0  0
 14 33  1  0  0  0  0
 14 34  1  0  0  0  0
 15 16  1  0  0  0  0
 16 17  1  0  0  0  0
 16 18  1  0  0  0  0
 16 35  1  0  0  0  0
 17 36  1  0  0  0  0
 17 37  1  0  0  0  0
 17 38  1  0  0  0  0
 18 39  1  0  0  0  0
 18 40  1  0  0  0  0
 19 20  2  0  0  0  0
 20 41  1  0  0  0  0
M  END
> <s_m_source_file>
AV-unprocessed.smi

> <i_m_source_file_index>
2036

> <i_lp_mmshare_version>
43012

> <i_f3d_flags>
0

> <s_epik_input>
W0NIM11PW0NIMl1DKD1PKVtOSF1jMVtjSF1bY0hdYyhuW2NIXTEpTjJbQ0gyXVtDQEBIXShbQ0gzXSlPW0NAQEhdKFtDSDNdKVtDSDJdMg==

> <s_epik_cmdline>
J2VwaWtfcHl0aG9uJywgJy1waCcsICc3LjAnLCAnLXRuJywgJzgnLCAnLW1hJywgJzIwMCcsICctbWV0YWxfYmluZGluZycsICctaW1hZScsICc8aW5maWxlLm1hZT4nLCAnLW9tYWUnLCAnPG91dGZpbGUubWFlPic=

> <r_lp_tautomer_probability>
1

> <r_epik_Ionization_Penalty>
0.000662619

> <r_epik_Ionization_Penalty_Charging>
0

> <r_epik_Ionization_Penalty_Neutral>
0.000662619

> <r_epik_State_Penalty>
0.000419321

> <r_epik_Charging_Adjusted_Penalty>
0.000419321

> <i_epik_Tot_Q>
0

> <i_epik_Tot_abs_Q>
0

> <r_epik_Metal_State_Penalty>
-0

> <b_epik_Metal_Only>
0

> <s_lp_Force_Field>
OPLS_2005

> <r_lp_Energy>
23.9394

> <b_lp_Chiralities_Consistent>
1

> <s_lp_Variant>
AV-unprocessed.smi:2036-1

> <Gold.Version>
5.8.1

> <Gold.Id.Protein>
6NUR|6NUR_protein|mol2

> <Gold.PLP.Fitness>
40.8643

> <Gold.PLP.PLP>
-41.2064

> <Gold.PLP.part.hbond>
-1.4560

> <Gold.PLP.part.metal>
0.0000

> <Gold.PLP.part.buried>
-2.5653

> <Gold.PLP.part.nonpolar>
-37.1658

> <Gold.PLP.part.repulsive>
0.2480

> <Gold.PLP.ligand.clash>
0.0000

> <Gold.PLP.ligand.torsion>
0.2238

> <Gold.PLP.Chemscore.Hbond>
0.0000

> <Gold.PLP.Chemscore.CHOScore>
0.0000

> <Gold.PLP.Chemscore.Metal>
0.0000

> <Gold.PLP.Chemscore.Internal.Correction>
0.1054

> <Gold.Rescore>
     Score         DG    S(hbond)    S(metal)    S(lipo)     H(rot)  DE(clash)    DE(int)     intcor
     11.65     -13.98       0.00        0.00     103.44       1.41       0.14       2.19       ----

> <Gold.Chemscore.Fitness>
11.6469

> <Gold.Chemscore.DG>
-13.9794

> <Gold.Chemscore.ZeroCoef>
-5.4800

> <Gold.Chemscore.Hbond>
0.0000

> <Gold.Chemscore.Metal>
0.0000

> <Gold.Chemscore.Lipo>
103.4444

> <Gold.Chemscore.Internal_Hbond>
0.0000

> <Gold.Chemscore.DEClash>
0.1380

> <Gold.Chemscore.DEInternal>
2.1944

> <Gold.Chemscore.Rot>
1.4077

> <Gold.Chemscore.Internal.Correction>
   9.000000E+99

> <Gold.Chemscore.Hbond.Weighted>
-0.0000

> <Gold.Chemscore.Metal.Weighted>
-0.0000

> <Gold.Chemscore.Lipo.Weighted>
-12.1030

> <Gold.Chemscore.Internal_Hbond.Weighted>
0.0000

> <Gold.Chemscore.DEClash.Weighted>
0.1380

> <Gold.Chemscore.DEInternal.Weighted>
2.1944

> <Gold.Chemscore.Rot.Weighted>
3.6036

> <Gold.Chemscore.Internal.Correction.Weighted>
   9.000000E+99

> <Gold.Protein.RotatedTorsions>
[ 6907 6896 6895 6894 ] final   58.31 input  -60.11 | X-H torsion
[ 7974 7965 7964 7962 ] final   76.69 input  175.53 | X-H torsion
[ 8008 7997 7996 7995 ] final  -33.86 input   59.86 | X-H torsion
[ 10167 10162 10161 10158 ] final   28.74 input  -65.29 | X-H torsion
[ 10718 10713 10712 10709 ] final   -1.65 input   66.30 | X-H torsion
[ 10763 10752 10751 10750 ] final   63.87 input  -60.55 | X-H torsion
[ 11005 11000 10999 10996 ] final  161.90 input  -57.11 | X-H torsion

> <Gold.Protein.ActiveResidues>
 VAL166  LYS551  ARG553  GLY616  TRP617  ASP618  TYR619  PRO620  LYS621  CYS622 
 ASP623  PHE694  ASN695  SER759  ASP760  ASP761  ALA762  ILE779  LEU786  VAL792 
 PHE793  MET794  SER795  GLU796  ALA797  LYS798  CYS799  TRP800  GLU811  SER814 

> <Gold.Protein.RotatedAtoms>
  152.3813  134.6586  160.0141 H   0  0  0  0  0  0  0  0  0  0  0  0  # atno 6907 bound_to 6896
  151.6849  133.3306  159.3236 H   0  0  0  0  0  0  0  0  0  0  0  0  # atno 6908 bound_to 6896
  150.7749  134.6685  159.6423 H   0  0  0  0  0  0  0  0  0  0  0  0  # atno 6909 bound_to 6896
  145.6995  139.2578  143.1713 H   0  0  0  0  0  0  0  0  0  0  0  0  # atno 7974 bound_to 7965
  154.4137  140.1699  156.1956 H   0  0  0  0  0  0  0  0  0  0  0  0  # atno 8008 bound_to 7997
  155.9567  140.3397  155.6431 H   0  0  0  0  0  0  0  0  0  0  0  0  # atno 8009 bound_to 7997
  155.6801  140.0721  157.2478 H   0  0  0  0  0  0  0  0  0  0  0  0  # atno 8010 bound_to 7997
  140.4826  144.0591  150.6270 H   0  0  0  0  0  0  0  0  0  0  0  0  # atno 10167 bound_to 10162
  156.8024  130.5397  149.5720 H   0  0  0  0  0  0  0  0  0  0  0  0  # atno 10718 bound_to 10713
  153.0034  135.5413  154.6421 H   0  0  0  0  0  0  0  0  0  0  0  0  # atno 10763 bound_to 10752
  154.5673  135.2839  155.0863 H   0  0  0  0  0  0  0  0  0  0  0  0  # atno 10764 bound_to 10752
  154.2043  135.6478  153.5148 H   0  0  0  0  0  0  0  0  0  0  0  0  # atno 10765 bound_to 10752
  140.2204  134.8200  157.3214 H   0  0  0  0  0  0  0  0  0  0  0  0  # atno 11005 bound_to 11000
  146.0810  140.7764  142.9641 LP  0  0  0  0  0  0  0  0  0  0  0  0  # atno 17320 bound_to 7965
  144.6972  140.3489  143.7185 LP  0  0  0  0  0  0  0  0  0  0  0  0  # atno 17321 bound_to 7965
  140.3838  143.2788  152.0140 LP  0  0  0  0  0  0  0  0  0  0  0  0  # atno 17342 bound_to 10162
  139.4836  144.6133  151.7393 LP  0  0  0  0  0  0  0  0  0  0  0  0  # atno 17343 bound_to 10162
  156.1093  130.6028  151.0022 LP  0  0  0  0  0  0  0  0  0  0  0  0  # atno 17370 bound_to 10713
  157.6547  131.0891  150.7974 LP  0  0  0  0  0  0  0  0  0  0  0  0  # atno 17371 bound_to 10713
  140.1856  134.4435  155.7746 LP  0  0  0  0  0  0  0  0  0  0  0  0  # atno 17394 bound_to 11000
  141.2223  133.7003  156.7941 LP  0  0  0  0  0  0  0  0  0  0  0  0  # atno 17395 bound_to 11000

$$$$
