AV-unprocessed.smi:1228|AV-procd|sdf|5147|dock1
  -GOLD-   22720 4213D 1   1.00000     0.00000
 Structure written by MMmdl.
 44 46  0  0  0  0  0  0  0  0  2 V2000
  146.1974  138.3730  151.3976 C   0  0  0  0  0  0  0  0  0  0  0  0
  146.9041  138.8461  152.6334 C   0  0  0  0  0  0  0  0  0  0  0  0
  147.3813  140.1573  152.9239 C   0  0  0  0  0  0  0  0  0  0  0  0
  147.9304  140.0092  154.1682 C   0  0  0  0  0  0  0  0  0  0  0  0
  148.5361  140.9406  154.9522 N   0  0  0  0  0  0  0  0  0  0  0  0
  149.6748  140.8308  155.6590 C   0  0  0  0  0  0  0  0  0  0  0  0
  150.3756  139.8215  155.7336 O   0  0  0  0  0  0  0  0  0  0  0  0
  149.9650  141.9763  156.2938 N   0  0  0  0  0  0  0  0  0  0  0  0
  151.1400  142.1941  157.1333 C   0  0  2  0  0  0  0  0  0  0  0  0
  151.3635  141.0078  158.0900 C   0  0  0  0  0  0  0  0  0  0  0  0
  152.5448  141.2772  159.0368 C   0  0  0  0  0  0  0  0  0  0  0  0
  152.3422  142.5343  159.7993 N   0  3  1  0  0  0  0  0  0  0  0  0
  153.4121  142.7596  160.7956 C   0  0  0  0  0  0  0  0  0  0  0  0
  153.7294  141.5430  161.6338 C   0  0  0  0  0  0  0  0  0  0  0  0
  152.9350  142.6853  162.2274 C   0  0  0  0  0  0  0  0  0  0  0  0
  152.1616  143.7008  158.8995 C   0  0  0  0  0  0  0  0  0  0  0  0
  150.9720  143.4872  157.9480 C   0  0  0  0  0  0  0  0  0  0  0  0
  147.7778  138.7004  154.5690 N   0  0  0  0  0  0  0  0  0  0  0  0
  148.1918  138.0607  155.8025 C   0  0  0  0  0  0  0  0  0  0  0  0
  147.1449  137.9839  153.6150 N   0  0  0  0  0  0  0  0  0  0  0  0
  145.9096  139.2120  150.7636 H   0  0  0  0  0  0  0  0  0  0  0  0
  145.2905  137.8218  151.6478 H   0  0  0  0  0  0  0  0  0  0  0  0
  146.8371  137.7157  150.8084 H   0  0  0  0  0  0  0  0  0  0  0  0
  147.3183  141.0422  152.3086 H   0  0  0  0  0  0  0  0  0  0  0  0
  148.0641  141.8312  155.0024 H   0  0  0  0  0  0  0  0  0  0  0  0
  149.3346  142.7564  156.1782 H   0  0  0  0  0  0  0  0  0  0  0  0
  152.0177  142.3059  156.4933 H   0  0  0  0  0  0  0  0  0  0  0  0
  150.4613  140.8281  158.6769 H   0  0  0  0  0  0  0  0  0  0  0  0
  151.5509  140.0944  157.5240 H   0  0  0  0  0  0  0  0  0  0  0  0
  152.6535  140.4424  159.7302 H   0  0  0  0  0  0  0  0  0  0  0  0
  153.4746  141.3399  158.4688 H   0  0  0  0  0  0  0  0  0  0  0  0
  154.2002  143.4547  160.5105 H   0  0  0  0  0  0  0  0  0  0  0  0
  153.1962  140.6174  161.4239 H   0  0  0  0  0  0  0  0  0  0  0  0
  154.7559  141.4210  161.9733 H   0  0  0  0  0  0  0  0  0  0  0  0
  153.4386  143.3156  162.9577 H   0  0  0  0  0  0  0  0  0  0  0  0
  151.8751  142.5177  162.4105 H   0  0  0  0  0  0  0  0  0  0  0  0
  151.9942  144.5993  159.4945 H   0  0  0  0  0  0  0  0  0  0  0  0
  153.0762  143.8662  158.3275 H   0  0  0  0  0  0  0  0  0  0  0  0
  150.8785  144.3427  157.2779 H   0  0  0  0  0  0  0  0  0  0  0  0
  150.0484  143.4454  158.5275 H   0  0  0  0  0  0  0  0  0  0  0  0
  149.2793  138.0772  155.8756 H   0  0  0  0  0  0  0  0  0  0  0  0
  147.8505  137.0250  155.8322 H   0  0  0  0  0  0  0  0  0  0  0  0
  147.7681  138.5955  156.6528 H   0  0  0  0  0  0  0  0  0  0  0  0
  151.4817  142.4270  160.3168 H   0  0  0  0  0  0  0  0  0  0  0  0
  1  2  1  0  0  0  0
  1 21  1  0  0  0  0
  1 22  1  0  0  0  0
  1 23  1  0  0  0  0
  2 20  2  0  0  0  0
  2  3  1  0  0  0  0
  3  4  2  0  0  0  0
  3 24  1  0  0  0  0
  4  5  1  0  0  0  0
  4 18  1  0  0  0  0
  5  6  1  0  0  0  0
  5 25  1  0  0  0  0
  6  7  2  0  0  0  0
  6  8  1  0  0  0  0
  8  9  1  0  0  0  0
  8 26  1  0  0  0  0
  9 17  1  0  0  0  0
  9 10  1  0  0  0  0
  9 27  1  0  0  0  0
 10 11  1  0  0  0  0
 10 28  1  0  0  0  0
 10 29  1  0  0  0  0
 11 12  1  0  0  0  0
 11 30  1  0  0  0  0
 11 31  1  0  0  0  0
 12 13  1  0  0  0  0
 12 16  1  0  0  0  0
 12 44  1  0  0  0  0
 13 15  1  0  0  0  0
 13 14  1  0  0  0  0
 13 32  1  0  0  0  0
 14 15  1  0  0  0  0
 14 33  1  0  0  0  0
 14 34  1  0  0  0  0
 15 35  1  0  0  0  0
 15 36  1  0  0  0  0
 16 17  1  0  0  0  0
 16 37  1  0  0  0  0
 16 38  1  0  0  0  0
 17 39  1  0  0  0  0
 17 40  1  0  0  0  0
 18 19  1  0  0  0  0
 18 20  1  0  0  0  0
 19 41  1  0  0  0  0
 19 42  1  0  0  0  0
 19 43  1  0  0  0  0
M  CHG  1  12   1
M  END
> <s_m_source_file>
AV-unprocessed.smi

> <i_m_source_file_index>
1228

> <i_lp_mmshare_version>
43012

> <i_f3d_flags>
0

> <s_epik_input>
W0NIM11jMVtjSF1jKG4objEpW0NIM10pW05IXUMoPU8pW05IXVtDSF0yW0NIMl1bQ0gyXU4oW0NIMl1bQ0gyXTIpW0NIXTNbQ0gyXVtDSDJdMw==

> <s_epik_cmdline>
J2VwaWtfcHl0aG9uJywgJy1waCcsICc3LjAnLCAnLXRuJywgJzgnLCAnLW1hJywgJzIwMCcsICctbWV0YWxfYmluZGluZycsICctaW1hZScsICc8aW5maWxlLm1hZT4nLCAnLW9tYWUnLCAnPG91dGZpbGUubWFlPic=

> <r_lp_tautomer_probability>
1

> <r_epik_Ionization_Penalty>
0.11882

> <r_epik_Ionization_Penalty_Charging>
0.11874

> <r_epik_Ionization_Penalty_Neutral>
8.03064e-05

> <r_epik_State_Penalty>
0.108313

> <r_epik_Charging_Adjusted_Penalty>
0.227053

> <i_epik_Tot_Q>
1

> <i_epik_Tot_abs_Q>
1

> <r_epik_Metal_State_Penalty>
0.108316

> <b_epik_Metal_Only>
0

> <s_lp_Force_Field>
OPLS_2005

> <r_lp_Energy>
27.674

> <b_lp_Chiralities_Consistent>
1

> <s_lp_Variant>
AV-unprocessed.smi:1228-1

> <Gold.Version>
5.8.1

> <Gold.Id.Protein>
6NUR|6NUR_protein|mol2

> <Gold.PLP.Fitness>
37.3519

> <Gold.PLP.PLP>
-35.7407

> <Gold.PLP.part.hbond>
-1.0000

> <Gold.PLP.part.metal>
0.0000

> <Gold.PLP.part.buried>
-0.1109

> <Gold.PLP.part.nonpolar>
-36.0312

> <Gold.PLP.part.repulsive>
0.8506

> <Gold.PLP.ligand.clash>
0.0000

> <Gold.PLP.ligand.torsion>
1.3297

> <Gold.PLP.Chemscore.Hbond>
1.0000

> <Gold.PLP.Chemscore.CHOScore>
0.0000

> <Gold.PLP.Chemscore.Metal>
0.0000

> <Gold.Chemscore.Hbonds>
donor molecule, donor type, donor heavy atom, donor atom, acceptor molecule, acceptor atom, score
      L1  H     8    26       P1  8028  0.88

> <Gold.PLP.Chemscore.Internal.Correction>
1.2707

> <Gold.Rescore>
     Score         DG    S(hbond)    S(metal)    S(lipo)     H(rot)  DE(clash)    DE(int)     intcor
     13.72     -18.25       0.98        0.00     107.54       1.21       1.61       2.92       ----

> <Gold.Chemscore.Fitness>
13.7204

> <Gold.Chemscore.DG>
-18.2461

> <Gold.Chemscore.ZeroCoef>
-5.4800

> <Gold.Chemscore.Hbond>
0.9824

> <Gold.Chemscore.Metal>
0.0000

> <Gold.Chemscore.Lipo>
107.5366

> <Gold.Chemscore.Internal_Hbond>
0.0000

> <Gold.Chemscore.DEClash>
1.6059

> <Gold.Chemscore.DEInternal>
2.9198

> <Gold.Chemscore.Rot>
1.2097

> <Gold.Chemscore.Internal.Correction>
   9.000000E+99

> <Gold.Chemscore.Hbonds>
donor molecule, donor type, donor heavy atom, donor atom, acceptor molecule, acceptor atom, score
      L1  H     8    26       P1  8028  0.83

> <Gold.Chemscore.Hbond.Weighted>
-3.2813

> <Gold.Chemscore.Metal.Weighted>
-0.0000

> <Gold.Chemscore.Lipo.Weighted>
-12.5818

> <Gold.Chemscore.Internal_Hbond.Weighted>
0.0000

> <Gold.Chemscore.DEClash.Weighted>
1.6059

> <Gold.Chemscore.DEInternal.Weighted>
2.9198

> <Gold.Chemscore.Rot.Weighted>
3.0969

> <Gold.Chemscore.Internal.Correction.Weighted>
   9.000000E+99

> <Gold.Protein.RotatedTorsions>
[ 6907 6896 6895 6894 ] final -107.62 input  -60.11 | X-H torsion
[ 7974 7965 7964 7962 ] final  -88.38 input  175.53 | X-H torsion
[ 8008 7997 7996 7995 ] final   15.28 input   59.86 | X-H torsion
[ 10167 10162 10161 10158 ] final   75.32 input  -65.29 | X-H torsion
[ 10718 10713 10712 10709 ] final    9.81 input   66.30 | X-H torsion
[ 10763 10752 10751 10750 ] final   95.22 input  -60.55 | X-H torsion
[ 11005 11000 10999 10996 ] final    4.94 input  -57.11 | X-H torsion

> <Gold.Protein.ActiveResidues>
 VAL166  LYS551  ARG553  GLY616  TRP617  ASP618  TYR619  PRO620  LYS621  CYS622 
 ASP623  PHE694  ASN695  SER759  ASP760  ASP761  ALA762  ILE779  LEU786  VAL792 
 PHE793  MET794  SER795  GLU796  ALA797  LYS798  CYS799  TRP800  GLU811  SER814 

> <Gold.Protein.RotatedAtoms>
  150.7454  133.9799  159.3572 H   0  0  0  0  0  0  0  0  0  0  0  0  # atno 6907 bound_to 6896
  151.7740  135.0777  160.0373 H   0  0  0  0  0  0  0  0  0  0  0  0  # atno 6908 bound_to 6896
  152.3320  133.5932  159.5852 H   0  0  0  0  0  0  0  0  0  0  0  0  # atno 6909 bound_to 6896
  145.4539  140.9561  143.2007 H   0  0  0  0  0  0  0  0  0  0  0  0  # atno 7974 bound_to 7965
  154.8604  140.2943  155.5542 H   0  0  0  0  0  0  0  0  0  0  0  0  # atno 8008 bound_to 7997
  156.3019  140.2479  156.3510 H   0  0  0  0  0  0  0  0  0  0  0  0  # atno 8009 bound_to 7997
  154.8924  140.0394  157.1835 H   0  0  0  0  0  0  0  0  0  0  0  0  # atno 8010 bound_to 7997
  140.0042  144.5663  150.7711 H   0  0  0  0  0  0  0  0  0  0  0  0  # atno 10167 bound_to 10162
  156.9718  130.5972  149.5669 H   0  0  0  0  0  0  0  0  0  0  0  0  # atno 10718 bound_to 10713
  153.2507  135.4262  155.0794 H   0  0  0  0  0  0  0  0  0  0  0  0  # atno 10763 bound_to 10752
  154.8380  135.3425  154.6517 H   0  0  0  0  0  0  0  0  0  0  0  0  # atno 10764 bound_to 10752
  153.6939  135.7032  153.5139 H   0  0  0  0  0  0  0  0  0  0  0  0  # atno 10765 bound_to 10752
  140.5762  134.0055  155.8029 H   0  0  0  0  0  0  0  0  0  0  0  0  # atno 11005 bound_to 11000
  144.8044  139.6078  143.7057 LP  0  0  0  0  0  0  0  0  0  0  0  0  # atno 17320 bound_to 7965
  146.2489  139.6157  142.9440 LP  0  0  0  0  0  0  0  0  0  0  0  0  # atno 17321 bound_to 7965
  140.7407  143.2808  151.3605 LP  0  0  0  0  0  0  0  0  0  0  0  0  # atno 17342 bound_to 10162
  139.6250  144.0832  152.2426 LP  0  0  0  0  0  0  0  0  0  0  0  0  # atno 17343 bound_to 10162
  156.0279  130.5372  150.8457 LP  0  0  0  0  0  0  0  0  0  0  0  0  # atno 17370 bound_to 10713
  157.5587  131.0945  150.9591 LP  0  0  0  0  0  0  0  0  0  0  0  0  # atno 17371 bound_to 10713
  141.1025  133.9746  157.3055 LP  0  0  0  0  0  0  0  0  0  0  0  0  # atno 17394 bound_to 11000
  139.9338  135.0198  156.8489 LP  0  0  0  0  0  0  0  0  0  0  0  0  # atno 17395 bound_to 11000

$$$$
