AV-unprocessed.smi:1338|AV-procd|sdf|5501|dock6
  -GOLD-   22720 5 83D 1   1.00000     0.00000
 Structure written by MMmdl.
 39 40  0  0  0  0  0  0  0  0  2 V2000
  150.2012  134.9657  155.0234 C   0  0  0  0  0  0  0  0  0  0  0  0
  150.3872  136.4589  155.1897 C   0  0  0  0  0  0  0  0  0  0  0  0
  149.4047  137.2418  154.9531 N   0  0  0  0  0  0  0  0  0  0  0  0
  149.5711  138.6282  155.1111 C   0  0  0  0  0  0  0  0  0  0  0  0
  148.3488  139.4790  154.8117 C   0  0  0  0  0  0  0  0  0  0  0  0
  150.7643  139.1551  155.5106 C   0  0  0  0  0  0  0  0  0  0  0  0
  150.9943  140.6535  155.7036 C   0  0  0  0  0  0  0  0  0  0  0  0
  151.2696  141.0936  157.1424 C   0  0  0  0  0  0  0  0  0  0  0  0
  151.8477  140.3347  157.9199 O   0  0  0  0  0  0  0  0  0  0  0  0
  150.8515  142.3226  157.4833 N   0  0  0  0  0  0  0  0  0  0  0  0
  151.0210  142.9387  158.7952 C   0  0  0  0  0  0  0  0  0  0  0  0
  150.5628  144.4120  158.7680 C   0  0  0  0  0  0  0  0  0  0  0  0
  150.8082  145.1027  160.1192 C   0  0  0  0  0  0  0  0  0  0  0  0
  152.2810  144.9918  160.5429 C   0  0  0  0  0  0  0  0  0  0  0  0
  152.7379  143.5249  160.5784 C   0  0  0  0  0  0  0  0  0  0  0  0
  152.4957  142.8321  159.2275 C   0  0  0  0  0  0  0  0  0  0  0  0
  151.8733  138.2185  155.7674 C   0  0  0  0  0  0  0  0  0  0  0  0
  152.9746  138.6399  156.1188 O   0  0  0  0  0  0  0  0  0  0  0  0
  151.6298  136.8875  155.5981 N   0  5  0  0  0  0  0  0  0  0  0  0
  149.2502  134.7395  154.5394 H   0  0  0  0  0  0  0  0  0  0  0  0
  150.2157  134.4750  155.9970 H   0  0  0  0  0  0  0  0  0  0  0  0
  151.0021  134.5475  154.4128 H   0  0  0  0  0  0  0  0  0  0  0  0
  148.0614  140.0619  155.6865 H   0  0  0  0  0  0  0  0  0  0  0  0
  147.4964  138.8596  154.5304 H   0  0  0  0  0  0  0  0  0  0  0  0
  148.5506  140.1622  153.9868 H   0  0  0  0  0  0  0  0  0  0  0  0
  151.8257  140.9598  155.0682 H   0  0  0  0  0  0  0  0  0  0  0  0
  150.1452  141.2265  155.3304 H   0  0  0  0  0  0  0  0  0  0  0  0
  150.3884  142.8756  156.7770 H   0  0  0  0  0  0  0  0  0  0  0  0
  150.4159  142.3939  159.5227 H   0  0  0  0  0  0  0  0  0  0  0  0
  151.0987  144.9508  157.9852 H   0  0  0  0  0  0  0  0  0  0  0  0
  149.5037  144.4735  158.5151 H   0  0  0  0  0  0  0  0  0  0  0  0
  150.5164  146.1515  160.0585 H   0  0  0  0  0  0  0  0  0  0  0  0
  150.1731  144.6488  160.8811 H   0  0  0  0  0  0  0  0  0  0  0  0
  152.9055  145.5532  159.8468 H   0  0  0  0  0  0  0  0  0  0  0  0
  152.4219  145.4495  161.5224 H   0  0  0  0  0  0  0  0  0  0  0  0
  153.7953  143.4710  160.8392 H   0  0  0  0  0  0  0  0  0  0  0  0
  152.1986  142.9932  161.3634 H   0  0  0  0  0  0  0  0  0  0  0  0
  152.7904  141.7841  159.2947 H   0  0  0  0  0  0  0  0  0  0  0  0
  153.1375  143.2854  158.4706 H   0  0  0  0  0  0  0  0  0  0  0  0
  1  2  1  0  0  0  0
  1 20  1  0  0  0  0
  1 21  1  0  0  0  0
  1 22  1  0  0  0  0
  2 19  1  0  0  0  0
  2  3  2  0  0  0  0
  3  4  1  0  0  0  0
  4  5  1  0  0  0  0
  4  6  2  0  0  0  0
  5 23  1  0  0  0  0
  5 24  1  0  0  0  0
  5 25  1  0  0  0  0
  6  7  1  0  0  0  0
  6 17  1  0  0  0  0
  7  8  1  0  0  0  0
  7 26  1  0  0  0  0
  7 27  1  0  0  0  0
  8  9  2  0  0  0  0
  8 10  1  0  0  0  0
 10 11  1  0  0  0  0
 10 28  1  0  0  0  0
 11 16  1  0  0  0  0
 11 12  1  0  0  0  0
 11 29  1  0  0  0  0
 12 13  1  0  0  0  0
 12 30  1  0  0  0  0
 12 31  1  0  0  0  0
 13 14  1  0  0  0  0
 13 32  1  0  0  0  0
 13 33  1  0  0  0  0
 14 15  1  0  0  0  0
 14 34  1  0  0  0  0
 14 35  1  0  0  0  0
 15 16  1  0  0  0  0
 15 36  1  0  0  0  0
 15 37  1  0  0  0  0
 16 38  1  0  0  0  0
 16 39  1  0  0  0  0
 17 18  2  0  0  0  0
 17 19  1  0  0  0  0
M  CHG  1  19  -1
M  END
> <s_m_source_file>
AV-unprocessed.smi

> <i_m_source_file_index>
1338

> <i_lp_mmshare_version>
43012

> <i_f3d_flags>
0

> <s_epik_input>
W0NIM11jMW5jKFtDSDNdKWMoYyg9TylbbkhdMSlbQ0gyXUMoPU8pW05IXVtDSF0yW0NIMl1bQ0gyXVtDSDJdW0NIMl1bQ0gyXTI=

> <s_epik_cmdline>
J2VwaWtfcHl0aG9uJywgJy1waCcsICc3LjAnLCAnLXRuJywgJzgnLCAnLW1hJywgJzIwMCcsICctbWV0YWxfYmluZGluZycsICctaW1hZScsICc8aW5maWxlLm1hZT4nLCAnLW9tYWUnLCAnPG91dGZpbGUubWFlPic=

> <r_lp_tautomer_probability>
0.839158

> <r_epik_Ionization_Penalty>
6.66811

> <r_epik_Ionization_Penalty_Charging>
7.5907e-08

> <r_epik_Ionization_Penalty_Neutral>
6.66811

> <r_epik_State_Penalty>
4.51402

> <r_epik_Charging_Adjusted_Penalty>
4.51402

> <i_epik_Tot_Q>
-1

> <i_epik_Tot_abs_Q>
1

> <r_epik_Metal_State_Penalty>
0.85041

> <b_epik_Metal_Only>
1

> <s_lp_Force_Field>
OPLS_2005

> <r_lp_Energy>
13.4348

> <b_lp_Chiralities_Consistent>
1

> <s_lp_Variant>
AV-unprocessed.smi:1338-3

> <Gold.Version>
5.8.1

> <Gold.Id.Protein>
6NUR|6NUR_protein|mol2

> <Gold.PLP.Fitness>
43.4594

> <Gold.PLP.PLP>
-35.3885

> <Gold.PLP.part.hbond>
-2.0000

> <Gold.PLP.part.metal>
0.0000

> <Gold.PLP.part.buried>
-5.7938

> <Gold.PLP.part.nonpolar>
-28.8038

> <Gold.PLP.part.repulsive>
0.6149

> <Gold.PLP.ligand.clash>
0.0000

> <Gold.PLP.ligand.torsion>
0.4664

> <Gold.PLP.Chemscore.Hbond>
3.0000

> <Gold.PLP.Chemscore.CHOScore>
0.0000

> <Gold.PLP.Chemscore.Metal>
0.0000

> <Gold.Chemscore.Hbonds>
donor molecule, donor type, donor heavy atom, donor atom, acceptor molecule, acceptor atom, score
      P1  H  7997  8009       L1    18  0.92
      P1  H 10752 10765       L1    19  1.66

> <Gold.PLP.Chemscore.Internal.Correction>
0.0037

> <Gold.Rescore>
     Score         DG    S(hbond)    S(metal)    S(lipo)     H(rot)  DE(clash)    DE(int)     intcor
     15.78     -18.12       1.76        0.00      89.74       1.46       0.38       1.96       ----

> <Gold.Chemscore.Fitness>
15.7768

> <Gold.Chemscore.DG>
-18.1176

> <Gold.Chemscore.ZeroCoef>
-5.4800

> <Gold.Chemscore.Hbond>
1.7586

> <Gold.Chemscore.Metal>
0.0000

> <Gold.Chemscore.Lipo>
89.7360

> <Gold.Chemscore.Internal_Hbond>
0.0000

> <Gold.Chemscore.DEClash>
0.3821

> <Gold.Chemscore.DEInternal>
1.9586

> <Gold.Chemscore.Rot>
1.4591

> <Gold.Chemscore.Internal.Correction>
   9.000000E+99

> <Gold.Chemscore.Hbonds>
donor molecule, donor type, donor heavy atom, donor atom, acceptor molecule, acceptor atom, score
      P1  H  7997  8009       L1    18  0.84
      P1  H 10752 10765       L1    19  0.32

> <Gold.Chemscore.Hbond.Weighted>
-5.8738

> <Gold.Chemscore.Metal.Weighted>
-0.0000

> <Gold.Chemscore.Lipo.Weighted>
-10.4991

> <Gold.Chemscore.Internal_Hbond.Weighted>
0.0000

> <Gold.Chemscore.DEClash.Weighted>
0.3821

> <Gold.Chemscore.DEInternal.Weighted>
1.9586

> <Gold.Chemscore.Rot.Weighted>
3.7353

> <Gold.Chemscore.Internal.Correction.Weighted>
   9.000000E+99

> <Gold.Protein.RotatedTorsions>
[ 6907 6896 6895 6894 ] final   65.76 input  -60.11 | X-H torsion
[ 7974 7965 7964 7962 ] final  147.26 input  175.53 | X-H torsion
[ 8008 7997 7996 7995 ] final -148.29 input   59.86 | X-H torsion
[ 10167 10162 10161 10158 ] final  167.08 input  -65.29 | X-H torsion
[ 10718 10713 10712 10709 ] final   35.00 input   66.30 | X-H torsion
[ 10763 10752 10751 10750 ] final  177.88 input  -60.55 | X-H torsion
[ 11005 11000 10999 10996 ] final   21.87 input  -57.11 | X-H torsion

> <Gold.Protein.ActiveResidues>
 VAL166  LYS551  ARG553  GLY616  TRP617  ASP618  TYR619  PRO620  LYS621  CYS622 
 ASP623  PHE694  ASN695  SER759  ASP760  ASP761  ALA762  ILE779  LEU786  VAL792 
 PHE793  MET794  SER795  GLU796  ALA797  LYS798  CYS799  TRP800  GLU811  SER814 

> <Gold.Protein.RotatedAtoms>
  152.4431  134.5549  159.9877 H   0  0  0  0  0  0  0  0  0  0  0  0  # atno 6907 bound_to 6896
  151.5641  133.3393  159.2985 H   0  0  0  0  0  0  0  0  0  0  0  0  # atno 6908 bound_to 6896
  150.8342  134.7641  159.6942 H   0  0  0  0  0  0  0  0  0  0  0  0  # atno 6909 bound_to 6896
  144.8605  139.6007  143.5932 H   0  0  0  0  0  0  0  0  0  0  0  0  # atno 7974 bound_to 7965
  155.5892  140.0651  157.2763 H   0  0  0  0  0  0  0  0  0  0  0  0  # atno 8008 bound_to 7997
  154.4310  140.1838  156.1103 H   0  0  0  0  0  0  0  0  0  0  0  0  # atno 8009 bound_to 7997
  156.0246  140.3313  155.7078 H   0  0  0  0  0  0  0  0  0  0  0  0  # atno 8010 bound_to 7997
  139.4938  144.3960  151.9464 H   0  0  0  0  0  0  0  0  0  0  0  0  # atno 10167 bound_to 10162
  157.3173  130.7430  149.6762 H   0  0  0  0  0  0  0  0  0  0  0  0  # atno 10718 bound_to 10713
  154.5003  135.2783  155.1426 H   0  0  0  0  0  0  0  0  0  0  0  0  # atno 10763 bound_to 10752
  154.3062  135.6238  153.5449 H   0  0  0  0  0  0  0  0  0  0  0  0  # atno 10764 bound_to 10752
  152.9901  135.5709  154.5444 H   0  0  0  0  0  0  0  0  0  0  0  0  # atno 10765 bound_to 10752
  140.3868  134.1861  155.7663 H   0  0  0  0  0  0  0  0  0  0  0  0  # atno 11005 bound_to 11000
  146.2857  139.6997  142.9197 LP  0  0  0  0  0  0  0  0  0  0  0  0  # atno 17320 bound_to 7965
  145.4321  141.0416  143.2905 LP  0  0  0  0  0  0  0  0  0  0  0  0  # atno 17321 bound_to 7965
  140.3398  144.3217  150.5969 LP  0  0  0  0  0  0  0  0  0  0  0  0  # atno 17342 bound_to 10162
  140.5575  143.2197  151.7822 LP  0  0  0  0  0  0  0  0  0  0  0  0  # atno 17343 bound_to 10162
  155.9682  130.4233  150.4559 LP  0  0  0  0  0  0  0  0  0  0  0  0  # atno 17370 bound_to 10713
  157.2568  131.0558  151.2345 LP  0  0  0  0  0  0  0  0  0  0  0  0  # atno 17371 bound_to 10713
  141.1904  133.8217  157.0918 LP  0  0  0  0  0  0  0  0  0  0  0  0  # atno 17394 bound_to 11000
  140.0436  134.9841  157.1008 LP  0  0  0  0  0  0  0  0  0  0  0  0  # atno 17395 bound_to 11000

$$$$
