AV-unprocessed.smi:378|AV-procd|sdf|2457|dock9
  -GOLD-   2262022393D 1   1.00000     0.00000
 Structure written by MMmdl.
 34 35  0  0  0  0  0  0  0  0  1 V2000
  144.9898  143.9390  156.6496 N   0  0  0  0  0  0  0  0  0  0  0  0
  145.2502  143.5882  155.5783 C   0  0  0  0  0  0  0  0  0  0  0  0
  145.5807  143.1407  154.2163 C   0  0  0  0  0  0  0  0  0  0  0  0
  146.5770  141.9712  154.1901 C   0  0  0  0  0  0  0  0  0  0  0  0
  147.8940  142.3675  154.6750 N   0  0  0  0  0  0  0  0  0  0  0  0
  148.9290  141.5338  154.8545 C   0  0  0  0  0  0  0  0  0  0  0  0
  148.8607  140.3221  154.6428 O   0  0  0  0  0  0  0  0  0  0  0  0
  150.2308  142.1776  155.3558 C   0  0  0  0  0  0  0  0  0  0  0  0
  150.9560  141.3437  156.3395 N   0  0  0  0  0  0  0  0  0  0  0  0
  151.4613  140.0836  155.9283 C   0  0  0  0  0  0  0  0  0  0  0  0
  151.2802  139.6696  154.7820 O   0  0  0  0  0  0  0  0  0  0  0  0
  152.2082  139.3441  156.9434 C   0  0  0  0  0  0  0  0  0  0  0  0
  152.7607  138.0876  156.5590 C   0  0  0  0  0  0  0  0  0  0  0  0
  153.1912  137.0556  156.2598 N   0  0  0  0  0  0  0  0  0  0  0  0
  152.3692  139.8406  158.1873 C   0  0  0  0  0  0  0  0  0  0  0  0
  151.8367  141.0499  158.5777 N   0  0  0  0  0  0  0  0  0  0  0  0
  152.1530  141.6305  159.8522 C   0  0  0  0  0  0  0  0  0  0  0  0
  152.7832  143.0054  159.8963 C   0  0  0  0  0  0  0  0  0  0  0  0
  153.5980  141.7947  160.2816 C   0  0  0  0  0  0  0  0  0  0  0  0
  151.1573  141.8608  157.6424 C   0  0  0  0  0  0  0  0  0  0  0  0
  150.7607  142.9895  157.9441 O   0  0  0  0  0  0  0  0  0  0  0  0
  144.6482  142.8442  153.7363 H   0  0  0  0  0  0  0  0  0  0  0  0
  145.9653  143.9964  153.6606 H   0  0  0  0  0  0  0  0  0  0  0  0
  146.2087  141.1565  154.8143 H   0  0  0  0  0  0  0  0  0  0  0  0
  146.6625  141.5724  153.1779 H   0  0  0  0  0  0  0  0  0  0  0  0
  148.0324  143.3477  154.8758 H   0  0  0  0  0  0  0  0  0  0  0  0
  150.8700  142.3982  154.4989 H   0  0  0  0  0  0  0  0  0  0  0  0
  149.9904  143.1598  155.7651 H   0  0  0  0  0  0  0  0  0  0  0  0
  152.9336  139.2677  158.9093 H   0  0  0  0  0  0  0  0  0  0  0  0
  151.4454  141.4098  160.6497 H   0  0  0  0  0  0  0  0  0  0  0  0
  153.0264  143.4889  158.9520 H   0  0  0  0  0  0  0  0  0  0  0  0
  152.4697  143.6751  160.6945 H   0  0  0  0  0  0  0  0  0  0  0  0
  153.8253  141.6544  161.3364 H   0  0  0  0  0  0  0  0  0  0  0  0
  154.3800  141.4831  159.5916 H   0  0  0  0  0  0  0  0  0  0  0  0
  1  2  3  0  0  0  0
  2  3  1  0  0  0  0
  3  4  1  0  0  0  0
  3 22  1  0  0  0  0
  3 23  1  0  0  0  0
  4  5  1  0  0  0  0
  4 24  1  0  0  0  0
  4 25  1  0  0  0  0
  5  6  1  0  0  0  0
  5 26  1  0  0  0  0
  6  7  2  0  0  0  0
  6  8  1  0  0  0  0
  8  9  1  0  0  0  0
  8 27  1  0  0  0  0
  8 28  1  0  0  0  0
  9 20  1  0  0  0  0
  9 10  1  0  0  0  0
 10 11  2  0  0  0  0
 10 12  1  0  0  0  0
 12 13  1  0  0  0  0
 12 15  2  0  0  0  0
 13 14  3  0  0  0  0
 15 16  1  0  0  0  0
 15 29  1  0  0  0  0
 16 17  1  0  0  0  0
 16 20  1  0  0  0  0
 17 19  1  0  0  0  0
 17 18  1  0  0  0  0
 17 30  1  0  0  0  0
 18 19  1  0  0  0  0
 18 31  1  0  0  0  0
 18 32  1  0  0  0  0
 19 33  1  0  0  0  0
 19 34  1  0  0  0  0
 20 21  2  0  0  0  0
M  END
> <s_m_source_file>
AV-unprocessed.smi

> <i_m_source_file_index>
378

> <i_lp_mmshare_version>
43012

> <i_f3d_flags>
0

> <s_epik_input>
TiNDW0NIMl1bQ0gyXVtOSF1DKD1PKVtDSDJdbjFjKD1PKWMoQyNOKVtjSF1uKGMxPU8pW0NIXTJbQ0gyXVtDSDJdMg==

> <s_epik_cmdline>
J2VwaWtfcHl0aG9uJywgJy1waCcsICc3LjAnLCAnLXRuJywgJzgnLCAnLW1hJywgJzIwMCcsICctbWV0YWxfYmluZGluZycsICctaW1hZScsICc8aW5maWxlLm1hZT4nLCAnLW9tYWUnLCAnPG91dGZpbGUubWFlPic=

> <r_lp_tautomer_probability>
1

> <r_epik_Ionization_Penalty>
1.80062e-07

> <r_epik_Ionization_Penalty_Charging>
6.75485e-11

> <r_epik_Ionization_Penalty_Neutral>
1.79994e-07

> <r_epik_State_Penalty>
-0

> <r_epik_Charging_Adjusted_Penalty>
6.75485e-11

> <i_epik_Tot_Q>
0

> <i_epik_Tot_abs_Q>
0

> <r_epik_Metal_State_Penalty>
-0

> <b_epik_Metal_Only>
0

> <s_lp_Force_Field>
OPLS_2005

> <r_lp_Energy>
28.3727

> <b_lp_Chiralities_Consistent>
1

> <s_lp_Variant>
AV-unprocessed.smi:378-1

> <Gold.Version>
5.8.1

> <Gold.Id.Protein>
6NUR|6NUR_protein|mol2

> <Gold.PLP.Fitness>
46.4639

> <Gold.PLP.PLP>
-39.0646

> <Gold.PLP.part.hbond>
-3.0000

> <Gold.PLP.part.metal>
0.0000

> <Gold.PLP.part.buried>
-4.4090

> <Gold.PLP.part.nonpolar>
-32.8564

> <Gold.PLP.part.repulsive>
0.6021

> <Gold.PLP.ligand.clash>
0.0000

> <Gold.PLP.ligand.torsion>
0.4473

> <Gold.PLP.Chemscore.Hbond>
2.6880

> <Gold.PLP.Chemscore.CHOScore>
0.0000

> <Gold.PLP.Chemscore.Metal>
0.0000

> <Gold.Chemscore.Hbonds>
donor molecule, donor type, donor heavy atom, donor atom, acceptor molecule, acceptor atom, score
      L1  H     5    26       P1  8028  1.00
      P1  H  7989  7998       L1    11  1.00
      P1  H 10752 10763       L1    14  0.67

> <Gold.PLP.Chemscore.Internal.Correction>
0.2297

> <Gold.Rescore>
     Score         DG    S(hbond)    S(metal)    S(lipo)     H(rot)  DE(clash)    DE(int)     intcor
      8.95     -14.90       2.58        0.00      61.52       2.50       1.56       4.38       ----

> <Gold.Chemscore.Fitness>
8.9525

> <Gold.Chemscore.DG>
-14.8951

> <Gold.Chemscore.ZeroCoef>
-5.4800

> <Gold.Chemscore.Hbond>
2.5796

> <Gold.Chemscore.Metal>
0.0000

> <Gold.Chemscore.Lipo>
61.5177

> <Gold.Chemscore.Internal_Hbond>
0.0000

> <Gold.Chemscore.DEClash>
1.5647

> <Gold.Chemscore.DEInternal>
4.3779

> <Gold.Chemscore.Rot>
2.4994

> <Gold.Chemscore.Internal.Correction>
   9.000000E+99

> <Gold.Chemscore.Hbonds>
donor molecule, donor type, donor heavy atom, donor atom, acceptor molecule, acceptor atom, score
      L1  H     5    26       P1  8028  0.84
      P1  H  7989  7998       L1    11  0.91
      P1  H 10752 10763       L1    14  0.66

> <Gold.Chemscore.Hbond.Weighted>
-8.6159

> <Gold.Chemscore.Metal.Weighted>
-0.0000

> <Gold.Chemscore.Lipo.Weighted>
-7.1976

> <Gold.Chemscore.Internal_Hbond.Weighted>
0.0000

> <Gold.Chemscore.DEClash.Weighted>
1.5647

> <Gold.Chemscore.DEInternal.Weighted>
4.3779

> <Gold.Chemscore.Rot.Weighted>
6.3984

> <Gold.Chemscore.Internal.Correction.Weighted>
   9.000000E+99

> <Gold.Protein.RotatedTorsions>
[ 6907 6896 6895 6894 ] final  -32.85 input  -60.11 | X-H torsion
[ 7974 7965 7964 7962 ] final  133.50 input  175.53 | X-H torsion
[ 8008 7997 7996 7995 ] final -120.15 input   59.86 | X-H torsion
[ 10167 10162 10161 10158 ] final -178.19 input  -65.29 | X-H torsion
[ 10718 10713 10712 10709 ] final  -87.01 input   66.30 | X-H torsion
[ 10763 10752 10751 10750 ] final  107.88 input  -60.55 | X-H torsion
[ 11005 11000 10999 10996 ] final -154.24 input  -57.11 | X-H torsion

> <Gold.Protein.ActiveResidues>
 VAL166  LYS551  ARG553  GLY616  TRP617  ASP618  TYR619  PRO620  LYS621  CYS622 
 ASP623  PHE694  ASN695  SER759  ASP760  ASP761  ALA762  ILE779  LEU786  VAL792 
 PHE793  MET794  SER795  GLU796  ALA797  LYS798  CYS799  TRP800  GLU811  SER814 

> <Gold.Protein.RotatedAtoms>
  151.0733  134.9812  159.8319 H   0  0  0  0  0  0  0  0  0  0  0  0  # atno 6907 bound_to 6896
  152.5411  134.2272  159.8821 H   0  0  0  0  0  0  0  0  0  0  0  0  # atno 6908 bound_to 6896
  151.2298  133.4413  159.2637 H   0  0  0  0  0  0  0  0  0  0  0  0  # atno 6909 bound_to 6896
  144.9859  139.4456  143.5363 H   0  0  0  0  0  0  0  0  0  0  0  0  # atno 7974 bound_to 7965
  155.1271  140.0399  157.2765 H   0  0  0  0  0  0  0  0  0  0  0  0  # atno 8008 bound_to 7997
  154.6570  140.2582  155.7124 H   0  0  0  0  0  0  0  0  0  0  0  0  # atno 8009 bound_to 7997
  156.2602  140.2824  156.1027 H   0  0  0  0  0  0  0  0  0  0  0  0  # atno 8010 bound_to 7997
  139.5444  144.2275  152.0959 H   0  0  0  0  0  0  0  0  0  0  0  0  # atno 10167 bound_to 10162
  155.9987  130.4785  150.4802 H   0  0  0  0  0  0  0  0  0  0  0  0  # atno 10718 bound_to 10713
  153.4129  135.3830  155.2062 H   0  0  0  0  0  0  0  0  0  0  0  0  # atno 10763 bound_to 10752
  154.8739  135.3798  154.4479 H   0  0  0  0  0  0  0  0  0  0  0  0  # atno 10764 bound_to 10752
  153.4989  135.7088  153.5905 H   0  0  0  0  0  0  0  0  0  0  0  0  # atno 10765 bound_to 10752
  140.6995  134.3953  157.5211 H   0  0  0  0  0  0  0  0  0  0  0  0  # atno 11005 bound_to 11000
  146.3420  139.9161  142.8773 LP  0  0  0  0  0  0  0  0  0  0  0  0  # atno 17320 bound_to 7965
  145.2354  140.9989  143.3966 LP  0  0  0  0  0  0  0  0  0  0  0  0  # atno 17321 bound_to 7965
  140.1759  144.4891  150.6554 LP  0  0  0  0  0  0  0  0  0  0  0  0  # atno 17342 bound_to 10162
  140.6687  143.2277  151.5680 LP  0  0  0  0  0  0  0  0  0  0  0  0  # atno 17343 bound_to 10162
  157.2808  131.0606  151.2199 LP  0  0  0  0  0  0  0  0  0  0  0  0  # atno 17370 bound_to 10713
  157.3246  130.6954  149.6289 LP  0  0  0  0  0  0  0  0  0  0  0  0  # atno 17371 bound_to 10713
  139.8901  134.8814  156.2388 LP  0  0  0  0  0  0  0  0  0  0  0  0  # atno 17394 bound_to 11000
  141.0176  133.7060  156.1214 LP  0  0  0  0  0  0  0  0  0  0  0  0  # atno 17395 bound_to 11000

$$$$
