AV-unprocessed.smi:133|AV-procd|sdf|1166|dock3
  -GOLD-   2262018303D 1   1.00000     0.00000
 Structure written by MMmdl.
 47 50  0  0  0  0  0  0  0  0  1 V2000
  150.6267  140.5929  154.8356 O   0  0  0  0  0  0  0  0  0  0  0  0
  150.3655  139.6424  155.5717 C   0  0  0  0  0  0  0  0  0  0  0  0
  149.7016  138.4004  154.9490 C   0  0  0  0  0  0  0  0  0  0  0  0
  149.4128  137.2953  155.8927 N   0  0  0  0  0  0  0  0  0  0  0  0
  150.0968  136.0646  155.7282 C   0  0  0  0  0  0  0  0  0  0  0  0
  150.9135  135.9052  154.8200 O   0  0  0  0  0  0  0  0  0  0  0  0
  149.7554  135.0198  156.6874 C   0  0  0  0  0  0  0  0  0  0  0  0
  150.3478  133.8169  156.6005 F   0  0  0  0  0  0  0  0  0  0  0  0
  148.8466  135.2402  157.6592 C   0  0  0  0  0  0  0  0  0  0  0  0
  148.1910  136.4478  157.8107 N   0  0  0  0  0  0  0  0  0  0  0  0
  147.1706  136.6462  158.9076 C   0  0  1  0  0  0  0  0  0  0  0  0
  146.6854  135.2901  159.4346 C   0  0  0  0  0  0  0  0  0  0  0  0
  147.5061  135.1259  160.6964 C   0  0  0  0  0  0  0  0  0  0  0  0
  147.6383  136.5692  161.1660 C   0  0  0  0  0  0  0  0  0  0  0  0
  147.7761  137.3273  159.9690 O   0  0  0  0  0  0  0  0  0  0  0  0
  148.4509  137.5033  156.9101 C   0  0  0  0  0  0  0  0  0  0  0  0
  147.8444  138.5730  156.9991 O   0  0  0  0  0  0  0  0  0  0  0  0
  150.6049  139.6267  156.8983 N   0  0  0  0  0  0  0  0  0  0  0  0
  151.1860  140.6372  157.7095 C   0  0  0  0  0  0  0  0  0  0  0  0
  151.7891  140.3760  158.9716 C   0  0  0  0  0  0  0  0  0  0  0  0
  152.3402  141.4258  159.7388 C   0  0  0  0  0  0  0  0  0  0  0  0
  152.2681  142.7332  159.2302 C   0  0  0  0  0  0  0  0  0  0  0  0
  151.6643  142.9971  158.0082 C   0  0  0  0  0  0  0  0  0  0  0  0
  151.1096  141.9658  157.2309 C   0  0  0  0  0  0  0  0  0  0  0  0
  151.7017  144.4639  157.6770 C   0  0  0  0  0  0  0  0  0  0  0  0
  152.2619  145.1217  158.9614 C   0  0  0  0  0  0  0  0  0  0  0  0
  152.7898  143.9884  159.8742 C   0  0  0  0  0  0  0  0  0  0  0  0
  148.7894  138.7247  154.4458 H   0  0  0  0  0  0  0  0  0  0  0  0
  150.3362  138.0550  154.1313 H   0  0  0  0  0  0  0  0  0  0  0  0
  148.6259  134.4300  158.3383 H   0  0  0  0  0  0  0  0  0  0  0  0
  146.3754  137.2652  158.4897 H   0  0  0  0  0  0  0  0  0  0  0  0
  145.6250  135.3709  159.6762 H   0  0  0  0  0  0  0  0  0  0  0  0
  146.8217  134.4876  158.7082 H   0  0  0  0  0  0  0  0  0  0  0  0
  147.0315  134.4790  161.4348 H   0  0  0  0  0  0  0  0  0  0  0  0
  148.4876  134.7134  160.4593 H   0  0  0  0  0  0  0  0  0  0  0  0
  146.7315  136.8865  161.6830 H   0  0  0  0  0  0  0  0  0  0  0  0
  148.4847  136.7196  161.8367 H   0  0  0  0  0  0  0  0  0  0  0  0
  150.2579  138.8199  157.3960 H   0  0  0  0  0  0  0  0  0  0  0  0
  151.8291  139.3768  159.3769 H   0  0  0  0  0  0  0  0  0  0  0  0
  152.8019  141.2277  160.6949 H   0  0  0  0  0  0  0  0  0  0  0  0
  150.6433  142.1881  156.2818 H   0  0  0  0  0  0  0  0  0  0  0  0
  152.3653  144.6264  156.8272 H   0  0  0  0  0  0  0  0  0  0  0  0
  150.7099  144.8388  157.4225 H   0  0  0  0  0  0  0  0  0  0  0  0
  153.0184  145.8781  158.7506 H   0  0  0  0  0  0  0  0  0  0  0  0
  151.4432  145.6262  159.4761 H   0  0  0  0  0  0  0  0  0  0  0  0
  152.4332  144.0863  160.9000 H   0  0  0  0  0  0  0  0  0  0  0  0
  153.8799  143.9634  159.8843 H   0  0  0  0  0  0  0  0  0  0  0  0
  1  2  2  0  0  0  0
  2  3  1  0  0  0  0
  2 18  1  0  0  0  0
  3  4  1  0  0  0  0
  3 28  1  0  0  0  0
  3 29  1  0  0  0  0
  4 16  1  0  0  0  0
  4  5  1  0  0  0  0
  5  6  2  0  0  0  0
  5  7  1  0  0  0  0
  7  8  1  0  0  0  0
  7  9  2  0  0  0  0
  9 10  1  0  0  0  0
  9 30  1  0  0  0  0
 10 11  1  0  0  0  0
 10 16  1  0  0  0  0
 11 15  1  0  0  0  0
 11 12  1  0  0  0  0
 11 31  1  0  0  0  0
 12 13  1  0  0  0  0
 12 32  1  0  0  0  0
 12 33  1  0  0  0  0
 13 14  1  0  0  0  0
 13 34  1  0  0  0  0
 13 35  1  0  0  0  0
 14 15  1  0  0  0  0
 14 36  1  0  0  0  0
 14 37  1  0  0  0  0
 16 17  2  0  0  0  0
 18 19  1  0  0  0  0
 18 38  1  0  0  0  0
 19 24  1  0  0  0  0
 19 20  2  0  0  0  0
 20 21  1  0  0  0  0
 20 39  1  0  0  0  0
 21 22  2  0  0  0  0
 21 40  1  0  0  0  0
 22 27  1  0  0  0  0
 22 23  1  0  0  0  0
 23 24  2  0  0  0  0
 23 25  1  0  0  0  0
 24 41  1  0  0  0  0
 25 26  1  0  0  0  0
 25 42  1  0  0  0  0
 25 43  1  0  0  0  0
 26 27  1  0  0  0  0
 26 44  1  0  0  0  0
 26 45  1  0  0  0  0
 27 46  1  0  0  0  0
 27 47  1  0  0  0  0
M  END
> <s_m_source_file>
AV-unprocessed.smi

> <i_m_source_file_index>
133

> <i_lp_mmshare_version>
43012

> <i_f3d_flags>
0

> <s_epik_input>
W0NIMl0xW0NIMl1bQ0gyXWMoYzEyKVtjSF1jKFtjSF1bY0hdMilbTkhdQyg9TylbQ0gyXW4zYyg9TyljKEYpW2NIXW4oYzM9TylbQ0BASF00W0NIMl1bQ0gyXVtDSDJdTzQ=

> <s_epik_cmdline>
J2VwaWtfcHl0aG9uJywgJy1waCcsICc3LjAnLCAnLXRuJywgJzgnLCAnLW1hJywgJzIwMCcsICctbWV0YWxfYmluZGluZycsICctaW1hZScsICc8aW5maWxlLm1hZT4nLCAnLW9tYWUnLCAnPG91dGZpbGUubWFlPic=

> <r_lp_tautomer_probability>
1

> <r_epik_Ionization_Penalty>
4.05675e-06

> <r_epik_Ionization_Penalty_Charging>
3.88729e-08

> <r_epik_Ionization_Penalty_Neutral>
4.01788e-06

> <r_epik_State_Penalty>
-0

> <r_epik_Charging_Adjusted_Penalty>
3.88729e-08

> <i_epik_Tot_Q>
0

> <i_epik_Tot_abs_Q>
0

> <r_epik_Metal_State_Penalty>
-0

> <b_epik_Metal_Only>
0

> <s_epik_Chemistry_Notes>
This compound contains an acetal/aminal-like group ( X-CH(R)-Y where X, Y are N, S, or O) that may be acid/base labile, releasing an aldehyde.

> <s_lp_Force_Field>
OPLS_2005

> <r_lp_Energy>
47.0615

> <b_lp_Chiralities_Consistent>
1

> <s_lp_Variant>
AV-unprocessed.smi:133-2

> <Gold.Version>
5.8.1

> <Gold.Id.Protein>
6NUR|6NUR_protein|mol2

> <Gold.PLP.Fitness>
50.1841

> <Gold.PLP.PLP>
-44.1871

> <Gold.PLP.part.hbond>
-3.7856

> <Gold.PLP.part.metal>
0.0000

> <Gold.PLP.part.buried>
-6.2965

> <Gold.PLP.part.nonpolar>
-34.9595

> <Gold.PLP.part.repulsive>
0.2646

> <Gold.PLP.ligand.clash>
0.0000

> <Gold.PLP.ligand.torsion>
0.7092

> <Gold.PLP.Chemscore.Hbond>
2.4594

> <Gold.PLP.Chemscore.CHOScore>
0.0000

> <Gold.PLP.Chemscore.Metal>
0.0000

> <Gold.Chemscore.Hbonds>
donor molecule, donor type, donor heavy atom, donor atom, acceptor molecule, acceptor atom, score
      P1  H  6934  6947       L1    15  0.47
      P1  H  7989  7998       L1     1  0.98
      P1  H 10752 10763       L1     6  0.84

> <Gold.PLP.Chemscore.Internal.Correction>
0.0372

> <Gold.Rescore>
     Score         DG    S(hbond)    S(metal)    S(lipo)     H(rot)  DE(clash)    DE(int)     intcor
     19.20     -22.50       2.19        0.00     117.78       1.59       0.10       3.20       ----

> <Gold.Chemscore.Fitness>
19.1996

> <Gold.Chemscore.DG>
-22.5002

> <Gold.Chemscore.ZeroCoef>
-5.4800

> <Gold.Chemscore.Hbond>
2.1863

> <Gold.Chemscore.Metal>
0.0000

> <Gold.Chemscore.Lipo>
117.7801

> <Gold.Chemscore.Internal_Hbond>
0.0000

> <Gold.Chemscore.DEClash>
0.0992

> <Gold.Chemscore.DEInternal>
3.2014

> <Gold.Chemscore.Rot>
1.5869

> <Gold.Chemscore.Internal.Correction>
   9.000000E+99

> <Gold.Chemscore.Hbonds>
donor molecule, donor type, donor heavy atom, donor atom, acceptor molecule, acceptor atom, score
      P1  H  6934  6947       L1    15  0.03
      P1  H  7989  7998       L1     1  0.93
      P1  H 10752 10763       L1     6  0.81

> <Gold.Chemscore.Hbond.Weighted>
-7.3024

> <Gold.Chemscore.Metal.Weighted>
-0.0000

> <Gold.Chemscore.Lipo.Weighted>
-13.7803

> <Gold.Chemscore.Internal_Hbond.Weighted>
0.0000

> <Gold.Chemscore.DEClash.Weighted>
0.0992

> <Gold.Chemscore.DEInternal.Weighted>
3.2014

> <Gold.Chemscore.Rot.Weighted>
4.0624

> <Gold.Chemscore.Internal.Correction.Weighted>
   9.000000E+99

> <Gold.Protein.RotatedTorsions>
[ 6907 6896 6895 6894 ] final -152.32 input  -60.11 | X-H torsion
[ 7974 7965 7964 7962 ] final  -94.22 input  175.53 | X-H torsion
[ 8008 7997 7996 7995 ] final -160.19 input   59.86 | X-H torsion
[ 10167 10162 10161 10158 ] final   93.39 input  -65.29 | X-H torsion
[ 10718 10713 10712 10709 ] final -155.09 input   66.30 | X-H torsion
[ 10763 10752 10751 10750 ] final   71.19 input  -60.55 | X-H torsion
[ 11005 11000 10999 10996 ] final   21.88 input  -57.11 | X-H torsion

> <Gold.Protein.ActiveResidues>
 VAL166  LYS551  ARG553  GLY616  TRP617  ASP618  TYR619  PRO620  LYS621  CYS622 
 ASP623  PHE694  ASN695  SER759  ASP760  ASP761  ALA762  ILE779  LEU786  VAL792 
 PHE793  MET794  SER795  GLU796  ALA797  LYS798  CYS799  TRP800  GLU811  SER814 

> <Gold.Protein.RotatedAtoms>
  151.2260  133.4476  159.2601 H   0  0  0  0  0  0  0  0  0  0  0  0  # atno 6907 bound_to 6896
  151.0840  134.9875  159.8380 H   0  0  0  0  0  0  0  0  0  0  0  0  # atno 6908 bound_to 6896
  152.5427  134.2198  159.8836 H   0  0  0  0  0  0  0  0  0  0  0  0  # atno 6909 bound_to 6896
  145.3761  140.9512  143.2420 H   0  0  0  0  0  0  0  0  0  0  0  0  # atno 7974 bound_to 7965
  155.7737  140.0855  157.2095 H   0  0  0  0  0  0  0  0  0  0  0  0  # atno 8008 bound_to 7997
  154.3994  140.1520  156.3029 H   0  0  0  0  0  0  0  0  0  0  0  0  # atno 8009 bound_to 7997
  155.8722  140.3425  155.5832 H   0  0  0  0  0  0  0  0  0  0  0  0  # atno 8010 bound_to 7997
  139.8185  144.6742  150.9549 H   0  0  0  0  0  0  0  0  0  0  0  0  # atno 10167 bound_to 10162
  156.5081  130.8422  151.2635 H   0  0  0  0  0  0  0  0  0  0  0  0  # atno 10718 bound_to 10713
  153.0385  135.5146  154.7556 H   0  0  0  0  0  0  0  0  0  0  0  0  # atno 10763 bound_to 10752
  154.6513  135.2925  154.9986 H   0  0  0  0  0  0  0  0  0  0  0  0  # atno 10764 bound_to 10752
  154.0869  135.6656  153.4899 H   0  0  0  0  0  0  0  0  0  0  0  0  # atno 10765 bound_to 10752
  140.3867  134.1863  155.7663 H   0  0  0  0  0  0  0  0  0  0  0  0  # atno 11005 bound_to 11000
  144.8541  139.5276  143.6843 LP  0  0  0  0  0  0  0  0  0  0  0  0  # atno 17320 bound_to 7965
  146.2863  139.7014  142.9193 LP  0  0  0  0  0  0  0  0  0  0  0  0  # atno 17321 bound_to 7965
  140.7814  143.4115  151.0985 LP  0  0  0  0  0  0  0  0  0  0  0  0  # atno 17342 bound_to 10162
  139.7777  143.8401  152.3132 LP  0  0  0  0  0  0  0  0  0  0  0  0  # atno 17343 bound_to 10162
  157.7454  130.9959  150.2760 LP  0  0  0  0  0  0  0  0  0  0  0  0  # atno 17370 bound_to 10713
  156.3267  130.3794  149.7527 LP  0  0  0  0  0  0  0  0  0  0  0  0  # atno 17371 bound_to 10713
  141.1905  133.8215  157.0916 LP  0  0  0  0  0  0  0  0  0  0  0  0  # atno 17394 bound_to 11000
  140.0438  134.9841  157.1010 LP  0  0  0  0  0  0  0  0  0  0  0  0  # atno 17395 bound_to 11000

$$$$
