#       Name:                AV-unprocessed.smi:1687
#       Creating user name   scv26
#       Creation time:       Fri Mar 27 07:52:55 2020


#       File generated by GOLD software.
#

@<TRIPOS>MOLECULE
AV-unprocessed.smi:1687
    48    49     1
SMALL
NO_CHARGES


@<TRIPOS>ATOM
      1 ****        -4.3531  -1.4544  -3.1953 C.3            1 S1                 0.0000
      2 ****        -3.1558  -2.4172  -3.1113 C.3            1 S1                 0.0000
      3 ****        -3.0537  -3.1188  -1.7441 C.3            1 S1                 0.0000
      4 ****        -2.5459  -2.1738  -0.6400 C.3            1 S1                 0.0000
      5 ****        -1.2424  -1.5676  -1.0189 N.4            1 S1                 1.0000
      6 ****        -0.5753  -0.8420   0.1021 C.3            1 S1                 0.0000
      7 ****        -1.1602   0.5692   0.3323 C.3            1 S1                 0.0000
      8 ****         0.9591  -0.8519  -0.0885 C.3            1 S1                 0.0000
      9 ****         1.6703  -0.2728   1.0484 N.am           1 S1                 0.0000
     10 ****         2.1622   0.9741   1.1041 C.2            1 S1                 0.0000
     11 ****         2.0519   1.7872   0.1858 O.2            1 S1                 0.0000
     12 ****         2.7701   1.2054   2.2809 N.am           1 S1                 0.0000
     13 ****         3.4077   2.3961   2.7203 C.ar           1 S1                 0.0000
     14 ****         3.9500   2.3382   4.0240 C.ar           1 S1                 0.0000
     15 ****         4.6060   3.4670   4.5521 C.ar           1 S1                 0.0000
     16 ****         4.7024   4.6262   3.7619 C.ar           1 S1                 0.0000
     17 ****         4.1344   4.6006   2.4749 C.ar           1 S1                 0.0000
     18 ****         3.5051   3.5199   1.9668 N.ar           1 S1                 0.0000
     19 ****        -1.3361  -0.8151  -2.3003 C.3            1 S1                 0.0000
     20 ****        -1.8158  -1.7319  -3.4400 C.3            1 S1                 0.0000
     21 ****        -4.2815  -0.6433  -2.4712 H              1 S1                 0.0000
     22 ****        -5.2898  -1.9800  -3.0082 H              1 S1                 0.0000
     23 ****        -4.4243  -1.0054  -4.1865 H              1 S1                 0.0000
     24 ****        -3.3257  -3.1870  -3.8653 H              1 S1                 0.0000
     25 ****        -4.0190  -3.5412  -1.4625 H              1 S1                 0.0000
     26 ****        -2.3684  -3.9635  -1.8281 H              1 S1                 0.0000
     27 ****        -3.2789  -1.3917  -0.4411 H              1 S1                 0.0000
     28 ****        -2.4365  -2.7423   0.2841 H              1 S1                 0.0000
     29 ****        -0.7654  -1.4159   1.0104 H              1 S1                 0.0000
     30 ****        -0.7919   1.0019   1.2625 H              1 S1                 0.0000
     31 ****        -2.2471   0.5488   0.4060 H              1 S1                 0.0000
     32 ****        -0.8902   1.2551  -0.4713 H              1 S1                 0.0000
     33 ****         1.3052  -1.8802  -0.1985 H              1 S1                 0.0000
     34 ****         1.2446  -0.3412  -1.0087 H              1 S1                 0.0000
     35 ****         1.8070  -0.8709   1.8502 H              1 S1                 0.0000
     36 ****         2.7783   0.4416   2.9405 H              1 S1                 0.0000
     37 ****         3.8678   1.4391   4.6176 H              1 S1                 0.0000
     38 ****         5.0281   3.4426   5.5459 H              1 S1                 0.0000
     39 ****         5.1986   5.5112   4.1320 H              1 S1                 0.0000
     40 ****         4.1867   5.4698   1.8362 H              1 S1                 0.0000
     41 ****        -2.0184   0.0287  -2.1934 H              1 S1                 0.0000
     42 ****        -0.3653  -0.3998  -2.5684 H              1 S1                 0.0000
     43 ****        -1.0583  -2.4958  -3.6216 H              1 S1                 0.0000
     44 ****        -1.8994  -1.1643  -4.3676 H              1 S1                 0.0000
     45 ****        -0.6389  -2.3546  -1.2094 H              1 S1                 0.0000
     46 ****         1.5759   1.5301  -0.6552 LP             1 S1                 0.0000
     47 ****         2.4384   2.7046   0.2812 LP             1 S1                 0.0000
     48 ****         3.1155   3.5474   1.0463 LP             1 S1                 0.0000
@<TRIPOS>BOND
    1    1    2 1     
    2    1   21 1     
    3    1   22 1     
    4    1   23 1     
    5    2   20 1     
    6    2    3 1     
    7    2   24 1     
    8    3    4 1     
    9    3   25 1     
   10    3   26 1     
   11    4    5 1     
   12    4   27 1     
   13    4   28 1     
   14    5    6 1     
   15    5   19 1     
   16    5   45 1     
   17    6    7 1     
   18    6    8 1     
   19    6   29 1     
   20    7   30 1     
   21    7   31 1     
   22    7   32 1     
   23    8    9 1     
   24    8   33 1     
   25    8   34 1     
   26    9   10 am    
   27    9   35 1     
   28   10   11 2     
   29   10   12 am    
   30   12   13 1     
   31   12   36 1     
   32   13   18 ar    
   33   13   14 ar    
   34   14   15 ar    
   35   14   37 1     
   36   15   16 ar    
   37   15   38 1     
   38   16   17 ar    
   39   16   39 1     
   40   17   18 ar    
   41   17   40 1     
   42   19   20 1     
   43   19   41 1     
   44   19   42 1     
   45   20   43 1     
   46   20   44 1     
   47   11   46 1     
   48   11   47 1     
   49   18   48 1     
@<TRIPOS>SUBSTRUCTURE
      1 S1             1
@<TRIPOS>SET
LONE_PAIRS      STATIC     ATOMS    <user>   **** ""
3 46 47 48
DONOR_HYDROGENS      STATIC     ATOMS    <user>   **** ""
3 45 35 36
ATOM$BLUE        STATIC     ATOMS    COLORGROUP SYSTEM
3 46 47 48
ATOM$RED        STATIC     ATOMS    COLORGROUP SYSTEM
3 45 35 36
