AV-unprocessed.smi:677|AV-procd|sdf|3311|dock9
  -GOLD-   22720 0273D 1   1.00000     0.00000
 Structure written by MMmdl.
 43 44  0  0  0  0  0  0  0  0  1 V2000
  150.4361  145.1297  159.3270 C   0  0  0  0  0  0  0  0  0  0  0  0
  151.5461  144.1570  159.6665 C   0  0  0  0  0  0  0  0  0  0  0  0
  152.6785  144.0445  158.8336 C   0  0  0  0  0  0  0  0  0  0  0  0
  153.6851  143.1266  159.1898 C   0  0  0  0  0  0  0  0  0  0  0  0
  153.5209  142.3580  160.3608 C   0  0  0  0  0  0  0  0  0  0  0  0
  154.5900  141.3748  160.8032 C   0  0  0  0  0  0  0  0  0  0  0  0
  154.5330  140.1264  159.9239 C   0  0  0  0  0  0  0  0  0  0  0  0
  154.5508  140.2359  158.6984 O   0  0  0  0  0  0  0  0  0  0  0  0
  154.5022  138.9487  160.5673 N   0  0  0  0  0  0  0  0  0  0  0  0
  154.5980  137.6352  159.9393 C   0  0  0  0  0  0  0  0  0  0  0  0
  154.7538  136.5154  160.9885 C   0  0  0  0  0  0  0  0  0  0  0  0
  154.8244  135.1046  160.3717 C   0  0  0  0  0  0  0  0  0  0  0  0
  154.9038  134.0212  161.4613 C   0  0  0  0  0  0  0  0  0  0  0  0
  153.7445  134.1055  162.3530 N   0  0  0  0  0  0  0  0  0  0  0  0
  153.8068  133.0498  163.3582 C   0  0  0  0  0  0  0  0  0  0  0  0
  153.2193  131.7841  162.8878 C   0  0  0  0  0  0  0  0  0  0  0  0
  152.7572  130.7894  162.5189 N   0  0  0  0  0  0  0  0  0  0  0  0
  153.7388  135.4013  163.0325 C   0  0  0  0  0  0  0  0  0  0  0  0
  153.6041  136.5424  162.0090 C   0  0  0  0  0  0  0  0  0  0  0  0
  152.3467  142.5433  161.1214 C   0  0  0  0  0  0  0  0  0  0  0  0
  151.3774  143.4221  160.7882 N   0  0  0  0  0  0  0  0  0  0  0  0
  150.8483  146.0546  158.9224 H   0  0  0  0  0  0  0  0  0  0  0  0
  149.8449  145.3809  160.2087 H   0  0  0  0  0  0  0  0  0  0  0  0
  149.7714  144.6947  158.5805 H   0  0  0  0  0  0  0  0  0  0  0  0
  152.7765  144.6492  157.9439 H   0  0  0  0  0  0  0  0  0  0  0  0
  154.5698  143.0209  158.5791 H   0  0  0  0  0  0  0  0  0  0  0  0
  155.5768  141.8353  160.7376 H   0  0  0  0  0  0  0  0  0  0  0  0
  154.4341  141.1019  161.8479 H   0  0  0  0  0  0  0  0  0  0  0  0
  154.4840  138.9662  161.5768 H   0  0  0  0  0  0  0  0  0  0  0  0
  153.6841  137.4769  159.3661 H   0  0  0  0  0  0  0  0  0  0  0  0
  155.4171  137.5977  159.2192 H   0  0  0  0  0  0  0  0  0  0  0  0
  155.6849  136.6911  161.5300 H   0  0  0  0  0  0  0  0  0  0  0  0
  153.9514  134.9291  159.7415 H   0  0  0  0  0  0  0  0  0  0  0  0
  155.6962  135.0141  159.7234 H   0  0  0  0  0  0  0  0  0  0  0  0
  154.9350  133.0411  160.9849 H   0  0  0  0  0  0  0  0  0  0  0  0
  155.8267  134.1269  162.0337 H   0  0  0  0  0  0  0  0  0  0  0  0
  154.8358  132.8650  163.6701 H   0  0  0  0  0  0  0  0  0  0  0  0
  153.2439  133.3475  164.2437 H   0  0  0  0  0  0  0  0  0  0  0  0
  152.9013  135.4413  163.7297 H   0  0  0  0  0  0  0  0  0  0  0  0
  154.6504  135.5218  163.6199 H   0  0  0  0  0  0  0  0  0  0  0  0
  153.5914  137.5001  162.5304 H   0  0  0  0  0  0  0  0  0  0  0  0
  152.6458  136.4589  161.4941 H   0  0  0  0  0  0  0  0  0  0  0  0
  152.1853  141.9790  162.0280 H   0  0  0  0  0  0  0  0  0  0  0  0
  1  2  1  0  0  0  0
  1 22  1  0  0  0  0
  1 23  1  0  0  0  0
  1 24  1  0  0  0  0
  2 21  1  0  0  0  0
  2  3  2  0  0  0  0
  3  4  1  0  0  0  0
  3 25  1  0  0  0  0
  4  5  2  0  0  0  0
  4 26  1  0  0  0  0
  5  6  1  0  0  0  0
  5 20  1  0  0  0  0
  6  7  1  0  0  0  0
  6 27  1  0  0  0  0
  6 28  1  0  0  0  0
  7  8  2  0  0  0  0
  7  9  1  0  0  0  0
  9 10  1  0  0  0  0
  9 29  1  0  0  0  0
 10 11  1  0  0  0  0
 10 30  1  0  0  0  0
 10 31  1  0  0  0  0
 11 19  1  0  0  0  0
 11 12  1  0  0  0  0
 11 32  1  0  0  0  0
 12 13  1  0  0  0  0
 12 33  1  0  0  0  0
 12 34  1  0  0  0  0
 13 14  1  0  0  0  0
 13 35  1  0  0  0  0
 13 36  1  0  0  0  0
 14 15  1  0  0  0  0
 14 18  1  0  0  0  0
 15 16  1  0  0  0  0
 15 37  1  0  0  0  0
 15 38  1  0  0  0  0
 16 17  3  0  0  0  0
 18 19  1  0  0  0  0
 18 39  1  0  0  0  0
 18 40  1  0  0  0  0
 19 41  1  0  0  0  0
 19 42  1  0  0  0  0
 20 21  2  0  0  0  0
 20 43  1  0  0  0  0
M  END
> <s_m_source_file>
AV-unprocessed.smi

> <i_m_source_file_index>
677

> <i_lp_mmshare_version>
43012

> <i_f3d_flags>
0

> <s_epik_input>
W0NIM11jMVtjSF1bY0hdYyhbY0hdbjEpW0NIMl1DKD1PKVtOSF1bQ0gyXVtDSF0yW0NIMl1bQ0gyXU4oW0NIMl1DI04pW0NIMl1bQ0gyXTI=

> <s_epik_cmdline>
J2VwaWtfcHl0aG9uJywgJy1waCcsICc3LjAnLCAnLXRuJywgJzgnLCAnLW1hJywgJzIwMCcsICctbWV0YWxfYmluZGluZycsICctaW1hZScsICc8aW5maWxlLm1hZT4nLCAnLW9tYWUnLCAnPG91dGZpbGUubWFlPic=

> <r_epik_Ionization_Penalty>
0.0175809

> <r_epik_Ionization_Penalty_Charging>
0

> <r_epik_Ionization_Penalty_Neutral>
0.0175809

> <r_epik_State_Penalty>
0.0130795

> <r_epik_Charging_Adjusted_Penalty>
0.0130795

> <i_epik_Tot_Q>
0

> <i_epik_Tot_abs_Q>
0

> <r_epik_Metal_State_Penalty>
0.0127214

> <b_epik_Metal_Only>
0

> <s_lp_Force_Field>
OPLS_2005

> <r_lp_Energy>
13.8767

> <b_lp_Chiralities_Consistent>
1

> <s_lp_Variant>
AV-unprocessed.smi:677-1

> <Gold.Version>
5.8.1

> <Gold.Id.Protein>
6NUR|6NUR_protein|mol2

> <Gold.PLP.Fitness>
49.2309

> <Gold.PLP.PLP>
-47.4226

> <Gold.PLP.part.hbond>
-1.7788

> <Gold.PLP.part.metal>
0.0000

> <Gold.PLP.part.buried>
-5.2412

> <Gold.PLP.part.nonpolar>
-40.7664

> <Gold.PLP.part.repulsive>
0.2576

> <Gold.PLP.ligand.clash>
0.0000

> <Gold.PLP.ligand.torsion>
0.6117

> <Gold.PLP.Chemscore.Hbond>
1.0000

> <Gold.PLP.Chemscore.CHOScore>
0.0000

> <Gold.PLP.Chemscore.Metal>
0.0000

> <Gold.Chemscore.Hbonds>
donor molecule, donor type, donor heavy atom, donor atom, acceptor molecule, acceptor atom, score
      P1  H  7997  8008       L1     8  0.74

> <Gold.PLP.Chemscore.Internal.Correction>
0.0318

> <Gold.Rescore>
     Score         DG    S(hbond)    S(metal)    S(lipo)     H(rot)  DE(clash)    DE(int)     intcor
     17.75     -18.42       1.00        0.00     120.98       1.78       0.07       0.60       ----

> <Gold.Chemscore.Fitness>
17.7473

> <Gold.Chemscore.DG>
-18.4153

> <Gold.Chemscore.ZeroCoef>
-5.4800

> <Gold.Chemscore.Hbond>
0.9955

> <Gold.Chemscore.Metal>
0.0000

> <Gold.Chemscore.Lipo>
120.9786

> <Gold.Chemscore.Internal_Hbond>
0.0000

> <Gold.Chemscore.DEClash>
0.0718

> <Gold.Chemscore.DEInternal>
0.5962

> <Gold.Chemscore.Rot>
1.7751

> <Gold.Chemscore.Internal.Correction>
   9.000000E+99

> <Gold.Chemscore.Hbonds>
donor molecule, donor type, donor heavy atom, donor atom, acceptor molecule, acceptor atom, score
      P1  H  7997  8008       L1     8  0.70

> <Gold.Chemscore.Hbond.Weighted>
-3.3250

> <Gold.Chemscore.Metal.Weighted>
-0.0000

> <Gold.Chemscore.Lipo.Weighted>
-14.1545

> <Gold.Chemscore.Internal_Hbond.Weighted>
0.0000

> <Gold.Chemscore.DEClash.Weighted>
0.0718

> <Gold.Chemscore.DEInternal.Weighted>
0.5962

> <Gold.Chemscore.Rot.Weighted>
4.5442

> <Gold.Chemscore.Internal.Correction.Weighted>
   9.000000E+99

> <Gold.Protein.RotatedTorsions>
[ 6907 6896 6895 6894 ] final  119.06 input  -60.11 | X-H torsion
[ 7974 7965 7964 7962 ] final -128.97 input  175.53 | X-H torsion
[ 8008 7997 7996 7995 ] final -103.64 input   59.86 | X-H torsion
[ 10167 10162 10161 10158 ] final -157.97 input  -65.29 | X-H torsion
[ 10718 10713 10712 10709 ] final  121.61 input   66.30 | X-H torsion
[ 10763 10752 10751 10750 ] final  151.40 input  -60.55 | X-H torsion
[ 11005 11000 10999 10996 ] final  128.81 input  -57.11 | X-H torsion

> <Gold.Protein.ActiveResidues>
 VAL166  LYS551  ARG553  GLY616  TRP617  ASP618  TYR619  PRO620  LYS621  CYS622 
 ASP623  PHE694  ASN695  SER759  ASP760  ASP761  ALA762  ILE779  LEU786  VAL792 
 PHE793  MET794  SER795  GLU796  ALA797  LYS798  CYS799  TRP800  GLU811  SER814 

> <Gold.Protein.RotatedAtoms>
  152.4499  133.7608  159.6745 H   0  0  0  0  0  0  0  0  0  0  0  0  # atno 6907 bound_to 6896
  150.8408  133.7929  159.3068 H   0  0  0  0  0  0  0  0  0  0  0  0  # atno 6908 bound_to 6896
  151.5555  135.1069  160.0012 H   0  0  0  0  0  0  0  0  0  0  0  0  # atno 6909 bound_to 6896
  144.9618  140.7455  143.4724 H   0  0  0  0  0  0  0  0  0  0  0  0  # atno 7974 bound_to 7965
  154.8738  140.0422  157.1740 H   0  0  0  0  0  0  0  0  0  0  0  0  # atno 8008 bound_to 7997
  154.8711  140.2958  155.5460 H   0  0  0  0  0  0  0  0  0  0  0  0  # atno 8009 bound_to 7997
  156.2999  140.2429  156.3700 H   0  0  0  0  0  0  0  0  0  0  0  0  # atno 8010 bound_to 7997
  139.6728  143.9715  152.2293 H   0  0  0  0  0  0  0  0  0  0  0  0  # atno 10167 bound_to 10162
  157.5805  131.1075  150.8197 H   0  0  0  0  0  0  0  0  0  0  0  0  # atno 10718 bound_to 10713
  154.1031  135.2844  155.3247 H   0  0  0  0  0  0  0  0  0  0  0  0  # atno 10763 bound_to 10752
  154.6541  135.5358  153.7941 H   0  0  0  0  0  0  0  0  0  0  0  0  # atno 10764 bound_to 10752
  153.0372  135.6517  154.1194 H   0  0  0  0  0  0  0  0  0  0  0  0  # atno 10765 bound_to 10752
  139.9581  134.9608  156.9056 H   0  0  0  0  0  0  0  0  0  0  0  0  # atno 11005 bound_to 11000
  145.2688  139.1963  143.4852 LP  0  0  0  0  0  0  0  0  0  0  0  0  # atno 17320 bound_to 7965
  146.3355  140.2631  142.8603 LP  0  0  0  0  0  0  0  0  0  0  0  0  # atno 17321 bound_to 7965
  139.9484  144.6636  150.8196 LP  0  0  0  0  0  0  0  0  0  0  0  0  # atno 17342 bound_to 10162
  140.7624  143.3198  151.2647 LP  0  0  0  0  0  0  0  0  0  0  0  0  # atno 17343 bound_to 10162
  156.8645  130.5124  149.5301 LP  0  0  0  0  0  0  0  0  0  0  0  0  # atno 17370 bound_to 10713
  156.0850  130.5851  150.9632 LP  0  0  0  0  0  0  0  0  0  0  0  0  # atno 17371 bound_to 10713
  140.5564  134.0578  155.7385 LP  0  0  0  0  0  0  0  0  0  0  0  0  # atno 17394 bound_to 11000
  141.1255  133.9391  157.2645 LP  0  0  0  0  0  0  0  0  0  0  0  0  # atno 17395 bound_to 11000

$$$$
