AV-unprocessed.smi:1839|AV-procd|sdf|7485|dock1
  -GOLD-   22720 9183D 1   1.00000     0.00000
 Structure written by MMmdl.
 46 47  0  0  0  0  0  0  0  0  1 V2000
  147.2595  139.2049  153.2955 C   0  0  0  0  0  0  0  0  0  0  0  0
  147.9963  139.7031  154.4570 N   0  0  0  0  0  0  0  0  0  0  0  0
  147.1415  140.1338  155.5700 C   0  0  0  0  0  0  0  0  0  0  0  0
  149.3302  139.4826  154.5681 C   0  0  0  0  0  0  0  0  0  0  0  0
  149.9127  138.6413  153.8808 O   0  0  0  0  0  0  0  0  0  0  0  0
  149.9792  140.2130  155.5061 N   0  0  0  0  0  0  0  0  0  0  0  0
  149.7292  141.6472  155.7094 C   0  0  0  0  0  0  0  0  0  0  0  0
  149.7162  141.9594  157.2158 C   0  0  0  0  0  0  0  0  0  0  0  0
  151.0256  141.5016  157.8804 C   0  0  0  0  0  0  0  0  0  0  0  0
  151.3438  140.0278  157.5426 C   0  0  2  0  0  0  0  0  0  0  0  0
  152.7055  139.6092  158.1124 C   0  0  0  0  0  0  0  0  0  0  0  0
  153.5769  139.1555  157.3699 O   0  0  0  0  0  0  0  0  0  0  0  0
  152.8739  139.7625  159.4349 N   0  0  0  0  0  0  0  0  0  0  0  0
  154.0849  139.4181  160.1706 C   0  0  0  0  0  0  0  0  0  0  0  0
  154.9089  140.6672  160.5267 C   0  0  0  0  0  0  0  0  0  0  0  0
  154.0300  141.8399  160.9180 C   0  0  0  0  0  0  0  0  0  0  0  0
  153.4518  142.6664  159.9310 C   0  0  0  0  0  0  0  0  0  0  0  0
  152.6350  143.7361  160.3455 C   0  0  0  0  0  0  0  0  0  0  0  0
  152.4282  143.9369  161.7240 C   0  0  0  0  0  0  0  0  0  0  0  0
  153.0486  143.0539  162.6301 C   0  0  0  0  0  0  0  0  0  0  0  0
  153.8331  142.0246  162.2433 N   0  0  0  0  0  0  0  0  0  0  0  0
  151.2951  139.8079  156.0138 C   0  0  0  0  0  0  0  0  0  0  0  0
  147.8291  139.3342  152.3738 H   0  0  0  0  0  0  0  0  0  0  0  0
  146.3177  139.7398  153.1666 H   0  0  0  0  0  0  0  0  0  0  0  0
  147.0348  138.1441  153.4131 H   0  0  0  0  0  0  0  0  0  0  0  0
  147.5722  139.8871  156.5416 H   0  0  0  0  0  0  0  0  0  0  0  0
  146.1667  139.6460  155.5299 H   0  0  0  0  0  0  0  0  0  0  0  0
  146.9727  141.2099  155.5300 H   0  0  0  0  0  0  0  0  0  0  0  0
  150.5197  142.2176  155.2190 H   0  0  0  0  0  0  0  0  0  0  0  0
  148.7984  141.9807  155.2499 H   0  0  0  0  0  0  0  0  0  0  0  0
  149.5710  143.0282  157.3757 H   0  0  0  0  0  0  0  0  0  0  0  0
  148.8712  141.4587  157.6890 H   0  0  0  0  0  0  0  0  0  0  0  0
  151.8368  142.1463  157.5383 H   0  0  0  0  0  0  0  0  0  0  0  0
  150.9584  141.6378  158.9604 H   0  0  0  0  0  0  0  0  0  0  0  0
  150.5726  139.4032  157.9980 H   0  0  0  0  0  0  0  0  0  0  0  0
  152.1070  140.1424  159.9707 H   0  0  0  0  0  0  0  0  0  0  0  0
  153.8275  138.8603  161.0725 H   0  0  0  0  0  0  0  0  0  0  0  0
  154.6768  138.7461  159.5485 H   0  0  0  0  0  0  0  0  0  0  0  0
  155.5899  140.4442  161.3495 H   0  0  0  0  0  0  0  0  0  0  0  0
  155.5355  140.9608  159.6834 H   0  0  0  0  0  0  0  0  0  0  0  0
  153.6273  142.4840  158.8808 H   0  0  0  0  0  0  0  0  0  0  0  0
  152.1748  144.3901  159.6195 H   0  0  0  0  0  0  0  0  0  0  0  0
  151.8087  144.7474  162.0783 H   0  0  0  0  0  0  0  0  0  0  0  0
  152.9109  143.1777  163.6941 H   0  0  0  0  0  0  0  0  0  0  0  0
  151.4976  138.7570  155.7968 H   0  0  0  0  0  0  0  0  0  0  0  0
  152.0711  140.3854  155.5079 H   0  0  0  0  0  0  0  0  0  0  0  0
  1  2  1  0  0  0  0
  1 23  1  0  0  0  0
  1 24  1  0  0  0  0
  1 25  1  0  0  0  0
  2  3  1  0  0  0  0
  2  4  1  0  0  0  0
  3 26  1  0  0  0  0
  3 27  1  0  0  0  0
  3 28  1  0  0  0  0
  4  5  2  0  0  0  0
  4  6  1  0  0  0  0
  6 22  1  0  0  0  0
  6  7  1  0  0  0  0
  7  8  1  0  0  0  0
  7 29  1  0  0  0  0
  7 30  1  0  0  0  0
  8  9  1  0  0  0  0
  8 31  1  0  0  0  0
  8 32  1  0  0  0  0
  9 10  1  0  0  0  0
  9 33  1  0  0  0  0
  9 34  1  0  0  0  0
 10 11  1  0  0  0  0
 10 22  1  0  0  0  0
 10 35  1  0  0  0  0
 11 12  2  0  0  0  0
 11 13  1  0  0  0  0
 13 14  1  0  0  0  0
 13 36  1  0  0  0  0
 14 15  1  0  0  0  0
 14 37  1  0  0  0  0
 14 38  1  0  0  0  0
 15 16  1  0  0  0  0
 15 39  1  0  0  0  0
 15 40  1  0  0  0  0
 16 21  1  0  0  0  0
 16 17  2  0  0  0  0
 17 18  1  0  0  0  0
 17 41  1  0  0  0  0
 18 19  2  0  0  0  0
 18 42  1  0  0  0  0
 19 20  1  0  0  0  0
 19 43  1  0  0  0  0
 20 21  2  0  0  0  0
 20 44  1  0  0  0  0
 22 45  1  0  0  0  0
 22 46  1  0  0  0  0
M  END
> <s_m_source_file>
AV-unprocessed.smi

> <i_m_source_file_index>
1839

> <i_lp_mmshare_version>
43012

> <i_f3d_flags>
0

> <s_epik_input>
W0NIM11OKFtDSDNdKUMoPU8pTjFbQ0gyXVtDSDJdW0NIMl1bQ0BIXShbQ0gyXTEpQyg9TylbTkhdW0NIMl1bQ0gyXWMyW2NIXVtjSF1bY0hdW2NIXW4y

> <s_epik_cmdline>
J2VwaWtfcHl0aG9uJywgJy1waCcsICc3LjAnLCAnLXRuJywgJzgnLCAnLW1hJywgJzIwMCcsICctbWV0YWxfYmluZGluZycsICctaW1hZScsICc8aW5maWxlLm1hZT4nLCAnLW9tYWUnLCAnPG91dGZpbGUubWFlPic=

> <r_epik_Ionization_Penalty>
0.0268631

> <r_epik_Ionization_Penalty_Charging>
0

> <r_epik_Ionization_Penalty_Neutral>
0.0268631

> <r_epik_State_Penalty>
0.0219025

> <r_epik_Charging_Adjusted_Penalty>
0.0219025

> <i_epik_Tot_Q>
0

> <i_epik_Tot_abs_Q>
0

> <r_epik_Metal_State_Penalty>
0.0209511

> <b_epik_Metal_Only>
0

> <s_lp_Force_Field>
OPLS_2005

> <r_lp_Energy>
47.8256

> <b_lp_Chiralities_Consistent>
1

> <s_lp_Variant>
AV-unprocessed.smi:1839-2

> <Gold.Version>
5.8.1

> <Gold.Id.Protein>
6NUR|6NUR_protein|mol2

> <Gold.PLP.Fitness>
46.1430

> <Gold.PLP.PLP>
-44.2355

> <Gold.PLP.part.hbond>
-0.9126

> <Gold.PLP.part.metal>
0.0000

> <Gold.PLP.part.buried>
-5.3670

> <Gold.PLP.part.nonpolar>
-40.4345

> <Gold.PLP.part.repulsive>
1.1661

> <Gold.PLP.ligand.clash>
0.0000

> <Gold.PLP.ligand.torsion>
1.2061

> <Gold.PLP.Chemscore.Hbond>
1.0000

> <Gold.PLP.Chemscore.CHOScore>
0.0000

> <Gold.PLP.Chemscore.Metal>
0.0000

> <Gold.Chemscore.Hbonds>
donor molecule, donor type, donor heavy atom, donor atom, acceptor molecule, acceptor atom, score
      P1  H  7997  8008       L1    12  0.65

> <Gold.PLP.Chemscore.Internal.Correction>
1.3197

> <Gold.Rescore>
     Score         DG    S(hbond)    S(metal)    S(lipo)     H(rot)  DE(clash)    DE(int)     intcor
     15.32     -17.71       0.97        0.00     109.95       1.52       0.08       2.31       ----

> <Gold.Chemscore.Fitness>
15.3182

> <Gold.Chemscore.DG>
-17.7109

> <Gold.Chemscore.ZeroCoef>
-5.4800

> <Gold.Chemscore.Hbond>
0.9720

> <Gold.Chemscore.Metal>
0.0000

> <Gold.Chemscore.Lipo>
109.9502

> <Gold.Chemscore.Internal_Hbond>
0.0000

> <Gold.Chemscore.DEClash>
0.0811

> <Gold.Chemscore.DEInternal>
2.3117

> <Gold.Chemscore.Rot>
1.5155

> <Gold.Chemscore.Internal.Correction>
   9.000000E+99

> <Gold.Chemscore.Hbonds>
donor molecule, donor type, donor heavy atom, donor atom, acceptor molecule, acceptor atom, score
      P1  H  7997  8008       L1    12  0.60

> <Gold.Chemscore.Hbond.Weighted>
-3.2464

> <Gold.Chemscore.Metal.Weighted>
-0.0000

> <Gold.Chemscore.Lipo.Weighted>
-12.8642

> <Gold.Chemscore.Internal_Hbond.Weighted>
0.0000

> <Gold.Chemscore.DEClash.Weighted>
0.0811

> <Gold.Chemscore.DEInternal.Weighted>
2.3117

> <Gold.Chemscore.Rot.Weighted>
3.8796

> <Gold.Chemscore.Internal.Correction.Weighted>
   9.000000E+99

> <Gold.Protein.RotatedTorsions>
[ 6907 6896 6895 6894 ] final  124.98 input  -60.11 | X-H torsion
[ 7974 7965 7964 7962 ] final  -27.51 input  175.53 | X-H torsion
[ 8008 7997 7996 7995 ] final  -88.65 input   59.86 | X-H torsion
[ 10167 10162 10161 10158 ] final  -80.12 input  -65.29 | X-H torsion
[ 10718 10713 10712 10709 ] final   -0.14 input   66.30 | X-H torsion
[ 10763 10752 10751 10750 ] final -102.99 input  -60.55 | X-H torsion
[ 11005 11000 10999 10996 ] final -100.92 input  -57.11 | X-H torsion

> <Gold.Protein.ActiveResidues>
 VAL166  LYS551  ARG553  GLY616  TRP617  ASP618  TYR619  PRO620  LYS621  CYS622 
 ASP623  PHE694  ASN695  SER759  ASP760  ASP761  ALA762  ILE779  LEU786  VAL792 
 PHE793  MET794  SER795  GLU796  ALA797  LYS798  CYS799  TRP800  GLU811  SER814 

> <Gold.Protein.RotatedAtoms>
  152.4032  133.6849  159.6333 H   0  0  0  0  0  0  0  0  0  0  0  0  # atno 6907 bound_to 6896
  150.7920  133.8755  159.3279 H   0  0  0  0  0  0  0  0  0  0  0  0  # atno 6908 bound_to 6896
  151.6516  135.1002  160.0213 H   0  0  0  0  0  0  0  0  0  0  0  0  # atno 6909 bound_to 6896
  146.1352  140.5162  142.8676 H   0  0  0  0  0  0  0  0  0  0  0  0  # atno 7974 bound_to 7965
  154.6773  140.0551  157.0229 H   0  0  0  0  0  0  0  0  0  0  0  0  # atno 8008 bound_to 7997
  155.1002  140.3228  155.4530 H   0  0  0  0  0  0  0  0  0  0  0  0  # atno 8009 bound_to 7997
  156.2680  140.2032  156.6128 H   0  0  0  0  0  0  0  0  0  0  0  0  # atno 8010 bound_to 7997
  140.4532  143.2476  151.8458 H   0  0  0  0  0  0  0  0  0  0  0  0  # atno 10167 bound_to 10162
  156.8248  130.5468  149.5693 H   0  0  0  0  0  0  0  0  0  0  0  0  # atno 10718 bound_to 10713
  154.7775  135.4840  153.9774 H   0  0  0  0  0  0  0  0  0  0  0  0  # atno 10763 bound_to 10752
  153.1448  135.6780  153.8979 H   0  0  0  0  0  0  0  0  0  0  0  0  # atno 10764 bound_to 10752
  153.8642  135.3151  155.3417 H   0  0  0  0  0  0  0  0  0  0  0  0  # atno 10765 bound_to 10752
  141.1252  133.8437  157.1164 H   0  0  0  0  0  0  0  0  0  0  0  0  # atno 11005 bound_to 11000
  144.7733  140.5684  143.6655 LP  0  0  0  0  0  0  0  0  0  0  0  0  # atno 17320 bound_to 7965
  145.5171  139.1477  143.3573 LP  0  0  0  0  0  0  0  0  0  0  0  0  # atno 17321 bound_to 7965
  139.4798  144.5096  151.8951 LP  0  0  0  0  0  0  0  0  0  0  0  0  # atno 17342 bound_to 10162
  140.4182  144.2278  150.5887 LP  0  0  0  0  0  0  0  0  0  0  0  0  # atno 17343 bound_to 10162
  156.0968  130.5938  150.9826 LP  0  0  0  0  0  0  0  0  0  0  0  0  # atno 17370 bound_to 10713
  157.6438  131.0907  150.8197 LP  0  0  0  0  0  0  0  0  0  0  0  0  # atno 17371 bound_to 10713
  140.0243  134.9931  157.0655 LP  0  0  0  0  0  0  0  0  0  0  0  0  # atno 17394 bound_to 11000
  140.4388  134.1703  155.7172 LP  0  0  0  0  0  0  0  0  0  0  0  0  # atno 17395 bound_to 11000

$$$$
