#       Name:                AV-unprocessed.smi:1899
#       Creating user name   scv26
#       Creation time:       Fri Mar 27 09:44:36 2020


#       File generated by GOLD software.
#

@<TRIPOS>MOLECULE
AV-unprocessed.smi:1899
    36    37     1
SMALL
NO_CHARGES


@<TRIPOS>ATOM
      1 ****         0.6750   1.5357  -0.4114 O.2            1 S1                 0.0000
      2 ****         0.2961   0.4564  -0.8675 C.2            1 S1                 0.0000
      3 ****         1.1373  -0.5030  -1.2849 N.am           1 S1                 0.0000
      4 ****         2.5939  -0.4400  -1.2051 C.3            1 S1                 0.0000
      5 ****         3.1304  -1.1627   0.0448 C.3            1 S1                 0.0000
      6 ****         2.7384  -0.5095   1.2802 N.pl3          1 S1                 0.0000
      7 ****         1.7424  -0.9113   2.1611 C.2            1 S1                 0.0000
      8 ****         1.7203   0.0152   3.1786 C.2            1 S1                 0.0000
      9 ****         2.6932   0.9855   2.9502 N.2            1 S1                 0.0000
     10 ****         3.2552   0.6080   1.8090 C.2            1 S1                 0.0000
     11 ****        -1.2019   0.1389  -0.9542 C.3            1 S1                 0.0000
     12 ****        -1.9413   1.1434  -1.8681 C.3            1 S1                 0.0000
     13 ****        -3.4508   1.0161  -1.7564 C.2            1 S1                 0.0000
     14 ****        -4.0661   0.3620  -0.7562 C.2            1 S1                 0.0000
     15 ****        -3.3224  -0.3199   0.3786 C.3            1 S1                 0.0000
     16 ****        -1.8450   0.1099   0.4470 C.3            1 S1                 0.0000
     17 ****         0.7378  -1.3565  -1.6480 H              1 S1                 0.0000
     18 ****         2.9927  -0.9229  -2.0973 H              1 S1                 0.0000
     19 ****         2.9493   0.5914  -1.2362 H              1 S1                 0.0000
     20 ****         2.7834  -2.1966   0.0672 H              1 S1                 0.0000
     21 ****         4.2199  -1.1993   0.0125 H              1 S1                 0.0000
     22 ****         1.1424  -1.7930   1.9909 H              1 S1                 0.0000
     23 ****         1.0840   0.0578   4.0502 H              1 S1                 0.0000
     24 ****         4.0576   1.1610   1.3432 H              1 S1                 0.0000
     25 ****        -1.3144  -0.8567  -1.3881 H              1 S1                 0.0000
     26 ****        -1.6739   2.1735  -1.6281 H              1 S1                 0.0000
     27 ****        -1.6550   0.9753  -2.9069 H              1 S1                 0.0000
     28 ****        -4.0383   1.4949  -2.5259 H              1 S1                 0.0000
     29 ****        -5.1441   0.2958  -0.7409 H              1 S1                 0.0000
     30 ****        -3.8192  -0.0942   1.3225 H              1 S1                 0.0000
     31 ****        -3.3947  -1.3977   0.2306 H              1 S1                 0.0000
     32 ****        -1.2985  -0.5609   1.1115 H              1 S1                 0.0000
     33 ****        -1.7833   1.1028   0.8957 H              1 S1                 0.0000
     34 ****         1.6528   1.7318  -0.3377 LP             1 S1                 0.0000
     35 ****         0.0049   2.2161  -0.1146 LP             1 S1                 0.0000
     36 ****         2.9160   1.7806   3.5143 LP             1 S1                 0.0000
@<TRIPOS>BOND
    1    1    2 2     
    2    2    3 am    
    3    2   11 1     
    4    3    4 1     
    5    3   17 1     
    6    4    5 1     
    7    4   18 1     
    8    4   19 1     
    9    5    6 1     
   10    5   20 1     
   11    5   21 1     
   12    6   10 1     
   13    6    7 1     
   14    7    8 2     
   15    7   22 1     
   16    8    9 1     
   17    8   23 1     
   18    9   10 2     
   19   10   24 1     
   20   11   16 1     
   21   11   12 1     
   22   11   25 1     
   23   12   13 1     
   24   12   26 1     
   25   12   27 1     
   26   13   14 2     
   27   13   28 1     
   28   14   15 1     
   29   14   29 1     
   30   15   16 1     
   31   15   30 1     
   32   15   31 1     
   33   16   32 1     
   34   16   33 1     
   35    1   34 1     
   36    1   35 1     
   37    9   36 1     
@<TRIPOS>SUBSTRUCTURE
      1 S1             1
@<TRIPOS>SET
LONE_PAIRS      STATIC     ATOMS    <user>   **** ""
3 34 35 36
DONOR_HYDROGENS      STATIC     ATOMS    <user>   **** ""
1 17
ATOM$BLUE        STATIC     ATOMS    COLORGROUP SYSTEM
3 34 35 36
ATOM$RED        STATIC     ATOMS    COLORGROUP SYSTEM
1 17
