AV-unprocessed.smi:1510|AV-procd|sdf|6097|dock8
  -GOLD-   22720 6223D 1   1.00000     0.00000
 Structure written by MMmdl.
 33 34  0  0  0  0  0  0  0  0  1 V2000
  153.3062  139.9366  157.6261 O   0  0  0  0  0  0  0  0  0  0  0  0
  152.3057  139.7047  158.3067 C   0  0  0  0  0  0  0  0  0  0  0  0
  151.3669  138.5383  157.9637 C   0  0  0  0  0  0  0  0  0  0  0  0
  151.0074  138.4745  156.5398 N   0  0  0  0  0  0  0  0  0  0  0  0
  150.3402  139.5972  156.0737 N   0  0  0  0  0  0  0  0  0  0  0  0
  149.9867  139.6689  154.8350 C   0  0  0  0  0  0  0  0  0  0  0  0
  149.3325  140.8007  154.4150 O   0  0  0  0  0  0  0  0  0  0  0  0
  150.2684  138.5915  153.9122 C   0  0  0  0  0  0  0  0  0  0  0  0
  150.9150  137.5001  154.3765 C   0  0  0  0  0  0  0  0  0  0  0  0
  151.3330  137.3871  155.7752 C   0  0  0  0  0  0  0  0  0  0  0  0
  151.9247  136.4058  156.2248 O   0  0  0  0  0  0  0  0  0  0  0  0
  151.9544  140.4474  159.3653 N   0  0  0  0  0  0  0  0  0  0  0  0
  152.6964  141.6068  159.8402 C   0  0  0  0  0  0  0  0  0  0  0  0
  151.9056  142.8967  159.5835 C   0  0  1  0  0  0  0  0  0  0  0  0
  152.5765  144.1508  160.1385 C   0  0  0  0  0  0  0  0  0  0  0  0
  151.9477  145.2306  159.2877 C   0  0  0  0  0  0  0  0  0  0  0  0
  151.8510  144.5469  157.9256 C   0  0  0  0  0  0  0  0  0  0  0  0
  151.7842  143.1462  158.1856 O   0  0  0  0  0  0  0  0  0  0  0  0
  149.3883  141.4052  155.1393 H   0  0  0  0  0  0  0  0  0  0  0  0
  151.8268  137.5990  158.2767 H   0  0  0  0  0  0  0  0  0  0  0  0
  150.4670  138.6386  158.5731 H   0  0  0  0  0  0  0  0  0  0  0  0
  149.9646  138.6678  152.8785 H   0  0  0  0  0  0  0  0  0  0  0  0
  151.1317  136.6875  153.6988 H   0  0  0  0  0  0  0  0  0  0  0  0
  151.1143  140.2019  159.8690 H   0  0  0  0  0  0  0  0  0  0  0  0
  152.8866  141.4967  160.9091 H   0  0  0  0  0  0  0  0  0  0  0  0
  153.6659  141.6507  159.3417 H   0  0  0  0  0  0  0  0  0  0  0  0
  150.9006  142.8150  160.0017 H   0  0  0  0  0  0  0  0  0  0  0  0
  152.4031  144.2900  161.2059 H   0  0  0  0  0  0  0  0  0  0  0  0
  153.6536  144.1202  159.9664 H   0  0  0  0  0  0  0  0  0  0  0  0
  150.9505  145.4657  159.6623 H   0  0  0  0  0  0  0  0  0  0  0  0
  152.5294  146.1525  159.2624 H   0  0  0  0  0  0  0  0  0  0  0  0
  150.9847  144.8858  157.3569 H   0  0  0  0  0  0  0  0  0  0  0  0
  152.7438  144.7457  157.3317 H   0  0  0  0  0  0  0  0  0  0  0  0
  1  2  2  0  0  0  0
  2  3  1  0  0  0  0
  2 12  1  0  0  0  0
  3 20  1  0  0  0  0
  3 21  1  0  0  0  0
  3  4  1  0  0  0  0
  4  5  1  0  0  0  0
  4 10  1  0  0  0  0
  5  6  2  0  0  0  0
  6  7  1  0  0  0  0
  6  8  1  0  0  0  0
  7 19  1  0  0  0  0
  8 22  1  0  0  0  0
  8  9  2  0  0  0  0
  9 23  1  0  0  0  0
  9 10  1  0  0  0  0
 10 11  2  0  0  0  0
 12 13  1  0  0  0  0
 12 24  1  0  0  0  0
 13 14  1  0  0  0  0
 13 25  1  0  0  0  0
 13 26  1  0  0  0  0
 14 18  1  0  0  0  0
 14 15  1  0  0  0  0
 14 27  1  0  0  0  0
 15 16  1  0  0  0  0
 15 28  1  0  0  0  0
 15 29  1  0  0  0  0
 16 17  1  0  0  0  0
 16 30  1  0  0  0  0
 16 31  1  0  0  0  0
 17 18  1  0  0  0  0
 17 32  1  0  0  0  0
 17 33  1  0  0  0  0
M  END
> <s_m_source_file>
AV-unprocessed.smi

> <i_m_source_file_index>
1510

> <i_lp_mmshare_version>
43012

> <i_f3d_flags>
0

> <s_epik_input>
TzFbQ0gyXVtDSDJdW0NIMl1bQ0BIXTFbQ0gyXVtOSF1DKD1PKVtDSDJdbjJbbkhdYyg9TylbY0hdW2NIXWMyPU8=

> <s_epik_cmdline>
J2VwaWtfcHl0aG9uJywgJy1waCcsICc3LjAnLCAnLXRuJywgJzgnLCAnLW1hJywgJzIwMCcsICctbWV0YWxfYmluZGluZycsICctaW1hZScsICc8aW5maWxlLm1hZT4nLCAnLW9tYWUnLCAnPG91dGZpbGUubWFlPic=

> <r_lp_tautomer_probability>
0.9996

> <r_epik_Ionization_Penalty>
2.13037

> <r_epik_Ionization_Penalty_Charging>
3.76e-08

> <r_epik_Ionization_Penalty_Neutral>
2.13037

> <r_epik_State_Penalty>
1.70753

> <r_epik_Charging_Adjusted_Penalty>
1.70753

> <i_epik_Tot_Q>
0

> <i_epik_Tot_abs_Q>
0

> <r_epik_Metal_State_Penalty>
1.70753

> <b_epik_Metal_Only>
0

> <s_lp_Force_Field>
OPLS_2005

> <r_lp_Energy>
28.362

> <b_lp_Chiralities_Consistent>
1

> <s_lp_Variant>
AV-unprocessed.smi:1510-4

> <Gold.Version>
5.8.1

> <Gold.Id.Protein>
6NUR|6NUR_protein|mol2

> <Gold.PLP.Fitness>
40.5675

> <Gold.PLP.PLP>
-34.5429

> <Gold.PLP.part.hbond>
-3.7384

> <Gold.PLP.part.metal>
0.0000

> <Gold.PLP.part.buried>
-3.6797

> <Gold.PLP.part.nonpolar>
-27.7579

> <Gold.PLP.part.repulsive>
0.2220

> <Gold.PLP.ligand.clash>
0.0000

> <Gold.PLP.ligand.torsion>
0.1954

> <Gold.PLP.Chemscore.Hbond>
2.1376

> <Gold.PLP.Chemscore.CHOScore>
0.0000

> <Gold.PLP.Chemscore.Metal>
0.0000

> <Gold.Chemscore.Hbonds>
donor molecule, donor type, donor heavy atom, donor atom, acceptor molecule, acceptor atom, score
      P1  H  7997  8010       L1     1  0.68
      P1  H 10752 10765       L1    11  1.00

> <Gold.PLP.Chemscore.Internal.Correction>
0.0025

> <Gold.Rescore>
     Score         DG    S(hbond)    S(metal)    S(lipo)     H(rot)  DE(clash)    DE(int)     intcor
     14.44     -14.59       1.96        0.00      80.68       2.69       0.00       0.15       ----

> <Gold.Chemscore.Fitness>
14.4378

> <Gold.Chemscore.DG>
-14.5855

> <Gold.Chemscore.ZeroCoef>
-5.4800

> <Gold.Chemscore.Hbond>
1.9645

> <Gold.Chemscore.Metal>
0.0000

> <Gold.Chemscore.Lipo>
80.6843

> <Gold.Chemscore.Internal_Hbond>
0.0000

> <Gold.Chemscore.DEClash>
0.0000

> <Gold.Chemscore.DEInternal>
0.1476

> <Gold.Chemscore.Rot>
2.6937

> <Gold.Chemscore.Internal.Correction>
   9.000000E+99

> <Gold.Chemscore.Hbonds>
donor molecule, donor type, donor heavy atom, donor atom, acceptor molecule, acceptor atom, score
      P1  H  7997  8010       L1     1  0.68
      P1  H 10752 10765       L1    11  0.97

> <Gold.Chemscore.Hbond.Weighted>
-6.5613

> <Gold.Chemscore.Metal.Weighted>
-0.0000

> <Gold.Chemscore.Lipo.Weighted>
-9.4401

> <Gold.Chemscore.Internal_Hbond.Weighted>
0.0000

> <Gold.Chemscore.DEClash.Weighted>
0.0000

> <Gold.Chemscore.DEInternal.Weighted>
0.1476

> <Gold.Chemscore.Rot.Weighted>
6.8959

> <Gold.Chemscore.Internal.Correction.Weighted>
   9.000000E+99

> <Gold.Protein.RotatedTorsions>
[ 6907 6896 6895 6894 ] final  -57.77 input  -60.11 | X-H torsion
[ 7974 7965 7964 7962 ] final  143.36 input  175.53 | X-H torsion
[ 8008 7997 7996 7995 ] final   50.50 input   59.86 | X-H torsion
[ 10167 10162 10161 10158 ] final -115.88 input  -65.29 | X-H torsion
[ 10718 10713 10712 10709 ] final -159.86 input   66.30 | X-H torsion
[ 10763 10752 10751 10750 ] final -138.63 input  -60.55 | X-H torsion
[ 11005 11000 10999 10996 ] final   39.37 input  -57.11 | X-H torsion

> <Gold.Protein.ActiveResidues>
 VAL166  LYS551  ARG553  GLY616  TRP617  ASP618  TYR619  PRO620  LYS621  CYS622 
 ASP623  PHE694  ASN695  SER759  ASP760  ASP761  ALA762  ILE779  LEU786  VAL792 
 PHE793  MET794  SER795  GLU796  ALA797  LYS798  CYS799  TRP800  GLU811  SER814 

> <Gold.Protein.RotatedAtoms>
  150.8059  134.7184  159.6643 H   0  0  0  0  0  0  0  0  0  0  0  0  # atno 6907 bound_to 6896
  152.4179  134.6006  160.0008 H   0  0  0  0  0  0  0  0  0  0  0  0  # atno 6908 bound_to 6896
  151.6229  133.3300  159.3128 H   0  0  0  0  0  0  0  0  0  0  0  0  # atno 6909 bound_to 6896
  144.8928  139.5534  143.5790 H   0  0  0  0  0  0  0  0  0  0  0  0  # atno 7974 bound_to 7965
  155.4198  140.3446  155.4270 H   0  0  0  0  0  0  0  0  0  0  0  0  # atno 8008 bound_to 7997
  156.1399  140.1539  156.8967 H   0  0  0  0  0  0  0  0  0  0  0  0  # atno 8009 bound_to 7997
  154.4963  140.0827  156.7683 H   0  0  0  0  0  0  0  0  0  0  0  0  # atno 8010 bound_to 7997
  140.0852  143.4750  152.1902 H   0  0  0  0  0  0  0  0  0  0  0  0  # atno 10167 bound_to 10162
  156.5740  130.8701  151.2846 H   0  0  0  0  0  0  0  0  0  0  0  0  # atno 10718 bound_to 10713
  154.8632  135.3606  154.5416 H   0  0  0  0  0  0  0  0  0  0  0  0  # atno 10763 bound_to 10752
  153.6037  135.7012  153.5379 H   0  0  0  0  0  0  0  0  0  0  0  0  # atno 10764 bound_to 10752
  153.3269  135.4135  155.1424 H   0  0  0  0  0  0  0  0  0  0  0  0  # atno 10765 bound_to 10752
  140.2035  134.3842  155.8084 H   0  0  0  0  0  0  0  0  0  0  0  0  # atno 11005 bound_to 11000
  146.3064  139.7593  142.9053 LP  0  0  0  0  0  0  0  0  0  0  0  0  # atno 17320 bound_to 7965
  145.3753  141.0349  143.3208 LP  0  0  0  0  0  0  0  0  0  0  0  0  # atno 17321 bound_to 7965
  139.5756  144.7485  151.3774 LP  0  0  0  0  0  0  0  0  0  0  0  0  # atno 17342 bound_to 10162
  140.7057  143.7520  150.7478 LP  0  0  0  0  0  0  0  0  0  0  0  0  # atno 17343 bound_to 10162
  157.7342  130.9742  150.2015 LP  0  0  0  0  0  0  0  0  0  0  0  0  # atno 17370 bound_to 10713
  156.2689  130.3719  149.8052 LP  0  0  0  0  0  0  0  0  0  0  0  0  # atno 17371 bound_to 10713
  141.2227  133.7106  156.8297 LP  0  0  0  0  0  0  0  0  0  0  0  0  # atno 17394 bound_to 11000
  140.2029  134.8884  157.3189 LP  0  0  0  0  0  0  0  0  0  0  0  0  # atno 17395 bound_to 11000

$$$$
