AV-unprocessed.smi:35|AV-procd|sdf|255|dock7
  -GOLD-   2262016 13D 1   1.00000     0.00000
 Structure written by MMmdl.
 29 30  0  0  0  0  0  0  0  0  1 V2000
  152.5275  140.9847  158.8963 O   0  0  0  0  0  0  0  0  0  0  0  0
  151.8026  140.9913  157.9037 C   0  0  0  0  0  0  0  0  0  0  0  0
  152.0649  140.1322  156.8328 N   0  0  0  0  0  0  0  0  0  0  0  0
  151.3147  140.0490  155.6584 C   0  0  0  0  0  0  0  0  0  0  0  0
  151.6294  139.2459  154.7810 O   0  0  0  0  0  0  0  0  0  0  0  0
  150.1978  140.9062  155.5401 N   0  0  0  0  0  0  0  0  0  0  0  0
  149.3679  140.8346  154.2708 C   0  0  2  0  0  0  0  0  0  0  0  0
  148.5973  141.9942  154.1435 O   0  0  0  0  0  0  0  0  0  0  0  0
  147.2262  141.7034  154.3978 C   0  0  1  0  0  0  0  0  0  0  0  0
  146.3048  142.7593  153.7633 C   0  0  0  0  0  0  0  0  0  0  0  0
  144.9656  142.5196  154.1396 O   0  0  0  0  0  0  0  0  0  0  0  0
  147.0742  140.2775  153.8552 C   0  0  1  0  0  0  0  0  0  0  0  0
  146.9175  140.2785  152.4475 O   0  0  0  0  0  0  0  0  0  0  0  0
  148.3959  139.6286  154.2437 C   0  0  2  0  0  0  0  0  0  0  0  0
  148.2531  138.9772  155.4946 O   0  0  0  0  0  0  0  0  0  0  0  0
  149.8977  141.7776  156.5806 C   0  0  0  0  0  0  0  0  0  0  0  0
  150.6348  141.8448  157.7143 C   0  0  0  0  0  0  0  0  0  0  0  0
  150.0417  143.1525  159.0790 Br  0  0  0  0  0  0  0  0  0  0  0  0
  152.8629  139.5195  156.9168 H   0  0  0  0  0  0  0  0  0  0  0  0
  150.0845  140.8305  153.4472 H   0  0  0  0  0  0  0  0  0  0  0  0
  147.0621  141.6682  155.4764 H   0  0  0  0  0  0  0  0  0  0  0  0
  146.6015  143.7698  154.0465 H   0  0  0  0  0  0  0  0  0  0  0  0
  146.3537  142.6963  152.6759 H   0  0  0  0  0  0  0  0  0  0  0  0
  144.7144  141.6631  153.8285 H   0  0  0  0  0  0  0  0  0  0  0  0
  146.2123  139.7674  154.2878 H   0  0  0  0  0  0  0  0  0  0  0  0
  147.7744  140.2630  152.0493 H   0  0  0  0  0  0  0  0  0  0  0  0
  148.7353  138.8956  153.5105 H   0  0  0  0  0  0  0  0  0  0  0  0
  147.7695  138.1766  155.3584 H   0  0  0  0  0  0  0  0  0  0  0  0
  149.0479  142.4381  156.5053 H   0  0  0  0  0  0  0  0  0  0  0  0
  1  2  2  0  0  0  0
  2 17  1  0  0  0  0
  2  3  1  0  0  0  0
  3 19  1  0  0  0  0
  3  4  1  0  0  0  0
  4  5  2  0  0  0  0
  4  6  1  0  0  0  0
  6  7  1  0  0  0  0
  6 16  1  0  0  0  0
  7 14  1  0  0  0  0
  7  8  1  0  0  0  0
  7 20  1  0  0  0  0
  8  9  1  0  0  0  0
  9 10  1  0  0  0  0
  9 12  1  0  0  0  0
  9 21  1  0  0  0  0
 10 11  1  0  0  0  0
 10 22  1  0  0  0  0
 10 23  1  0  0  0  0
 11 24  1  0  0  0  0
 12 13  1  0  0  0  0
 12 14  1  0  0  0  0
 12 25  1  0  0  0  0
 13 26  1  0  0  0  0
 14 15  1  0  0  0  0
 14 27  1  0  0  0  0
 15 28  1  0  0  0  0
 16 17  2  0  0  0  0
 16 29  1  0  0  0  0
 17 18  1  0  0  0  0
M  END
> <s_m_source_file>
AV-unprocessed.smi

> <i_m_source_file_index>
35

> <i_lp_mmshare_version>
43012

> <i_f3d_flags>
0

> <s_epik_input>
Tz1jMVtuSF1jKD1PKW4oW2NIXWMxQnIpW0NAQEhdMk9bQ0BASF0oW0NIMl1bT0hdKVtDQEBIXShbT0hdKVtDQEhdMltPSF0=

> <s_epik_cmdline>
J2VwaWtfcHl0aG9uJywgJy1waCcsICc3LjAnLCAnLXRuJywgJzgnLCAnLW1hJywgJzIwMCcsICctbWV0YWxfYmluZGluZycsICctaW1hZScsICc8aW5maWxlLm1hZT4nLCAnLW9tYWUnLCAnPG91dGZpbGUubWFlPic=

> <r_lp_tautomer_probability>
0.999537

> <r_epik_Ionization_Penalty>
0.10812

> <r_epik_Ionization_Penalty_Charging>
0.108119

> <r_epik_Ionization_Penalty_Neutral>
4.93006e-07

> <r_epik_State_Penalty>
0.0979238

> <r_epik_Charging_Adjusted_Penalty>
0.206043

> <i_epik_Tot_Q>
0

> <i_epik_Tot_abs_Q>
0

> <r_epik_Metal_State_Penalty>
3.07911

> <b_epik_Metal_Only>
0

> <s_epik_Chemistry_Notes>
This compound contains an acetal/aminal-like group ( X-CH(R)-Y where X, Y are N, S, or O) that may be acid/base labile, releasing an aldehyde.

> <s_lp_Force_Field>
OPLS_2005

> <r_lp_Energy>
34.1394

> <b_lp_Chiralities_Consistent>
1

> <s_lp_Variant>
AV-unprocessed.smi:35-9

> <Gold.Version>
5.8.1

> <Gold.Id.Protein>
6NUR|6NUR_protein|mol2

> <Gold.PLP.Fitness>
37.6553

> <Gold.PLP.PLP>
-29.4005

> <Gold.PLP.part.hbond>
-5.3215

> <Gold.PLP.part.metal>
0.0000

> <Gold.PLP.part.buried>
-1.1988

> <Gold.PLP.part.nonpolar>
-23.4102

> <Gold.PLP.part.repulsive>
0.4159

> <Gold.PLP.ligand.clash>
0.0000

> <Gold.PLP.ligand.torsion>
0.5374

> <Gold.PLP.Chemscore.Hbond>
2.0904

> <Gold.PLP.Chemscore.CHOScore>
1.0000

> <Gold.PLP.Chemscore.Metal>
0.0000

> <Gold.Chemscore.Hbonds>
donor molecule, donor type, donor heavy atom, donor atom, acceptor molecule, acceptor atom, score
      L1  H    11    24       P1 10175  0.67
      L1  H    13    26       P1  7957  1.00
      P1  H  7989  7998       L1     5  0.32
      P1  H  8011  8017       L1     8  0.08
      L1  C    16    29       P1  8028  1.00

> <Gold.PLP.Chemscore.Internal.Correction>
0.0583

> <Gold.Rescore>
     Score         DG    S(hbond)    S(metal)    S(lipo)     H(rot)  DE(clash)    DE(int)     intcor
      3.48      -4.89       1.12        0.00      43.17       3.67       0.68       0.73       ----

> <Gold.Chemscore.Fitness>
3.4784

> <Gold.Chemscore.DG>
-4.8886

> <Gold.Chemscore.ZeroCoef>
-5.4800

> <Gold.Chemscore.Hbond>
1.1236

> <Gold.Chemscore.Metal>
0.0000

> <Gold.Chemscore.Lipo>
43.1733

> <Gold.Chemscore.Internal_Hbond>
0.0000

> <Gold.Chemscore.DEClash>
0.6840

> <Gold.Chemscore.DEInternal>
0.7261

> <Gold.Chemscore.Rot>
3.6701

> <Gold.Chemscore.Internal.Correction>
   9.000000E+99

> <Gold.Chemscore.Hbonds>
donor molecule, donor type, donor heavy atom, donor atom, acceptor molecule, acceptor atom, score
      L1  H    11    24       P1 10175  0.06
      L1  H    13    26       P1  7957  0.93
      P1  H  7989  7998       L1     5  0.01

> <Gold.Chemscore.Hbond.Weighted>
-3.7528

> <Gold.Chemscore.Metal.Weighted>
-0.0000

> <Gold.Chemscore.Lipo.Weighted>
-5.0513

> <Gold.Chemscore.Internal_Hbond.Weighted>
0.0000

> <Gold.Chemscore.DEClash.Weighted>
0.6840

> <Gold.Chemscore.DEInternal.Weighted>
0.7261

> <Gold.Chemscore.Rot.Weighted>
9.3955

> <Gold.Chemscore.Internal.Correction.Weighted>
   9.000000E+99

> <Gold.Protein.RotatedTorsions>
[ 6907 6896 6895 6894 ] final  -92.52 input  -60.11 | X-H torsion
[ 7974 7965 7964 7962 ] final   16.65 input  175.53 | X-H torsion
[ 8008 7997 7996 7995 ] final  130.74 input   59.86 | X-H torsion
[ 10167 10162 10161 10158 ] final   -6.13 input  -65.29 | X-H torsion
[ 10718 10713 10712 10709 ] final   93.19 input   66.30 | X-H torsion
[ 10763 10752 10751 10750 ] final  -85.65 input  -60.55 | X-H torsion
[ 11005 11000 10999 10996 ] final  128.32 input  -57.11 | X-H torsion

> <Gold.Protein.ActiveResidues>
 VAL166  LYS551  ARG553  GLY616  TRP617  ASP618  TYR619  PRO620  LYS621  CYS622 
 ASP623  PHE694  ASN695  SER759  ASP760  ASP761  ALA762  ILE779  LEU786  VAL792 
 PHE793  MET794  SER795  GLU796  ALA797  LYS798  CYS799  TRP800  GLU811  SER814 

> <Gold.Protein.RotatedAtoms>
  150.6907  134.2110  159.4358 H   0  0  0  0  0  0  0  0  0  0  0  0  # atno 6907 bound_to 6896
  152.0071  134.9894  160.0576 H   0  0  0  0  0  0  0  0  0  0  0  0  # atno 6908 bound_to 6896
  152.1523  133.4495  159.4857 H   0  0  0  0  0  0  0  0  0  0  0  0  # atno 6909 bound_to 6896
  146.2243  139.8717  142.8586 H   0  0  0  0  0  0  0  0  0  0  0  0  # atno 7974 bound_to 7965
  156.2959  140.2588  156.2812 H   0  0  0  0  0  0  0  0  0  0  0  0  # atno 8008 bound_to 7997
  154.9600  140.0392  157.2204 H   0  0  0  0  0  0  0  0  0  0  0  0  # atno 8009 bound_to 7997
  154.7955  140.2819  155.5964 H   0  0  0  0  0  0  0  0  0  0  0  0  # atno 8010 bound_to 7997
  140.6986  143.6229  150.8595 H   0  0  0  0  0  0  0  0  0  0  0  0  # atno 10167 bound_to 10162
  157.6956  131.0469  150.3996 H   0  0  0  0  0  0  0  0  0  0  0  0  # atno 10718 bound_to 10713
  154.6135  135.5477  153.7498 H   0  0  0  0  0  0  0  0  0  0  0  0  # atno 10763 bound_to 10752
  153.0205  135.6395  154.1544 H   0  0  0  0  0  0  0  0  0  0  0  0  # atno 10764 bound_to 10752
  154.1481  135.2904  155.3122 H   0  0  0  0  0  0  0  0  0  0  0  0  # atno 10765 bound_to 10752
  139.9554  134.9614  156.8984 H   0  0  0  0  0  0  0  0  0  0  0  0  # atno 11005 bound_to 11000
  145.2601  141.0074  143.3831 LP  0  0  0  0  0  0  0  0  0  0  0  0  # atno 17320 bound_to 7965
  144.9305  139.4304  143.6497 LP  0  0  0  0  0  0  0  0  0  0  0  0  # atno 17321 bound_to 7965
  139.9950  143.5806  152.2896 LP  0  0  0  0  0  0  0  0  0  0  0  0  # atno 17342 bound_to 10162
  139.6475  144.7659  151.2215 LP  0  0  0  0  0  0  0  0  0  0  0  0  # atno 17343 bound_to 10162
  156.4391  130.3988  149.6709 LP  0  0  0  0  0  0  0  0  0  0  0  0  # atno 17370 bound_to 10713
  156.3899  130.7622  151.2622 LP  0  0  0  0  0  0  0  0  0  0  0  0  # atno 17371 bound_to 10713
  140.5621  134.0524  155.7402 LP  0  0  0  0  0  0  0  0  0  0  0  0  # atno 17394 bound_to 11000
  141.1224  133.9438  157.2702 LP  0  0  0  0  0  0  0  0  0  0  0  0  # atno 17395 bound_to 11000

$$$$
