#       Name:                AV-unprocessed.smi:1536
#       Creating user name   scv26
#       Creation time:       Fri Mar 27 06:35:22 2020


#       File generated by GOLD software.
#

@<TRIPOS>MOLECULE
AV-unprocessed.smi:1536
    53    54     1
SMALL
NO_CHARGES


@<TRIPOS>ATOM
      1 ****         0.1175  -2.0032  -3.1826 C.3            1 S1                 0.0000
      2 ****        -1.1151  -1.0903  -3.0580 C.3            1 S1                 0.0000
      3 ****        -0.7659   0.4036  -3.1964 C.3            1 S1                 0.0000
      4 ****        -0.0468   0.9498  -1.9508 C.3            1 S1                 0.0000
      5 ****        -0.8544   0.7019  -0.7267 N.4            1 S1                 1.0000
      6 ****        -0.4217   1.4372   0.5043 C.3            1 S1                 0.0000
      7 ****         1.1200   1.4369   0.7359 C.3            1 S1                 0.0000
      8 ****         1.7336   0.1117   0.7357 N.am           1 S1                 0.0000
      9 ****         1.6446  -0.7787   1.7354 C.2            1 S1                 0.0000
     10 ****         0.9903  -0.5739   2.7586 O.2            1 S1                 0.0000
     11 ****         2.3948  -2.0986   1.5214 C.3            1 S1                 0.0000
     12 ****         2.5179  -2.8781   2.7406 N.pl3          1 S1                 0.0000
     13 ****         1.6921  -3.7619   3.3047 C.2            1 S1                 0.0000
     14 ****         2.1894  -4.2447   4.4329 N.2            1 S1                 0.0000
     15 ****         3.4070  -3.5941   4.5436 N.2            1 S1                 0.0000
     16 ****         3.6074  -2.7817   3.5423 N.2            1 S1                 0.0000
     17 ****        -1.0235   2.8730   0.4997 C.3            1 S1                 0.0000
     18 ****        -0.6908   3.6676   1.7772 C.3            1 S1                 0.0000
     19 ****        -2.5538   2.8567   0.3101 C.3            1 S1                 0.0000
     20 ****        -1.1582  -0.7398  -0.5261 C.3            1 S1                 0.0000
     21 ****        -1.8934  -1.3180  -1.7481 C.3            1 S1                 0.0000
     22 ****         0.8445  -1.8267  -2.3902 H              1 S1                 0.0000
     23 ****         0.6243  -1.8463  -4.1352 H              1 S1                 0.0000
     24 ****        -0.1702  -3.0538  -3.1367 H              1 S1                 0.0000
     25 ****        -1.7774  -1.3512  -3.8845 H              1 S1                 0.0000
     26 ****        -0.1551   0.5689  -4.0847 H              1 S1                 0.0000
     27 ****        -1.6840   0.9721  -3.3517 H              1 S1                 0.0000
     28 ****         0.9360   0.4880  -1.8591 H              1 S1                 0.0000
     29 ****         0.1186   2.0198  -2.0762 H              1 S1                 0.0000
     30 ****        -0.8747   0.9317   1.3583 H              1 S1                 0.0000
     31 ****         1.6175   2.0382  -0.0252 H              1 S1                 0.0000
     32 ****         1.3655   1.9074   1.6880 H              1 S1                 0.0000
     33 ****         2.2925  -0.1337  -0.0689 H              1 S1                 0.0000
     34 ****         1.8657  -2.6967   0.7785 H              1 S1                 0.0000
     35 ****         3.3923  -1.8989   1.1266 H              1 S1                 0.0000
     36 ****         0.7344  -4.0462   2.8943 H              1 S1                 0.0000
     37 ****        -0.5984   3.4253  -0.3388 H              1 S1                 0.0000
     38 ****        -0.9913   3.1238   2.6734 H              1 S1                 0.0000
     39 ****        -1.2062   4.6286   1.7877 H              1 S1                 0.0000
     40 ****         0.3730   3.8890   1.8559 H              1 S1                 0.0000
     41 ****        -3.0446   2.2814   1.0958 H              1 S1                 0.0000
     42 ****        -2.8439   2.4288  -0.6496 H              1 S1                 0.0000
     43 ****        -2.9637   3.8668   0.3380 H              1 S1                 0.0000
     44 ****        -0.2453  -1.3041  -0.3469 H              1 S1                 0.0000
     45 ****        -1.7864  -0.8681   0.3561 H              1 S1                 0.0000
     46 ****        -2.8730  -0.8445  -1.8277 H              1 S1                 0.0000
     47 ****        -2.0841  -2.3817  -1.6017 H              1 S1                 0.0000
     48 ****        -1.7578   1.1051  -0.9310 H              1 S1                 0.0000
     49 ****         0.4950   0.2875   2.8713 LP             1 S1                 0.0000
     50 ****         0.9544  -1.2689   3.4767 LP             1 S1                 0.0000
     51 ****         1.7844  -4.9157   5.0539 LP             1 S1                 0.0000
     52 ****         4.0515  -3.7298   5.2962 LP             1 S1                 0.0000
     53 ****         4.4082  -2.2012   3.3949 LP             1 S1                 0.0000
@<TRIPOS>BOND
    1    1    2 1     
    2    1   22 1     
    3    1   23 1     
    4    1   24 1     
    5    2   21 1     
    6    2    3 1     
    7    2   25 1     
    8    3    4 1     
    9    3   26 1     
   10    3   27 1     
   11    4    5 1     
   12    4   28 1     
   13    4   29 1     
   14    5    6 1     
   15    5   20 1     
   16    5   48 1     
   17    6    7 1     
   18    6   17 1     
   19    6   30 1     
   20    7    8 1     
   21    7   31 1     
   22    7   32 1     
   23    8    9 am    
   24    8   33 1     
   25    9   10 2     
   26    9   11 1     
   27   11   12 1     
   28   11   34 1     
   29   11   35 1     
   30   12   16 1     
   31   12   13 1     
   32   13   14 2     
   33   13   36 1     
   34   14   15 1     
   35   15   16 2     
   36   17   18 1     
   37   17   19 1     
   38   17   37 1     
   39   18   38 1     
   40   18   39 1     
   41   18   40 1     
   42   19   41 1     
   43   19   42 1     
   44   19   43 1     
   45   20   21 1     
   46   20   44 1     
   47   20   45 1     
   48   21   46 1     
   49   21   47 1     
   50   10   49 1     
   51   10   50 1     
   52   14   51 1     
   53   15   52 1     
   54   16   53 1     
@<TRIPOS>SUBSTRUCTURE
      1 S1             1
@<TRIPOS>SET
LONE_PAIRS      STATIC     ATOMS    <user>   **** ""
5 49 50 51 52 53
DONOR_HYDROGENS      STATIC     ATOMS    <user>   **** ""
2 48 33
ATOM$BLUE        STATIC     ATOMS    COLORGROUP SYSTEM
5 49 50 51 52 53
ATOM$RED        STATIC     ATOMS    COLORGROUP SYSTEM
2 48 33
