AV-unprocessed.smi:512|AV-procd|sdf|2770|dock8
  -GOLD-   2262023233D 1   1.00000     0.00000
 Structure written by MMmdl.
 48 50  0  0  0  0  0  0  0  0  3 V2000
  149.6189  132.6253  154.8015 C   0  0  0  0  0  0  0  0  0  0  0  0
  149.7908  134.0622  155.2992 C   0  0  0  0  0  0  0  0  0  0  0  0
  150.1222  134.0349  156.6771 O   0  0  0  0  0  0  0  0  0  0  0  0
  149.0079  133.7383  157.5015 C   0  0  0  0  0  0  0  0  0  0  0  0
  147.9540  134.8381  157.3227 C   0  0  0  0  0  0  0  0  0  0  0  0
  147.0792  134.9361  158.4892 N   0  0  0  0  0  0  0  0  0  0  0  0
  145.8123  134.4642  158.6378 C   0  0  0  0  0  0  0  0  0  0  0  0
  145.1757  133.7213  157.6435 N   0  0  0  0  0  0  0  0  0  0  0  0
  145.7091  132.4963  157.0510 C   0  0  0  0  0  0  0  0  0  0  0  0
  145.0262  131.2466  157.6378 C   0  0  0  0  0  0  0  0  0  0  0  0
  143.5548  131.3146  157.4692 N   0  3  0  0  0  0  0  0  0  0  0  0
  142.8628  130.1268  158.0129 C   0  0  0  0  0  0  0  0  0  0  0  0
  142.9994  132.5868  157.9885 C   0  0  0  0  0  0  0  0  0  0  0  0
  143.7417  133.7893  157.3800 C   0  0  0  0  0  0  0  0  0  0  0  0
  145.2287  134.7829  159.7946 N   0  0  0  0  0  0  0  0  0  0  0  0
  146.2204  135.4916  160.4559 C   0  0  0  0  0  0  0  0  0  0  0  0
  147.3417  135.5967  159.6934 C   0  0  0  0  0  0  0  0  0  0  0  0
  148.5630  136.3139  160.1207 C   0  0  0  0  0  0  0  0  0  0  0  0
  149.5477  136.3814  159.3879 O   0  0  0  0  0  0  0  0  0  0  0  0
  148.4328  136.8550  161.3732 N   0  5  0  0  0  0  0  0  0  0  0  0
  147.3181  136.7725  162.1800 C   0  0  0  0  0  0  0  0  0  0  0  0
  147.2829  137.2932  163.2956 O   0  0  0  0  0  0  0  0  0  0  0  0
  146.2093  136.0965  161.7421 N   0  0  0  0  0  0  0  0  0  0  0  0
  145.0093  135.9937  162.5772 C   0  0  0  0  0  0  0  0  0  0  0  0
  149.3640  132.6081  153.7419 H   0  0  0  0  0  0  0  0  0  0  0  0
  148.8239  132.1153  155.3458 H   0  0  0  0  0  0  0  0  0  0  0  0
  150.5373  132.0532  154.9342 H   0  0  0  0  0  0  0  0  0  0  0  0
  150.5791  134.5596  154.7322 H   0  0  0  0  0  0  0  0  0  0  0  0
  148.8677  134.6227  155.1445 H   0  0  0  0  0  0  0  0  0  0  0  0
  148.5930  132.7653  157.2357 H   0  0  0  0  0  0  0  0  0  0  0  0
  149.3218  133.6878  158.5453 H   0  0  0  0  0  0  0  0  0  0  0  0
  148.4585  135.7837  157.1451 H   0  0  0  0  0  0  0  0  0  0  0  0
  147.3496  134.6585  156.4343 H   0  0  0  0  0  0  0  0  0  0  0  0
  145.5808  132.5319  155.9684 H   0  0  0  0  0  0  0  0  0  0  0  0
  146.7801  132.4263  157.2401 H   0  0  0  0  0  0  0  0  0  0  0  0
  145.4107  130.3507  157.1492 H   0  0  0  0  0  0  0  0  0  0  0  0
  145.2658  131.1595  158.6991 H   0  0  0  0  0  0  0  0  0  0  0  0
  142.9997  130.0531  159.0925 H   0  0  0  0  0  0  0  0  0  0  0  0
  143.2482  129.2148  157.5557 H   0  0  0  0  0  0  0  0  0  0  0  0
  141.7932  130.1771  157.8060 H   0  0  0  0  0  0  0  0  0  0  0  0
  141.9369  132.6479  157.7503 H   0  0  0  0  0  0  0  0  0  0  0  0
  143.0857  132.6078  159.0762 H   0  0  0  0  0  0  0  0  0  0  0  0
  143.3411  134.7182  157.7877 H   0  0  0  0  0  0  0  0  0  0  0  0
  143.5773  133.8301  156.3024 H   0  0  0  0  0  0  0  0  0  0  0  0
  144.5864  136.9825  162.7582 H   0  0  0  0  0  0  0  0  0  0  0  0
  145.2498  135.5440  163.5412 H   0  0  0  0  0  0  0  0  0  0  0  0
  144.2307  135.3831  162.1216 H   0  0  0  0  0  0  0  0  0  0  0  0
  143.3845  131.3179  156.4736 H   0  0  0  0  0  0  0  0  0  0  0  0
  1  2  1  0  0  0  0
  1 25  1  0  0  0  0
  1 26  1  0  0  0  0
  1 27  1  0  0  0  0
  2  3  1  0  0  0  0
  2 28  1  0  0  0  0
  2 29  1  0  0  0  0
  3  4  1  0  0  0  0
  4  5  1  0  0  0  0
  4 30  1  0  0  0  0
  4 31  1  0  0  0  0
  5  6  1  0  0  0  0
  5 32  1  0  0  0  0
  5 33  1  0  0  0  0
  6 17  1  0  0  0  0
  6  7  1  0  0  0  0
  7  8  1  0  0  0  0
  7 15  2  0  0  0  0
  8 14  1  0  0  0  0
  8  9  1  0  0  0  0
  9 10  1  0  0  0  0
  9 34  1  0  0  0  0
  9 35  1  0  0  0  0
 10 11  1  0  0  0  0
 10 36  1  0  0  0  0
 10 37  1  0  0  0  0
 11 12  1  0  0  0  0
 11 13  1  0  0  0  0
 11 48  1  0  0  0  0
 12 38  1  0  0  0  0
 12 39  1  0  0  0  0
 12 40  1  0  0  0  0
 13 14  1  0  0  0  0
 13 41  1  0  0  0  0
 13 42  1  0  0  0  0
 14 43  1  0  0  0  0
 14 44  1  0  0  0  0
 15 16  1  0  0  0  0
 16 23  1  0  0  0  0
 16 17  2  0  0  0  0
 17 18  1  0  0  0  0
 18 19  2  0  0  0  0
 18 20  1  0  0  0  0
 20 21  1  0  0  0  0
 21 22  2  0  0  0  0
 21 23  1  0  0  0  0
 23 24  1  0  0  0  0
 24 45  1  0  0  0  0
 24 46  1  0  0  0  0
 24 47  1  0  0  0  0
M  CHG  1  11   1
M  CHG  1  20  -1
M  END
> <s_m_source_file>
AV-unprocessed.smi

> <i_m_source_file_index>
512

> <i_lp_mmshare_version>
43012

> <i_f3d_flags>
0

> <s_epik_input>
W0NIM11uMWMoPU8pW25IXWMoPU8pYyhjMTIpbihbQ0gyXVtDSDJdT1tDSDJdW0NIM10pYyhuMilOM1tDSDJdW0NIMl1OKFtDSDNdKVtDSDJdW0NIMl0z

> <s_epik_cmdline>
J2VwaWtfcHl0aG9uJywgJy1waCcsICc3LjAnLCAnLXRuJywgJzgnLCAnLW1hJywgJzIwMCcsICctbWV0YWxfYmluZGluZycsICctaW1hZScsICc8aW5maWxlLm1hZT4nLCAnLW9tYWUnLCAnPG91dGZpbGUubWFlPic=

> <r_epik_Ionization_Penalty>
5.9926

> <r_epik_Ionization_Penalty_Charging>
0.122107

> <r_epik_Ionization_Penalty_Neutral>
5.87049

> <r_epik_State_Penalty>
5.92685

> <r_epik_Charging_Adjusted_Penalty>
6.04896

> <i_epik_Tot_Q>
0

> <i_epik_Tot_abs_Q>
2

> <r_epik_Metal_State_Penalty>
1.88919

> <b_epik_Metal_Only>
1

> <s_lp_Force_Field>
OPLS_2005

> <r_lp_Energy>
50.2729

> <b_lp_Chiralities_Consistent>
1

> <s_lp_Variant>
AV-unprocessed.smi:512-3

> <Gold.Version>
5.8.1

> <Gold.Id.Protein>
6NUR|6NUR_protein|mol2

> <Gold.PLP.Fitness>
37.5160

> <Gold.PLP.PLP>
-24.3017

> <Gold.PLP.part.hbond>
-4.5979

> <Gold.PLP.part.metal>
0.0000

> <Gold.PLP.part.buried>
-3.0455

> <Gold.PLP.part.nonpolar>
-17.9730

> <Gold.PLP.part.repulsive>
0.0179

> <Gold.PLP.ligand.clash>
0.0000

> <Gold.PLP.ligand.torsion>
1.1942

> <Gold.PLP.Chemscore.Hbond>
5.0000

> <Gold.PLP.Chemscore.CHOScore>
0.0000

> <Gold.PLP.Chemscore.Metal>
0.0000

> <Gold.Chemscore.Hbonds>
donor molecule, donor type, donor heavy atom, donor atom, acceptor molecule, acceptor atom, score
      L1  H    11    48       P1 10957  1.80
      P1  H  6896  6909       L1    19  0.96
      P1  H  6931  6943       L1    20  2.00

> <Gold.PLP.Chemscore.Internal.Correction>
0.6027

> <Gold.Rescore>
     Score         DG    S(hbond)    S(metal)    S(lipo)     H(rot)  DE(clash)    DE(int)     intcor
     10.39     -11.88       1.91        0.00      35.95       1.63       0.39       1.10       ----

> <Gold.Chemscore.Fitness>
10.3918

> <Gold.Chemscore.DG>
-11.8798

> <Gold.Chemscore.ZeroCoef>
-5.4800

> <Gold.Chemscore.Hbond>
1.9082

> <Gold.Chemscore.Metal>
0.0000

> <Gold.Chemscore.Lipo>
35.9511

> <Gold.Chemscore.Internal_Hbond>
0.0000

> <Gold.Chemscore.DEClash>
0.3851

> <Gold.Chemscore.DEInternal>
1.1029

> <Gold.Chemscore.Rot>
1.6328

> <Gold.Chemscore.Internal.Correction>
   9.000000E+99

> <Gold.Chemscore.Hbonds>
donor molecule, donor type, donor heavy atom, donor atom, acceptor molecule, acceptor atom, score
      L1  H    11    48       P1 10957  0.18
      P1  H  6896  6909       L1    19  0.80
      P1  H  6931  6943       L1    20  0.25

> <Gold.Chemscore.Hbond.Weighted>
-6.3735

> <Gold.Chemscore.Metal.Weighted>
-0.0000

> <Gold.Chemscore.Lipo.Weighted>
-4.2063

> <Gold.Chemscore.Internal_Hbond.Weighted>
0.0000

> <Gold.Chemscore.DEClash.Weighted>
0.3851

> <Gold.Chemscore.DEInternal.Weighted>
1.1029

> <Gold.Chemscore.Rot.Weighted>
4.1800

> <Gold.Chemscore.Internal.Correction.Weighted>
   9.000000E+99

> <Gold.Protein.RotatedTorsions>
[ 6907 6896 6895 6894 ] final   86.59 input  -60.11 | X-H torsion
[ 7974 7965 7964 7962 ] final -137.85 input  175.53 | X-H torsion
[ 8008 7997 7996 7995 ] final -116.03 input   59.86 | X-H torsion
[ 10167 10162 10161 10158 ] final  -69.48 input  -65.29 | X-H torsion
[ 10718 10713 10712 10709 ] final -102.79 input   66.30 | X-H torsion
[ 10763 10752 10751 10750 ] final   95.30 input  -60.55 | X-H torsion
[ 11005 11000 10999 10996 ] final   55.16 input  -57.11 | X-H torsion

> <Gold.Protein.ActiveResidues>
 VAL166  LYS551  ARG553  GLY616  TRP617  ASP618  TYR619  PRO620  LYS621  CYS622 
 ASP623  PHE694  ASN695  SER759  ASP760  ASP761  ALA762  ILE779  LEU786  VAL792 
 PHE793  MET794  SER795  GLU796  ALA797  LYS798  CYS799  TRP800  GLU811  SER814 

> <Gold.Protein.RotatedAtoms>
  152.5397  134.2407  159.8860 H   0  0  0  0  0  0  0  0  0  0  0  0  # atno 6907 bound_to 6896
  151.2374  133.4411  159.2613 H   0  0  0  0  0  0  0  0  0  0  0  0  # atno 6908 bound_to 6896
  151.0658  134.9780  159.8340 H   0  0  0  0  0  0  0  0  0  0  0  0  # atno 6909 bound_to 6896
  144.8807  140.6503  143.5208 H   0  0  0  0  0  0  0  0  0  0  0  0  # atno 7974 bound_to 7965
  155.0614  140.0393  157.2578 H   0  0  0  0  0  0  0  0  0  0  0  0  # atno 8008 bound_to 7997
  154.7056  140.2682  155.6653 H   0  0  0  0  0  0  0  0  0  0  0  0  # atno 8009 bound_to 7997
  156.2774  140.2732  156.1681 H   0  0  0  0  0  0  0  0  0  0  0  0  # atno 8010 bound_to 7997
  140.5427  143.2314  151.7059 H   0  0  0  0  0  0  0  0  0  0  0  0  # atno 10167 bound_to 10162
  156.0241  130.5437  150.7160 H   0  0  0  0  0  0  0  0  0  0  0  0  # atno 10718 bound_to 10713
  153.2516  135.4259  155.0803 H   0  0  0  0  0  0  0  0  0  0  0  0  # atno 10763 bound_to 10752
  154.8384  135.3427  154.6504 H   0  0  0  0  0  0  0  0  0  0  0  0  # atno 10764 bound_to 10752
  153.6926  135.7033  153.5142 H   0  0  0  0  0  0  0  0  0  0  0  0  # atno 10765 bound_to 10752
  140.0629  134.5578  155.9132 H   0  0  0  0  0  0  0  0  0  0  0  0  # atno 11005 bound_to 11000
  145.3959  139.1607  143.4204 LP  0  0  0  0  0  0  0  0  0  0  0  0  # atno 17320 bound_to 7965
  146.2993  140.4052  142.8710 LP  0  0  0  0  0  0  0  0  0  0  0  0  # atno 17321 bound_to 7965
  139.4995  144.3943  152.0247 LP  0  0  0  0  0  0  0  0  0  0  0  0  # atno 17342 bound_to 10162
  140.3053  144.3600  150.6048 LP  0  0  0  0  0  0  0  0  0  0  0  0  # atno 17343 bound_to 10162
  157.4787  131.0900  151.0561 LP  0  0  0  0  0  0  0  0  0  0  0  0  # atno 17370 bound_to 10713
  157.1001  130.5978  149.5458 LP  0  0  0  0  0  0  0  0  0  0  0  0  # atno 17371 bound_to 10713
  141.1980  133.6599  156.5772 LP  0  0  0  0  0  0  0  0  0  0  0  0  # atno 17394 bound_to 11000
  140.3743  134.7578  157.4620 LP  0  0  0  0  0  0  0  0  0  0  0  0  # atno 17395 bound_to 11000

$$$$
