AV-unprocessed.smi:1535|AV-procd|sdf|6181|dock6
  -GOLD-   22720 6343D 1   1.00000     0.00000
 Structure written by MMmdl.
 47 48  0  0  0  0  0  0  0  0  2 V2000
  151.5903  143.8211  159.7719 C   0  0  0  0  0  0  0  0  0  0  0  0
  151.5357  142.5951  158.8773 C   0  0  0  0  0  0  0  0  0  0  0  0
  150.7065  142.6158  157.7331 C   0  0  0  0  0  0  0  0  0  0  0  0
  150.6264  141.4964  156.8761 C   0  0  0  0  0  0  0  0  0  0  0  0
  149.8926  141.2995  155.7187 N   0  0  0  0  0  0  0  0  0  0  0  0
  150.2426  140.0603  155.3865 C   0  0  0  0  0  0  0  0  0  0  0  0
  151.1148  139.4281  156.1957 N   0  0  0  0  0  0  0  0  0  0  0  0
  151.6393  138.0826  156.0452 C   0  0  0  0  0  0  0  0  0  0  0  0
  150.8940  137.2816  154.9604 C   0  0  1  0  0  0  0  0  0  0  0  0
  151.6300  137.3286  153.7526 O   0  0  0  0  0  0  0  0  0  0  0  0
  150.6954  135.8068  155.3627 C   0  0  0  0  0  0  0  0  0  0  0  0
  149.5589  135.1840  154.6380 N   0  3  1  0  0  0  0  0  0  0  0  0
  149.8806  133.8206  154.1577 C   0  0  0  0  0  0  0  0  0  0  0  0
  148.2804  135.2324  155.3948 C   0  0  0  0  0  0  0  0  0  0  0  0
  148.3110  134.3318  156.6428 C   0  0  2  0  0  0  0  0  0  0  0  0
  146.9015  133.9187  157.0935 C   0  0  0  0  0  0  0  0  0  0  0  0
  149.0285  134.9972  157.7417 C   0  0  0  0  0  0  0  0  0  0  0  0
  149.5919  135.5193  158.6063 N   0  0  0  0  0  0  0  0  0  0  0  0
  151.4039  140.3460  157.1991 C   0  0  0  0  0  0  0  0  0  0  0  0
  152.2345  140.3137  158.3332 C   0  0  0  0  0  0  0  0  0  0  0  0
  152.3045  141.4417  159.1772 C   0  0  0  0  0  0  0  0  0  0  0  0
  153.2069  141.3981  160.3979 C   0  0  0  0  0  0  0  0  0  0  0  0
  150.8931  144.5897  159.4370 H   0  0  0  0  0  0  0  0  0  0  0  0
  152.5918  144.2518  159.7666 H   0  0  0  0  0  0  0  0  0  0  0  0
  151.3305  143.5598  160.7978 H   0  0  0  0  0  0  0  0  0  0  0  0
  150.1227  143.4951  157.5032 H   0  0  0  0  0  0  0  0  0  0  0  0
  149.8382  139.5830  154.5056 H   0  0  0  0  0  0  0  0  0  0  0  0
  152.7043  138.1430  155.8154 H   0  0  0  0  0  0  0  0  0  0  0  0
  151.5561  137.5794  157.0093 H   0  0  0  0  0  0  0  0  0  0  0  0
  149.9290  137.7548  154.7794 H   0  0  0  0  0  0  0  0  0  0  0  0
  151.0960  136.9757  153.0568 H   0  0  0  0  0  0  0  0  0  0  0  0
  151.6185  135.2624  155.1555 H   0  0  0  0  0  0  0  0  0  0  0  0
  150.5265  135.7166  156.4372 H   0  0  0  0  0  0  0  0  0  0  0  0
  150.0890  133.1507  154.9930 H   0  0  0  0  0  0  0  0  0  0  0  0
  150.7564  133.8383  153.5083 H   0  0  0  0  0  0  0  0  0  0  0  0
  149.0567  133.4009  153.5810 H   0  0  0  0  0  0  0  0  0  0  0  0
  148.0659  136.2654  155.6744 H   0  0  0  0  0  0  0  0  0  0  0  0
  147.4459  134.9204  154.7665 H   0  0  0  0  0  0  0  0  0  0  0  0
  148.8863  133.4313  156.4284 H   0  0  0  0  0  0  0  0  0  0  0  0
  146.9460  133.2936  157.9854 H   0  0  0  0  0  0  0  0  0  0  0  0
  146.3843  133.3497  156.3205 H   0  0  0  0  0  0  0  0  0  0  0  0
  146.2915  134.7909  157.3308 H   0  0  0  0  0  0  0  0  0  0  0  0
  152.8133  139.4285  158.5512 H   0  0  0  0  0  0  0  0  0  0  0  0
  153.7929  140.4791  160.4261 H   0  0  0  0  0  0  0  0  0  0  0  0
  152.6138  141.4475  161.3113 H   0  0  0  0  0  0  0  0  0  0  0  0
  153.9038  142.2365  160.3907 H   0  0  0  0  0  0  0  0  0  0  0  0
  149.4269  135.7514  153.8123 H   0  0  0  0  0  0  0  0  0  0  0  0
  1  2  1  0  0  0  0
  1 23  1  0  0  0  0
  1 24  1  0  0  0  0
  1 25  1  0  0  0  0
  2 21  1  0  0  0  0
  2  3  2  0  0  0  0
  3  4  1  0  0  0  0
  3 26  1  0  0  0  0
  4 19  2  0  0  0  0
  4  5  1  0  0  0  0
  5  6  2  0  0  0  0
  6  7  1  0  0  0  0
  6 27  1  0  0  0  0
  7  8  1  0  0  0  0
  7 19  1  0  0  0  0
  8  9  1  0  0  0  0
  8 28  1  0  0  0  0
  8 29  1  0  0  0  0
  9 10  1  0  0  0  0
  9 11  1  0  0  0  0
  9 30  1  0  0  0  0
 10 31  1  0  0  0  0
 11 12  1  0  0  0  0
 11 32  1  0  0  0  0
 11 33  1  0  0  0  0
 12 13  1  0  0  0  0
 12 14  1  0  0  0  0
 12 47  1  0  0  0  0
 13 34  1  0  0  0  0
 13 35  1  0  0  0  0
 13 36  1  0  0  0  0
 14 15  1  0  0  0  0
 14 37  1  0  0  0  0
 14 38  1  0  0  0  0
 15 16  1  0  0  0  0
 15 17  1  0  0  0  0
 15 39  1  0  0  0  0
 16 40  1  0  0  0  0
 16 41  1  0  0  0  0
 16 42  1  0  0  0  0
 17 18  3  0  0  0  0
 19 20  1  0  0  0  0
 20 21  2  0  0  0  0
 20 43  1  0  0  0  0
 21 22  1  0  0  0  0
 22 44  1  0  0  0  0
 22 45  1  0  0  0  0
 22 46  1  0  0  0  0
M  CHG  1  12   1
M  END
> <s_m_source_file>
AV-unprocessed.smi

> <i_m_source_file_index>
1535

> <i_lp_mmshare_version>
43012

> <i_f3d_flags>
0

> <s_epik_input>
W0NIM11jKFtjSF0xKWMoW0NIM10pW2NIXWMoYzEyKW4oW2NIXW4yKVtDSDJdW0NASF0oW09IXSlbQ0gyXU4oW0NIM10pW0NIMl1bQ0BIXShbQ0gzXSlDI04=

> <s_epik_cmdline>
J2VwaWtfcHl0aG9uJywgJy1waCcsICc3LjAnLCAnLXRuJywgJzgnLCAnLW1hJywgJzIwMCcsICctbWV0YWxfYmluZGluZycsICctaW1hZScsICc8aW5maWxlLm1hZT4nLCAnLW9tYWUnLCAnPG91dGZpbGUubWFlPic=

> <r_epik_Ionization_Penalty>
2.21058

> <r_epik_Ionization_Penalty_Charging>
2.12381

> <r_epik_Ionization_Penalty_Neutral>
0.0867699

> <r_epik_State_Penalty>
2.36208

> <r_epik_Charging_Adjusted_Penalty>
4.48589

> <i_epik_Tot_Q>
1

> <i_epik_Tot_abs_Q>
1

> <r_epik_Metal_State_Penalty>
2.2818

> <b_epik_Metal_Only>
0

> <s_lp_Force_Field>
OPLS_2005

> <r_lp_Energy>
17.3963

> <b_lp_Chiralities_Consistent>
1

> <s_lp_Variant>
AV-unprocessed.smi:1535-12

> <Gold.Version>
5.8.1

> <Gold.Id.Protein>
6NUR|6NUR_protein|mol2

> <Gold.PLP.Fitness>
50.9416

> <Gold.PLP.PLP>
-39.1983

> <Gold.PLP.part.hbond>
-4.9982

> <Gold.PLP.part.metal>
0.0000

> <Gold.PLP.part.buried>
-2.7774

> <Gold.PLP.part.nonpolar>
-31.7121

> <Gold.PLP.part.repulsive>
0.1414

> <Gold.PLP.ligand.clash>
0.0000

> <Gold.PLP.ligand.torsion>
1.6349

> <Gold.PLP.Chemscore.Hbond>
4.9440

> <Gold.PLP.Chemscore.CHOScore>
0.0000

> <Gold.PLP.Chemscore.Metal>
0.0000

> <Gold.Chemscore.Hbonds>
donor molecule, donor type, donor heavy atom, donor atom, acceptor molecule, acceptor atom, score
      L1  H    10    31       P1  7949  0.86
      L1  H    12    47       P1  7948  1.98
      P1  H  6896  6907       L1    18  1.00
      P1  H 10752 10764       L1    10  0.62

> <Gold.PLP.Chemscore.Internal.Correction>
0.1811

> <Gold.Rescore>
     Score         DG    S(hbond)    S(metal)    S(lipo)     H(rot)  DE(clash)    DE(int)     intcor
     17.46     -19.56       2.92        0.00      94.11       2.60       0.04       2.06       ----

> <Gold.Chemscore.Fitness>
17.4645

> <Gold.Chemscore.DG>
-19.5644

> <Gold.Chemscore.ZeroCoef>
-5.4800

> <Gold.Chemscore.Hbond>
2.9154

> <Gold.Chemscore.Metal>
0.0000

> <Gold.Chemscore.Lipo>
94.1094

> <Gold.Chemscore.Internal_Hbond>
0.0000

> <Gold.Chemscore.DEClash>
0.0395

> <Gold.Chemscore.DEInternal>
2.0604

> <Gold.Chemscore.Rot>
2.6031

> <Gold.Chemscore.Internal.Correction>
   9.000000E+99

> <Gold.Chemscore.Hbonds>
donor molecule, donor type, donor heavy atom, donor atom, acceptor molecule, acceptor atom, score
      L1  H    10    31       P1  7949  0.34
      L1  H    12    47       P1  7948  0.46
      P1  H  6896  6907       L1    18  0.99
      P1  H 10752 10764       L1    10  0.07

> <Gold.Chemscore.Hbond.Weighted>
-9.7376

> <Gold.Chemscore.Metal.Weighted>
-0.0000

> <Gold.Chemscore.Lipo.Weighted>
-11.0108

> <Gold.Chemscore.Internal_Hbond.Weighted>
0.0000

> <Gold.Chemscore.DEClash.Weighted>
0.0395

> <Gold.Chemscore.DEInternal.Weighted>
2.0604

> <Gold.Chemscore.Rot.Weighted>
6.6640

> <Gold.Chemscore.Internal.Correction.Weighted>
   9.000000E+99

> <Gold.Protein.RotatedTorsions>
[ 6907 6896 6895 6894 ] final  -58.60 input  -60.11 | X-H torsion
[ 7974 7965 7964 7962 ] final  161.10 input  175.53 | X-H torsion
[ 8008 7997 7996 7995 ] final   12.25 input   59.86 | X-H torsion
[ 10167 10162 10161 10158 ] final  -46.46 input  -65.29 | X-H torsion
[ 10718 10713 10712 10709 ] final   -0.63 input   66.30 | X-H torsion
[ 10763 10752 10751 10750 ] final -101.05 input  -60.55 | X-H torsion
[ 11005 11000 10999 10996 ] final   77.55 input  -57.11 | X-H torsion

> <Gold.Protein.ActiveResidues>
 VAL166  LYS551  ARG553  GLY616  TRP617  ASP618  TYR619  PRO620  LYS621  CYS622 
 ASP623  PHE694  ASN695  SER759  ASP760  ASP761  ALA762  ILE779  LEU786  VAL792 
 PHE793  MET794  SER795  GLU796  ALA797  LYS798  CYS799  TRP800  GLU811  SER814 

> <Gold.Protein.RotatedAtoms>
  150.7995  134.7078  159.6586 H   0  0  0  0  0  0  0  0  0  0  0  0  # atno 6907 bound_to 6896
  152.4110  134.6121  160.0038 H   0  0  0  0  0  0  0  0  0  0  0  0  # atno 6908 bound_to 6896
  151.6364  133.3292  159.3156 H   0  0  0  0  0  0  0  0  0  0  0  0  # atno 6909 bound_to 6896
  144.7703  139.7851  143.6299 H   0  0  0  0  0  0  0  0  0  0  0  0  # atno 7974 bound_to 7965
  154.8180  140.2879  155.5807 H   0  0  0  0  0  0  0  0  0  0  0  0  # atno 8008 bound_to 7997
  156.2995  140.2555  156.3011 H   0  0  0  0  0  0  0  0  0  0  0  0  # atno 8009 bound_to 7997
  154.9371  140.0382  157.2067 H   0  0  0  0  0  0  0  0  0  0  0  0  # atno 8010 bound_to 7997
  140.6816  143.2830  151.3786 H   0  0  0  0  0  0  0  0  0  0  0  0  # atno 10167 bound_to 10162
  156.8175  130.5445  149.5701 H   0  0  0  0  0  0  0  0  0  0  0  0  # atno 10718 bound_to 10713
  154.7627  135.4912  153.9496 H   0  0  0  0  0  0  0  0  0  0  0  0  # atno 10763 bound_to 10752
  153.1271  135.6744  153.9247 H   0  0  0  0  0  0  0  0  0  0  0  0  # atno 10764 bound_to 10752
  153.8961  135.3115  155.3427 H   0  0  0  0  0  0  0  0  0  0  0  0  # atno 10765 bound_to 10752
  139.9249  134.7692  156.1537 H   0  0  0  0  0  0  0  0  0  0  0  0  # atno 11005 bound_to 11000
  146.1843  139.5051  142.9846 LP  0  0  0  0  0  0  0  0  0  0  0  0  # atno 17320 bound_to 7965
  145.6345  141.0297  143.1845 LP  0  0  0  0  0  0  0  0  0  0  0  0  # atno 17321 bound_to 7965
  139.6143  144.1034  152.2330 LP  0  0  0  0  0  0  0  0  0  0  0  0  # atno 17342 bound_to 10162
  140.0458  144.5971  150.7374 LP  0  0  0  0  0  0  0  0  0  0  0  0  # atno 17343 bound_to 10162
  156.1008  130.5967  150.9890 LP  0  0  0  0  0  0  0  0  0  0  0  0  # atno 17370 bound_to 10713
  157.6474  131.0902  150.8124 LP  0  0  0  0  0  0  0  0  0  0  0  0  # atno 17371 bound_to 10713
  141.0800  133.6758  156.2316 LP  0  0  0  0  0  0  0  0  0  0  0  0  # atno 17394 bound_to 11000
  140.6364  134.5211  157.5565 LP  0  0  0  0  0  0  0  0  0  0  0  0  # atno 17395 bound_to 11000

$$$$
