AV-unprocessed.smi:198|AV-procd|sdf|1559|dock2
  -GOLD-   2262019433D 1   1.00000     0.00000
 Structure written by MMmdl.
 59 63  0  0  0  0  0  0  0  0  2 V2000
  150.8758  145.1750  159.6462 C   0  0  0  0  0  0  0  0  0  0  0  0
  151.6262  143.9962  159.1626 N   0  3  2  0  0  0  0  0  0  0  0  0
  150.8221  143.1568  158.2413 C   0  0  0  0  0  0  0  0  0  0  0  0
  151.6568  141.9990  157.6713 C   0  0  0  0  0  0  0  0  0  0  0  0
  152.2560  141.1354  158.8046 C   0  0  2  0  0  0  0  0  0  0  0  0
  153.0816  142.0540  159.7363 C   0  0  2  0  0  0  0  0  0  0  0  0
  153.7191  141.2393  160.8751 C   0  0  0  0  0  0  0  0  0  0  0  0
  154.5615  140.0940  160.2974 C   0  0  0  0  0  0  0  0  0  0  0  0
  153.7188  139.2213  159.3559 C   0  0  0  0  0  0  0  0  0  0  0  0
  153.0866  140.0269  158.3125 N   0  0  0  0  0  0  0  0  0  0  0  0
  152.5272  139.2336  157.3712 C   0  0  0  0  0  0  0  0  0  0  0  0
  152.9904  139.3596  156.1040 N   0  0  0  0  0  0  0  0  0  0  0  0
  152.4773  138.6035  155.1287 C   0  0  0  0  0  0  0  0  0  0  0  0
  151.5138  137.6826  155.2053 N   0  0  0  0  0  0  0  0  0  0  0  0
  151.0477  137.5514  156.4809 C   0  0  0  0  0  0  0  0  0  0  0  0
  151.5037  138.2750  157.6182 C   0  0  0  0  0  0  0  0  0  0  0  0
  150.8216  137.8546  158.7523 N   0  0  0  0  0  0  0  0  0  0  0  0
  150.0116  136.9318  158.3115 C   0  0  0  0  0  0  0  0  0  0  0  0
  150.0515  136.7113  156.9514 N   0  0  0  0  0  0  0  0  0  0  0  0
  149.2967  135.7416  156.2030 C   0  0  0  0  0  0  0  0  0  0  0  0
  149.0262  134.3518  156.7910 C   0  0  0  0  0  0  0  0  0  0  0  0
  150.1296  133.7469  155.8947 C   0  0  0  0  0  0  0  0  0  0  0  0
  151.5434  133.6602  156.5091 C   0  0  0  0  0  0  0  0  0  0  0  0
  151.6509  132.6259  157.4655 O   0  0  0  0  0  0  0  0  0  0  0  0
  149.7952  132.4119  155.2056 C   0  0  0  0  0  0  0  0  0  0  0  0
  148.5676  132.4671  154.5088 O   0  0  0  0  0  0  0  0  0  0  0  0
  149.9088  134.9933  155.0105 C   0  0  0  0  0  0  0  0  0  0  0  0
  152.2088  143.2040  160.2737 C   0  0  0  0  0  0  0  0  0  0  0  0
  150.0112  144.8726  160.2387 H   0  0  0  0  0  0  0  0  0  0  0  0
  150.5230  145.7772  158.8084 H   0  0  0  0  0  0  0  0  0  0  0  0
  151.5107  145.8087  160.2662 H   0  0  0  0  0  0  0  0  0  0  0  0
  149.9510  142.7650  158.7692 H   0  0  0  0  0  0  0  0  0  0  0  0
  150.4466  143.7709  157.4220 H   0  0  0  0  0  0  0  0  0  0  0  0
  151.0187  141.4019  157.0193 H   0  0  0  0  0  0  0  0  0  0  0  0
  152.4559  142.3945  157.0424 H   0  0  0  0  0  0  0  0  0  0  0  0
  151.4384  140.7127  159.3893 H   0  0  0  0  0  0  0  0  0  0  0  0
  153.8925  142.4945  159.1528 H   0  0  0  0  0  0  0  0  0  0  0  0
  154.3434  141.8808  161.4981 H   0  0  0  0  0  0  0  0  0  0  0  0
  152.9420  140.8325  161.5237 H   0  0  0  0  0  0  0  0  0  0  0  0
  155.4130  140.5031  159.7519 H   0  0  0  0  0  0  0  0  0  0  0  0
  154.9716  139.4853  161.1037 H   0  0  0  0  0  0  0  0  0  0  0  0
  154.3520  138.4553  158.9053 H   0  0  0  0  0  0  0  0  0  0  0  0
  152.9484  138.7008  159.9270 H   0  0  0  0  0  0  0  0  0  0  0  0
  152.8980  138.7587  154.1462 H   0  0  0  0  0  0  0  0  0  0  0  0
  149.3566  136.3918  158.9787 H   0  0  0  0  0  0  0  0  0  0  0  0
  148.3684  136.2416  155.9237 H   0  0  0  0  0  0  0  0  0  0  0  0
  149.2101  134.2559  157.8610 H   0  0  0  0  0  0  0  0  0  0  0  0
  148.0293  133.9851  156.5387 H   0  0  0  0  0  0  0  0  0  0  0  0
  152.2980  133.5010  155.7383 H   0  0  0  0  0  0  0  0  0  0  0  0
  151.8155  134.5908  157.0064 H   0  0  0  0  0  0  0  0  0  0  0  0
  151.4448  131.8045  157.0466 H   0  0  0  0  0  0  0  0  0  0  0  0
  150.5664  132.1452  154.4825 H   0  0  0  0  0  0  0  0  0  0  0  0
  149.7559  131.5938  155.9255 H   0  0  0  0  0  0  0  0  0  0  0  0
  148.7488  132.5156  153.5827 H   0  0  0  0  0  0  0  0  0  0  0  0
  149.1764  134.8301  154.2179 H   0  0  0  0  0  0  0  0  0  0  0  0
  150.8234  135.4173  154.5972 H   0  0  0  0  0  0  0  0  0  0  0  0
  152.8131  143.8591  160.9026 H   0  0  0  0  0  0  0  0  0  0  0  0
  151.4074  142.8113  160.9021 H   0  0  0  0  0  0  0  0  0  0  0  0
  152.4036  144.3514  158.6243 H   0  0  0  0  0  0  0  0  0  0  0  0
  1  2  1  0  0  0  0
  1 29  1  0  0  0  0
  1 30  1  0  0  0  0
  1 31  1  0  0  0  0
  2 28  1  0  0  0  0
  2  3  1  0  0  0  0
  2 59  1  0  0  0  0
  3  4  1  0  0  0  0
  3 32  1  0  0  0  0
  3 33  1  0  0  0  0
  4  5  1  0  0  0  0
  4 34  1  0  0  0  0
  4 35  1  0  0  0  0
  5 10  1  0  0  0  0
  5  6  1  0  0  0  0
  5 36  1  0  0  0  0
  6  7  1  0  0  0  0
  6 28  1  0  0  0  0
  6 37  1  0  0  0  0
  7  8  1  0  0  0  0
  7 38  1  0  0  0  0
  7 39  1  0  0  0  0
  8  9  1  0  0  0  0
  8 40  1  0  0  0  0
  8 41  1  0  0  0  0
  9 10  1  0  0  0  0
  9 42  1  0  0  0  0
  9 43  1  0  0  0  0
 10 11  1  0  0  0  0
 11 16  1  0  0  0  0
 11 12  2  0  0  0  0
 12 13  1  0  0  0  0
 13 14  2  0  0  0  0
 13 44  1  0  0  0  0
 14 15  1  0  0  0  0
 15 19  1  0  0  0  0
 15 16  2  0  0  0  0
 16 17  1  0  0  0  0
 17 18  2  0  0  0  0
 18 19  1  0  0  0  0
 18 45  1  0  0  0  0
 19 20  1  0  0  0  0
 20 27  1  0  0  0  0
 20 21  1  0  0  0  0
 20 46  1  0  0  0  0
 21 22  1  0  0  0  0
 21 47  1  0  0  0  0
 21 48  1  0  0  0  0
 22 23  1  0  0  0  0
 22 25  1  0  0  0  0
 22 27  1  0  0  0  0
 23 24  1  0  0  0  0
 23 49  1  0  0  0  0
 23 50  1  0  0  0  0
 24 51  1  0  0  0  0
 25 26  1  0  0  0  0
 25 52  1  0  0  0  0
 25 53  1  0  0  0  0
 26 54  1  0  0  0  0
 27 55  1  0  0  0  0
 27 56  1  0  0  0  0
 28 57  1  0  0  0  0
 28 58  1  0  0  0  0
M  CHG  1   2   1
M  END
> <s_m_source_file>
AV-unprocessed.smi

> <i_m_source_file_index>
198

> <i_lp_mmshare_version>
43012

> <i_f3d_flags>
0

> <s_epik_input>
W0NIMl0xW0NIMl1OKFtDSDNdKVtDSDJdW0NAQEhdKFtDQEhdMTIpW0NIMl1bQ0gyXVtDSDJdTjJjKG5bY0hdbjMpYyhjMzQpbltjSF1uNFtDSF0oW0NIMl01KVtDSDJdQzUoW0NIMl1bT0hdKVtDSDJdW09IXQ==

> <s_epik_cmdline>
J2VwaWtfcHl0aG9uJywgJy1waCcsICc3LjAnLCAnLXRuJywgJzgnLCAnLW1hJywgJzIwMCcsICctbWV0YWxfYmluZGluZycsICctaW1hZScsICc8aW5maWxlLm1hZT4nLCAnLW9tYWUnLCAnPG91dGZpbGUubWFlPic=

> <r_lp_tautomer_probability>
1

> <r_epik_Ionization_Penalty>
0.00239938

> <r_epik_Ionization_Penalty_Charging>
0.00138697

> <r_epik_Ionization_Penalty_Neutral>
0.00101241

> <r_epik_State_Penalty>
-0

> <r_epik_Charging_Adjusted_Penalty>
0.00138697

> <i_epik_Tot_Q>
1

> <i_epik_Tot_abs_Q>
1

> <r_epik_Metal_State_Penalty>
-0

> <b_epik_Metal_Only>
0

> <s_lp_Force_Field>
OPLS_2005

> <r_lp_Energy>
58.4114

> <b_lp_Chiralities_Consistent>
1

> <s_lp_Variant>
AV-unprocessed.smi:198-8

> <Gold.Version>
5.8.1

> <Gold.Id.Protein>
6NUR|6NUR_protein|mol2

> <Gold.PLP.Fitness>
48.4471

> <Gold.PLP.PLP>
-43.6001

> <Gold.PLP.part.hbond>
-3.0000

> <Gold.PLP.part.metal>
0.0000

> <Gold.PLP.part.buried>
-7.7757

> <Gold.PLP.part.nonpolar>
-32.1006

> <Gold.PLP.part.repulsive>
0.1288

> <Gold.PLP.ligand.clash>
0.0000

> <Gold.PLP.ligand.torsion>
0.9180

> <Gold.PLP.Chemscore.Hbond>
1.9920

> <Gold.PLP.Chemscore.CHOScore>
0.0000

> <Gold.PLP.Chemscore.Metal>
0.0000

> <Gold.Chemscore.Hbonds>
donor molecule, donor type, donor heavy atom, donor atom, acceptor molecule, acceptor atom, score
      P1  H  6896  6907       L1    24  0.98
      P1  H  7997  8009       L1    12  1.00

> <Gold.PLP.Chemscore.Internal.Correction>
0.7071

> <Gold.Rescore>
     Score         DG    S(hbond)    S(metal)    S(lipo)     H(rot)  DE(clash)    DE(int)     intcor
     15.02     -15.94       1.67        0.00     108.97       3.08       0.00       0.92       ----

> <Gold.Chemscore.Fitness>
15.0229

> <Gold.Chemscore.DG>
-15.9408

> <Gold.Chemscore.ZeroCoef>
-5.4800

> <Gold.Chemscore.Hbond>
1.6741

> <Gold.Chemscore.Metal>
0.0000

> <Gold.Chemscore.Lipo>
108.9680

> <Gold.Chemscore.Internal_Hbond>
0.0000

> <Gold.Chemscore.DEClash>
0.0000

> <Gold.Chemscore.DEInternal>
0.9179

> <Gold.Chemscore.Rot>
3.0781

> <Gold.Chemscore.Internal.Correction>
   9.000000E+99

> <Gold.Chemscore.Hbonds>
donor molecule, donor type, donor heavy atom, donor atom, acceptor molecule, acceptor atom, score
      P1  H  6896  6907       L1    24  0.76
      P1  H  7997  8009       L1    12  0.33

> <Gold.Chemscore.Hbond.Weighted>
-5.5915

> <Gold.Chemscore.Metal.Weighted>
-0.0000

> <Gold.Chemscore.Lipo.Weighted>
-12.7493

> <Gold.Chemscore.Internal_Hbond.Weighted>
0.0000

> <Gold.Chemscore.DEClash.Weighted>
0.0000

> <Gold.Chemscore.DEInternal.Weighted>
0.9179

> <Gold.Chemscore.Rot.Weighted>
7.8800

> <Gold.Chemscore.Internal.Correction.Weighted>
   9.000000E+99

> <Gold.Protein.RotatedTorsions>
[ 6907 6896 6895 6894 ] final  177.71 input  -60.11 | X-H torsion
[ 7974 7965 7964 7962 ] final   85.62 input  175.53 | X-H torsion
[ 8008 7997 7996 7995 ] final -162.01 input   59.86 | X-H torsion
[ 10167 10162 10161 10158 ] final  154.34 input  -65.29 | X-H torsion
[ 10718 10713 10712 10709 ] final  129.56 input   66.30 | X-H torsion
[ 10763 10752 10751 10750 ] final  158.90 input  -60.55 | X-H torsion
[ 11005 11000 10999 10996 ] final  118.55 input  -57.11 | X-H torsion

> <Gold.Protein.ActiveResidues>
 VAL166  LYS551  ARG553  GLY616  TRP617  ASP618  TYR619  PRO620  LYS621  CYS622 
 ASP623  PHE694  ASN695  SER759  ASP760  ASP761  ALA762  ILE779  LEU786  VAL792 
 PHE793  MET794  SER795  GLU796  ALA797  LYS798  CYS799  TRP800  GLU811  SER814 

> <Gold.Protein.RotatedAtoms>
  151.6995  133.3311  159.3262 H   0  0  0  0  0  0  0  0  0  0  0  0  # atno 6907 bound_to 6896
  150.7742  134.6628  159.6358 H   0  0  0  0  0  0  0  0  0  0  0  0  # atno 6908 bound_to 6896
  152.3778  134.6639  160.0205 H   0  0  0  0  0  0  0  0  0  0  0  0  # atno 6909 bound_to 6896
  145.5831  139.2327  143.2342 H   0  0  0  0  0  0  0  0  0  0  0  0  # atno 7974 bound_to 7965
  155.8005  140.0891  157.1959 H   0  0  0  0  0  0  0  0  0  0  0  0  # atno 8008 bound_to 7997
  154.3982  140.1473  156.3328 H   0  0  0  0  0  0  0  0  0  0  0  0  # atno 8009 bound_to 7997
  155.8467  140.3436  155.5669 H   0  0  0  0  0  0  0  0  0  0  0  0  # atno 8010 bound_to 7997
  139.4823  144.5195  151.7898 H   0  0  0  0  0  0  0  0  0  0  0  0  # atno 10167 bound_to 10162
  157.5143  131.1097  150.9248 H   0  0  0  0  0  0  0  0  0  0  0  0  # atno 10718 bound_to 10713
  154.2233  135.2781  155.2917 H   0  0  0  0  0  0  0  0  0  0  0  0  # atno 10763 bound_to 10752
  154.5684  135.5626  153.7075 H   0  0  0  0  0  0  0  0  0  0  0  0  # atno 10764 bound_to 10752
  153.0037  135.6315  154.2373 H   0  0  0  0  0  0  0  0  0  0  0  0  # atno 10765 bound_to 10752
  139.9113  134.9621  156.7520 H   0  0  0  0  0  0  0  0  0  0  0  0  # atno 11005 bound_to 11000
  146.1702  140.6657  142.9237 LP  0  0  0  0  0  0  0  0  0  0  0  0  # atno 17320 bound_to 7965
  144.7385  140.4876  143.6886 LP  0  0  0  0  0  0  0  0  0  0  0  0  # atno 17321 bound_to 7965
  140.4707  144.1590  150.5917 LP  0  0  0  0  0  0  0  0  0  0  0  0  # atno 17342 bound_to 10162
  140.4385  143.2537  151.9504 LP  0  0  0  0  0  0  0  0  0  0  0  0  # atno 17343 bound_to 10162
  156.9878  130.5552  149.5301 LP  0  0  0  0  0  0  0  0  0  0  0  0  # atno 17370 bound_to 10713
  156.0309  130.5401  150.8532 LP  0  0  0  0  0  0  0  0  0  0  0  0  # atno 17371 bound_to 10713
  140.6766  133.9512  155.7886 LP  0  0  0  0  0  0  0  0  0  0  0  0  # atno 17394 bound_to 11000
  141.0540  134.0444  157.3747 LP  0  0  0  0  0  0  0  0  0  0  0  0  # atno 17395 bound_to 11000

$$$$
