#       Name:                AV-unprocessed.smi:209
#       Creating user name   scv26
#       Creation time:       Thu Mar 26 19:53:09 2020


#       File generated by GOLD software.
#

@<TRIPOS>MOLECULE
AV-unprocessed.smi:209
    58    62     1
SMALL
NO_CHARGES


@<TRIPOS>ATOM
      1 ****        -0.6245   5.8282  -0.8647 O.2            1 S1                 0.0000
      2 ****        -0.5225   4.9523  -0.0082 C.2            1 S1                 0.0000
      3 ****         0.6087   4.3673   0.3821 N.am           1 S1                 0.0000
      4 ****         0.3969   3.3053   1.3512 C.3            1 S1                 0.0000
      5 ****        -1.1311   3.0527   1.3249 C.3            1 S1                 0.0000
      6 ****        -1.6894   4.3965   0.7955 C.3            1 S1                 0.0000
      7 ****        -3.0468   4.3123   0.0660 C.3            1 S1                 0.0000
      8 ****        -3.1298   3.0987  -0.8637 C.3            1 S1                 0.0000
      9 ****        -2.7992   1.8244  -0.0816 C.3            1 S1                 0.0000
     10 ****        -1.4451   1.8999   0.4599 N.3            1 S1                 0.0000
     11 ****        -0.9813   0.6809   0.8384 C.ar           1 S1                 0.0000
     12 ****        -0.8251   0.3886   2.1574 N.ar           1 S1                 0.0000
     13 ****        -0.3830  -0.8150   2.5329 C.ar           1 S1                 0.0000
     14 ****        -0.0437  -1.8549   1.7687 N.ar           1 S1                 0.0000
     15 ****        -0.1922  -1.5653   0.4442 C.ar           1 S1                 0.0000
     16 ****        -0.6516  -0.3343  -0.1021 C.ar           1 S1                 0.0000
     17 ****        -0.6669  -0.4082  -1.4893 N.2            1 S1                 0.0000
     18 ****        -0.2478  -1.6170  -1.7481 C.2            1 S1                 0.0000
     19 ****         0.0688  -2.3789  -0.6452 N.pl3          1 S1                 0.0000
     20 ****         0.5484  -3.7535  -0.6387 C.3            1 S1                 0.0000
     21 ****         2.0733  -3.9003  -0.8171 C.3            1 S1                 0.0000
     22 ****         2.7822  -3.1389   0.3212 C.3            1 S1                 0.0000
     23 ****         4.1854  -3.3093   0.3011 O.3            1 S1                 0.0000
     24 ****         2.5263  -5.3450  -1.0790 C.3            1 S1                 0.0000
     25 ****         2.7512  -5.0836  -2.4817 O.3            1 S1                 0.0000
     26 ****         2.6011  -3.6670  -2.2408 C.3            1 S1                 0.0000
     27 ****        -1.5120   2.8661   2.3299 H              1 S1                 0.0000
     28 ****        -1.8041   5.0812   1.6371 H              1 S1                 0.0000
     29 ****         1.5173   4.5778  -0.0049 H              1 S1                 0.0000
     30 ****         1.0032   2.4312   1.1120 H              1 S1                 0.0000
     31 ****         0.7080   3.6664   2.3319 H              1 S1                 0.0000
     32 ****        -3.8408   4.2407   0.8103 H              1 S1                 0.0000
     33 ****        -3.2441   5.2275  -0.4933 H              1 S1                 0.0000
     34 ****        -4.1302   3.0260  -1.2911 H              1 S1                 0.0000
     35 ****        -2.4387   3.2141  -1.6997 H              1 S1                 0.0000
     36 ****        -3.5065   1.6886   0.7378 H              1 S1                 0.0000
     37 ****        -2.9121   0.9634  -0.7409 H              1 S1                 0.0000
     38 ****        -0.2880  -0.9668   3.5979 H              1 S1                 0.0000
     39 ****        -0.1622  -1.9870  -2.7593 H              1 S1                 0.0000
     40 ****         0.2293  -4.2215   0.2935 H              1 S1                 0.0000
     41 ****         0.0208  -4.2898  -1.4289 H              1 S1                 0.0000
     42 ****         2.5909  -2.0677   0.2576 H              1 S1                 0.0000
     43 ****         2.4173  -3.4703   1.2937 H              1 S1                 0.0000
     44 ****         4.5569  -2.8319   1.0272 H              1 S1                 0.0000
     45 ****         3.4454  -5.6386  -0.5705 H              1 S1                 0.0000
     46 ****         1.7467  -6.0899  -0.9152 H              1 S1                 0.0000
     47 ****         1.8840  -3.2080  -2.9201 H              1 S1                 0.0000
     48 ****         3.5585  -3.1462  -2.2869 H              1 S1                 0.0000
     49 ****        -1.5195   6.2233  -1.0717 LP             1 S1                 0.0000
     50 ****         0.1875   6.1456  -1.3545 LP             1 S1                 0.0000
     51 ****        -0.8639   2.1614  -0.3107 LP             1 S1                 0.0000
     52 ****        -1.0421   1.0774   2.8491 LP             1 S1                 0.0000
     53 ****         0.2780  -2.7335   2.1216 LP             1 S1                 0.0000
     54 ****        -0.9370   0.3015  -2.1400 LP             1 S1                 0.0000
     55 ****         4.5554  -2.9571  -0.5586 LP             1 S1                 0.0000
     56 ****         4.4082  -4.2804   0.3868 LP             1 S1                 0.0000
     57 ****         2.0550  -5.4711  -3.0861 LP             1 S1                 0.0000
     58 ****         3.6592  -5.3488  -2.8061 LP             1 S1                 0.0000
@<TRIPOS>BOND
    1    1    2 2     
    2    2    6 1     
    3    2    3 am    
    4    3    4 1     
    5    3   29 1     
    6    4    5 1     
    7    4   30 1     
    8    4   31 1     
    9    5   27 1     
   10    5   10 1     
   11    5    6 1     
   12    6   28 1     
   13    6    7 1     
   14    7    8 1     
   15    7   32 1     
   16    7   33 1     
   17    8    9 1     
   18    8   34 1     
   19    8   35 1     
   20    9   10 1     
   21    9   36 1     
   22    9   37 1     
   23   10   11 1     
   24   11   16 ar    
   25   11   12 ar    
   26   12   13 ar    
   27   13   14 ar    
   28   13   38 1     
   29   14   15 ar    
   30   15   19 1     
   31   15   16 ar    
   32   16   17 1     
   33   17   18 2     
   34   18   19 1     
   35   18   39 1     
   36   19   20 1     
   37   20   21 1     
   38   20   40 1     
   39   20   41 1     
   40   21   26 1     
   41   21   22 1     
   42   21   24 1     
   43   22   23 1     
   44   22   42 1     
   45   22   43 1     
   46   23   44 1     
   47   24   25 1     
   48   24   45 1     
   49   24   46 1     
   50   25   26 1     
   51   26   47 1     
   52   26   48 1     
   53    1   49 1     
   54    1   50 1     
   55   10   51 1     
   56   12   52 1     
   57   14   53 1     
   58   17   54 1     
   59   23   55 1     
   60   23   56 1     
   61   25   57 1     
   62   25   58 1     
@<TRIPOS>SUBSTRUCTURE
      1 S1             1
@<TRIPOS>SET
LONE_PAIRS      STATIC     ATOMS    <user>   **** ""
10 49 50 51 52 53 54 55 56 57 58
DONOR_HYDROGENS      STATIC     ATOMS    <user>   **** ""
2 29 44
ATOM$BLUE        STATIC     ATOMS    COLORGROUP SYSTEM
10 49 50 51 52 53 54 55 56 57 58
ATOM$RED        STATIC     ATOMS    COLORGROUP SYSTEM
2 29 44
