AV-unprocessed.smi:2752|AV-procd|sdf|10606|dock6
  -GOLD-   2272015 53D 1   1.00000     0.00000
 Structure written by MMmdl.
 34 35  0  0  0  0  0  0  0  0  1 V2000
  148.3830  138.3339  156.6987 C   0  0  0  0  0  0  0  0  0  0  0  0
  148.6448  139.6410  156.2140 O   0  0  0  0  0  0  0  0  0  0  0  0
  149.1458  139.6694  154.8800 C   0  0  1  0  0  0  0  0  0  0  0  0
  148.0916  139.0761  153.9392 C   0  0  0  0  0  0  0  0  0  0  0  0
  147.1159  140.2253  153.7013 C   0  0  0  0  0  0  0  0  0  0  0  0
  147.9929  141.4798  153.6552 C   0  0  0  0  0  0  0  0  0  0  0  0
  149.2957  141.1317  154.4020 C   0  0  1  0  0  0  0  0  0  0  0  0
  149.5487  142.0680  155.4952 N   0  0  0  0  0  0  0  0  0  0  0  0
  150.3131  141.8048  156.5646 C   0  0  0  0  0  0  0  0  0  0  0  0
  150.9031  140.7365  156.7292 O   0  0  0  0  0  0  0  0  0  0  0  0
  150.3371  142.8468  157.4138 N   0  0  0  0  0  0  0  0  0  0  0  0
  151.0291  142.9565  158.6492 C   0  0  0  0  0  0  0  0  0  0  0  0
  150.8592  144.1875  159.3229 C   0  0  0  0  0  0  0  0  0  0  0  0
  151.5051  144.3974  160.5570 C   0  0  0  0  0  0  0  0  0  0  0  0
  152.3049  143.3682  161.0845 C   0  0  0  0  0  0  0  0  0  0  0  0
  152.9452  143.5239  162.2675 F   0  0  0  0  0  0  0  0  0  0  0  0
  152.4223  142.1730  160.3512 C   0  0  0  0  0  0  0  0  0  0  0  0
  151.8039  141.9709  159.1685 N   0  0  0  0  0  0  0  0  0  0  0  0
  147.9800  138.3949  157.7095 H   0  0  0  0  0  0  0  0  0  0  0  0
  149.2987  137.7429  156.7397 H   0  0  0  0  0  0  0  0  0  0  0  0
  147.6560  137.8090  156.0789 H   0  0  0  0  0  0  0  0  0  0  0  0
  150.1017  139.1462  154.8146 H   0  0  0  0  0  0  0  0  0  0  0  0
  148.5620  138.7994  152.9948 H   0  0  0  0  0  0  0  0  0  0  0  0
  147.6023  138.1859  154.3342 H   0  0  0  0  0  0  0  0  0  0  0  0
  146.5262  140.0934  152.7937 H   0  0  0  0  0  0  0  0  0  0  0  0
  146.4225  140.2931  154.5407 H   0  0  0  0  0  0  0  0  0  0  0  0
  148.2237  141.7331  152.6199 H   0  0  0  0  0  0  0  0  0  0  0  0
  147.4709  142.3362  154.0842 H   0  0  0  0  0  0  0  0  0  0  0  0
  150.1167  141.1879  153.6845 H   0  0  0  0  0  0  0  0  0  0  0  0
  149.0931  142.9668  155.4399 H   0  0  0  0  0  0  0  0  0  0  0  0
  149.7958  143.6553  157.1457 H   0  0  0  0  0  0  0  0  0  0  0  0
  150.2404  144.9668  158.9021 H   0  0  0  0  0  0  0  0  0  0  0  0
  151.3879  145.3305  161.0878 H   0  0  0  0  0  0  0  0  0  0  0  0
  153.0272  141.3588  160.7221 H   0  0  0  0  0  0  0  0  0  0  0  0
  1  2  1  0  0  0  0
  1 19  1  0  0  0  0
  1 20  1  0  0  0  0
  1 21  1  0  0  0  0
  2  3  1  0  0  0  0
  3  7  1  0  0  0  0
  3  4  1  0  0  0  0
  3 22  1  0  0  0  0
  4  5  1  0  0  0  0
  4 23  1  0  0  0  0
  4 24  1  0  0  0  0
  5  6  1  0  0  0  0
  5 25  1  0  0  0  0
  5 26  1  0  0  0  0
  6  7  1  0  0  0  0
  6 27  1  0  0  0  0
  6 28  1  0  0  0  0
  7  8  1  0  0  0  0
  7 29  1  0  0  0  0
  8  9  1  0  0  0  0
  8 30  1  0  0  0  0
  9 10  2  0  0  0  0
  9 11  1  0  0  0  0
 11 12  1  0  0  0  0
 11 31  1  0  0  0  0
 12 18  1  0  0  0  0
 12 13  2  0  0  0  0
 13 14  1  0  0  0  0
 13 32  1  0  0  0  0
 14 15  2  0  0  0  0
 14 33  1  0  0  0  0
 15 16  1  0  0  0  0
 15 17  1  0  0  0  0
 17 18  2  0  0  0  0
 17 34  1  0  0  0  0
M  END
> <s_m_source_file>
AV-unprocessed.smi

> <i_m_source_file_index>
2752

> <i_lp_mmshare_version>
43012

> <i_f3d_flags>
0

> <s_epik_input>
W0NIM11PW0NAQEhdMVtDSDJdW0NIMl1bQ0gyXVtDQEhdMVtOSF1DKD1PKVtOSF1jMltjSF1bY0hdYyhGKVtjSF1uMg==

> <s_epik_cmdline>
J2VwaWtfcHl0aG9uJywgJy1waCcsICc3LjAnLCAnLXRuJywgJzgnLCAnLW1hJywgJzIwMCcsICctbWV0YWxfYmluZGluZycsICctaW1hZScsICc8aW5maWxlLm1hZT4nLCAnLW9tYWUnLCAnPG91dGZpbGUubWFlPic=

> <r_lp_tautomer_probability>
1

> <r_epik_Ionization_Penalty>
3.49853e-05

> <r_epik_Ionization_Penalty_Charging>
0

> <r_epik_Ionization_Penalty_Neutral>
3.49853e-05

> <r_epik_State_Penalty>
-0

> <r_epik_Charging_Adjusted_Penalty>
0

> <i_epik_Tot_Q>
0

> <i_epik_Tot_abs_Q>
0

> <r_epik_Metal_State_Penalty>
-0

> <b_epik_Metal_Only>
0

> <s_lp_Force_Field>
OPLS_2005

> <r_lp_Energy>
23.7986

> <b_lp_Chiralities_Consistent>
1

> <s_lp_Variant>
AV-unprocessed.smi:2752-2

> <Gold.Version>
5.8.1

> <Gold.Id.Protein>
6NUR|6NUR_protein|mol2

> <Gold.PLP.Fitness>
40.0891

> <Gold.PLP.PLP>
-34.7593

> <Gold.PLP.part.hbond>
-2.0000

> <Gold.PLP.part.metal>
0.0000

> <Gold.PLP.part.buried>
-4.7517

> <Gold.PLP.part.nonpolar>
-27.9865

> <Gold.PLP.part.repulsive>
0.2034

> <Gold.PLP.ligand.clash>
0.0000

> <Gold.PLP.ligand.torsion>
0.3291

> <Gold.PLP.Chemscore.Hbond>
1.9920

> <Gold.PLP.Chemscore.CHOScore>
0.0000

> <Gold.PLP.Chemscore.Metal>
0.0000

> <Gold.Chemscore.Hbonds>
donor molecule, donor type, donor heavy atom, donor atom, acceptor molecule, acceptor atom, score
      L1  H     8    30       P1  8028  1.00
      L1  H    11    31       P1  8028  0.99

> <Gold.PLP.Chemscore.Internal.Correction>
0.0120

> <Gold.Rescore>
     Score         DG    S(hbond)    S(metal)    S(lipo)     H(rot)  DE(clash)    DE(int)     intcor
     11.18     -17.68       1.95        0.00      76.60       1.28       0.34       6.16       ----

> <Gold.Chemscore.Fitness>
11.1765

> <Gold.Chemscore.DG>
-17.6839

> <Gold.Chemscore.ZeroCoef>
-5.4800

> <Gold.Chemscore.Hbond>
1.9533

> <Gold.Chemscore.Metal>
0.0000

> <Gold.Chemscore.Lipo>
76.5993

> <Gold.Chemscore.Internal_Hbond>
0.0000

> <Gold.Chemscore.DEClash>
0.3440

> <Gold.Chemscore.DEInternal>
6.1634

> <Gold.Chemscore.Rot>
1.2821

> <Gold.Chemscore.Internal.Correction>
   9.000000E+99

> <Gold.Chemscore.Hbonds>
donor molecule, donor type, donor heavy atom, donor atom, acceptor molecule, acceptor atom, score
      L1  H     8    30       P1  8028  0.99
      L1  H    11    31       P1  8028  0.81

> <Gold.Chemscore.Hbond.Weighted>
-6.5240

> <Gold.Chemscore.Metal.Weighted>
-0.0000

> <Gold.Chemscore.Lipo.Weighted>
-8.9621

> <Gold.Chemscore.Internal_Hbond.Weighted>
0.0000

> <Gold.Chemscore.DEClash.Weighted>
0.3440

> <Gold.Chemscore.DEInternal.Weighted>
6.1634

> <Gold.Chemscore.Rot.Weighted>
3.2822

> <Gold.Chemscore.Internal.Correction.Weighted>
   9.000000E+99

> <Gold.Protein.RotatedTorsions>
[ 6907 6896 6895 6894 ] final  165.51 input  -60.11 | X-H torsion
[ 7974 7965 7964 7962 ] final   78.30 input  175.53 | X-H torsion
[ 8008 7997 7996 7995 ] final   66.45 input   59.86 | X-H torsion
[ 10167 10162 10161 10158 ] final  -34.22 input  -65.29 | X-H torsion
[ 10718 10713 10712 10709 ] final -116.94 input   66.30 | X-H torsion
[ 10763 10752 10751 10750 ] final  167.81 input  -60.55 | X-H torsion
[ 11005 11000 10999 10996 ] final -151.64 input  -57.11 | X-H torsion

> <Gold.Protein.ActiveResidues>
 VAL166  LYS551  ARG553  GLY616  TRP617  ASP618  TYR619  PRO620  LYS621  CYS622 
 ASP623  PHE694  ASN695  SER759  ASP760  ASP761  ALA762  ILE779  LEU786  VAL792 
 PHE793  MET794  SER795  GLU796  ALA797  LYS798  CYS799  TRP800  GLU811  SER814 

> <Gold.Protein.RotatedAtoms>
  151.8933  133.3521  159.3805 H   0  0  0  0  0  0  0  0  0  0  0  0  # atno 6907 bound_to 6896
  150.7098  134.4902  159.5521 H   0  0  0  0  0  0  0  0  0  0  0  0  # atno 6908 bound_to 6896
  152.2476  134.8165  160.0502 H   0  0  0  0  0  0  0  0  0  0  0  0  # atno 6909 bound_to 6896
  145.6789  139.2518  143.1825 H   0  0  0  0  0  0  0  0  0  0  0  0  # atno 7974 bound_to 7965
  155.6776  140.3496  155.4843 H   0  0  0  0  0  0  0  0  0  0  0  0  # atno 8008 bound_to 7997
  155.9634  140.1142  157.0898 H   0  0  0  0  0  0  0  0  0  0  0  0  # atno 8009 bound_to 7997
  154.4148  140.1171  156.5196 H   0  0  0  0  0  0  0  0  0  0  0  0  # atno 8010 bound_to 7997
  140.7190  143.3563  151.2052 H   0  0  0  0  0  0  0  0  0  0  0  0  # atno 10167 bound_to 10162
  156.0999  130.6163  150.9100 H   0  0  0  0  0  0  0  0  0  0  0  0  # atno 10718 bound_to 10713
  154.3594  135.2753  155.2328 H   0  0  0  0  0  0  0  0  0  0  0  0  # atno 10763 bound_to 10752
  154.4523  135.5928  153.6203 H   0  0  0  0  0  0  0  0  0  0  0  0  # atno 10764 bound_to 10752
  152.9844  135.6045  154.3813 H   0  0  0  0  0  0  0  0  0  0  0  0  # atno 10765 bound_to 10752
  140.7274  134.3660  157.5173 H   0  0  0  0  0  0  0  0  0  0  0  0  # atno 11005 bound_to 11000
  146.0981  140.7576  142.9562 LP  0  0  0  0  0  0  0  0  0  0  0  0  # atno 17320 bound_to 7965
  144.7032  140.3744  143.7139 LP  0  0  0  0  0  0  0  0  0  0  0  0  # atno 17321 bound_to 7965
  139.7105  143.9384  152.2945 LP  0  0  0  0  0  0  0  0  0  0  0  0  # atno 17342 bound_to 10162
  139.9107  144.6858  150.8565 LP  0  0  0  0  0  0  0  0  0  0  0  0  # atno 17343 bound_to 10162
  157.6167  131.0933  150.8698 LP  0  0  0  0  0  0  0  0  0  0  0  0  # atno 17370 bound_to 10713
  156.8828  130.5185  149.5290 LP  0  0  0  0  0  0  0  0  0  0  0  0  # atno 17371 bound_to 10713
  139.8834  134.8995  156.2768 LP  0  0  0  0  0  0  0  0  0  0  0  0  # atno 17394 bound_to 11000
  140.9951  133.7185  156.0873 LP  0  0  0  0  0  0  0  0  0  0  0  0  # atno 17395 bound_to 11000

$$$$
