#       Name:                AV-unprocessed.smi:261
#       Creating user name   scv26
#       Creation time:       Thu Mar 26 21:18:23 2020


#       File generated by GOLD software.
#

@<TRIPOS>MOLECULE
AV-unprocessed.smi:261
    62    65     1
SMALL
NO_CHARGES


@<TRIPOS>ATOM
      1 ****        -6.3052   2.7383   0.8735 C.3            1 S1                 0.0000
      2 ****        -4.9015   2.6895   1.0715 O.3            1 S1                 0.0000
      3 ****        -4.1504   2.6437  -0.1356 C.3            1 S1                 0.0000
      4 ****        -4.0621   1.2209  -0.7042 C.3            1 S1                 0.0000
      5 ****        -2.8982   0.5606   0.0528 C.3            1 S1                 0.0000
      6 ****        -3.3885  -0.1829   1.3141 C.2            1 S1                 0.0000
      7 ****        -3.0520   0.2939   2.5174 N.am           1 S1                 0.0000
      8 ****        -4.0666  -1.2008   1.1944 O.2            1 S1                 0.0000
      9 ****        -2.0074   1.6897   0.3250 N.pl3          1 S1                 0.0000
     10 ****        -0.6795   1.5971   0.6158 C.ar           1 S1                 0.0000
     11 ****        -0.0017   2.7520   0.8517 N.ar           1 S1                 0.0000
     12 ****         1.2999   2.7346   1.1487 C.ar           1 S1                 0.0000
     13 ****         2.1132   1.6853   1.2623 N.ar           1 S1                 0.0000
     14 ****         1.4487   0.5191   1.0266 C.ar           1 S1                 0.0000
     15 ****         0.0671   0.3815   0.7000 C.ar           1 S1                 0.0000
     16 ****        -0.2321  -0.9675   0.5372 N.2            1 S1                 0.0000
     17 ****         0.8951  -1.5849   0.7560 C.2            1 S1                 0.0000
     18 ****         1.9602  -0.7664   1.0498 N.pl3          1 S1                 0.0000
     19 ****         3.3246  -1.1852   1.3313 C.3            1 S1                 0.0000
     20 ****         4.2455  -1.1866   0.0906 C.3            1 S1                 0.0000
     21 ****         4.4754   0.1483  -0.3145 O.3            1 S1                 0.0000
     22 ****         3.6817  -1.9730  -1.1109 C.3            1 S1                 0.0000
     23 ****         4.6588  -2.1407  -2.2752 C.3            1 S1                 0.0000
     24 ****         4.1748  -3.4040  -2.9706 C.3            1 S1                 0.0000
     25 ****         3.2281  -4.0502  -1.9553 C.3            1 S1                 0.0000
     26 ****         3.4246  -3.3216  -0.7522 O.3            1 S1                 0.0000
     27 ****        -2.6916   2.9732   0.1973 C.3            1 S1                 0.0000
     28 ****        -4.5524   3.3556  -0.8585 H              1 S1                 0.0000
     29 ****        -2.4215  -0.1584  -0.6130 H              1 S1                 0.0000
     30 ****        -6.8067   2.7720   1.8406 H              1 S1                 0.0000
     31 ****        -6.6725   1.8619   0.3397 H              1 S1                 0.0000
     32 ****        -6.5926   3.6313   0.3172 H              1 S1                 0.0000
     33 ****        -4.9979   0.6652  -0.6406 H              1 S1                 0.0000
     34 ****        -3.8058   1.2787  -1.7630 H              1 S1                 0.0000
     35 ****        -3.3587  -0.1867   3.3507 H              1 S1                 0.0000
     36 ****        -2.4863   1.1271   2.5873 H              1 S1                 0.0000
     37 ****         1.7538   3.6995   1.3207 H              1 S1                 0.0000
     38 ****         0.9828  -2.6605   0.7006 H              1 S1                 0.0000
     39 ****         3.7347  -0.5415   2.1106 H              1 S1                 0.0000
     40 ****         3.2862  -2.1882   1.7576 H              1 S1                 0.0000
     41 ****         5.2076  -1.6108   0.3797 H              1 S1                 0.0000
     42 ****         3.6420   0.5512  -0.5060 H              1 S1                 0.0000
     43 ****         2.7558  -1.5222  -1.4735 H              1 S1                 0.0000
     44 ****         4.6772  -1.2736  -2.9359 H              1 S1                 0.0000
     45 ****         5.6709  -2.2978  -1.8999 H              1 S1                 0.0000
     46 ****         3.6468  -3.1748  -3.8969 H              1 S1                 0.0000
     47 ****         5.0127  -4.0580  -3.2145 H              1 S1                 0.0000
     48 ****         2.1904  -3.9410  -2.2741 H              1 S1                 0.0000
     49 ****         3.4297  -5.1115  -1.8093 H              1 S1                 0.0000
     50 ****        -2.2380   3.5327  -0.6221 H              1 S1                 0.0000
     51 ****        -2.6083   3.5742   1.1041 H              1 S1                 0.0000
     52 ****        -4.6872   1.8725   1.6069 LP             1 S1                 0.0000
     53 ****        -4.6270   3.5042   1.5824 LP             1 S1                 0.0000
     54 ****        -4.2979  -1.5432   0.2838 LP             1 S1                 0.0000
     55 ****        -4.3870  -1.6866   2.0076 LP             1 S1                 0.0000
     56 ****        -0.4846   3.6263   0.8021 LP             1 S1                 0.0000
     57 ****         3.0849   1.7457   1.4908 LP             1 S1                 0.0000
     58 ****        -1.1157  -1.3734   0.3041 LP             1 S1                 0.0000
     59 ****         5.0509   0.1584  -1.1323 LP             1 S1                 0.0000
     60 ****         4.9318   0.6501   0.4204 LP             1 S1                 0.0000
     61 ****         2.6040  -3.3735  -0.1830 LP             1 S1                 0.0000
     62 ****         4.2035  -3.6960  -0.2490 LP             1 S1                 0.0000
@<TRIPOS>BOND
    1    1    2 1     
    2    1   30 1     
    3    1   31 1     
    4    1   32 1     
    5    2    3 1     
    6    3   28 1     
    7    3   27 1     
    8    3    4 1     
    9    4    5 1     
   10    4   33 1     
   11    4   34 1     
   12    5   29 1     
   13    5    6 1     
   14    5    9 1     
   15    6    7 am    
   16    6    8 2     
   17    7   35 1     
   18    7   36 1     
   19    9   10 1     
   20    9   27 1     
   21   10   15 ar    
   22   10   11 ar    
   23   11   12 ar    
   24   12   13 ar    
   25   12   37 1     
   26   13   14 ar    
   27   14   18 1     
   28   14   15 ar    
   29   15   16 1     
   30   16   17 2     
   31   17   18 1     
   32   17   38 1     
   33   18   19 1     
   34   19   20 1     
   35   19   39 1     
   36   19   40 1     
   37   20   21 1     
   38   20   22 1     
   39   20   41 1     
   40   21   42 1     
   41   22   26 1     
   42   22   23 1     
   43   22   43 1     
   44   23   24 1     
   45   23   44 1     
   46   23   45 1     
   47   24   25 1     
   48   24   46 1     
   49   24   47 1     
   50   25   26 1     
   51   25   48 1     
   52   25   49 1     
   53   27   50 1     
   54   27   51 1     
   55    2   52 1     
   56    2   53 1     
   57    8   54 1     
   58    8   55 1     
   59   11   56 1     
   60   13   57 1     
   61   16   58 1     
   62   21   59 1     
   63   21   60 1     
   64   26   61 1     
   65   26   62 1     
@<TRIPOS>SUBSTRUCTURE
      1 S1             1
@<TRIPOS>SET
LONE_PAIRS      STATIC     ATOMS    <user>   **** ""
11 52 53 54 55 56 57 58 59 60 61 62
DONOR_HYDROGENS      STATIC     ATOMS    <user>   **** ""
3 35 36 42
ATOM$BLUE        STATIC     ATOMS    COLORGROUP SYSTEM
11 52 53 54 55 56 57 58 59 60 61 62
ATOM$RED        STATIC     ATOMS    COLORGROUP SYSTEM
3 35 36 42
