AV-unprocessed.smi:1554|AV-procd|sdf|6245|dock3
  -GOLD-   22720 6423D 1   1.00000     0.00000
 Structure written by MMmdl.
 48 50  0  0  0  0  0  0  0  0  2 V2000
  151.5556  144.0932  159.2342 C   0  0  0  0  0  0  0  0  0  0  0  0
  151.4603  142.7972  158.4484 C   0  0  0  0  0  0  0  0  0  0  0  0
  150.6133  142.7395  157.3187 C   0  0  0  0  0  0  0  0  0  0  0  0
  150.4986  141.5546  156.5590 C   0  0  0  0  0  0  0  0  0  0  0  0
  149.7433  141.2787  155.4320 N   0  0  0  0  0  0  0  0  0  0  0  0
  150.0673  140.0109  155.1957 C   0  0  0  0  0  0  0  0  0  0  0  0
  150.9456  139.4315  156.0366 N   0  0  0  0  0  0  0  0  0  0  0  0
  151.4481  138.0704  155.9724 C   0  0  0  0  0  0  0  0  0  0  0  0
  150.7226  137.2235  154.9085 C   0  0  1  0  0  0  0  0  0  0  0  0
  151.5804  137.0187  153.8015 O   0  0  0  0  0  0  0  0  0  0  0  0
  150.2945  135.8495  155.4604 C   0  0  0  0  0  0  0  0  0  0  0  0
  149.3984  135.1196  154.5273 N   0  3  1  0  0  0  0  0  0  0  0  0
  149.9067  133.7712  154.1826 C   0  0  0  0  0  0  0  0  0  0  0  0
  148.9783  133.0954  153.1601 C   0  0  0  0  0  0  0  0  0  0  0  0
  147.6567  133.0352  153.6823 O   0  0  0  0  0  0  0  0  0  0  0  0
  147.1178  134.3277  153.9386 C   0  0  1  0  0  0  0  0  0  0  0  0
  145.6690  134.1577  154.4088 C   0  0  0  0  0  0  0  0  0  0  0  0
  147.9912  135.0377  154.9913 C   0  0  0  0  0  0  0  0  0  0  0  0
  151.2603  140.4195  156.9641 C   0  0  0  0  0  0  0  0  0  0  0  0
  152.1052  140.4642  158.0874 C   0  0  0  0  0  0  0  0  0  0  0  0
  152.2083  141.6560  158.8347 C   0  0  0  0  0  0  0  0  0  0  0  0
  153.1231  141.6935  160.0462 C   0  0  0  0  0  0  0  0  0  0  0  0
  150.9151  144.8661  158.8080 H   0  0  0  0  0  0  0  0  0  0  0  0
  152.5794  144.4681  159.2289 H   0  0  0  0  0  0  0  0  0  0  0  0
  151.2486  143.9367  160.2686 H   0  0  0  0  0  0  0  0  0  0  0  0
  150.0432  143.6084  157.0242 H   0  0  0  0  0  0  0  0  0  0  0  0
  149.6436  139.4716  154.3612 H   0  0  0  0  0  0  0  0  0  0  0  0
  152.5202  138.1037  155.7737 H   0  0  0  0  0  0  0  0  0  0  0  0
  151.3297  137.6174  156.9576 H   0  0  0  0  0  0  0  0  0  0  0  0
  149.8514  137.7792  154.5621 H   0  0  0  0  0  0  0  0  0  0  0  0
  151.0610  136.7410  153.0620 H   0  0  0  0  0  0  0  0  0  0  0  0
  151.1916  135.2572  155.6485 H   0  0  0  0  0  0  0  0  0  0  0  0
  149.7972  135.9608  156.4252 H   0  0  0  0  0  0  0  0  0  0  0  0
  150.9124  133.8477  153.7672 H   0  0  0  0  0  0  0  0  0  0  0  0
  149.9765  133.1630  155.0859 H   0  0  0  0  0  0  0  0  0  0  0  0
  148.9836  133.6353  152.2115 H   0  0  0  0  0  0  0  0  0  0  0  0
  149.3222  132.0824  152.9511 H   0  0  0  0  0  0  0  0  0  0  0  0
  147.1156  134.9053  153.0123 H   0  0  0  0  0  0  0  0  0  0  0  0
  145.2056  135.1236  154.6105 H   0  0  0  0  0  0  0  0  0  0  0  0
  145.6172  133.5639  155.3219 H   0  0  0  0  0  0  0  0  0  0  0  0
  145.0694  133.6544  153.6500 H   0  0  0  0  0  0  0  0  0  0  0  0
  147.9514  134.4975  155.9388 H   0  0  0  0  0  0  0  0  0  0  0  0
  147.5942  136.0353  155.1766 H   0  0  0  0  0  0  0  0  0  0  0  0
  152.6707  139.5891  158.3705 H   0  0  0  0  0  0  0  0  0  0  0  0
  153.6472  140.7465  160.1784 H   0  0  0  0  0  0  0  0  0  0  0  0
  152.5477  141.8877  160.9516 H   0  0  0  0  0  0  0  0  0  0  0  0
  153.8731  142.4772  159.9368 H   0  0  0  0  0  0  0  0  0  0  0  0
  149.3963  135.6487  153.6663 H   0  0  0  0  0  0  0  0  0  0  0  0
  1  2  1  0  0  0  0
  1 23  1  0  0  0  0
  1 24  1  0  0  0  0
  1 25  1  0  0  0  0
  2 21  1  0  0  0  0
  2  3  2  0  0  0  0
  3  4  1  0  0  0  0
  3 26  1  0  0  0  0
  4 19  2  0  0  0  0
  4  5  1  0  0  0  0
  5  6  2  0  0  0  0
  6  7  1  0  0  0  0
  6 27  1  0  0  0  0
  7  8  1  0  0  0  0
  7 19  1  0  0  0  0
  8  9  1  0  0  0  0
  8 28  1  0  0  0  0
  8 29  1  0  0  0  0
  9 10  1  0  0  0  0
  9 11  1  0  0  0  0
  9 30  1  0  0  0  0
 10 31  1  0  0  0  0
 11 12  1  0  0  0  0
 11 32  1  0  0  0  0
 11 33  1  0  0  0  0
 12 18  1  0  0  0  0
 12 13  1  0  0  0  0
 12 48  1  0  0  0  0
 13 14  1  0  0  0  0
 13 34  1  0  0  0  0
 13 35  1  0  0  0  0
 14 15  1  0  0  0  0
 14 36  1  0  0  0  0
 14 37  1  0  0  0  0
 15 16  1  0  0  0  0
 16 17  1  0  0  0  0
 16 18  1  0  0  0  0
 16 38  1  0  0  0  0
 17 39  1  0  0  0  0
 17 40  1  0  0  0  0
 17 41  1  0  0  0  0
 18 42  1  0  0  0  0
 18 43  1  0  0  0  0
 19 20  1  0  0  0  0
 20 21  2  0  0  0  0
 20 44  1  0  0  0  0
 21 22  1  0  0  0  0
 22 45  1  0  0  0  0
 22 46  1  0  0  0  0
 22 47  1  0  0  0  0
M  CHG  1  12   1
M  END
> <s_m_source_file>
AV-unprocessed.smi

> <i_m_source_file_index>
1554

> <i_lp_mmshare_version>
43012

> <i_f3d_flags>
0

> <s_epik_input>
W0NIM11jKFtjSF0xKWMoW0NIM10pW2NIXWMoYzEyKW4oW2NIXW4yKVtDSDJdW0NASF0oW09IXSlbQ0gyXU4zW0NIMl1bQ0gyXU9bQ0BASF0oW0NIM10pW0NIMl0z

> <s_epik_cmdline>
J2VwaWtfcHl0aG9uJywgJy1waCcsICc3LjAnLCAnLXRuJywgJzgnLCAnLW1hJywgJzIwMCcsICctbWV0YWxfYmluZGluZycsICctaW1hZScsICc8aW5maWxlLm1hZT4nLCAnLW9tYWUnLCAnPG91dGZpbGUubWFlPic=

> <r_epik_Ionization_Penalty>
0.695251

> <r_epik_Ionization_Penalty_Charging>
0.608065

> <r_epik_Ionization_Penalty_Neutral>
0.0871863

> <r_epik_State_Penalty>
0.731955

> <r_epik_Charging_Adjusted_Penalty>
1.34002

> <i_epik_Tot_Q>
1

> <i_epik_Tot_abs_Q>
1

> <r_epik_Metal_State_Penalty>
0.652186

> <b_epik_Metal_Only>
0

> <s_lp_Force_Field>
OPLS_2005

> <r_lp_Energy>
21.5252

> <b_lp_Chiralities_Consistent>
1

> <s_lp_Variant>
AV-unprocessed.smi:1554-6

> <Gold.Version>
5.8.1

> <Gold.Id.Protein>
6NUR|6NUR_protein|mol2

> <Gold.PLP.Fitness>
50.6643

> <Gold.PLP.PLP>
-41.5849

> <Gold.PLP.part.hbond>
-4.0000

> <Gold.PLP.part.metal>
0.0000

> <Gold.PLP.part.buried>
-3.1618

> <Gold.PLP.part.nonpolar>
-34.4798

> <Gold.PLP.part.repulsive>
0.2341

> <Gold.PLP.ligand.clash>
0.0000

> <Gold.PLP.ligand.torsion>
1.4814

> <Gold.PLP.Chemscore.Hbond>
4.0000

> <Gold.PLP.Chemscore.CHOScore>
0.0000

> <Gold.PLP.Chemscore.Metal>
0.0000

> <Gold.Chemscore.Hbonds>
donor molecule, donor type, donor heavy atom, donor atom, acceptor molecule, acceptor atom, score
      L1  H    10    31       P1  7949  0.86
      L1  H    12    48       P1  7948  2.00
      P1  H 10752 10763       L1    10  1.00

> <Gold.PLP.Chemscore.Internal.Correction>
0.0422

> <Gold.Rescore>
     Score         DG    S(hbond)    S(metal)    S(lipo)     H(rot)  DE(clash)    DE(int)     intcor
     17.20     -18.86       2.06        0.00     100.38       2.05       0.05       1.60       ----

> <Gold.Chemscore.Fitness>
17.2003

> <Gold.Chemscore.DG>
-18.8575

> <Gold.Chemscore.ZeroCoef>
-5.4800

> <Gold.Chemscore.Hbond>
2.0637

> <Gold.Chemscore.Metal>
0.0000

> <Gold.Chemscore.Lipo>
100.3793

> <Gold.Chemscore.Internal_Hbond>
0.0000

> <Gold.Chemscore.DEClash>
0.0536

> <Gold.Chemscore.DEInternal>
1.6037

> <Gold.Chemscore.Rot>
2.0546

> <Gold.Chemscore.Internal.Correction>
   9.000000E+99

> <Gold.Chemscore.Hbonds>
donor molecule, donor type, donor heavy atom, donor atom, acceptor molecule, acceptor atom, score
      L1  H    10    31       P1  7949  0.29
      L1  H    12    48       P1  7948  0.39
      P1  H 10752 10763       L1    10  0.55

> <Gold.Chemscore.Hbond.Weighted>
-6.8928

> <Gold.Chemscore.Metal.Weighted>
-0.0000

> <Gold.Chemscore.Lipo.Weighted>
-11.7444

> <Gold.Chemscore.Internal_Hbond.Weighted>
0.0000

> <Gold.Chemscore.DEClash.Weighted>
0.0536

> <Gold.Chemscore.DEInternal.Weighted>
1.6037

> <Gold.Chemscore.Rot.Weighted>
5.2597

> <Gold.Chemscore.Internal.Correction.Weighted>
   9.000000E+99

> <Gold.Protein.RotatedTorsions>
[ 6907 6896 6895 6894 ] final -139.43 input  -60.11 | X-H torsion
[ 7974 7965 7964 7962 ] final  116.57 input  175.53 | X-H torsion
[ 8008 7997 7996 7995 ] final  155.43 input   59.86 | X-H torsion
[ 10167 10162 10161 10158 ] final    3.50 input  -65.29 | X-H torsion
[ 10718 10713 10712 10709 ] final   70.18 input   66.30 | X-H torsion
[ 10763 10752 10751 10750 ] final   43.63 input  -60.55 | X-H torsion
[ 11005 11000 10999 10996 ] final  -76.92 input  -57.11 | X-H torsion

> <Gold.Protein.ActiveResidues>
 VAL166  LYS551  ARG553  GLY616  TRP617  ASP618  TYR619  PRO620  LYS621  CYS622 
 ASP623  PHE694  ASN695  SER759  ASP760  ASP761  ALA762  ILE779  LEU786  VAL792 
 PHE793  MET794  SER795  GLU796  ALA797  LYS798  CYS799  TRP800  GLU811  SER814 

> <Gold.Protein.RotatedAtoms>
  151.0477  133.5651  159.2644 H   0  0  0  0  0  0  0  0  0  0  0  0  # atno 6907 bound_to 6896
  151.2673  135.0672  159.9131 H   0  0  0  0  0  0  0  0  0  0  0  0  # atno 6908 bound_to 6896
  152.5376  134.0213  159.8037 H   0  0  0  0  0  0  0  0  0  0  0  0  # atno 6909 bound_to 6896
  145.1780  139.3065  143.4433 H   0  0  0  0  0  0  0  0  0  0  0  0  # atno 7974 bound_to 7965
  156.2478  140.1939  156.6800 H   0  0  0  0  0  0  0  0  0  0  0  0  # atno 8008 bound_to 7997
  154.6329  140.0593  156.9779 H   0  0  0  0  0  0  0  0  0  0  0  0  # atno 8009 bound_to 7997
  155.1683  140.3266  155.4400 H   0  0  0  0  0  0  0  0  0  0  0  0  # atno 8010 bound_to 7997
  140.6582  143.7372  150.7692 H   0  0  0  0  0  0  0  0  0  0  0  0  # atno 10167 bound_to 10162
  157.6386  130.9464  150.0615 H   0  0  0  0  0  0  0  0  0  0  0  0  # atno 10718 bound_to 10713
  152.9857  135.6095  154.3143 H   0  0  0  0  0  0  0  0  0  0  0  0  # atno 10763 bound_to 10752
  154.2856  135.2776  155.2679 H   0  0  0  0  0  0  0  0  0  0  0  0  # atno 10764 bound_to 10752
  154.4998  135.5870  153.6579 H   0  0  0  0  0  0  0  0  0  0  0  0  # atno 10765 bound_to 10752
  141.1657  133.7002  156.7743 H   0  0  0  0  0  0  0  0  0  0  0  0  # atno 11005 bound_to 11000
  146.3458  140.1949  142.8589 LP  0  0  0  0  0  0  0  0  0  0  0  0  # atno 17320 bound_to 7965
  145.0165  140.8758  143.5192 LP  0  0  0  0  0  0  0  0  0  0  0  0  # atno 17321 bound_to 7965
  140.1035  143.4765  152.2411 LP  0  0  0  0  0  0  0  0  0  0  0  0  # atno 17342 bound_to 10162
  139.5810  144.7510  151.3641 LP  0  0  0  0  0  0  0  0  0  0  0  0  # atno 17343 bound_to 10162
  156.1646  130.3644  149.9250 LP  0  0  0  0  0  0  0  0  0  0  0  0  # atno 17370 bound_to 10713
  156.7240  130.9018  151.3620 LP  0  0  0  0  0  0  0  0  0  0  0  0  # atno 17371 bound_to 10713
  140.2441  134.8591  157.3603 LP  0  0  0  0  0  0  0  0  0  0  0  0  # atno 17394 bound_to 11000
  140.1767  134.4541  155.7797 LP  0  0  0  0  0  0  0  0  0  0  0  0  # atno 17395 bound_to 11000

$$$$
