AV-unprocessed.smi:1047|AV-procd|sdf|4566|dock4
  -GOLD-   22720 3 13D 1   1.00000     0.00000
 Structure written by MMmdl.
 57 59  0  0  0  0  0  0  0  0  3 V2000
  142.6158  147.0814  155.2077 C   0  0  0  0  0  0  0  0  0  0  0  0
  143.8598  146.2364  155.5156 C   0  0  0  0  0  0  0  0  0  0  0  0
  143.6137  145.2287  156.5815 N   0  3  1  0  0  0  0  0  0  0  0  0
  142.5354  144.2666  156.2476 C   0  0  0  0  0  0  0  0  0  0  0  0
  143.0353  143.1890  155.2697 C   0  0  0  0  0  0  0  0  0  0  0  0
  144.1648  142.5300  155.8296 O   0  0  0  0  0  0  0  0  0  0  0  0
  145.2630  143.4083  156.0541 C   0  0  2  0  0  0  0  0  0  0  0  0
  146.4270  142.5528  156.5822 C   0  0  0  0  0  0  0  0  0  0  0  0
  147.4555  142.3138  155.5483 N   0  3  0  0  0  0  0  0  0  0  0  0
  148.0683  140.9713  155.6124 C   0  0  0  0  0  0  0  0  0  0  0  0
  149.4044  140.9258  154.8527 C   0  0  1  0  0  0  0  0  0  0  0  0
  149.1549  141.1940  153.4859 O   0  0  0  0  0  0  0  0  0  0  0  0
  150.4100  141.9564  155.4021 C   0  0  0  0  0  0  0  0  0  0  0  0
  151.2314  141.4195  156.4730 N   0  0  0  0  0  0  0  0  0  0  0  0
  151.8625  140.2296  156.4899 C   0  0  0  0  0  0  0  0  0  0  0  0
  152.5670  139.9291  157.5766 N   0  0  0  0  0  0  0  0  0  0  0  0
  152.3643  141.0522  158.3602 C   0  0  0  0  0  0  0  0  0  0  0  0
  152.8415  141.3669  159.6512 C   0  0  0  0  0  0  0  0  0  0  0  0
  152.5029  142.5908  160.2709 C   0  0  0  0  0  0  0  0  0  0  0  0
  153.0352  142.8857  161.6624 C   0  0  0  0  0  0  0  0  0  0  0  0
  151.6742  143.5231  159.5963 C   0  0  0  0  0  0  0  0  0  0  0  0
  151.2955  144.8436  160.2434 C   0  0  0  0  0  0  0  0  0  0  0  0
  151.1908  143.2257  158.3048 C   0  0  0  0  0  0  0  0  0  0  0  0
  151.5330  142.0035  157.6993 C   0  0  0  0  0  0  0  0  0  0  0  0
  144.8245  144.5065  157.0523 C   0  0  0  0  0  0  0  0  0  0  0  0
  142.8013  147.7389  154.3581 H   0  0  0  0  0  0  0  0  0  0  0  0
  142.3296  147.7144  156.0469 H   0  0  0  0  0  0  0  0  0  0  0  0
  141.7635  146.4502  154.9543 H   0  0  0  0  0  0  0  0  0  0  0  0
  144.1393  145.7181  154.5975 H   0  0  0  0  0  0  0  0  0  0  0  0
  144.7025  146.8789  155.7703 H   0  0  0  0  0  0  0  0  0  0  0  0
  142.2038  143.7887  157.1704 H   0  0  0  0  0  0  0  0  0  0  0  0
  141.6650  144.7850  155.8435 H   0  0  0  0  0  0  0  0  0  0  0  0
  142.2513  142.4520  155.0948 H   0  0  0  0  0  0  0  0  0  0  0  0
  143.2885  143.6176  154.2989 H   0  0  0  0  0  0  0  0  0  0  0  0
  145.5597  143.8499  155.1015 H   0  0  0  0  0  0  0  0  0  0  0  0
  146.8824  143.0283  157.4521 H   0  0  0  0  0  0  0  0  0  0  0  0
  146.0435  141.5866  156.9133 H   0  0  0  0  0  0  0  0  0  0  0  0
  147.0381  142.4303  154.6359 H   0  0  0  0  0  0  0  0  0  0  0  0
  148.2144  140.6790  156.6535 H   0  0  0  0  0  0  0  0  0  0  0  0
  147.3709  140.2551  155.1757 H   0  0  0  0  0  0  0  0  0  0  0  0
  149.8382  139.9280  154.9341 H   0  0  0  0  0  0  0  0  0  0  0  0
  149.2933  140.3984  152.9931 H   0  0  0  0  0  0  0  0  0  0  0  0
  151.0633  142.3153  154.6057 H   0  0  0  0  0  0  0  0  0  0  0  0
  149.8818  142.8301  155.7861 H   0  0  0  0  0  0  0  0  0  0  0  0
  151.8038  139.5465  155.6551 H   0  0  0  0  0  0  0  0  0  0  0  0
  153.4717  140.6559  160.1652 H   0  0  0  0  0  0  0  0  0  0  0  0
  152.2154  142.9407  162.3786 H   0  0  0  0  0  0  0  0  0  0  0  0
  153.5717  143.8344  161.6763 H   0  0  0  0  0  0  0  0  0  0  0  0
  153.7230  142.1094  161.9984 H   0  0  0  0  0  0  0  0  0  0  0  0
  150.6092  145.4124  159.6156 H   0  0  0  0  0  0  0  0  0  0  0  0
  152.1828  145.4547  160.4091 H   0  0  0  0  0  0  0  0  0  0  0  0
  150.8069  144.6743  161.2028 H   0  0  0  0  0  0  0  0  0  0  0  0
  150.5596  143.9287  157.7814 H   0  0  0  0  0  0  0  0  0  0  0  0
  145.6389  145.2021  157.2497 H   0  0  0  0  0  0  0  0  0  0  0  0
  144.5848  144.0459  158.0118 H   0  0  0  0  0  0  0  0  0  0  0  0
  148.1919  142.9970  155.6577 H   0  0  0  0  0  0  0  0  0  0  0  0
  143.2700  145.7611  157.3686 H   0  0  0  0  0  0  0  0  0  0  0  0
  1  2  1  0  0  0  0
  1 26  1  0  0  0  0
  1 27  1  0  0  0  0
  1 28  1  0  0  0  0
  2  3  1  0  0  0  0
  2 29  1  0  0  0  0
  2 30  1  0  0  0  0
  3 25  1  0  0  0  0
  3  4  1  0  0  0  0
  3 57  1  0  0  0  0
  4  5  1  0  0  0  0
  4 31  1  0  0  0  0
  4 32  1  0  0  0  0
  5  6  1  0  0  0  0
  5 33  1  0  0  0  0
  5 34  1  0  0  0  0
  6  7  1  0  0  0  0
  7  8  1  0  0  0  0
  7 25  1  0  0  0  0
  7 35  1  0  0  0  0
  8  9  1  0  0  0  0
  8 36  1  0  0  0  0
  8 37  1  0  0  0  0
  9 10  1  0  0  0  0
  9 38  1  0  0  0  0
  9 56  1  0  0  0  0
 10 11  1  0  0  0  0
 10 39  1  0  0  0  0
 10 40  1  0  0  0  0
 11 12  1  0  0  0  0
 11 13  1  0  0  0  0
 11 41  1  0  0  0  0
 12 42  1  0  0  0  0
 13 14  1  0  0  0  0
 13 43  1  0  0  0  0
 13 44  1  0  0  0  0
 14 24  1  0  0  0  0
 14 15  1  0  0  0  0
 15 16  2  0  0  0  0
 15 45  1  0  0  0  0
 16 17  1  0  0  0  0
 17 24  2  0  0  0  0
 17 18  1  0  0  0  0
 18 19  2  0  0  0  0
 18 46  1  0  0  0  0
 19 20  1  0  0  0  0
 19 21  1  0  0  0  0
 20 47  1  0  0  0  0
 20 48  1  0  0  0  0
 20 49  1  0  0  0  0
 21 22  1  0  0  0  0
 21 23  2  0  0  0  0
 22 50  1  0  0  0  0
 22 51  1  0  0  0  0
 22 52  1  0  0  0  0
 23 24  1  0  0  0  0
 23 53  1  0  0  0  0
 25 54  1  0  0  0  0
 25 55  1  0  0  0  0
M  CHG  1   3   1
M  CHG  1   9   1
M  END
> <s_m_source_file>
AV-unprocessed.smi

> <i_m_source_file_index>
1047

> <i_lp_mmshare_version>
43012

> <i_f3d_flags>
0

> <s_epik_input>
W0NIM11bQ0gyXU4xW0NIMl1bQ0gyXU9bQ0BIXShbQ0gyXTEpW0NIMl1bTkhdW0NIMl1bQ0BIXShbT0hdKVtDSDJdbihbY0hdbjIpYyhjMjMpW2NIXWMoW0NIM10pYyhbY0hdMylbQ0gzXQ==

> <s_epik_cmdline>
J2VwaWtfcHl0aG9uJywgJy1waCcsICc3LjAnLCAnLXRuJywgJzgnLCAnLW1hJywgJzIwMCcsICctbWV0YWxfYmluZGluZycsICctaW1hZScsICc8aW5maWxlLm1hZT4nLCAnLW9tYWUnLCAnPG91dGZpbGUubWFlPic=

> <r_epik_Ionization_Penalty>
0.528991

> <r_epik_Ionization_Penalty_Charging>
0.438567

> <r_epik_Ionization_Penalty_Neutral>
0.0904237

> <r_epik_State_Penalty>
0.533036

> <r_epik_Charging_Adjusted_Penalty>
0.971603

> <i_epik_Tot_Q>
2

> <i_epik_Tot_abs_Q>
2

> <r_epik_Metal_State_Penalty>
0.448985

> <b_epik_Metal_Only>
0

> <s_lp_Force_Field>
OPLS_2005

> <r_lp_Energy>
33.3507

> <b_lp_Chiralities_Consistent>
1

> <s_lp_Variant>
AV-unprocessed.smi:1047-7

> <Gold.Version>
5.8.1

> <Gold.Id.Protein>
6NUR|6NUR_protein|mol2

> <Gold.PLP.Fitness>
57.8141

> <Gold.PLP.PLP>
-46.4403

> <Gold.PLP.part.hbond>
-5.0000

> <Gold.PLP.part.metal>
0.0000

> <Gold.PLP.part.buried>
-5.5184

> <Gold.PLP.part.nonpolar>
-35.1943

> <Gold.PLP.part.repulsive>
0.1720

> <Gold.PLP.ligand.clash>
0.0000

> <Gold.PLP.ligand.torsion>
1.5074

> <Gold.PLP.Chemscore.Hbond>
4.6880

> <Gold.PLP.Chemscore.CHOScore>
0.0000

> <Gold.PLP.Chemscore.Metal>
0.0000

> <Gold.Chemscore.Hbonds>
donor molecule, donor type, donor heavy atom, donor atom, acceptor molecule, acceptor atom, score
      L1  H     9    56       P1  8028  2.00
      L1  H    12    42       P1  7957  0.66
      P1  H  7997  8008       L1    16  0.98
      P1  H  8011  8017       L1    12  1.00

> <Gold.PLP.Chemscore.Internal.Correction>
0.3246

> <Gold.Rescore>
     Score         DG    S(hbond)    S(metal)    S(lipo)     H(rot)  DE(clash)    DE(int)     intcor
     19.21     -21.18       2.44        0.00     123.60       2.70       0.57       1.40       ----

> <Gold.Chemscore.Fitness>
19.2063

> <Gold.Chemscore.DG>
-21.1774

> <Gold.Chemscore.ZeroCoef>
-5.4800

> <Gold.Chemscore.Hbond>
2.4385

> <Gold.Chemscore.Metal>
0.0000

> <Gold.Chemscore.Lipo>
123.5966

> <Gold.Chemscore.Internal_Hbond>
0.0000

> <Gold.Chemscore.DEClash>
0.5713

> <Gold.Chemscore.DEInternal>
1.3998

> <Gold.Chemscore.Rot>
2.6985

> <Gold.Chemscore.Internal.Correction>
   9.000000E+99

> <Gold.Chemscore.Hbonds>
donor molecule, donor type, donor heavy atom, donor atom, acceptor molecule, acceptor atom, score
      L1  H     9    56       P1  8028  0.88
      L1  H    12    42       P1  7957  0.66
      P1  H  7997  8008       L1    16  0.15
      P1  H  8011  8017       L1    12  0.28

> <Gold.Chemscore.Hbond.Weighted>
-8.1447

> <Gold.Chemscore.Metal.Weighted>
-0.0000

> <Gold.Chemscore.Lipo.Weighted>
-14.4608

> <Gold.Chemscore.Internal_Hbond.Weighted>
0.0000

> <Gold.Chemscore.DEClash.Weighted>
0.5713

> <Gold.Chemscore.DEInternal.Weighted>
1.3998

> <Gold.Chemscore.Rot.Weighted>
6.9081

> <Gold.Chemscore.Internal.Correction.Weighted>
   9.000000E+99

> <Gold.Protein.RotatedTorsions>
[ 6907 6896 6895 6894 ] final   13.91 input  -60.11 | X-H torsion
[ 7974 7965 7964 7962 ] final   39.71 input  175.53 | X-H torsion
[ 8008 7997 7996 7995 ] final  -75.33 input   59.86 | X-H torsion
[ 10167 10162 10161 10158 ] final  133.63 input  -65.29 | X-H torsion
[ 10718 10713 10712 10709 ] final  -70.95 input   66.30 | X-H torsion
[ 10763 10752 10751 10750 ] final   41.45 input  -60.55 | X-H torsion
[ 11005 11000 10999 10996 ] final  -47.60 input  -57.11 | X-H torsion

> <Gold.Protein.ActiveResidues>
 VAL166  LYS551  ARG553  GLY616  TRP617  ASP618  TYR619  PRO620  LYS621  CYS622 
 ASP623  PHE694  ASN695  SER759  ASP760  ASP761  ALA762  ILE779  LEU786  VAL792 
 PHE793  MET794  SER795  GLU796  ALA797  LYS798  CYS799  TRP800  GLU811  SER814 

> <Gold.Protein.RotatedAtoms>
  151.7938  135.0728  160.0390 H   0  0  0  0  0  0  0  0  0  0  0  0  # atno 6907 bound_to 6896
  152.3137  133.5776  159.5706 H   0  0  0  0  0  0  0  0  0  0  0  0  # atno 6908 bound_to 6896
  150.7333  134.0030  159.3686 H   0  0  0  0  0  0  0  0  0  0  0  0  # atno 6909 bound_to 6896
  146.0962  139.5619  142.9443 H   0  0  0  0  0  0  0  0  0  0  0  0  # atno 7974 bound_to 7965
  154.5407  140.0746  156.8505 H   0  0  0  0  0  0  0  0  0  0  0  0  # atno 8008 bound_to 7997
  155.3187  140.3394  155.4223 H   0  0  0  0  0  0  0  0  0  0  0  0  # atno 8009 bound_to 7997
  156.1871  140.1673  156.8149 H   0  0  0  0  0  0  0  0  0  0  0  0  # atno 8010 bound_to 7997
  139.5289  144.6606  151.5024 H   0  0  0  0  0  0  0  0  0  0  0  0  # atno 10167 bound_to 10162
  156.0384  130.4341  150.2372 H   0  0  0  0  0  0  0  0  0  0  0  0  # atno 10718 bound_to 10713
  152.9908  135.6161  154.2790 H   0  0  0  0  0  0  0  0  0  0  0  0  # atno 10763 bound_to 10752
  154.2520  135.2785  155.2814 H   0  0  0  0  0  0  0  0  0  0  0  0  # atno 10764 bound_to 10752
  154.5280  135.5796  153.6793 H   0  0  0  0  0  0  0  0  0  0  0  0  # atno 10765 bound_to 10752
  141.0651  133.6696  156.3321 H   0  0  0  0  0  0  0  0  0  0  0  0  # atno 11005 bound_to 11000
  145.5943  141.0365  143.2053 LP  0  0  0  0  0  0  0  0  0  0  0  0  # atno 17320 bound_to 7965
  144.7397  139.7483  143.7315 LP  0  0  0  0  0  0  0  0  0  0  0  0  # atno 17321 bound_to 7965
  140.6453  143.8807  150.6731 LP  0  0  0  0  0  0  0  0  0  0  0  0  # atno 17342 bound_to 10162
  140.2155  143.3850  152.1685 LP  0  0  0  0  0  0  0  0  0  0  0  0  # atno 17343 bound_to 10162
  157.0469  131.0051  151.3266 LP  0  0  0  0  0  0  0  0  0  0  0  0  # atno 17370 bound_to 10713
  157.5169  130.7973  149.7766 LP  0  0  0  0  0  0  0  0  0  0  0  0  # atno 17371 bound_to 10713
  140.5790  134.5764  157.5475 LP  0  0  0  0  0  0  0  0  0  0  0  0  # atno 17394 bound_to 11000
  139.9468  134.7687  156.0542 LP  0  0  0  0  0  0  0  0  0  0  0  0  # atno 17395 bound_to 11000

$$$$
