AV-unprocessed.smi:12|AV-procd|sdf|63|dock1
  -GOLD-   2262015183D 1   1.00000     0.00000
 Structure written by MMmdl.
 41 44  0  0  0  0  0  0  0  0  1 V2000
  144.4990  143.6987  156.6115 C   0  0  0  0  0  0  0  0  0  0  0  0
  145.0989  142.4646  155.9620 C   0  0  0  0  0  0  0  0  0  0  0  0
  146.3240  142.4879  155.3860 C   0  0  0  0  0  0  0  0  0  0  0  0
  146.8197  141.3477  154.8179 N   0  0  0  0  0  0  0  0  0  0  0  0
  146.0447  140.1679  154.8236 C   0  0  0  0  0  0  0  0  0  0  0  0
  144.8658  140.0651  155.3540 N   0  0  0  0  0  0  0  0  0  0  0  0
  144.3119  141.2056  155.9670 C   0  0  0  0  0  0  0  0  0  0  0  0
  143.1999  141.1547  156.4904 O   0  0  0  0  0  0  0  0  0  0  0  0
  146.7295  139.1857  154.1753 O   0  0  0  0  0  0  0  0  0  0  0  0
  147.9838  139.6972  153.7047 C   0  0  2  0  0  0  0  0  0  0  0  0
  149.1557  139.0163  154.4062 C   0  0  1  0  0  0  0  0  0  0  0  0
  149.8433  138.1597  153.5167 O   0  0  0  0  0  0  0  0  0  0  0  0
  150.0396  140.1873  154.8470 C   0  0  2  0  0  0  0  0  0  0  0  0
  150.8839  139.9101  156.0970 C   0  0  0  0  0  0  0  0  0  0  0  0
  151.2750  141.1419  156.6814 O   0  0  0  0  0  0  0  0  0  0  0  0
  152.0358  141.1526  157.7928 C   0  0  0  0  0  0  0  0  0  0  0  0
  152.7147  140.1931  158.1641 O   0  0  0  0  0  0  0  0  0  0  0  0
  151.9671  142.4478  158.5292 C   0  0  0  0  0  0  0  0  0  0  0  0
  152.3739  142.4981  159.8832 C   0  0  0  0  0  0  0  0  0  0  0  0
  152.3159  143.7060  160.6054 C   0  0  0  0  0  0  0  0  0  0  0  0
  151.8515  144.8790  159.9821 C   0  0  0  0  0  0  0  0  0  0  0  0
  151.4467  144.8429  158.6350 C   0  0  0  0  0  0  0  0  0  0  0  0
  151.5033  143.6357  157.9114 C   0  0  0  0  0  0  0  0  0  0  0  0
  149.1098  141.2245  155.1146 O   0  0  0  0  0  0  0  0  0  0  0  0
  148.1080  141.1664  154.1515 C   0  0  2  0  0  0  0  0  0  0  0  0
  145.1765  144.5506  156.5445 H   0  0  0  0  0  0  0  0  0  0  0  0
  144.2939  143.5137  157.6664 H   0  0  0  0  0  0  0  0  0  0  0  0
  143.5642  143.9720  156.1212 H   0  0  0  0  0  0  0  0  0  0  0  0
  146.9165  143.3912  155.3729 H   0  0  0  0  0  0  0  0  0  0  0  0
  148.0475  139.6508  152.6163 H   0  0  0  0  0  0  0  0  0  0  0  0
  148.8043  138.4555  155.2739 H   0  0  0  0  0  0  0  0  0  0  0  0
  149.7653  138.5108  152.6425 H   0  0  0  0  0  0  0  0  0  0  0  0
  150.6752  140.5207  154.0240 H   0  0  0  0  0  0  0  0  0  0  0  0
  150.2972  139.3401  156.8188 H   0  0  0  0  0  0  0  0  0  0  0  0
  151.7612  139.3137  155.8430 H   0  0  0  0  0  0  0  0  0  0  0  0
  152.7331  141.6103  160.3836 H   0  0  0  0  0  0  0  0  0  0  0  0
  152.6278  143.7316  161.6393 H   0  0  0  0  0  0  0  0  0  0  0  0
  151.8060  145.8049  160.5365 H   0  0  0  0  0  0  0  0  0  0  0  0
  151.0913  145.7428  158.1548 H   0  0  0  0  0  0  0  0  0  0  0  0
  151.1846  143.6438  156.8792 H   0  0  0  0  0  0  0  0  0  0  0  0
  148.1670  141.9090  153.3550 H   0  0  0  0  0  0  0  0  0  0  0  0
  1  2  1  0  0  0  0
  1 26  1  0  0  0  0
  1 27  1  0  0  0  0
  1 28  1  0  0  0  0
  2  7  1  0  0  0  0
  2  3  2  0  0  0  0
  3  4  1  0  0  0  0
  3 29  1  0  0  0  0
  4 25  1  0  0  0  0
  4  5  1  0  0  0  0
  5  6  2  0  0  0  0
  5  9  1  0  0  0  0
  6  7  1  0  0  0  0
  7  8  2  0  0  0  0
  9 10  1  0  0  0  0
 10 25  1  0  0  0  0
 10 11  1  0  0  0  0
 10 30  1  0  0  0  0
 11 12  1  0  0  0  0
 11 13  1  0  0  0  0
 11 31  1  0  0  0  0
 12 32  1  0  0  0  0
 13 14  1  0  0  0  0
 13 24  1  0  0  0  0
 13 33  1  0  0  0  0
 14 15  1  0  0  0  0
 14 34  1  0  0  0  0
 14 35  1  0  0  0  0
 15 16  1  0  0  0  0
 16 17  2  0  0  0  0
 16 18  1  0  0  0  0
 18 23  1  0  0  0  0
 18 19  2  0  0  0  0
 19 20  1  0  0  0  0
 19 36  1  0  0  0  0
 20 21  2  0  0  0  0
 20 37  1  0  0  0  0
 21 22  1  0  0  0  0
 21 38  1  0  0  0  0
 22 23  2  0  0  0  0
 22 39  1  0  0  0  0
 23 40  1  0  0  0  0
 24 25  1  0  0  0  0
 25 41  1  0  0  0  0
M  END
> <s_m_source_file>
AV-unprocessed.smi

> <i_m_source_file_index>
12

> <i_lp_mmshare_version>
43012

> <i_f3d_flags>
0

> <s_epik_input>
W0NIM11jKFtjSF0xKWMoPU8pbmMobjEyKU9bQ0BIXTNbQ0BASF0yT1tDQEBIXShbQ0BASF0zW09IXSlbQ0gyXU9DKD1PKWM0W2NIXVtjSF1bY0hdW2NIXVtjSF00

> <s_epik_cmdline>
J2VwaWtfcHl0aG9uJywgJy1waCcsICc3LjAnLCAnLXRuJywgJzgnLCAnLW1hJywgJzIwMCcsICctbWV0YWxfYmluZGluZycsICctaW1hZScsICc8aW5maWxlLm1hZT4nLCAnLW9tYWUnLCAnPG91dGZpbGUubWFlPic=

> <r_lp_tautomer_probability>
0.933681

> <r_epik_Ionization_Penalty>
0.00399549

> <r_epik_Ionization_Penalty_Charging>
3.09373e-09

> <r_epik_Ionization_Penalty_Neutral>
0.00399549

> <r_epik_State_Penalty>
0.00284953

> <r_epik_Charging_Adjusted_Penalty>
0.00284953

> <i_epik_Tot_Q>
0

> <i_epik_Tot_abs_Q>
0

> <r_epik_Metal_State_Penalty>
-0

> <b_epik_Metal_Only>
0

> <s_epik_Chemistry_Notes>
This compound has an ester and may undergo hydrolysis at high or low pH. This compound contains an acetal/aminal-like group ( X-CH(R)-Y where X, Y are N, S, or O) that may be acid/base labile, releasing an aldehyde.

> <s_lp_Force_Field>
OPLS_2005

> <r_lp_Energy>
41.0284

> <b_lp_Chiralities_Consistent>
1

> <s_lp_Variant>
AV-unprocessed.smi:12-3

> <Gold.Version>
5.8.1

> <Gold.Id.Protein>
6NUR|6NUR_protein|mol2

> <Gold.PLP.Fitness>
49.6959

> <Gold.PLP.PLP>
-43.8716

> <Gold.PLP.part.hbond>
-3.4432

> <Gold.PLP.part.metal>
0.0000

> <Gold.PLP.part.buried>
-1.7432

> <Gold.PLP.part.nonpolar>
-38.2099

> <Gold.PLP.part.repulsive>
0.5161

> <Gold.PLP.ligand.clash>
0.0000

> <Gold.PLP.ligand.torsion>
0.5878

> <Gold.PLP.Chemscore.Hbond>
1.9833

> <Gold.PLP.Chemscore.CHOScore>
0.3398

> <Gold.PLP.Chemscore.Metal>
0.0000

> <Gold.Chemscore.Hbonds>
donor molecule, donor type, donor heavy atom, donor atom, acceptor molecule, acceptor atom, score
      L1  H    12    32       P1  7957  0.80
      P1  H  7997  8008       L1    17  0.61
      L1  C     3    29       P1  8028  0.27

> <Gold.PLP.Chemscore.Internal.Correction>
0.0305

> <Gold.Rescore>
     Score         DG    S(hbond)    S(metal)    S(lipo)     H(rot)  DE(clash)    DE(int)     intcor
     17.28     -17.93       1.83        0.00     101.87       2.18       0.13       0.52       ----

> <Gold.Chemscore.Fitness>
17.2774

> <Gold.Chemscore.DG>
-17.9275

> <Gold.Chemscore.ZeroCoef>
-5.4800

> <Gold.Chemscore.Hbond>
1.8291

> <Gold.Chemscore.Metal>
0.0000

> <Gold.Chemscore.Lipo>
101.8736

> <Gold.Chemscore.Internal_Hbond>
0.0000

> <Gold.Chemscore.DEClash>
0.1348

> <Gold.Chemscore.DEInternal>
0.5153

> <Gold.Chemscore.Rot>
2.1800

> <Gold.Chemscore.Internal.Correction>
   9.000000E+99

> <Gold.Chemscore.Hbonds>
donor molecule, donor type, donor heavy atom, donor atom, acceptor molecule, acceptor atom, score
      L1  H    12    32       P1  7957  0.35
      P1  H  7997  8008       L1    17  0.44

> <Gold.Chemscore.Hbond.Weighted>
-6.1090

> <Gold.Chemscore.Metal.Weighted>
-0.0000

> <Gold.Chemscore.Lipo.Weighted>
-11.9192

> <Gold.Chemscore.Internal_Hbond.Weighted>
0.0000

> <Gold.Chemscore.DEClash.Weighted>
0.1348

> <Gold.Chemscore.DEInternal.Weighted>
0.5153

> <Gold.Chemscore.Rot.Weighted>
5.5807

> <Gold.Chemscore.Internal.Correction.Weighted>
   9.000000E+99

> <Gold.Protein.RotatedTorsions>
[ 6907 6896 6895 6894 ] final  106.05 input  -60.11 | X-H torsion
[ 7974 7965 7964 7962 ] final   12.46 input  175.53 | X-H torsion
[ 8008 7997 7996 7995 ] final  -81.09 input   59.86 | X-H torsion
[ 10167 10162 10161 10158 ] final  176.18 input  -65.29 | X-H torsion
[ 10718 10713 10712 10709 ] final  -89.89 input   66.30 | X-H torsion
[ 10763 10752 10751 10750 ] final  -70.43 input  -60.55 | X-H torsion
[ 11005 11000 10999 10996 ] final -106.60 input  -57.11 | X-H torsion

> <Gold.Protein.ActiveResidues>
 VAL166  LYS551  ARG553  GLY616  TRP617  ASP618  TYR619  PRO620  LYS621  CYS622 
 ASP623  PHE694  ASN695  SER759  ASP760  ASP761  ALA762  ILE779  LEU786  VAL792 
 PHE793  MET794  SER795  GLU796  ALA797  LYS798  CYS799  TRP800  GLU811  SER814 

> <Gold.Protein.RotatedAtoms>
  152.5208  133.9438  159.7639 H   0  0  0  0  0  0  0  0  0  0  0  0  # atno 6907 bound_to 6896
  150.9763  133.6283  159.2737 H   0  0  0  0  0  0  0  0  0  0  0  0  # atno 6908 bound_to 6896
  151.3477  135.0883  159.9445 H   0  0  0  0  0  0  0  0  0  0  0  0  # atno 6909 bound_to 6896
  146.2350  139.9333  142.8493 H   0  0  0  0  0  0  0  0  0  0  0  0  # atno 7974 bound_to 7965
  154.5949  140.0653  156.9289 H   0  0  0  0  0  0  0  0  0  0  0  0  # atno 8008 bound_to 7997
  155.2232  140.3332  155.4294 H   0  0  0  0  0  0  0  0  0  0  0  0  # atno 8009 bound_to 7997
  156.2280  140.1828  156.7298 H   0  0  0  0  0  0  0  0  0  0  0  0  # atno 8010 bound_to 7997
  139.5205  144.2945  152.0434 H   0  0  0  0  0  0  0  0  0  0  0  0  # atno 10167 bound_to 10162
  155.9985  130.4889  150.5239 H   0  0  0  0  0  0  0  0  0  0  0  0  # atno 10718 bound_to 10713
  154.4176  135.5994  153.5990 H   0  0  0  0  0  0  0  0  0  0  0  0  # atno 10763 bound_to 10752
  152.9792  135.5944  154.3994 H   0  0  0  0  0  0  0  0  0  0  0  0  # atno 10764 bound_to 10752
  154.3815  135.2841  155.2187 H   0  0  0  0  0  0  0  0  0  0  0  0  # atno 10765 bound_to 10752
  141.0996  133.8907  157.1875 H   0  0  0  0  0  0  0  0  0  0  0  0  # atno 11005 bound_to 11000
  145.2023  140.9860  143.4148 LP  0  0  0  0  0  0  0  0  0  0  0  0  # atno 17320 bound_to 7965
  144.9763  139.3829  143.6284 LP  0  0  0  0  0  0  0  0  0  0  0  0  # atno 17321 bound_to 7965
  140.2395  144.4285  150.6266 LP  0  0  0  0  0  0  0  0  0  0  0  0  # atno 17342 bound_to 10162
  140.6301  143.2186  151.6514 LP  0  0  0  0  0  0  0  0  0  0  0  0  # atno 17343 bound_to 10162
  157.3197  131.0679  151.1941 LP  0  0  0  0  0  0  0  0  0  0  0  0  # atno 17370 bound_to 10713
  157.2858  130.6772  149.6089 LP  0  0  0  0  0  0  0  0  0  0  0  0  # atno 17371 bound_to 10713
  139.9844  135.0087  156.9827 LP  0  0  0  0  0  0  0  0  0  0  0  0  # atno 17394 bound_to 11000
  140.5054  134.1055  155.7259 LP  0  0  0  0  0  0  0  0  0  0  0  0  # atno 17395 bound_to 11000

$$$$
