AV-unprocessed.smi:966|AV-procd|sdf|4284|dock2
  -GOLD-   22720 2193D 1   1.00000     0.00000
 Structure written by MMmdl.
 30 31  0  0  0  0  0  0  0  0  2 V2000
  152.8190  143.2147  161.9719 C   0  0  0  0  0  0  0  0  0  0  0  0
  152.5965  142.8155  160.5243 C   0  0  0  0  0  0  0  0  0  0  0  0
  152.9142  141.4701  160.1016 C   0  0  0  0  0  0  0  0  0  0  0  0
  152.6967  141.1174  158.7838 C   0  0  0  0  0  0  0  0  0  0  0  0
  152.9138  140.0247  158.2093 O   0  5  0  0  0  0  0  0  0  0  0  0
  152.1600  142.0653  157.8491 N   0  0  0  0  0  0  0  0  0  0  0  0
  151.9006  141.6996  156.4256 C   0  0  0  0  0  0  0  0  0  0  0  0
  150.6514  140.8077  156.2774 C   0  0  1  0  0  0  0  0  0  0  0  0
  149.3555  141.5001  156.6970 C   0  0  0  0  0  0  0  0  0  0  0  0
  148.3250  140.7278  155.9062 C   0  0  0  0  0  0  0  0  0  0  0  0
  149.0569  140.5074  154.5867 C   0  0  0  0  0  0  0  0  0  0  0  0
  150.4408  140.4316  154.9172 O   0  0  0  0  0  0  0  0  0  0  0  0
  151.8813  143.3559  158.2194 C   0  0  0  0  0  0  0  0  0  0  0  0
  151.4556  144.1922  157.4184 O   0  0  0  0  0  0  0  0  0  0  0  0
  152.1130  143.6980  159.6259 C   0  0  0  0  0  0  0  0  0  0  0  0
  151.7914  145.0403  159.9957 C   0  0  0  0  0  0  0  0  0  0  0  0
  151.5334  146.1349  160.2726 N   0  0  0  0  0  0  0  0  0  0  0  0
  153.2016  142.3783  162.5575 H   0  0  0  0  0  0  0  0  0  0  0  0
  151.8837  143.5440  162.4255 H   0  0  0  0  0  0  0  0  0  0  0  0
  153.5412  144.0292  162.0359 H   0  0  0  0  0  0  0  0  0  0  0  0
  153.3238  140.7561  160.8013 H   0  0  0  0  0  0  0  0  0  0  0  0
  151.7965  142.5889  155.8025 H   0  0  0  0  0  0  0  0  0  0  0  0
  152.7543  141.1980  155.9674 H   0  0  0  0  0  0  0  0  0  0  0  0
  150.7619  139.8916  156.8594 H   0  0  0  0  0  0  0  0  0  0  0  0
  149.1856  141.4652  157.7734 H   0  0  0  0  0  0  0  0  0  0  0  0
  149.3575  142.5451  156.3834 H   0  0  0  0  0  0  0  0  0  0  0  0
  148.1211  139.7712  156.3890 H   0  0  0  0  0  0  0  0  0  0  0  0
  147.3817  141.2618  155.7888 H   0  0  0  0  0  0  0  0  0  0  0  0
  148.7194  139.6099  154.0680 H   0  0  0  0  0  0  0  0  0  0  0  0
  148.9079  141.3590  153.9221 H   0  0  0  0  0  0  0  0  0  0  0  0
  1  2  1  0  0  0  0
  1 18  1  0  0  0  0
  1 19  1  0  0  0  0
  1 20  1  0  0  0  0
  2 15  2  0  0  0  0
  2  3  1  0  0  0  0
  3  4  2  0  0  0  0
  3 21  1  0  0  0  0
  4  5  1  0  0  0  0
  4  6  1  0  0  0  0
  6  7  1  0  0  0  0
  6 13  1  0  0  0  0
  7  8  1  0  0  0  0
  7 22  1  0  0  0  0
  7 23  1  0  0  0  0
  8 12  1  0  0  0  0
  8  9  1  0  0  0  0
  8 24  1  0  0  0  0
  9 10  1  0  0  0  0
  9 25  1  0  0  0  0
  9 26  1  0  0  0  0
 10 11  1  0  0  0  0
 10 27  1  0  0  0  0
 10 28  1  0  0  0  0
 11 12  1  0  0  0  0
 11 29  1  0  0  0  0
 11 30  1  0  0  0  0
 13 14  2  0  0  0  0
 13 15  1  0  0  0  0
 15 16  1  0  0  0  0
 16 17  3  0  0  0  0
M  CHG  1   5  -1
M  END
> <s_m_source_file>
AV-unprocessed.smi

> <i_m_source_file_index>
966

> <i_lp_mmshare_version>
43012

> <i_f3d_flags>
0

> <s_epik_input>
W0NIM11jMVtjSF1jKFtPSF0pbihjKD1PKWMxQyNOKVtDSDJdW0NAQEhdMltDSDJdW0NIMl1bQ0gyXU8y

> <s_epik_cmdline>
J2VwaWtfcHl0aG9uJywgJy1waCcsICc3LjAnLCAnLXRuJywgJzgnLCAnLW1hJywgJzIwMCcsICctbWV0YWxfYmluZGluZycsICctaW1hZScsICc8aW5maWxlLm1hZT4nLCAnLW9tYWUnLCAnPG91dGZpbGUubWFlPic=

> <r_lp_tautomer_probability>
1

> <r_epik_Ionization_Penalty>
3.48555e-06

> <r_epik_Ionization_Penalty_Charging>
3.48554e-06

> <r_epik_Ionization_Penalty_Neutral>
1.71861e-11

> <r_epik_State_Penalty>
-0

> <r_epik_Charging_Adjusted_Penalty>
3.48554e-06

> <i_epik_Tot_Q>
-1

> <i_epik_Tot_abs_Q>
1

> <r_epik_Metal_State_Penalty>
-0

> <b_epik_Metal_Only>
0

> <s_lp_Force_Field>
OPLS_2005

> <r_lp_Energy>
36.155

> <b_lp_Chiralities_Consistent>
1

> <s_lp_Variant>
AV-unprocessed.smi:966-2

> <Gold.Version>
5.8.1

> <Gold.Id.Protein>
6NUR|6NUR_protein|mol2

> <Gold.PLP.Fitness>
42.1639

> <Gold.PLP.PLP>
-33.5544

> <Gold.PLP.part.hbond>
-4.0000

> <Gold.PLP.part.metal>
0.0000

> <Gold.PLP.part.buried>
-7.2510

> <Gold.PLP.part.nonpolar>
-22.0893

> <Gold.PLP.part.repulsive>
0.5581

> <Gold.PLP.ligand.clash>
0.0000

> <Gold.PLP.ligand.torsion>
0.1700

> <Gold.PLP.Chemscore.Hbond>
2.9825

> <Gold.PLP.Chemscore.CHOScore>
0.0000

> <Gold.PLP.Chemscore.Metal>
0.0000

> <Gold.Chemscore.Hbonds>
donor molecule, donor type, donor heavy atom, donor atom, acceptor molecule, acceptor atom, score
      P1  H  7989  7998       L1    12  1.00
      P1  H  7997  8008       L1     5  1.92

> <Gold.PLP.Chemscore.Internal.Correction>
0.0020

> <Gold.Rescore>
     Score         DG    S(hbond)    S(metal)    S(lipo)     H(rot)  DE(clash)    DE(int)     intcor
     13.75     -17.06       1.77        0.00      75.74       1.25       3.09       0.22       ----

> <Gold.Chemscore.Fitness>
13.7531

> <Gold.Chemscore.DG>
-17.0633

> <Gold.Chemscore.ZeroCoef>
-5.4800

> <Gold.Chemscore.Hbond>
1.7741

> <Gold.Chemscore.Metal>
0.0000

> <Gold.Chemscore.Lipo>
75.7392

> <Gold.Chemscore.Internal_Hbond>
0.0000

> <Gold.Chemscore.DEClash>
3.0883

> <Gold.Chemscore.DEInternal>
0.2220

> <Gold.Chemscore.Rot>
1.2514

> <Gold.Chemscore.Internal.Correction>
   9.000000E+99

> <Gold.Chemscore.Hbonds>
donor molecule, donor type, donor heavy atom, donor atom, acceptor molecule, acceptor atom, score
      P1  H  7989  7998       L1    12  0.87
      P1  H  7997  8008       L1     5  0.78

> <Gold.Chemscore.Hbond.Weighted>
-5.9254

> <Gold.Chemscore.Metal.Weighted>
-0.0000

> <Gold.Chemscore.Lipo.Weighted>
-8.8615

> <Gold.Chemscore.Internal_Hbond.Weighted>
0.0000

> <Gold.Chemscore.DEClash.Weighted>
3.0883

> <Gold.Chemscore.DEInternal.Weighted>
0.2220

> <Gold.Chemscore.Rot.Weighted>
3.2036

> <Gold.Chemscore.Internal.Correction.Weighted>
   9.000000E+99

> <Gold.Protein.RotatedTorsions>
[ 6907 6896 6895 6894 ] final  163.12 input  -60.11 | X-H torsion
[ 7974 7965 7964 7962 ] final  -36.13 input  175.53 | X-H torsion
[ 8008 7997 7996 7995 ] final  -78.55 input   59.86 | X-H torsion
[ 10167 10162 10161 10158 ] final   -1.89 input  -65.29 | X-H torsion
[ 10718 10713 10712 10709 ] final   38.20 input   66.30 | X-H torsion
[ 10763 10752 10751 10750 ] final   83.00 input  -60.55 | X-H torsion
[ 11005 11000 10999 10996 ] final  -50.37 input  -57.11 | X-H torsion

> <Gold.Protein.ActiveResidues>
 VAL166  LYS551  ARG553  GLY616  TRP617  ASP618  TYR619  PRO620  LYS621  CYS622 
 ASP623  PHE694  ASN695  SER759  ASP760  ASP761  ALA762  ILE779  LEU786  VAL792 
 PHE793  MET794  SER795  GLU796  ALA797  LYS798  CYS799  TRP800  GLU811  SER814 

> <Gold.Protein.RotatedAtoms>
  151.9300  133.3608  159.3927 H   0  0  0  0  0  0  0  0  0  0  0  0  # atno 6907 bound_to 6896
  150.7019  134.4547  159.5362 H   0  0  0  0  0  0  0  0  0  0  0  0  # atno 6908 bound_to 6896
  152.2186  134.8434  160.0539 H   0  0  0  0  0  0  0  0  0  0  0  0  # atno 6909 bound_to 6896
  146.0687  140.6242  142.8962 H   0  0  0  0  0  0  0  0  0  0  0  0  # atno 7974 bound_to 7965
  154.5700  140.0692  156.8950 H   0  0  0  0  0  0  0  0  0  0  0  0  # atno 8008 bound_to 7997
  155.2652  140.3361  155.4251 H   0  0  0  0  0  0  0  0  0  0  0  0  # atno 8009 bound_to 7997
  156.2111  140.1759  156.7679 H   0  0  0  0  0  0  0  0  0  0  0  0  # atno 8010 bound_to 7997
  140.6829  143.6722  150.8176 H   0  0  0  0  0  0  0  0  0  0  0  0  # atno 10167 bound_to 10162
  157.3560  130.7624  149.7012 H   0  0  0  0  0  0  0  0  0  0  0  0  # atno 10718 bound_to 10713
  153.1252  135.4707  154.9261 H   0  0  0  0  0  0  0  0  0  0  0  0  # atno 10763 bound_to 10752
  154.7613  135.3132  154.8374 H   0  0  0  0  0  0  0  0  0  0  0  0  # atno 10764 bound_to 10752
  153.8929  135.6883  153.4813 H   0  0  0  0  0  0  0  0  0  0  0  0  # atno 10765 bound_to 10752
  141.0812  133.6653  156.3722 H   0  0  0  0  0  0  0  0  0  0  0  0  # atno 11005 bound_to 11000
  144.7218  140.4399  143.7002 LP  0  0  0  0  0  0  0  0  0  0  0  0  # atno 17320 bound_to 7965
  145.6430  139.1553  143.2905 LP  0  0  0  0  0  0  0  0  0  0  0  0  # atno 17321 bound_to 7965
  140.0425  143.5332  152.2711 LP  0  0  0  0  0  0  0  0  0  0  0  0  # atno 17342 bound_to 10162
  139.6164  144.7620  151.2836 LP  0  0  0  0  0  0  0  0  0  0  0  0  # atno 17343 bound_to 10162
  155.9729  130.4127  150.4046 LP  0  0  0  0  0  0  0  0  0  0  0  0  # atno 17370 bound_to 10713
  157.2116  131.0462  151.2596 LP  0  0  0  0  0  0  0  0  0  0  0  0  # atno 17371 bound_to 10713
  140.5463  134.6071  157.5395 LP  0  0  0  0  0  0  0  0  0  0  0  0  # atno 17394 bound_to 11000
  139.9626  134.7426  156.0204 LP  0  0  0  0  0  0  0  0  0  0  0  0  # atno 17395 bound_to 11000

$$$$
