#       Name:                AV-unprocessed.smi:3302
#       Creating user name   scv26
#       Creation time:       Fri Mar 27 18:59:19 2020


#       File generated by GOLD software.
#

@<TRIPOS>MOLECULE
AV-unprocessed.smi:3302
    40    41     1
SMALL
NO_CHARGES


@<TRIPOS>ATOM
      1 ****        -2.2608   2.3335   0.8750 O.2            1 S1                 0.0000
      2 ****        -1.5795   1.3094   0.8318 C.2            1 S1                 0.0000
      3 ****        -0.0560   1.4263   0.7593 C.3            1 S1                 0.0000
      4 ****         0.4776   0.2869   0.0956 O.3            1 S1                 0.0000
      5 ****         1.8897   0.3038  -0.0628 C.3            1 S1                 0.0000
      6 ****         2.2886   1.1513  -1.2891 C.3            1 S1                 0.0000
      7 ****         3.7992   1.0659  -1.5608 C.3            1 S1                 0.0000
      8 ****         4.2534  -0.3922  -1.7325 C.3            1 S1                 0.0000
      9 ****         3.8581  -1.2436  -0.5156 C.3            1 S1                 0.0000
     10 ****         2.3478  -1.1545  -0.2418 C.3            1 S1                 0.0000
     11 ****        -2.0863   0.0643   0.8868 N.am           1 S1                 0.0000
     12 ****        -3.4546  -0.3038   0.9435 C.ar           1 S1                 0.0000
     13 ****        -3.8282  -1.3520   1.8095 C.ar           1 S1                 0.0000
     14 ****        -5.1813  -1.7435   1.8537 C.ar           1 S1                 0.0000
     15 ****        -6.1433  -1.1755   1.0960 N.ar           1 S1                 0.0000
     16 ****        -5.7781  -0.1894   0.2490 C.ar           1 S1                 0.0000
     17 ****        -4.4540   0.2777   0.1249 C.ar           1 S1                 0.0000
     18 ****        -4.1631   1.2382  -0.7851 F              1 S1                 0.0000
     19 ****         0.2052   2.3446   0.2330 H              1 S1                 0.0000
     20 ****         0.3427   1.4965   1.7721 H              1 S1                 0.0000
     21 ****         2.3626   0.7048   0.8360 H              1 S1                 0.0000
     22 ****         1.7416   0.8037  -2.1664 H              1 S1                 0.0000
     23 ****         2.0092   2.1946  -1.1453 H              1 S1                 0.0000
     24 ****         4.0494   1.6407  -2.4529 H              1 S1                 0.0000
     25 ****         4.3448   1.5239  -0.7348 H              1 S1                 0.0000
     26 ****         3.8034  -0.8112  -2.6335 H              1 S1                 0.0000
     27 ****         5.3332  -0.4311  -1.8794 H              1 S1                 0.0000
     28 ****         4.1447  -2.2826  -0.6806 H              1 S1                 0.0000
     29 ****         4.4100  -0.9056   0.3624 H              1 S1                 0.0000
     30 ****         2.0996  -1.7331   0.6485 H              1 S1                 0.0000
     31 ****         1.8022  -1.6111  -1.0688 H              1 S1                 0.0000
     32 ****        -1.4186  -0.6867   0.9850 H              1 S1                 0.0000
     33 ****        -3.0973  -1.8430   2.4355 H              1 S1                 0.0000
     34 ****        -5.4986  -2.5373   2.5134 H              1 S1                 0.0000
     35 ****        -6.5640   0.2317  -0.3604 H              1 S1                 0.0000
     36 ****        -1.8175   3.2298   0.8625 LP             1 S1                 0.0000
     37 ****        -3.2576   2.2692   0.9225 LP             1 S1                 0.0000
     38 ****         0.0623   0.2315  -0.8124 LP             1 S1                 0.0000
     39 ****         0.2325  -0.5257   0.6244 LP             1 S1                 0.0000
     40 ****        -7.0952  -1.4752   1.1599 LP             1 S1                 0.0000
@<TRIPOS>BOND
    1    1    2 2     
    2    2    3 1     
    3    2   11 am    
    4    3    4 1     
    5    3   19 1     
    6    3   20 1     
    7    4    5 1     
    8    5   10 1     
    9    5    6 1     
   10    5   21 1     
   11    6    7 1     
   12    6   22 1     
   13    6   23 1     
   14    7    8 1     
   15    7   24 1     
   16    7   25 1     
   17    8    9 1     
   18    8   26 1     
   19    8   27 1     
   20    9   10 1     
   21    9   28 1     
   22    9   29 1     
   23   10   30 1     
   24   10   31 1     
   25   11   12 1     
   26   11   32 1     
   27   12   17 ar    
   28   12   13 ar    
   29   13   14 ar    
   30   13   33 1     
   31   14   15 ar    
   32   14   34 1     
   33   15   16 ar    
   34   16   17 ar    
   35   16   35 1     
   36   17   18 1     
   37    1   36 1     
   38    1   37 1     
   39    4   38 1     
   40    4   39 1     
   41   15   40 1     
@<TRIPOS>SUBSTRUCTURE
      1 S1             1
@<TRIPOS>SET
LONE_PAIRS      STATIC     ATOMS    <user>   **** ""
5 36 37 38 39 40
DONOR_HYDROGENS      STATIC     ATOMS    <user>   **** ""
1 32
ATOM$BLUE        STATIC     ATOMS    COLORGROUP SYSTEM
5 36 37 38 39 40
ATOM$RED        STATIC     ATOMS    COLORGROUP SYSTEM
1 32
