AV-unprocessed.smi:54|AV-procd|sdf|540|dock6
  -GOLD-   2262016423D 1   1.00000     0.00000
 Structure written by MMmdl.
 44 46  0  0  0  0  0  0  0  0  1 V2000
  152.3177  143.6732  160.8477 C   0  0  0  0  0  0  0  0  0  0  0  0
  152.4965  142.1478  160.7781 C   0  0  0  0  0  0  0  0  0  0  0  0
  153.9005  141.7287  161.2429 C   0  0  0  0  0  0  0  0  0  0  0  0
  152.2218  141.6372  159.3592 C   0  0  0  0  0  0  0  0  0  0  0  0
  151.8151  142.3809  158.4658 O   0  0  0  0  0  0  0  0  0  0  0  0
  152.4735  140.2224  159.1478 N   0  0  0  0  0  0  0  0  0  0  0  0
  152.3058  139.5161  158.0052 C   0  0  0  0  0  0  0  0  0  0  0  0
  151.4706  139.8787  157.0420 N   0  0  0  0  0  0  0  0  0  0  0  0
  151.4345  139.0294  155.9715 C   0  0  0  0  0  0  0  0  0  0  0  0
  152.1689  137.8734  155.8121 C   0  0  0  0  0  0  0  0  0  0  0  0
  151.8591  137.2726  154.5971 N   0  0  0  0  0  0  0  0  0  0  0  0
  150.9618  138.0612  154.0738 C   0  0  0  0  0  0  0  0  0  0  0  0
  150.6477  139.1542  154.8476 N   0  0  0  0  0  0  0  0  0  0  0  0
  149.6729  140.2564  154.5858 C   0  0  1  0  0  0  0  0  0  0  0  0
  148.9796  139.9428  153.4135 O   0  0  0  0  0  0  0  0  0  0  0  0
  147.5847  139.8082  153.6676 C   0  0  1  0  0  0  0  0  0  0  0  0
  146.9527  138.7612  152.7339 C   0  0  0  0  0  0  0  0  0  0  0  0
  147.4394  138.9218  151.4185 O   0  0  0  0  0  0  0  0  0  0  0  0
  147.4619  139.5627  155.1784 C   0  0  1  0  0  0  0  0  0  0  0  0
  147.5555  138.1867  155.4976 O   0  0  0  0  0  0  0  0  0  0  0  0
  148.6552  140.3233  155.7352 C   0  0  2  0  0  0  0  0  0  0  0  0
  148.3125  141.6616  156.0348 O   0  0  0  0  0  0  0  0  0  0  0  0
  153.0831  137.4713  156.8417 C   0  0  0  0  0  0  0  0  0  0  0  0
  153.8135  136.4832  156.8686 O   0  0  0  0  0  0  0  0  0  0  0  0
  153.0881  138.3639  157.9219 N   0  0  0  0  0  0  0  0  0  0  0  0
  150.2920  141.1475  154.4725 H   0  0  0  0  0  0  0  0  0  0  0  0
  147.1468  140.7837  153.4490 H   0  0  0  0  0  0  0  0  0  0  0  0
  146.5134  139.9296  155.5729 H   0  0  0  0  0  0  0  0  0  0  0  0
  149.0534  139.8728  156.6462 H   0  0  0  0  0  0  0  0  0  0  0  0
  151.3238  143.9719  160.5123 H   0  0  0  0  0  0  0  0  0  0  0  0
  153.0489  144.1920  160.2263 H   0  0  0  0  0  0  0  0  0  0  0  0
  152.4392  144.0333  161.8696 H   0  0  0  0  0  0  0  0  0  0  0  0
  151.7692  141.6917  161.4514 H   0  0  0  0  0  0  0  0  0  0  0  0
  154.0323  140.6475  161.1837 H   0  0  0  0  0  0  0  0  0  0  0  0
  154.0708  142.0220  162.2789 H   0  0  0  0  0  0  0  0  0  0  0  0
  154.6793  142.1931  160.6364 H   0  0  0  0  0  0  0  0  0  0  0  0
  152.8059  139.7099  159.9511 H   0  0  0  0  0  0  0  0  0  0  0  0
  150.5051  137.8611  153.1155 H   0  0  0  0  0  0  0  0  0  0  0  0
  147.2116  137.7581  153.0734 H   0  0  0  0  0  0  0  0  0  0  0  0
  145.8644  138.8245  152.7363 H   0  0  0  0  0  0  0  0  0  0  0  0
  148.0988  139.5990  151.4222 H   0  0  0  0  0  0  0  0  0  0  0  0
  147.3221  138.0753  156.4067 H   0  0  0  0  0  0  0  0  0  0  0  0
  148.9351  141.9978  156.6613 H   0  0  0  0  0  0  0  0  0  0  0  0
  153.7068  138.1401  158.6873 H   0  0  0  0  0  0  0  0  0  0  0  0
  1  2  1  0  0  0  0
  1 30  1  0  0  0  0
  1 31  1  0  0  0  0
  1 32  1  0  0  0  0
  2  3  1  0  0  0  0
  2  4  1  0  0  0  0
  2 33  1  0  0  0  0
  3 34  1  0  0  0  0
  3 35  1  0  0  0  0
  3 36  1  0  0  0  0
  4  5  2  0  0  0  0
  4  6  1  0  0  0  0
  6 37  1  0  0  0  0
  6  7  1  0  0  0  0
  7 25  1  0  0  0  0
  7  8  2  0  0  0  0
  8  9  1  0  0  0  0
  9 13  1  0  0  0  0
  9 10  2  0  0  0  0
 10 11  1  0  0  0  0
 10 23  1  0  0  0  0
 11 12  2  0  0  0  0
 12 13  1  0  0  0  0
 12 38  1  0  0  0  0
 13 14  1  0  0  0  0
 14 26  1  0  0  0  0
 14 21  1  0  0  0  0
 14 15  1  0  0  0  0
 15 16  1  0  0  0  0
 16 27  1  0  0  0  0
 16 17  1  0  0  0  0
 16 19  1  0  0  0  0
 17 18  1  0  0  0  0
 17 39  1  0  0  0  0
 17 40  1  0  0  0  0
 18 41  1  0  0  0  0
 19 28  1  0  0  0  0
 19 20  1  0  0  0  0
 19 21  1  0  0  0  0
 20 42  1  0  0  0  0
 21 29  1  0  0  0  0
 21 22  1  0  0  0  0
 22 43  1  0  0  0  0
 23 24  2  0  0  0  0
 23 25  1  0  0  0  0
 25 44  1  0  0  0  0
M  END
> <s_m_source_file>
AV-unprocessed.smi

> <i_m_source_file_index>
54

> <i_lp_mmshare_version>
43012

> <i_f3d_flags>
0

> <s_epik_input>
W0NIM11bQ0hdKFtDSDNdKUMoPU8pW05IXWMobjEpW25IXWMoPU8pYyhjMTIpbltjSF1uMltDQEBIXTNPW0NASF0oW0NIMl1bT0hdKVtDQEBIXShbT0hdKVtDQEhdM1tPSF0=

> <s_epik_cmdline>
J2VwaWtfcHl0aG9uJywgJy1waCcsICc3LjAnLCAnLXRuJywgJzgnLCAnLW1hJywgJzIwMCcsICctbWV0YWxfYmluZGluZycsICctaW1hZScsICc8aW5maWxlLm1hZT4nLCAnLW9tYWUnLCAnPG91dGZpbGUubWFlPic=

> <r_lp_tautomer_probability>
0.85571

> <r_epik_Ionization_Penalty>
0.0316551

> <r_epik_Ionization_Penalty_Charging>
0.0316043

> <r_epik_Ionization_Penalty_Neutral>
5.07097e-05

> <r_epik_State_Penalty>
3.15494e-07

> <r_epik_Charging_Adjusted_Penalty>
0.0316047

> <i_epik_Tot_Q>
0

> <i_epik_Tot_abs_Q>
0

> <r_epik_Metal_State_Penalty>
0.421206

> <b_epik_Metal_Only>
0

> <s_epik_Chemistry_Notes>
This compound contains an acetal/aminal-like group ( X-CH(R)-Y where X, Y are N, S, or O) that may be acid/base labile, releasing an aldehyde.

> <s_lp_Force_Field>
OPLS_2005

> <r_lp_Energy>
34.69

> <b_lp_Chiralities_Consistent>
1

> <s_lp_Variant>
AV-unprocessed.smi:54-12

> <Gold.Version>
5.8.1

> <Gold.Id.Protein>
6NUR|6NUR_protein|mol2

> <Gold.PLP.Fitness>
47.4595

> <Gold.PLP.PLP>
-34.7903

> <Gold.PLP.part.hbond>
-5.2451

> <Gold.PLP.part.metal>
0.0000

> <Gold.PLP.part.buried>
-5.5801

> <Gold.PLP.part.nonpolar>
-28.8699

> <Gold.PLP.part.repulsive>
5.2257

> <Gold.PLP.ligand.clash>
0.0000

> <Gold.PLP.ligand.torsion>
0.3947

> <Gold.PLP.Chemscore.Hbond>
3.4160

> <Gold.PLP.Chemscore.CHOScore>
1.0615

> <Gold.PLP.Chemscore.Metal>
0.0000

> <Gold.Chemscore.Hbonds>
donor molecule, donor type, donor heavy atom, donor atom, acceptor molecule, acceptor atom, score
      L1  H    18    41       P1  7957  0.96
      P1  H  7954  7966       L1    18  0.68
      P1  H 10752 10763       L1    24  0.88
      P1  H 10752 10765       L1    11  0.88
      L1  C    12    38       P1  7948  0.62
      L1  C    12    38       P1  7949  0.45

> <Gold.PLP.Chemscore.Internal.Correction>
0.0261

> <Gold.Rescore>
     Score         DG    S(hbond)    S(metal)    S(lipo)     H(rot)  DE(clash)    DE(int)     intcor
      7.45     -10.96       2.65        0.00      59.73       4.05       2.02       1.49       ----

> <Gold.Chemscore.Fitness>
7.4508

> <Gold.Chemscore.DG>
-10.9628

> <Gold.Chemscore.ZeroCoef>
-5.4800

> <Gold.Chemscore.Hbond>
2.6529

> <Gold.Chemscore.Metal>
0.0000

> <Gold.Chemscore.Lipo>
59.7299

> <Gold.Chemscore.Internal_Hbond>
0.0000

> <Gold.Chemscore.DEClash>
2.0186

> <Gold.Chemscore.DEInternal>
1.4934

> <Gold.Chemscore.Rot>
4.0493

> <Gold.Chemscore.Internal.Correction>
   9.000000E+99

> <Gold.Chemscore.Hbonds>
donor molecule, donor type, donor heavy atom, donor atom, acceptor molecule, acceptor atom, score
      L1  H    18    41       P1  7957  0.86
      P1  H  7954  7966       L1    18  0.10
      P1  H 10752 10763       L1    24  0.86
      P1  H 10752 10765       L1    11  0.76

> <Gold.Chemscore.Hbond.Weighted>
-8.8606

> <Gold.Chemscore.Metal.Weighted>
-0.0000

> <Gold.Chemscore.Lipo.Weighted>
-6.9884

> <Gold.Chemscore.Internal_Hbond.Weighted>
0.0000

> <Gold.Chemscore.DEClash.Weighted>
2.0186

> <Gold.Chemscore.DEInternal.Weighted>
1.4934

> <Gold.Chemscore.Rot.Weighted>
10.3662

> <Gold.Chemscore.Internal.Correction.Weighted>
   9.000000E+99

> <Gold.Protein.RotatedTorsions>
[ 6907 6896 6895 6894 ] final -143.38 input  -60.11 | X-H torsion
[ 7974 7965 7964 7962 ] final    0.98 input  175.53 | X-H torsion
[ 8008 7997 7996 7995 ] final   79.21 input   59.86 | X-H torsion
[ 10167 10162 10161 10158 ] final  139.35 input  -65.29 | X-H torsion
[ 10718 10713 10712 10709 ] final   13.84 input   66.30 | X-H torsion
[ 10763 10752 10751 10750 ] final  150.65 input  -60.55 | X-H torsion
[ 11005 11000 10999 10996 ] final  132.59 input  -57.11 | X-H torsion

> <Gold.Protein.ActiveResidues>
 VAL166  LYS551  ARG553  GLY616  TRP617  ASP618  TYR619  PRO620  LYS621  CYS622 
 ASP623  PHE694  ASN695  SER759  ASP760  ASP761  ALA762  ILE779  LEU786  VAL792 
 PHE793  MET794  SER795  GLU796  ALA797  LYS798  CYS799  TRP800  GLU811  SER814 

> <Gold.Protein.RotatedAtoms>
  151.0997  133.5253  159.2610 H   0  0  0  0  0  0  0  0  0  0  0  0  # atno 6907 bound_to 6896
  151.2089  135.0472  159.8913 H   0  0  0  0  0  0  0  0  0  0  0  0  # atno 6908 bound_to 6896
  152.5442  134.0815  159.8291 H   0  0  0  0  0  0  0  0  0  0  0  0  # atno 6909 bound_to 6896
  146.2438  140.1056  142.8346 H   0  0  0  0  0  0  0  0  0  0  0  0  # atno 7974 bound_to 7965
  155.8666  140.3451  155.5792 H   0  0  0  0  0  0  0  0  0  0  0  0  # atno 8008 bound_to 7997
  155.7874  140.0867  157.2046 H   0  0  0  0  0  0  0  0  0  0  0  0  # atno 8009 bound_to 7997
  154.4015  140.1489  156.3110 H   0  0  0  0  0  0  0  0  0  0  0  0  # atno 8010 bound_to 7997
  139.5082  144.6300  151.5842 H   0  0  0  0  0  0  0  0  0  0  0  0  # atno 10167 bound_to 10162
  157.0305  130.6191  149.5734 H   0  0  0  0  0  0  0  0  0  0  0  0  # atno 10718 bound_to 10713
  154.0910  135.2852  155.3271 H   0  0  0  0  0  0  0  0  0  0  0  0  # atno 10763 bound_to 10752
  154.6620  135.5331  153.8033 H   0  0  0  0  0  0  0  0  0  0  0  0  # atno 10764 bound_to 10752
  153.0413  135.6536  154.1079 H   0  0  0  0  0  0  0  0  0  0  0  0  # atno 10765 bound_to 10752
  139.9799  134.9551  156.9604 H   0  0  0  0  0  0  0  0  0  0  0  0  # atno 11005 bound_to 11000
  145.0531  140.9032  143.4984 LP  0  0  0  0  0  0  0  0  0  0  0  0  # atno 17320 bound_to 7965
  145.1158  139.2726  143.5614 LP  0  0  0  0  0  0  0  0  0  0  0  0  # atno 17321 bound_to 7965
  140.6029  143.9576  150.6399 LP  0  0  0  0  0  0  0  0  0  0  0  0  # atno 17342 bound_to 10162
  140.2794  143.3400  152.1165 LP  0  0  0  0  0  0  0  0  0  0  0  0  # atno 17343 bound_to 10162
  156.0071  130.5159  150.7867 LP  0  0  0  0  0  0  0  0  0  0  0  0  # atno 17370 bound_to 10713
  157.5181  131.0930  151.0113 LP  0  0  0  0  0  0  0  0  0  0  0  0  # atno 17371 bound_to 10713
  140.5117  134.0995  155.7272 LP  0  0  0  0  0  0  0  0  0  0  0  0  # atno 17394 bound_to 11000
  141.1472  133.9033  157.2185 LP  0  0  0  0  0  0  0  0  0  0  0  0  # atno 17395 bound_to 11000

$$$$
