AV-unprocessed.smi:1601|AV-procd|sdf|6434|dock10
  -GOLD-   22720 7 83D 1   1.00000     0.00000
 Structure written by MMmdl.
 41 42  0  0  0  0  0  0  0  0  1 V2000
  151.6381  138.2751  153.9411 C   0  0  0  0  0  0  0  0  0  0  0  0
  151.0636  139.0771  155.1370 C   0  0  1  0  0  0  0  0  0  0  0  0
  152.1665  140.0328  155.6695 C   0  0  0  0  0  0  0  0  0  0  0  0
  152.0655  140.2413  157.1104 N   0  0  0  0  0  0  0  0  0  0  0  0
  152.8634  139.6842  158.0339 C   0  0  0  0  0  0  0  0  0  0  0  0
  153.7931  138.9261  157.7550 O   0  0  0  0  0  0  0  0  0  0  0  0
  152.5626  140.0495  159.4954 C   0  0  1  0  0  0  0  0  0  0  0  0
  153.5358  139.3826  160.4847 C   0  0  0  0  0  0  0  0  0  0  0  0
  152.5540  141.4969  159.6623 N   0  0  0  0  0  0  0  0  0  0  0  0
  153.2324  142.2674  160.5873 C   0  0  0  0  0  0  0  0  0  0  0  0
  152.9114  143.5725  160.3470 C   0  0  0  0  0  0  0  0  0  0  0  0
  152.0188  143.5024  159.2415 C   0  0  0  0  0  0  0  0  0  0  0  0
  151.8072  142.2613  158.8346 N   0  0  0  0  0  0  0  0  0  0  0  0
  149.7965  139.7689  154.8045 N   0  0  0  0  0  0  0  0  0  0  0  0
  148.9056  138.9548  153.9690 C   0  0  0  0  0  0  0  0  0  0  0  0
  147.6028  139.6846  153.5972 C   0  0  0  0  0  0  0  0  0  0  0  0
  147.9072  140.9078  152.9417 O   0  0  0  0  0  0  0  0  0  0  0  0
  148.7046  141.7612  153.7503 C   0  0  0  0  0  0  0  0  0  0  0  0
  150.0163  141.0469  154.1176 C   0  0  0  0  0  0  0  0  0  0  0  0
  152.6023  137.8205  154.1655 H   0  0  0  0  0  0  0  0  0  0  0  0
  151.7750  138.9151  153.0688 H   0  0  0  0  0  0  0  0  0  0  0  0
  150.9945  137.4452  153.6532 H   0  0  0  0  0  0  0  0  0  0  0  0
  150.8546  138.3590  155.9317 H   0  0  0  0  0  0  0  0  0  0  0  0
  153.1493  139.6430  155.3983 H   0  0  0  0  0  0  0  0  0  0  0  0
  152.0882  141.0264  155.2321 H   0  0  0  0  0  0  0  0  0  0  0  0
  151.3309  140.8561  157.4301 H   0  0  0  0  0  0  0  0  0  0  0  0
  151.5626  139.6757  159.7261 H   0  0  0  0  0  0  0  0  0  0  0  0
  153.5329  138.2980  160.3699 H   0  0  0  0  0  0  0  0  0  0  0  0
  153.2525  139.6029  161.5142 H   0  0  0  0  0  0  0  0  0  0  0  0
  154.5603  139.7294  160.3444 H   0  0  0  0  0  0  0  0  0  0  0  0
  153.8811  141.8261  161.3299 H   0  0  0  0  0  0  0  0  0  0  0  0
  153.2612  144.4442  160.8797 H   0  0  0  0  0  0  0  0  0  0  0  0
  151.5226  144.3113  158.7256 H   0  0  0  0  0  0  0  0  0  0  0  0
  149.4247  138.6542  153.0575 H   0  0  0  0  0  0  0  0  0  0  0  0
  148.6175  138.0420  154.4862 H   0  0  0  0  0  0  0  0  0  0  0  0
  146.9991  139.0663  152.9329 H   0  0  0  0  0  0  0  0  0  0  0  0
  147.0021  139.8793  154.4870 H   0  0  0  0  0  0  0  0  0  0  0  0
  148.9141  142.6789  153.2004 H   0  0  0  0  0  0  0  0  0  0  0  0
  148.1542  142.0449  154.6488 H   0  0  0  0  0  0  0  0  0  0  0  0
  150.5838  141.7292  154.7479 H   0  0  0  0  0  0  0  0  0  0  0  0
  150.6057  140.8850  153.2137 H   0  0  0  0  0  0  0  0  0  0  0  0
  1  2  1  0  0  0  0
  1 20  1  0  0  0  0
  1 21  1  0  0  0  0
  1 22  1  0  0  0  0
  2  3  1  0  0  0  0
  2 14  1  0  0  0  0
  2 23  1  0  0  0  0
  3  4  1  0  0  0  0
  3 24  1  0  0  0  0
  3 25  1  0  0  0  0
  4  5  1  0  0  0  0
  4 26  1  0  0  0  0
  5  6  2  0  0  0  0
  5  7  1  0  0  0  0
  7  8  1  0  0  0  0
  7  9  1  0  0  0  0
  7 27  1  0  0  0  0
  8 28  1  0  0  0  0
  8 29  1  0  0  0  0
  8 30  1  0  0  0  0
  9 13  1  0  0  0  0
  9 10  1  0  0  0  0
 10 11  2  0  0  0  0
 10 31  1  0  0  0  0
 11 12  1  0  0  0  0
 11 32  1  0  0  0  0
 12 13  2  0  0  0  0
 12 33  1  0  0  0  0
 14 19  1  0  0  0  0
 14 15  1  0  0  0  0
 15 16  1  0  0  0  0
 15 34  1  0  0  0  0
 15 35  1  0  0  0  0
 16 17  1  0  0  0  0
 16 36  1  0  0  0  0
 16 37  1  0  0  0  0
 17 18  1  0  0  0  0
 18 19  1  0  0  0  0
 18 38  1  0  0  0  0
 18 39  1  0  0  0  0
 19 40  1  0  0  0  0
 19 41  1  0  0  0  0
M  END
> <s_m_source_file>
AV-unprocessed.smi

> <i_m_source_file_index>
1601

> <i_lp_mmshare_version>
43012

> <i_f3d_flags>
0

> <s_epik_input>
W0NIMl0xW0NIMl1PW0NIMl1bQ0gyXU4xW0NASF0oW0NIM10pW0NIMl1bTkhdQyg9TylbQ0BIXShbQ0gzXSluMltjSF1bY0hdW2NIXW4y

> <s_epik_cmdline>
J2VwaWtfcHl0aG9uJywgJy1waCcsICc3LjAnLCAnLXRuJywgJzgnLCAnLW1hJywgJzIwMCcsICctbWV0YWxfYmluZGluZycsICctaW1hZScsICc8aW5maWxlLm1hZT4nLCAnLW9tYWUnLCAnPG91dGZpbGUubWFlPic=

> <r_lp_tautomer_probability>
1

> <r_epik_Ionization_Penalty>
0.203323

> <r_epik_Ionization_Penalty_Charging>
0

> <r_epik_Ionization_Penalty_Neutral>
0.203323

> <r_epik_State_Penalty>
0.193192

> <r_epik_Charging_Adjusted_Penalty>
0.193192

> <i_epik_Tot_Q>
0

> <i_epik_Tot_abs_Q>
0

> <r_epik_Metal_State_Penalty>
0.193187

> <b_epik_Metal_Only>
0

> <s_lp_Force_Field>
OPLS_2005

> <r_lp_Energy>
33.1122

> <b_lp_Chiralities_Consistent>
1

> <s_lp_Variant>
AV-unprocessed.smi:1601-4

> <Gold.Version>
5.8.1

> <Gold.Id.Protein>
6NUR|6NUR_protein|mol2

> <Gold.PLP.Fitness>
36.7683

> <Gold.PLP.PLP>
-35.5281

> <Gold.PLP.part.hbond>
-0.8587

> <Gold.PLP.part.metal>
0.0000

> <Gold.PLP.part.buried>
-2.8902

> <Gold.PLP.part.nonpolar>
-31.3954

> <Gold.PLP.part.repulsive>
0.3379

> <Gold.PLP.ligand.clash>
0.0000

> <Gold.PLP.ligand.torsion>
0.9284

> <Gold.PLP.Chemscore.Hbond>
1.0000

> <Gold.PLP.Chemscore.CHOScore>
0.0000

> <Gold.PLP.Chemscore.Metal>
0.0000

> <Gold.Chemscore.Hbonds>
donor molecule, donor type, donor heavy atom, donor atom, acceptor molecule, acceptor atom, score
      P1  H  7997  8008       L1     6  0.95

> <Gold.PLP.Chemscore.Internal.Correction>
0.0971

> <Gold.Rescore>
     Score         DG    S(hbond)    S(metal)    S(lipo)     H(rot)  DE(clash)    DE(int)     intcor
     12.55     -14.64       0.92        0.00      91.05       1.79       0.01       2.08       ----

> <Gold.Chemscore.Fitness>
12.5513

> <Gold.Chemscore.DG>
-14.6441

> <Gold.Chemscore.ZeroCoef>
-5.4800

> <Gold.Chemscore.Hbond>
0.9242

> <Gold.Chemscore.Metal>
0.0000

> <Gold.Chemscore.Lipo>
91.0473

> <Gold.Chemscore.Internal_Hbond>
0.0000

> <Gold.Chemscore.DEClash>
0.0149

> <Gold.Chemscore.DEInternal>
2.0780

> <Gold.Chemscore.Rot>
1.7872

> <Gold.Chemscore.Internal.Correction>
   9.000000E+99

> <Gold.Chemscore.Hbonds>
donor molecule, donor type, donor heavy atom, donor atom, acceptor molecule, acceptor atom, score
      P1  H  7997  8008       L1     6  0.20

> <Gold.Chemscore.Hbond.Weighted>
-3.0868

> <Gold.Chemscore.Metal.Weighted>
-0.0000

> <Gold.Chemscore.Lipo.Weighted>
-10.6525

> <Gold.Chemscore.Internal_Hbond.Weighted>
0.0000

> <Gold.Chemscore.DEClash.Weighted>
0.0149

> <Gold.Chemscore.DEInternal.Weighted>
2.0780

> <Gold.Chemscore.Rot.Weighted>
4.5752

> <Gold.Chemscore.Internal.Correction.Weighted>
   9.000000E+99

> <Gold.Protein.RotatedTorsions>
[ 6907 6896 6895 6894 ] final   44.72 input  -60.11 | X-H torsion
[ 7974 7965 7964 7962 ] final  -74.68 input  175.53 | X-H torsion
[ 8008 7997 7996 7995 ] final -102.53 input   59.86 | X-H torsion
[ 10167 10162 10161 10158 ] final  -75.11 input  -65.29 | X-H torsion
[ 10718 10713 10712 10709 ] final -135.14 input   66.30 | X-H torsion
[ 10763 10752 10751 10750 ] final  152.10 input  -60.55 | X-H torsion
[ 11005 11000 10999 10996 ] final   37.12 input  -57.11 | X-H torsion

> <Gold.Protein.ActiveResidues>
 VAL166  LYS551  ARG553  GLY616  TRP617  ASP618  TYR619  PRO620  LYS621  CYS622 
 ASP623  PHE694  ASN695  SER759  ASP760  ASP761  ALA762  ILE779  LEU786  VAL792 
 PHE793  MET794  SER795  GLU796  ALA797  LYS798  CYS799  TRP800  GLU811  SER814 

> <Gold.Protein.RotatedAtoms>
  152.2360  134.8276  160.0466 H   0  0  0  0  0  0  0  0  0  0  0  0  # atno 6907 bound_to 6896
  151.9008  133.3532  159.3838 H   0  0  0  0  0  0  0  0  0  0  0  0  # atno 6908 bound_to 6896
  150.7039  134.4756  159.5490 H   0  0  0  0  0  0  0  0  0  0  0  0  # atno 6909 bound_to 6896
  145.6360  140.9324  143.1061 H   0  0  0  0  0  0  0  0  0  0  0  0  # atno 7974 bound_to 7965
  154.8579  140.0428  157.1646 H   0  0  0  0  0  0  0  0  0  0  0  0  # atno 8008 bound_to 7997
  154.8871  140.2981  155.5371 H   0  0  0  0  0  0  0  0  0  0  0  0  # atno 8009 bound_to 7997
  156.2998  140.2400  156.3882 H   0  0  0  0  0  0  0  0  0  0  0  0  # atno 8010 bound_to 7997
  140.4970  143.2368  151.7814 H   0  0  0  0  0  0  0  0  0  0  0  0  # atno 10167 bound_to 10162
  156.2630  130.7221  151.1161 H   0  0  0  0  0  0  0  0  0  0  0  0  # atno 10718 bound_to 10713
  154.1145  135.2837  155.3223 H   0  0  0  0  0  0  0  0  0  0  0  0  # atno 10763 bound_to 10752
  154.6466  135.5383  153.7855 H   0  0  0  0  0  0  0  0  0  0  0  0  # atno 10764 bound_to 10752
  153.0334  135.6499  154.1302 H   0  0  0  0  0  0  0  0  0  0  0  0  # atno 10765 bound_to 10752
  140.2257  134.3587  155.7985 H   0  0  0  0  0  0  0  0  0  0  0  0  # atno 11005 bound_to 11000
  144.7175  139.8144  143.7393 LP  0  0  0  0  0  0  0  0  0  0  0  0  # atno 17320 bound_to 7965
  146.1319  139.4356  143.0163 LP  0  0  0  0  0  0  0  0  0  0  0  0  # atno 17321 bound_to 7965
  139.4863  144.4573  151.9583 LP  0  0  0  0  0  0  0  0  0  0  0  0  # atno 17342 bound_to 10162
  140.3661  144.2913  150.5926 LP  0  0  0  0  0  0  0  0  0  0  0  0  # atno 17343 bound_to 10162
  157.7257  131.0651  150.5941 LP  0  0  0  0  0  0  0  0  0  0  0  0  # atno 17370 bound_to 10713
  156.6030  130.4359  149.5889 LP  0  0  0  0  0  0  0  0  0  0  0  0  # atno 17371 bound_to 10713
  141.2221  133.7218  156.8649 LP  0  0  0  0  0  0  0  0  0  0  0  0  # atno 17394 bound_to 11000
  140.1803  134.9038  157.2940 LP  0  0  0  0  0  0  0  0  0  0  0  0  # atno 17395 bound_to 11000

$$$$
