AV-unprocessed.smi:490|AV-procd|sdf|2704|dock6
  -GOLD-   2262023143D 1   1.00000     0.00000
 Structure written by MMmdl.
 49 51  0  0  0  0  0  0  0  0  1 V2000
  151.8684  144.9616  160.9020 C   0  0  0  0  0  0  0  0  0  0  0  0
  152.2863  143.5934  160.3908 C   0  0  0  0  0  0  0  0  0  0  0  0
  153.0280  142.7443  161.2370 C   0  0  0  0  0  0  0  0  0  0  0  0
  153.4289  141.4715  160.7949 C   0  0  0  0  0  0  0  0  0  0  0  0
  153.0815  141.0292  159.5040 C   0  0  0  0  0  0  0  0  0  0  0  0
  153.5161  139.6526  159.0372 C   0  0  0  0  0  0  0  0  0  0  0  0
  152.3254  141.8661  158.6528 C   0  0  0  0  0  0  0  0  0  0  0  0
  151.9865  141.4097  157.4040 O   0  0  0  0  0  0  0  0  0  0  0  0
  151.0070  140.3795  157.4154 C   0  0  0  0  0  0  0  0  0  0  0  0
  149.8889  140.7454  156.4214 C   0  0  1  0  0  0  0  0  0  0  0  0
  149.5088  142.0866  156.6480 O   0  0  0  0  0  0  0  0  0  0  0  0
  150.2942  140.6131  154.9373 C   0  0  0  0  0  0  0  0  0  0  0  0
  150.6465  139.2481  154.5630 N   0  0  0  0  0  0  0  0  0  0  0  0
  151.8433  138.7853  154.1192 C   0  0  0  0  0  0  0  0  0  0  0  0
  153.0442  139.6699  153.9746 C   0  0  0  0  0  0  0  0  0  0  0  0
  154.0859  139.3215  154.8610 O   0  0  0  0  0  0  0  0  0  0  0  0
  151.8921  137.4849  153.8292 N   0  0  0  0  0  0  0  0  0  0  0  0
  150.6137  137.0584  154.1289 C   0  0  0  0  0  0  0  0  0  0  0  0
  150.0293  135.7754  154.0322 C   0  0  0  0  0  0  0  0  0  0  0  0
  148.6834  135.5743  154.4015 C   0  0  0  0  0  0  0  0  0  0  0  0
  147.9050  136.6504  154.8743 C   0  0  0  0  0  0  0  0  0  0  0  0
  148.4680  137.9368  154.9783 C   0  0  0  0  0  0  0  0  0  0  0  0
  149.8107  138.1346  154.6021 C   0  0  0  0  0  0  0  0  0  0  0  0
  151.9418  143.1623  159.0854 C   0  0  0  0  0  0  0  0  0  0  0  0
  151.1654  144.0894  158.1583 C   0  0  0  0  0  0  0  0  0  0  0  0
  152.1255  145.0885  161.9540 H   0  0  0  0  0  0  0  0  0  0  0  0
  150.7905  145.0947  160.8049 H   0  0  0  0  0  0  0  0  0  0  0  0
  152.3686  145.7488  160.3378 H   0  0  0  0  0  0  0  0  0  0  0  0
  153.2976  143.0671  162.2319 H   0  0  0  0  0  0  0  0  0  0  0  0
  154.0019  140.8356  161.4540 H   0  0  0  0  0  0  0  0  0  0  0  0
  154.0454  139.7232  158.0867 H   0  0  0  0  0  0  0  0  0  0  0  0
  152.6485  139.0072  158.9012 H   0  0  0  0  0  0  0  0  0  0  0  0
  154.1818  139.1792  159.7590 H   0  0  0  0  0  0  0  0  0  0  0  0
  151.4576  139.4150  157.1770 H   0  0  0  0  0  0  0  0  0  0  0  0
  150.6012  140.2813  158.4199 H   0  0  0  0  0  0  0  0  0  0  0  0
  149.0209  140.1143  156.6097 H   0  0  0  0  0  0  0  0  0  0  0  0
  149.7643  142.6003  155.8969 H   0  0  0  0  0  0  0  0  0  0  0  0
  149.4802  140.9459  154.2928 H   0  0  0  0  0  0  0  0  0  0  0  0
  151.1383  141.2673  154.7160 H   0  0  0  0  0  0  0  0  0  0  0  0
  153.4205  139.6012  152.9532 H   0  0  0  0  0  0  0  0  0  0  0  0
  152.7673  140.7108  154.1341 H   0  0  0  0  0  0  0  0  0  0  0  0
  154.2197  138.3873  154.8140 H   0  0  0  0  0  0  0  0  0  0  0  0
  150.6182  134.9444  153.6730 H   0  0  0  0  0  0  0  0  0  0  0  0
  148.2464  134.5897  154.3227 H   0  0  0  0  0  0  0  0  0  0  0  0
  146.8748  136.4881  155.1554 H   0  0  0  0  0  0  0  0  0  0  0  0
  147.8714  138.7633  155.3351 H   0  0  0  0  0  0  0  0  0  0  0  0
  151.1481  143.7317  157.1293 H   0  0  0  0  0  0  0  0  0  0  0  0
  151.6128  145.0830  158.1412 H   0  0  0  0  0  0  0  0  0  0  0  0
  150.1345  144.1829  158.4997 H   0  0  0  0  0  0  0  0  0  0  0  0
  1  2  1  0  0  0  0
  1 26  1  0  0  0  0
  1 27  1  0  0  0  0
  1 28  1  0  0  0  0
  2 24  1  0  0  0  0
  2  3  2  0  0  0  0
  3  4  1  0  0  0  0
  3 29  1  0  0  0  0
  4  5  2  0  0  0  0
  4 30  1  0  0  0  0
  5  6  1  0  0  0  0
  5  7  1  0  0  0  0
  6 31  1  0  0  0  0
  6 32  1  0  0  0  0
  6 33  1  0  0  0  0
  7  8  1  0  0  0  0
  7 24  2  0  0  0  0
  8  9  1  0  0  0  0
  9 10  1  0  0  0  0
  9 34  1  0  0  0  0
  9 35  1  0  0  0  0
 10 11  1  0  0  0  0
 10 12  1  0  0  0  0
 10 36  1  0  0  0  0
 11 37  1  0  0  0  0
 12 13  1  0  0  0  0
 12 38  1  0  0  0  0
 12 39  1  0  0  0  0
 13 23  1  0  0  0  0
 13 14  1  0  0  0  0
 14 15  1  0  0  0  0
 14 17  2  0  0  0  0
 15 16  1  0  0  0  0
 15 40  1  0  0  0  0
 15 41  1  0  0  0  0
 16 42  1  0  0  0  0
 17 18  1  0  0  0  0
 18 23  2  0  0  0  0
 18 19  1  0  0  0  0
 19 20  2  0  0  0  0
 19 43  1  0  0  0  0
 20 21  1  0  0  0  0
 20 44  1  0  0  0  0
 21 22  2  0  0  0  0
 21 45  1  0  0  0  0
 22 23  1  0  0  0  0
 22 46  1  0  0  0  0
 24 25  1  0  0  0  0
 25 47  1  0  0  0  0
 25 48  1  0  0  0  0
 25 49  1  0  0  0  0
M  END
> <s_m_source_file>
AV-unprocessed.smi

> <i_m_source_file_index>
490

> <i_lp_mmshare_version>
43012

> <i_f3d_flags>
0

> <s_epik_input>
W0NIM11jMVtjSF1bY0hdYyhbQ0gzXSljKGMxW0NIM10pT1tDSDJdW0NASF0oW09IXSlbQ0gyXW4oYyhuMilbQ0gyXVtPSF0pYyhjMjMpW2NIXVtjSF1bY0hdW2NIXTM=

> <s_epik_cmdline>
J2VwaWtfcHl0aG9uJywgJy1waCcsICc3LjAnLCAnLXRuJywgJzgnLCAnLW1hJywgJzIwMCcsICctbWV0YWxfYmluZGluZycsICctaW1hZScsICc8aW5maWxlLm1hZT4nLCAnLW9tYWUnLCAnPG91dGZpbGUubWFlPic=

> <r_lp_tautomer_probability>
1

> <r_epik_Ionization_Penalty>
0.0555874

> <r_epik_Ionization_Penalty_Charging>
0

> <r_epik_Ionization_Penalty_Neutral>
0.0555874

> <r_epik_State_Penalty>
0.0478234

> <r_epik_Charging_Adjusted_Penalty>
0.0478234

> <i_epik_Tot_Q>
0

> <i_epik_Tot_abs_Q>
0

> <r_epik_Metal_State_Penalty>
4.98044e-05

> <b_epik_Metal_Only>
0

> <s_lp_Force_Field>
OPLS_2005

> <r_lp_Energy>
21.221

> <b_lp_Chiralities_Consistent>
1

> <s_lp_Variant>
AV-unprocessed.smi:490-2

> <Gold.Version>
5.8.1

> <Gold.Id.Protein>
6NUR|6NUR_protein|mol2

> <Gold.PLP.Fitness>
55.0309

> <Gold.PLP.PLP>
-51.2457

> <Gold.PLP.part.hbond>
-2.8358

> <Gold.PLP.part.metal>
0.0000

> <Gold.PLP.part.buried>
-4.0338

> <Gold.PLP.part.nonpolar>
-45.4357

> <Gold.PLP.part.repulsive>
0.1380

> <Gold.PLP.ligand.clash>
0.0000

> <Gold.PLP.ligand.torsion>
0.5677

> <Gold.PLP.Chemscore.Hbond>
1.5600

> <Gold.PLP.Chemscore.CHOScore>
0.0000

> <Gold.PLP.Chemscore.Metal>
0.0000

> <Gold.Chemscore.Hbonds>
donor molecule, donor type, donor heavy atom, donor atom, acceptor molecule, acceptor atom, score
      L1  H    11    37       P1  8028  0.12
      P1  H  7997  8009       L1    16  0.43
      P1  H 10752 10763       L1    17  0.31

> <Gold.PLP.Chemscore.Internal.Correction>
0.2407

> <Gold.Rescore>
     Score         DG    S(hbond)    S(metal)    S(lipo)     H(rot)  DE(clash)    DE(int)     intcor
     17.91     -18.79       1.51        0.00     134.72       2.93       0.25       0.62       ----

> <Gold.Chemscore.Fitness>
17.9110

> <Gold.Chemscore.DG>
-18.7883

> <Gold.Chemscore.ZeroCoef>
-5.4800

> <Gold.Chemscore.Hbond>
1.5095

> <Gold.Chemscore.Metal>
0.0000

> <Gold.Chemscore.Lipo>
134.7172

> <Gold.Chemscore.Internal_Hbond>
0.0000

> <Gold.Chemscore.DEClash>
0.2526

> <Gold.Chemscore.DEInternal>
0.6247

> <Gold.Chemscore.Rot>
2.9279

> <Gold.Chemscore.Internal.Correction>
   9.000000E+99

> <Gold.Chemscore.Hbonds>
donor molecule, donor type, donor heavy atom, donor atom, acceptor molecule, acceptor atom, score
      L1  H    11    37       P1  8028  0.12
      P1  H  7997  8009       L1    16  0.42
      P1  H 10752 10763       L1    17  0.05

> <Gold.Chemscore.Hbond.Weighted>
-5.0418

> <Gold.Chemscore.Metal.Weighted>
-0.0000

> <Gold.Chemscore.Lipo.Weighted>
-15.7619

> <Gold.Chemscore.Internal_Hbond.Weighted>
0.0000

> <Gold.Chemscore.DEClash.Weighted>
0.2526

> <Gold.Chemscore.DEInternal.Weighted>
0.6247

> <Gold.Chemscore.Rot.Weighted>
7.4954

> <Gold.Chemscore.Internal.Correction.Weighted>
   9.000000E+99

> <Gold.Protein.RotatedTorsions>
[ 6907 6896 6895 6894 ] final   30.88 input  -60.11 | X-H torsion
[ 7974 7965 7964 7962 ] final -166.44 input  175.53 | X-H torsion
[ 8008 7997 7996 7995 ] final -154.95 input   59.86 | X-H torsion
[ 10167 10162 10161 10158 ] final  151.70 input  -65.29 | X-H torsion
[ 10718 10713 10712 10709 ] final   43.58 input   66.30 | X-H torsion
[ 10763 10752 10751 10750 ] final   54.64 input  -60.55 | X-H torsion
[ 11005 11000 10999 10996 ] final  -52.28 input  -57.11 | X-H torsion

> <Gold.Protein.ActiveResidues>
 VAL166  LYS551  ARG553  GLY616  TRP617  ASP618  TYR619  PRO620  LYS621  CYS622 
 ASP623  PHE694  ASN695  SER759  ASP760  ASP761  ALA762  ILE779  LEU786  VAL792 
 PHE793  MET794  SER795  GLU796  ALA797  LYS798  CYS799  TRP800  GLU811  SER814 

> <Gold.Protein.RotatedAtoms>
  152.0523  134.9646  160.0574 H   0  0  0  0  0  0  0  0  0  0  0  0  # atno 6907 bound_to 6896
  152.1042  133.4261  159.4609 H   0  0  0  0  0  0  0  0  0  0  0  0  # atno 6908 bound_to 6896
  150.6840  134.2643  159.4605 H   0  0  0  0  0  0  0  0  0  0  0  0  # atno 6909 bound_to 6896
  144.7245  140.2666  143.6257 H   0  0  0  0  0  0  0  0  0  0  0  0  # atno 7974 bound_to 7965
  155.6943  140.0759  157.2435 H   0  0  0  0  0  0  0  0  0  0  0  0  # atno 8008 bound_to 7997
  154.4083  140.1659  156.2174 H   0  0  0  0  0  0  0  0  0  0  0  0  # atno 8009 bound_to 7997
  155.9424  140.3383  155.6341 H   0  0  0  0  0  0  0  0  0  0  0  0  # atno 8010 bound_to 7997
  139.4838  144.5419  151.7550 H   0  0  0  0  0  0  0  0  0  0  0  0  # atno 10167 bound_to 10162
  157.4175  130.7950  149.7485 H   0  0  0  0  0  0  0  0  0  0  0  0  # atno 10718 bound_to 10713
  152.9807  135.5738  154.4938 H   0  0  0  0  0  0  0  0  0  0  0  0  # atno 10763 bound_to 10752
  154.4468  135.2777  155.1811 H   0  0  0  0  0  0  0  0  0  0  0  0  # atno 10764 bound_to 10752
  154.3456  135.6220  153.5671 H   0  0  0  0  0  0  0  0  0  0  0  0  # atno 10765 bound_to 10752
  141.0916  133.6632  156.4001 H   0  0  0  0  0  0  0  0  0  0  0  0  # atno 11005 bound_to 11000
  145.8084  139.1993  143.2007 LP  0  0  0  0  0  0  0  0  0  0  0  0  # atno 17320 bound_to 7965
  146.0617  140.7964  142.9731 LP  0  0  0  0  0  0  0  0  0  0  0  0  # atno 17321 bound_to 7965
  140.4960  144.1240  150.5960 LP  0  0  0  0  0  0  0  0  0  0  0  0  # atno 17342 bound_to 10162
  140.4117  143.2654  151.9825 LP  0  0  0  0  0  0  0  0  0  0  0  0  # atno 17343 bound_to 10162
  155.9870  130.3970  150.3187 LP  0  0  0  0  0  0  0  0  0  0  0  0  # atno 17370 bound_to 10713
  157.1331  131.0277  151.2960 LP  0  0  0  0  0  0  0  0  0  0  0  0  # atno 17371 bound_to 10713
  140.5238  134.6278  157.5327 LP  0  0  0  0  0  0  0  0  0  0  0  0  # atno 17394 bound_to 11000
  139.9743  134.7241  155.9980 LP  0  0  0  0  0  0  0  0  0  0  0  0  # atno 17395 bound_to 11000

$$$$
