#       Name:                AV-unprocessed.smi:1824
#       Creating user name   scv26
#       Creation time:       Fri Mar 27 09:06:47 2020


#       File generated by GOLD software.
#

@<TRIPOS>MOLECULE
AV-unprocessed.smi:1824
    50    52     1
SMALL
NO_CHARGES


@<TRIPOS>ATOM
      1 ****        -5.0243   2.2074   1.0173 C.3            1 S1                 0.0000
      2 ****        -3.5461   2.0997   0.6284 C.3            1 S1                 0.0000
      3 ****        -3.1291   0.6476   0.3334 C.3            1 S1                 0.0000
      4 ****        -1.7460   0.5580  -0.1173 N.3            1 S1                 0.0000
      5 ****        -1.3562  -0.8332  -0.3470 C.3            1 S1                 0.0000
      6 ****         0.1477  -1.0582  -0.6137 C.3            1 S1                 0.0000
      7 ****         0.3777  -1.0536  -2.0104 O.3            1 S1                 0.0000
      8 ****         0.6405  -2.4011  -0.0392 C.3            1 S1                 0.0000
      9 ****         2.0587  -2.6165  -0.2663 N.pl3          1 S1                 0.0000
     10 ****         2.6236  -3.4305  -1.1790 C.2            1 S1                 0.0000
     11 ****         3.9524  -3.4764  -1.2149 N.2            1 S1                 0.0000
     12 ****         4.2901  -2.5888  -0.2077 C.ar           1 S1                 0.0000
     13 ****         5.5563  -2.1798   0.2681 C.ar           1 S1                 0.0000
     14 ****         5.6571  -1.2488   1.3231 C.ar           1 S1                 0.0000
     15 ****         6.8785  -0.8680   1.7674 F              1 S1                 0.0000
     16 ****         4.4946  -0.7132   1.9169 C.ar           1 S1                 0.0000
     17 ****         4.6002   0.1802   2.9292 F              1 S1                 0.0000
     18 ****         3.2221  -1.1053   1.4592 C.ar           1 S1                 0.0000
     19 ****         3.1270  -2.0345   0.4069 C.ar           1 S1                 0.0000
     20 ****        -1.5789   1.3917  -1.3055 C.3            1 S1                 0.0000
     21 ****        -2.0137   2.8528  -1.0745 C.3            1 S1                 0.0000
     22 ****        -1.0190   3.6542  -0.2176 C.3            1 S1                 0.0000
     23 ****        -3.3357   2.8982  -0.5348 O.3            1 S1                 0.0000
     24 ****        -5.2389   1.6224   1.9118 H              1 S1                 0.0000
     25 ****        -5.6703   1.8449   0.2172 H              1 S1                 0.0000
     26 ****        -5.2982   3.2424   1.2235 H              1 S1                 0.0000
     27 ****        -2.9463   2.4914   1.4504 H              1 S1                 0.0000
     28 ****        -3.2636   0.0476   1.2342 H              1 S1                 0.0000
     29 ****        -3.7912   0.2243  -0.4238 H              1 S1                 0.0000
     30 ****        -1.6142  -1.3955   0.5515 H              1 S1                 0.0000
     31 ****        -1.9576  -1.2739  -1.1438 H              1 S1                 0.0000
     32 ****         0.7270  -0.2516  -0.1619 H              1 S1                 0.0000
     33 ****        -0.1259  -1.7513  -2.4006 H              1 S1                 0.0000
     34 ****         0.4633  -2.4386   1.0364 H              1 S1                 0.0000
     35 ****         0.0842  -3.2320  -0.4761 H              1 S1                 0.0000
     36 ****         2.0254  -4.0212  -1.8578 H              1 S1                 0.0000
     37 ****         6.4527  -2.5827  -0.1793 H              1 S1                 0.0000
     38 ****         2.3305  -0.6958   1.9103 H              1 S1                 0.0000
     39 ****        -0.5405   1.3813  -1.6355 H              1 S1                 0.0000
     40 ****        -2.1663   0.9742  -2.1248 H              1 S1                 0.0000
     41 ****        -2.0634   3.3446  -2.0463 H              1 S1                 0.0000
     42 ****        -0.0428   3.7018  -0.7005 H              1 S1                 0.0000
     43 ****        -0.8731   3.2087   0.7661 H              1 S1                 0.0000
     44 ****        -1.3662   4.6774  -0.0734 H              1 S1                 0.0000
     45 ****        -1.1339   0.9016   0.5949 LP             1 S1                 0.0000
     46 ****         1.3504  -1.1976  -2.1923 LP             1 S1                 0.0000
     47 ****         0.0928  -0.1760  -2.3960 LP             1 S1                 0.0000
     48 ****         4.5500  -4.0112  -1.8122 LP             1 S1                 0.0000
     49 ****        -3.5409   3.8481  -0.2989 LP             1 S1                 0.0000
     50 ****        -3.9695   2.5862  -1.2426 LP             1 S1                 0.0000
@<TRIPOS>BOND
    1    1    2 1     
    2    1   24 1     
    3    1   25 1     
    4    1   26 1     
    5    2   23 1     
    6    2    3 1     
    7    2   27 1     
    8    3    4 1     
    9    3   28 1     
   10    3   29 1     
   11    4    5 1     
   12    4   20 1     
   13    5    6 1     
   14    5   30 1     
   15    5   31 1     
   16    6    7 1     
   17    6    8 1     
   18    6   32 1     
   19    7   33 1     
   20    8    9 1     
   21    8   34 1     
   22    8   35 1     
   23    9   19 1     
   24    9   10 1     
   25   10   11 2     
   26   10   36 1     
   27   11   12 1     
   28   12   19 ar    
   29   12   13 ar    
   30   13   14 ar    
   31   13   37 1     
   32   14   15 1     
   33   14   16 ar    
   34   16   17 1     
   35   16   18 ar    
   36   18   19 ar    
   37   18   38 1     
   38   20   21 1     
   39   20   39 1     
   40   20   40 1     
   41   21   22 1     
   42   21   23 1     
   43   21   41 1     
   44   22   42 1     
   45   22   43 1     
   46   22   44 1     
   47    4   45 1     
   48    7   46 1     
   49    7   47 1     
   50   11   48 1     
   51   23   49 1     
   52   23   50 1     
@<TRIPOS>SUBSTRUCTURE
      1 S1             1
@<TRIPOS>SET
LONE_PAIRS      STATIC     ATOMS    <user>   **** ""
6 45 46 47 48 49 50
DONOR_HYDROGENS      STATIC     ATOMS    <user>   **** ""
1 33
ATOM$BLUE        STATIC     ATOMS    COLORGROUP SYSTEM
6 45 46 47 48 49 50
ATOM$RED        STATIC     ATOMS    COLORGROUP SYSTEM
1 33
