AV-unprocessed.smi:203|AV-procd|sdf|1596|dock8
  -GOLD-   2262019503D 1   1.00000     0.00000
 Structure written by MMmdl.
 57 61  0  0  0  0  0  0  0  0  1 V2000
  146.4402  136.9082  156.5937 O   0  0  0  0  0  0  0  0  0  0  0  0
  147.1484  136.1453  155.9411 C   0  0  0  0  0  0  0  0  0  0  0  0
  148.6098  136.4187  155.6286 C   0  0  0  0  0  0  0  0  0  0  0  0
  149.1070  135.0910  155.0230 C   0  0  1  0  0  0  0  0  0  0  0  0
  150.1193  134.3208  155.9294 C   0  0  1  0  0  0  0  0  0  0  0  0
  150.1505  132.7974  155.6340 C   0  0  0  0  0  0  0  0  0  0  0  0
  151.1524  132.0625  156.5341 C   0  0  0  0  0  0  0  0  0  0  0  0
  152.5417  132.6922  156.3907 C   0  0  0  0  0  0  0  0  0  0  0  0
  152.4806  134.1938  156.6984 C   0  0  0  0  0  0  0  0  0  0  0  0
  151.4866  134.8684  155.8638 N   0  0  0  0  0  0  0  0  0  0  0  0
  151.6115  136.2094  155.9801 C   0  0  0  0  0  0  0  0  0  0  0  0
  151.8467  136.9085  154.8429 N   0  0  0  0  0  0  0  0  0  0  0  0
  151.9797  138.2374  154.8924 C   0  0  0  0  0  0  0  0  0  0  0  0
  151.9171  139.0443  155.9540 N   0  0  0  0  0  0  0  0  0  0  0  0
  151.6870  138.3409  157.0997 C   0  0  0  0  0  0  0  0  0  0  0  0
  151.5248  136.9311  157.2040 C   0  0  0  0  0  0  0  0  0  0  0  0
  151.3118  136.5747  158.5302 N   0  0  0  0  0  0  0  0  0  0  0  0
  151.3429  137.7101  159.1734 C   0  0  0  0  0  0  0  0  0  0  0  0
  151.5667  138.8207  158.3918 N   0  0  0  0  0  0  0  0  0  0  0  0
  151.6524  140.1980  158.8469 C   0  0  0  0  0  0  0  0  0  0  0  0
  152.8757  140.4452  159.7557 C   0  0  1  0  0  0  0  0  0  0  0  0
  154.0429  140.1328  159.0197 O   0  0  0  0  0  0  0  0  0  0  0  0
  152.9968  141.9090  160.2266 C   0  0  1  0  0  0  0  0  0  0  0  0
  152.4778  142.9507  159.2344 C   0  0  0  0  0  0  0  0  0  0  0  0
  152.1847  144.1519  160.1153 C   0  0  0  0  0  0  0  0  0  0  0  0
  151.9881  143.5425  161.5058 C   0  0  0  0  0  0  0  0  0  0  0  0
  152.1303  142.1385  161.3284 O   0  0  0  0  0  0  0  0  0  0  0  0
  147.8217  134.2954  154.7020 C   0  0  0  0  0  0  0  0  0  0  0  0
  146.7624  134.9869  155.4107 N   0  0  0  0  0  0  0  0  0  0  0  0
  148.6692  137.2282  154.9000 H   0  0  0  0  0  0  0  0  0  0  0  0
  149.1631  136.7259  156.5162 H   0  0  0  0  0  0  0  0  0  0  0  0
  149.5966  135.3446  154.0824 H   0  0  0  0  0  0  0  0  0  0  0  0
  149.7819  134.4346  156.9599 H   0  0  0  0  0  0  0  0  0  0  0  0
  149.1655  132.3534  155.7735 H   0  0  0  0  0  0  0  0  0  0  0  0
  150.4197  132.6186  154.5927 H   0  0  0  0  0  0  0  0  0  0  0  0
  150.8257  132.1175  157.5733 H   0  0  0  0  0  0  0  0  0  0  0  0
  151.1892  131.0048  156.2716 H   0  0  0  0  0  0  0  0  0  0  0  0
  153.2484  132.2017  157.0604 H   0  0  0  0  0  0  0  0  0  0  0  0
  152.9137  132.5393  155.3768 H   0  0  0  0  0  0  0  0  0  0  0  0
  152.2311  134.3438  157.7498 H   0  0  0  0  0  0  0  0  0  0  0  0
  153.4652  134.6367  156.5393 H   0  0  0  0  0  0  0  0  0  0  0  0
  152.1632  138.7241  153.9457 H   0  0  0  0  0  0  0  0  0  0  0  0
  151.2063  137.7698  160.2434 H   0  0  0  0  0  0  0  0  0  0  0  0
  151.6843  140.8560  157.9775 H   0  0  0  0  0  0  0  0  0  0  0  0
  150.7274  140.4278  159.3762 H   0  0  0  0  0  0  0  0  0  0  0  0
  152.8189  139.7847  160.6219 H   0  0  0  0  0  0  0  0  0  0  0  0
  154.7965  140.3161  159.5597 H   0  0  0  0  0  0  0  0  0  0  0  0
  154.0248  142.1490  160.5064 H   0  0  0  0  0  0  0  0  0  0  0  0
  153.1904  143.1751  158.4402 H   0  0  0  0  0  0  0  0  0  0  0  0
  151.5529  142.6020  158.7725 H   0  0  0  0  0  0  0  0  0  0  0  0
  153.0298  144.8415  160.1231 H   0  0  0  0  0  0  0  0  0  0  0  0
  151.3057  144.6985  159.7727 H   0  0  0  0  0  0  0  0  0  0  0  0
  152.7515  143.9033  162.1967 H   0  0  0  0  0  0  0  0  0  0  0  0
  151.0099  143.7760  161.9272 H   0  0  0  0  0  0  0  0  0  0  0  0
  147.6075  134.3209  153.6328 H   0  0  0  0  0  0  0  0  0  0  0  0
  147.8749  133.2486  155.0021 H   0  0  0  0  0  0  0  0  0  0  0  0
  145.8294  134.6095  155.4956 H   0  0  0  0  0  0  0  0  0  0  0  0
  1  2  2  0  0  0  0
  2 29  1  0  0  0  0
  2  3  1  0  0  0  0
  3  4  1  0  0  0  0
  3 30  1  0  0  0  0
  3 31  1  0  0  0  0
  4  5  1  0  0  0  0
  4 28  1  0  0  0  0
  4 32  1  0  0  0  0
  5 10  1  0  0  0  0
  5  6  1  0  0  0  0
  5 33  1  0  0  0  0
  6  7  1  0  0  0  0
  6 34  1  0  0  0  0
  6 35  1  0  0  0  0
  7  8  1  0  0  0  0
  7 36  1  0  0  0  0
  7 37  1  0  0  0  0
  8  9  1  0  0  0  0
  8 38  1  0  0  0  0
  8 39  1  0  0  0  0
  9 10  1  0  0  0  0
  9 40  1  0  0  0  0
  9 41  1  0  0  0  0
 10 11  1  0  0  0  0
 11 16  1  0  0  0  0
 11 12  2  0  0  0  0
 12 13  1  0  0  0  0
 13 14  2  0  0  0  0
 13 42  1  0  0  0  0
 14 15  1  0  0  0  0
 15 19  1  0  0  0  0
 15 16  2  0  0  0  0
 16 17  1  0  0  0  0
 17 18  2  0  0  0  0
 18 19  1  0  0  0  0
 18 43  1  0  0  0  0
 19 20  1  0  0  0  0
 20 21  1  0  0  0  0
 20 44  1  0  0  0  0
 20 45  1  0  0  0  0
 21 22  1  0  0  0  0
 21 23  1  0  0  0  0
 21 46  1  0  0  0  0
 22 47  1  0  0  0  0
 23 27  1  0  0  0  0
 23 24  1  0  0  0  0
 23 48  1  0  0  0  0
 24 25  1  0  0  0  0
 24 49  1  0  0  0  0
 24 50  1  0  0  0  0
 25 26  1  0  0  0  0
 25 51  1  0  0  0  0
 25 52  1  0  0  0  0
 26 27  1  0  0  0  0
 26 53  1  0  0  0  0
 26 54  1  0  0  0  0
 28 29  1  0  0  0  0
 28 55  1  0  0  0  0
 28 56  1  0  0  0  0
 29 57  1  0  0  0  0
M  END
> <s_m_source_file>
AV-unprocessed.smi

> <i_m_source_file_index>
203

> <i_lp_mmshare_version>
43012

> <i_f3d_flags>
0

> <s_epik_input>
Tz1DMVtDSDJdW0NASF0oW0NIMl1bTkhdMSlbQ0BASF0yW0NIMl1bQ0gyXVtDSDJdW0NIMl1OMmMobltjSF1uMyljKGMzNCluW2NIXW40W0NIMl1bQ0BIXShbT0hdKVtDQEBIXTVbQ0gyXVtDSDJdW0NIMl1PNQ==

> <s_epik_cmdline>
J2VwaWtfcHl0aG9uJywgJy1waCcsICc3LjAnLCAnLXRuJywgJzgnLCAnLW1hJywgJzIwMCcsICctbWV0YWxfYmluZGluZycsICctaW1hZScsICc8aW5maWxlLm1hZT4nLCAnLW9tYWUnLCAnPG91dGZpbGUubWFlPic=

> <r_lp_tautomer_probability>
1

> <r_epik_Ionization_Penalty>
0.00175146

> <r_epik_Ionization_Penalty_Charging>
0

> <r_epik_Ionization_Penalty_Neutral>
0.00175146

> <r_epik_State_Penalty>
0.00109045

> <r_epik_Charging_Adjusted_Penalty>
0.00109045

> <i_epik_Tot_Q>
0

> <i_epik_Tot_abs_Q>
0

> <r_epik_Metal_State_Penalty>
-0

> <b_epik_Metal_Only>
0

> <s_lp_Force_Field>
OPLS_2005

> <r_lp_Energy>
57.4119

> <b_lp_Chiralities_Consistent>
1

> <s_lp_Variant>
AV-unprocessed.smi:203-15

> <Gold.Version>
5.8.1

> <Gold.Id.Protein>
6NUR|6NUR_protein|mol2

> <Gold.PLP.Fitness>
44.8345

> <Gold.PLP.PLP>
-38.3694

> <Gold.PLP.part.hbond>
-4.1444

> <Gold.PLP.part.metal>
0.0000

> <Gold.PLP.part.buried>
-3.6145

> <Gold.PLP.part.nonpolar>
-32.1318

> <Gold.PLP.part.repulsive>
0.1781

> <Gold.PLP.ligand.clash>
0.0000

> <Gold.PLP.ligand.torsion>
1.2236

> <Gold.PLP.Chemscore.Hbond>
2.8484

> <Gold.PLP.Chemscore.CHOScore>
0.0000

> <Gold.PLP.Chemscore.Metal>
0.0000

> <Gold.Chemscore.Hbonds>
donor molecule, donor type, donor heavy atom, donor atom, acceptor molecule, acceptor atom, score
      P1  H  6896  6909       L1    17  0.74
      P1  H  6933  6945       L1    27  0.12
      P1  H  7997  8008       L1    22  0.96
      P1  H 10752 10764       L1    12  0.35

> <Gold.PLP.Chemscore.Internal.Correction>
0.3669

> <Gold.Rescore>
     Score         DG    S(hbond)    S(metal)    S(lipo)     H(rot)  DE(clash)    DE(int)     intcor
     13.10     -15.98       2.05        0.00      90.61       2.72       1.44       1.45       ----

> <Gold.Chemscore.Fitness>
13.0958

> <Gold.Chemscore.DG>
-15.9832

> <Gold.Chemscore.ZeroCoef>
-5.4800

> <Gold.Chemscore.Hbond>
2.0533

> <Gold.Chemscore.Metal>
0.0000

> <Gold.Chemscore.Lipo>
90.6055

> <Gold.Chemscore.Internal_Hbond>
0.0000

> <Gold.Chemscore.DEClash>
1.4405

> <Gold.Chemscore.DEInternal>
1.4469

> <Gold.Chemscore.Rot>
2.7171

> <Gold.Chemscore.Internal.Correction>
   9.000000E+99

> <Gold.Chemscore.Hbonds>
donor molecule, donor type, donor heavy atom, donor atom, acceptor molecule, acceptor atom, score
      P1  H  6896  6909       L1    17  0.43
      P1  H  6933  6945       L1    27  0.01
      P1  H  7997  8008       L1    22  0.32
      P1  H 10752 10764       L1    12  0.01

> <Gold.Chemscore.Hbond.Weighted>
-6.8581

> <Gold.Chemscore.Metal.Weighted>
-0.0000

> <Gold.Chemscore.Lipo.Weighted>
-10.6008

> <Gold.Chemscore.Internal_Hbond.Weighted>
0.0000

> <Gold.Chemscore.DEClash.Weighted>
1.4405

> <Gold.Chemscore.DEInternal.Weighted>
1.4469

> <Gold.Chemscore.Rot.Weighted>
6.9557

> <Gold.Chemscore.Internal.Correction.Weighted>
   9.000000E+99

> <Gold.Protein.RotatedTorsions>
[ 6907 6896 6895 6894 ] final  105.08 input  -60.11 | X-H torsion
[ 7974 7965 7964 7962 ] final  170.47 input  175.53 | X-H torsion
[ 8008 7997 7996 7995 ] final -102.75 input   59.86 | X-H torsion
[ 10167 10162 10161 10158 ] final  174.99 input  -65.29 | X-H torsion
[ 10718 10713 10712 10709 ] final  -55.27 input   66.30 | X-H torsion
[ 10763 10752 10751 10750 ] final  -71.75 input  -60.55 | X-H torsion
[ 11005 11000 10999 10996 ] final   11.83 input  -57.11 | X-H torsion

> <Gold.Protein.ActiveResidues>
 VAL166  LYS551  ARG553  GLY616  TRP617  ASP618  TYR619  PRO620  LYS621  CYS622 
 ASP623  PHE694  ASN695  SER759  ASP760  ASP761  ALA762  ILE779  LEU786  VAL792 
 PHE793  MET794  SER795  GLU796  ALA797  LYS798  CYS799  TRP800  GLU811  SER814 

> <Gold.Protein.RotatedAtoms>
  152.5243  133.9581  159.7703 H   0  0  0  0  0  0  0  0  0  0  0  0  # atno 6907 bound_to 6896
  150.9878  133.6172  159.2720 H   0  0  0  0  0  0  0  0  0  0  0  0  # atno 6908 bound_to 6896
  151.3327  135.0851  159.9397 H   0  0  0  0  0  0  0  0  0  0  0  0  # atno 6909 bound_to 6896
  144.7323  139.9206  143.6420 H   0  0  0  0  0  0  0  0  0  0  0  0  # atno 7974 bound_to 7965
  154.8611  140.0426  157.1665 H   0  0  0  0  0  0  0  0  0  0  0  0  # atno 8008 bound_to 7997
  154.8840  140.2976  155.5388 H   0  0  0  0  0  0  0  0  0  0  0  0  # atno 8009 bound_to 7997
  156.2998  140.2406  156.3846 H   0  0  0  0  0  0  0  0  0  0  0  0  # atno 8010 bound_to 7997
  139.5161  144.3083  152.0315 H   0  0  0  0  0  0  0  0  0  0  0  0  # atno 10167 bound_to 10162
  156.1382  130.4156  150.0149 H   0  0  0  0  0  0  0  0  0  0  0  0  # atno 10718 bound_to 10713
  154.4362  135.5952  153.6100 H   0  0  0  0  0  0  0  0  0  0  0  0  # atno 10763 bound_to 10752
  152.9802  135.5987  154.3779 H   0  0  0  0  0  0  0  0  0  0  0  0  # atno 10764 bound_to 10752
  154.3623  135.2841  155.2292 H   0  0  0  0  0  0  0  0  0  0  0  0  # atno 10765 bound_to 10752
  140.4988  134.0766  155.7788 H   0  0  0  0  0  0  0  0  0  0  0  0  # atno 11005 bound_to 11000
  146.0932  139.3923  143.0393 LP  0  0  0  0  0  0  0  0  0  0  0  0  # atno 17320 bound_to 7965
  145.7682  140.9907  143.1163 LP  0  0  0  0  0  0  0  0  0  0  0  0  # atno 17321 bound_to 7965
  140.2528  144.4150  150.6215 LP  0  0  0  0  0  0  0  0  0  0  0  0  # atno 17342 bound_to 10162
  140.6212  143.2176  151.6689 LP  0  0  0  0  0  0  0  0  0  0  0  0  # atno 17343 bound_to 10162
  156.8042  130.9301  151.3645 LP  0  0  0  0  0  0  0  0  0  0  0  0  # atno 17370 bound_to 10713
  157.6551  130.8918  149.9713 LP  0  0  0  0  0  0  0  0  0  0  0  0  # atno 17371 bound_to 10713
  141.1446  133.9078  157.2246 LP  0  0  0  0  0  0  0  0  0  0  0  0  # atno 17394 bound_to 11000
  139.9725  135.0124  156.9549 LP  0  0  0  0  0  0  0  0  0  0  0  0  # atno 17395 bound_to 11000

$$$$
