AV-unprocessed.smi:1341|AV-procd|sdf|5506|dock5
  -GOLD-   22720 5 93D 1   1.00000     0.00000
 Structure written by MMmdl.
 33 34  0  0  0  0  0  0  0  0  2 V2000
  152.6246  143.7086  158.6217 C   0  0  0  0  0  0  0  0  0  0  0  0
  153.4171  143.2275  159.5940 C   0  0  0  0  0  0  0  0  0  0  0  0
  153.1432  141.9827  160.4144 C   0  0  0  0  0  0  0  0  0  0  0  0
  153.0965  140.7500  159.6349 N   0  5  0  0  0  0  0  0  0  0  0  0
  153.6439  139.5615  160.0257 C   0  0  0  0  0  0  0  0  0  0  0  0
  154.2325  139.2807  161.0757 O   0  0  0  0  0  0  0  0  0  0  0  0
  153.4682  138.4770  158.9874 C   0  0  0  0  0  0  0  0  0  0  0  0
  153.0574  138.8509  157.7489 N   0  0  0  0  0  0  0  0  0  0  0  0
  152.8696  137.9127  156.8155 C   0  0  0  0  0  0  0  0  0  0  0  0
  152.4398  138.3337  155.5506 N   0  0  0  0  0  0  0  0  0  0  0  0
  151.6239  137.4742  154.6948 C   0  0  0  0  0  0  0  0  0  0  0  0
  150.1349  137.8020  154.9107 C   0  0  0  0  0  0  0  0  0  0  0  0
  149.9053  139.1836  154.6391 O   0  0  0  0  0  0  0  0  0  0  0  0
  150.6856  140.0434  155.4681 C   0  0  0  0  0  0  0  0  0  0  0  0
  152.1798  139.7419  155.2537 C   0  0  0  0  0  0  0  0  0  0  0  0
  153.0570  136.6011  157.0006 N   0  0  0  0  0  0  0  0  0  0  0  0
  153.4699  136.1980  158.2197 C   0  0  0  0  0  0  0  0  0  0  0  0
  153.6970  137.1041  159.2734 C   0  0  0  0  0  0  0  0  0  0  0  0
  154.2592  136.5089  160.7989 Cl  0  0  0  0  0  0  0  0  0  0  0  0
  151.6981  143.2280  158.3385 H   0  0  0  0  0  0  0  0  0  0  0  0
  152.9005  144.6055  158.0875 H   0  0  0  0  0  0  0  0  0  0  0  0
  154.3314  143.7525  159.8290 H   0  0  0  0  0  0  0  0  0  0  0  0
  153.9320  141.9278  161.1646 H   0  0  0  0  0  0  0  0  0  0  0  0
  152.2290  142.1513  160.9860 H   0  0  0  0  0  0  0  0  0  0  0  0
  151.8943  137.6618  153.6552 H   0  0  0  0  0  0  0  0  0  0  0  0
  151.8090  136.4142  154.8651 H   0  0  0  0  0  0  0  0  0  0  0  0
  149.5162  137.2027  154.2427 H   0  0  0  0  0  0  0  0  0  0  0  0
  149.8279  137.5645  155.9306 H   0  0  0  0  0  0  0  0  0  0  0  0
  150.4685  141.0793  155.2080 H   0  0  0  0  0  0  0  0  0  0  0  0
  150.4074  139.9104  156.5149 H   0  0  0  0  0  0  0  0  0  0  0  0
  152.7986  140.4148  155.8475 H   0  0  0  0  0  0  0  0  0  0  0  0
  152.4473  139.9339  154.2142 H   0  0  0  0  0  0  0  0  0  0  0  0
  153.6262  135.1379  158.3540 H   0  0  0  0  0  0  0  0  0  0  0  0
  1  2  2  0  0  0  0
  1 20  1  0  0  0  0
  1 21  1  0  0  0  0
  2  3  1  0  0  0  0
  2 22  1  0  0  0  0
  3  4  1  0  0  0  0
  3 23  1  0  0  0  0
  3 24  1  0  0  0  0
  4  5  1  0  0  0  0
  5  6  2  0  0  0  0
  5  7  1  0  0  0  0
  7 18  1  0  0  0  0
  7  8  2  0  0  0  0
  8  9  1  0  0  0  0
  9 10  1  0  0  0  0
  9 16  2  0  0  0  0
 10 15  1  0  0  0  0
 10 11  1  0  0  0  0
 11 12  1  0  0  0  0
 11 25  1  0  0  0  0
 11 26  1  0  0  0  0
 12 13  1  0  0  0  0
 12 27  1  0  0  0  0
 12 28  1  0  0  0  0
 13 14  1  0  0  0  0
 14 15  1  0  0  0  0
 14 29  1  0  0  0  0
 14 30  1  0  0  0  0
 15 31  1  0  0  0  0
 15 32  1  0  0  0  0
 16 17  1  0  0  0  0
 17 18  2  0  0  0  0
 17 33  1  0  0  0  0
 18 19  1  0  0  0  0
M  CHG  1   4  -1
M  END
> <s_m_source_file>
AV-unprocessed.smi

> <i_m_source_file_index>
1341

> <i_lp_mmshare_version>
43012

> <i_f3d_flags>
0

> <s_epik_input>
W0NIMl09W0NIXVtDSDJdW05IXUMoPU8pYzFuYyhuW2NIXWMxQ2wpTjJbQ0gyXVtDSDJdT1tDSDJdW0NIMl0y

> <s_epik_cmdline>
J2VwaWtfcHl0aG9uJywgJy1waCcsICc3LjAnLCAnLXRuJywgJzgnLCAnLW1hJywgJzIwMCcsICctbWV0YWxfYmluZGluZycsICctaW1hZScsICc8aW5maWxlLm1hZT4nLCAnLW9tYWUnLCAnPG91dGZpbGUubWFlPic=

> <r_lp_tautomer_probability>
1

> <r_epik_Ionization_Penalty>
5.99598

> <r_epik_Ionization_Penalty_Charging>
5.99596

> <r_epik_Ionization_Penalty_Neutral>
2.0749e-05

> <r_epik_State_Penalty>
5.99593

> <r_epik_Charging_Adjusted_Penalty>
11.9919

> <i_epik_Tot_Q>
-1

> <i_epik_Tot_abs_Q>
1

> <r_epik_Metal_State_Penalty>
1.94906

> <b_epik_Metal_Only>
1

> <s_lp_Force_Field>
OPLS_2005

> <r_lp_Energy>
16.4854

> <b_lp_Chiralities_Consistent>
1

> <s_lp_Variant>
AV-unprocessed.smi:1341-2

> <Gold.Version>
5.8.1

> <Gold.Id.Protein>
6NUR|6NUR_protein|mol2

> <Gold.PLP.Fitness>
38.3213

> <Gold.PLP.PLP>
-32.9320

> <Gold.PLP.part.hbond>
-2.0000

> <Gold.PLP.part.metal>
0.0000

> <Gold.PLP.part.buried>
-1.4175

> <Gold.PLP.part.nonpolar>
-30.0431

> <Gold.PLP.part.repulsive>
0.1373

> <Gold.PLP.ligand.clash>
0.0000

> <Gold.PLP.ligand.torsion>
0.3912

> <Gold.PLP.Chemscore.Hbond>
1.9760

> <Gold.PLP.Chemscore.CHOScore>
0.0000

> <Gold.PLP.Chemscore.Metal>
0.0000

> <Gold.Chemscore.Hbonds>
donor molecule, donor type, donor heavy atom, donor atom, acceptor molecule, acceptor atom, score
      P1  H  7997  8008       L1     8  0.94
      P1  H 10752 10763       L1    16  0.78

> <Gold.PLP.Chemscore.Internal.Correction>
0.2438

> <Gold.Rescore>
     Score         DG    S(hbond)    S(metal)    S(lipo)     H(rot)  DE(clash)    DE(int)     intcor
     13.43     -15.32       1.01        0.00      80.58       1.15       0.22       1.67       ----

> <Gold.Chemscore.Fitness>
13.4342

> <Gold.Chemscore.DG>
-15.3237

> <Gold.Chemscore.ZeroCoef>
-5.4800

> <Gold.Chemscore.Hbond>
1.0071

> <Gold.Chemscore.Metal>
0.0000

> <Gold.Chemscore.Lipo>
80.5794

> <Gold.Chemscore.Internal_Hbond>
0.0000

> <Gold.Chemscore.DEClash>
0.2213

> <Gold.Chemscore.DEInternal>
1.6682

> <Gold.Chemscore.Rot>
1.1514

> <Gold.Chemscore.Internal.Correction>
   9.000000E+99

> <Gold.Chemscore.Hbonds>
donor molecule, donor type, donor heavy atom, donor atom, acceptor molecule, acceptor atom, score
      P1  H  7997  8008       L1     8  0.21
      P1  H 10752 10763       L1    16  0.72

> <Gold.Chemscore.Hbond.Weighted>
-3.3636

> <Gold.Chemscore.Metal.Weighted>
-0.0000

> <Gold.Chemscore.Lipo.Weighted>
-9.4278

> <Gold.Chemscore.Internal_Hbond.Weighted>
0.0000

> <Gold.Chemscore.DEClash.Weighted>
0.2213

> <Gold.Chemscore.DEInternal.Weighted>
1.6682

> <Gold.Chemscore.Rot.Weighted>
2.9477

> <Gold.Chemscore.Internal.Correction.Weighted>
   9.000000E+99

> <Gold.Protein.RotatedTorsions>
[ 6907 6896 6895 6894 ] final   23.59 input  -60.11 | X-H torsion
[ 7974 7965 7964 7962 ] final  156.64 input  175.53 | X-H torsion
[ 8008 7997 7996 7995 ] final  -72.77 input   59.86 | X-H torsion
[ 10167 10162 10161 10158 ] final   -4.10 input  -65.29 | X-H torsion
[ 10718 10713 10712 10709 ] final  165.51 input   66.30 | X-H torsion
[ 10763 10752 10751 10750 ] final  118.64 input  -60.55 | X-H torsion
[ 11005 11000 10999 10996 ] final -149.17 input  -57.11 | X-H torsion

> <Gold.Protein.ActiveResidues>
 VAL166  LYS551  ARG553  GLY616  TRP617  ASP618  TYR619  PRO620  LYS621  CYS622 
 ASP623  PHE694  ASN695  SER759  ASP760  ASP761  ALA762  ILE779  LEU786  VAL792 
 PHE793  MET794  SER795  GLU796  ALA797  LYS798  CYS799  TRP800  GLU811  SER814 

> <Gold.Protein.RotatedAtoms>
  151.9446  135.0197  160.0537 H   0  0  0  0  0  0  0  0  0  0  0  0  # atno 6907 bound_to 6896
  152.2006  133.4834  159.5065 H   0  0  0  0  0  0  0  0  0  0  0  0  # atno 6908 bound_to 6896
  150.6954  134.1512  159.4184 H   0  0  0  0  0  0  0  0  0  0  0  0  # atno 6909 bound_to 6896
  144.7951  139.7231  143.6205 H   0  0  0  0  0  0  0  0  0  0  0  0  # atno 7974 bound_to 7965
  154.5193  140.0791  156.8141 H   0  0  0  0  0  0  0  0  0  0  0  0  # atno 8008 bound_to 7997
  155.3612  140.3418  155.4222 H   0  0  0  0  0  0  0  0  0  0  0  0  # atno 8009 bound_to 7997
  156.1663  140.1605  156.8513 H   0  0  0  0  0  0  0  0  0  0  0  0  # atno 8010 bound_to 7997
  140.6915  143.6463  150.8390 H   0  0  0  0  0  0  0  0  0  0  0  0  # atno 10167 bound_to 10162
  157.0791  131.0387  151.2582 H   0  0  0  0  0  0  0  0  0  0  0  0  # atno 10718 bound_to 10713
  153.5708  135.3502  155.2837 H   0  0  0  0  0  0  0  0  0  0  0  0  # atno 10763 bound_to 10752
  154.8682  135.4159  154.2727 H   0  0  0  0  0  0  0  0  0  0  0  0  # atno 10764 bound_to 10752
  153.3493  135.7054  153.6872 H   0  0  0  0  0  0  0  0  0  0  0  0  # atno 10765 bound_to 10752
  140.7535  134.3379  157.5120 H   0  0  0  0  0  0  0  0  0  0  0  0  # atno 11005 bound_to 11000
  146.2216  139.5647  142.9614 LP  0  0  0  0  0  0  0  0  0  0  0  0  # atno 17320 bound_to 7965
  145.5694  141.0396  143.2182 LP  0  0  0  0  0  0  0  0  0  0  0  0  # atno 17321 bound_to 7965
  140.0176  143.5576  152.2814 LP  0  0  0  0  0  0  0  0  0  0  0  0  # atno 17342 bound_to 10162
  139.6323  144.7646  151.2511 LP  0  0  0  0  0  0  0  0  0  0  0  0  # atno 17343 bound_to 10162
  157.4815  130.7768  149.7418 LP  0  0  0  0  0  0  0  0  0  0  0  0  # atno 17370 bound_to 10713
  155.9928  130.3928  150.2924 LP  0  0  0  0  0  0  0  0  0  0  0  0  # atno 17371 bound_to 10713
  139.8783  134.9157  156.3137 LP  0  0  0  0  0  0  0  0  0  0  0  0  # atno 17394 bound_to 11000
  140.9729  133.7316  156.0560 LP  0  0  0  0  0  0  0  0  0  0  0  0  # atno 17395 bound_to 11000

$$$$
