AV-unprocessed.smi:2588|AV-procd|sdf|10150|dock5
  -GOLD-   2272014163D 1   1.00000     0.00000
 Structure written by MMmdl.
 39 40  0  0  0  0  0  0  0  0  1 V2000
  152.0740  144.8587  158.5998 C   0  0  0  0  0  0  0  0  0  0  0  0
  151.0650  143.8905  159.2571 C   0  0  0  0  0  0  0  0  0  0  0  0
  149.9470  144.7326  159.9123 C   0  0  0  0  0  0  0  0  0  0  0  0
  151.7172  142.9896  160.2311 N   0  0  0  0  0  0  0  0  0  0  0  0
  152.2163  143.7324  161.4004 C   0  0  0  0  0  0  0  0  0  0  0  0
  152.8228  142.7906  162.4550 C   0  0  0  0  0  0  0  0  0  0  0  0
  153.9824  141.9760  161.8678 C   0  0  0  0  0  0  0  0  0  0  0  0
  154.4709  140.9913  162.8281 N   0  0  0  0  0  0  0  0  0  0  0  0
  155.5320  140.1912  162.6429 C   0  0  0  0  0  0  0  0  0  0  0  0
  156.2052  140.1918  161.6112 O   0  0  0  0  0  0  0  0  0  0  0  0
  155.8644  139.2348  163.7957 C   0  0  0  0  0  0  0  0  0  0  0  0
  155.8907  139.8987  165.0999 N   0  0  0  0  0  0  0  0  0  0  0  0
  155.4975  141.1993  165.1688 N   0  0  0  0  0  0  0  0  0  0  0  0
  155.5593  141.6451  166.3686 C   0  0  0  0  0  0  0  0  0  0  0  0
  156.1257  140.5051  167.5965 S   0  0  0  0  0  0  0  0  0  0  0  0
  156.2854  139.2971  166.2917 C   0  0  0  0  0  0  0  0  0  0  0  0
  156.6809  138.1472  166.4752 O   0  0  0  0  0  0  0  0  0  0  0  0
  153.4833  141.2729  160.6022 C   0  0  0  0  0  0  0  0  0  0  0  0
  152.8524  142.2772  159.6221 C   0  0  0  0  0  0  0  0  0  0  0  0
  151.5609  145.6191  158.0105 H   0  0  0  0  0  0  0  0  0  0  0  0
  152.7459  144.3537  157.9067 H   0  0  0  0  0  0  0  0  0  0  0  0
  152.6763  145.3764  159.3474 H   0  0  0  0  0  0  0  0  0  0  0  0
  150.6151  143.2855  158.4684 H   0  0  0  0  0  0  0  0  0  0  0  0
  149.5862  145.5031  159.2304 H   0  0  0  0  0  0  0  0  0  0  0  0
  150.3015  145.2348  160.8133 H   0  0  0  0  0  0  0  0  0  0  0  0
  149.0725  144.1374  160.1724 H   0  0  0  0  0  0  0  0  0  0  0  0
  152.9525  144.4744  161.0868 H   0  0  0  0  0  0  0  0  0  0  0  0
  151.4095  144.2709  161.8933 H   0  0  0  0  0  0  0  0  0  0  0  0
  153.1676  143.3746  163.3091 H   0  0  0  0  0  0  0  0  0  0  0  0
  152.0473  142.1215  162.8312 H   0  0  0  0  0  0  0  0  0  0  0  0
  154.7961  142.6503  161.5930 H   0  0  0  0  0  0  0  0  0  0  0  0
  153.9709  140.9214  163.7026 H   0  0  0  0  0  0  0  0  0  0  0  0
  155.1308  138.4274  163.8254 H   0  0  0  0  0  0  0  0  0  0  0  0
  156.8287  138.7674  163.5902 H   0  0  0  0  0  0  0  0  0  0  0  0
  155.2970  142.6513  166.6955 H   0  0  0  0  0  0  0  0  0  0  0  0
  154.3091  140.7538  160.1147 H   0  0  0  0  0  0  0  0  0  0  0  0
  152.7472  140.5101  160.8611 H   0  0  0  0  0  0  0  0  0  0  0  0
  152.5324  141.7057  158.7535 H   0  0  0  0  0  0  0  0  0  0  0  0
  153.6007  142.9925  159.2770 H   0  0  0  0  0  0  0  0  0  0  0  0
  1  2  1  0  0  0  0
  1 20  1  0  0  0  0
  1 21  1  0  0  0  0
  1 22  1  0  0  0  0
  2  3  1  0  0  0  0
  2  4  1  0  0  0  0
  2 23  1  0  0  0  0
  3 24  1  0  0  0  0
  3 25  1  0  0  0  0
  3 26  1  0  0  0  0
  4 19  1  0  0  0  0
  4  5  1  0  0  0  0
  5  6  1  0  0  0  0
  5 27  1  0  0  0  0
  5 28  1  0  0  0  0
  6  7  1  0  0  0  0
  6 29  1  0  0  0  0
  6 30  1  0  0  0  0
  7  8  1  0  0  0  0
  7 18  1  0  0  0  0
  7 31  1  0  0  0  0
  8  9  1  0  0  0  0
  8 32  1  0  0  0  0
  9 10  2  0  0  0  0
  9 11  1  0  0  0  0
 11 12  1  0  0  0  0
 11 33  1  0  0  0  0
 11 34  1  0  0  0  0
 12 16  1  0  0  0  0
 12 13  1  0  0  0  0
 13 14  2  0  0  0  0
 14 15  1  0  0  0  0
 14 35  1  0  0  0  0
 15 16  1  0  0  0  0
 16 17  2  0  0  0  0
 18 19  1  0  0  0  0
 18 36  1  0  0  0  0
 18 37  1  0  0  0  0
 19 38  1  0  0  0  0
 19 39  1  0  0  0  0
M  END
> <s_m_source_file>
AV-unprocessed.smi

> <i_m_source_file_index>
2588

> <i_lp_mmshare_version>
43012

> <i_f3d_flags>
0

> <s_epik_input>
W0NIM11bQ0hdKFtDSDNdKU4xW0NIMl1bQ0gyXVtDSF0oW0NIMl1bQ0gyXTEpW05IXUMoPU8pW0NIMl1uMm5bY0hdc2MyPU8=

> <s_epik_cmdline>
J2VwaWtfcHl0aG9uJywgJy1waCcsICc3LjAnLCAnLXRuJywgJzgnLCAnLW1hJywgJzIwMCcsICctbWV0YWxfYmluZGluZycsICctaW1hZScsICc8aW5maWxlLm1hZT4nLCAnLW9tYWUnLCAnPG91dGZpbGUubWFlPic=

> <r_lp_tautomer_probability>
1

> <r_epik_Ionization_Penalty>
2.47038

> <r_epik_Ionization_Penalty_Charging>
1.38606e-08

> <r_epik_Ionization_Penalty_Neutral>
2.47038

> <r_epik_State_Penalty>
2.63325

> <r_epik_Charging_Adjusted_Penalty>
2.63325

> <i_epik_Tot_Q>
0

> <i_epik_Tot_abs_Q>
0

> <r_epik_Metal_State_Penalty>
2.63325

> <b_epik_Metal_Only>
0

> <s_lp_Force_Field>
OPLS_2005

> <r_lp_Energy>
19.6439

> <b_lp_Chiralities_Consistent>
1

> <s_lp_Variant>
AV-unprocessed.smi:2588-3

> <Gold.Version>
5.8.1

> <Gold.Id.Protein>
6NUR|6NUR_protein|mol2

> <Gold.PLP.Fitness>
41.7256

> <Gold.PLP.PLP>
-42.1836

> <Gold.PLP.part.hbond>
-2.5816

> <Gold.PLP.part.metal>
0.0000

> <Gold.PLP.part.buried>
-3.7288

> <Gold.PLP.part.nonpolar>
-34.8556

> <Gold.PLP.part.repulsive>
0.1213

> <Gold.PLP.ligand.clash>
0.0000

> <Gold.PLP.ligand.torsion>
0.2321

> <Gold.PLP.Chemscore.Hbond>
0.0000

> <Gold.PLP.Chemscore.CHOScore>
0.0000

> <Gold.PLP.Chemscore.Metal>
0.0000

> <Gold.PLP.Chemscore.Internal.Correction>
0.0062

> <Gold.Rescore>
     Score         DG    S(hbond)    S(metal)    S(lipo)     H(rot)  DE(clash)    DE(int)     intcor
     10.54     -12.46       0.00        0.00      99.78       1.83       0.03       1.89       ----

> <Gold.Chemscore.Fitness>
10.5388

> <Gold.Chemscore.DG>
-12.4614

> <Gold.Chemscore.ZeroCoef>
-5.4800

> <Gold.Chemscore.Hbond>
0.0000

> <Gold.Chemscore.Metal>
0.0000

> <Gold.Chemscore.Lipo>
99.7809

> <Gold.Chemscore.Internal_Hbond>
0.0000

> <Gold.Chemscore.DEClash>
0.0303

> <Gold.Chemscore.DEInternal>
1.8922

> <Gold.Chemscore.Rot>
1.8332

> <Gold.Chemscore.Internal.Correction>
   9.000000E+99

> <Gold.Chemscore.Hbond.Weighted>
-0.0000

> <Gold.Chemscore.Metal.Weighted>
-0.0000

> <Gold.Chemscore.Lipo.Weighted>
-11.6744

> <Gold.Chemscore.Internal_Hbond.Weighted>
0.0000

> <Gold.Chemscore.DEClash.Weighted>
0.0303

> <Gold.Chemscore.DEInternal.Weighted>
1.8922

> <Gold.Chemscore.Rot.Weighted>
4.6930

> <Gold.Chemscore.Internal.Correction.Weighted>
   9.000000E+99

> <Gold.Protein.RotatedTorsions>
[ 6907 6896 6895 6894 ] final -120.65 input  -60.11 | X-H torsion
[ 7974 7965 7964 7962 ] final   49.44 input  175.53 | X-H torsion
[ 8008 7997 7996 7995 ] final -168.99 input   59.86 | X-H torsion
[ 10167 10162 10161 10158 ] final   30.33 input  -65.29 | X-H torsion
[ 10718 10713 10712 10709 ] final   64.69 input   66.30 | X-H torsion
[ 10763 10752 10751 10750 ] final  140.47 input  -60.55 | X-H torsion
[ 11005 11000 10999 10996 ] final -120.69 input  -57.11 | X-H torsion

> <Gold.Protein.ActiveResidues>
 VAL166  LYS551  ARG553  GLY616  TRP617  ASP618  TYR619  PRO620  LYS621  CYS622 
 ASP623  PHE694  ASN695  SER759  ASP760  ASP761  ALA762  ILE779  LEU786  VAL792 
 PHE793  MET794  SER795  GLU796  ALA797  LYS798  CYS799  TRP800  GLU811  SER814 

> <Gold.Protein.RotatedAtoms>
  150.8412  133.7933  159.3059 H   0  0  0  0  0  0  0  0  0  0  0  0  # atno 6907 bound_to 6896
  151.5634  135.1063  159.9987 H   0  0  0  0  0  0  0  0  0  0  0  0  # atno 6908 bound_to 6896
  152.4475  133.7523  159.6757 H   0  0  0  0  0  0  0  0  0  0  0  0  # atno 6909 bound_to 6896
  146.0109  139.4542  142.9957 H   0  0  0  0  0  0  0  0  0  0  0  0  # atno 7974 bound_to 7965
  155.8989  140.1037  157.1364 H   0  0  0  0  0  0  0  0  0  0  0  0  # atno 8008 bound_to 7997
  154.4024  140.1296  156.4475 H   0  0  0  0  0  0  0  0  0  0  0  0  # atno 8009 bound_to 7997
  155.7446  140.3466  155.5123 H   0  0  0  0  0  0  0  0  0  0  0  0  # atno 8010 bound_to 7997
  140.4687  144.0796  150.6231 H   0  0  0  0  0  0  0  0  0  0  0  0  # atno 10167 bound_to 10162
  157.6056  130.9174  149.9879 H   0  0  0  0  0  0  0  0  0  0  0  0  # atno 10718 bound_to 10713
  153.9232  135.2998  155.3447 H   0  0  0  0  0  0  0  0  0  0  0  0  # atno 10763 bound_to 10752
  154.7565  135.4955  153.9387 H   0  0  0  0  0  0  0  0  0  0  0  0  # atno 10764 bound_to 10752
  153.1131  135.6764  153.9569 H   0  0  0  0  0  0  0  0  0  0  0  0  # atno 10765 bound_to 10752
  141.0125  134.0243  157.3394 H   0  0  0  0  0  0  0  0  0  0  0  0  # atno 11005 bound_to 11000
  145.7343  141.0031  143.1335 LP  0  0  0  0  0  0  0  0  0  0  0  0  # atno 17320 bound_to 7965
  144.6952  139.9023  143.7459 LP  0  0  0  0  0  0  0  0  0  0  0  0  # atno 17321 bound_to 7965
  140.4004  143.2707  151.9954 LP  0  0  0  0  0  0  0  0  0  0  0  0  # atno 17342 bound_to 10162
  139.4815  144.6002  151.7619 LP  0  0  0  0  0  0  0  0  0  0  0  0  # atno 17343 bound_to 10162
  156.1142  130.3648  149.9997 LP  0  0  0  0  0  0  0  0  0  0  0  0  # atno 17370 bound_to 10713
  156.8089  130.9317  151.3644 LP  0  0  0  0  0  0  0  0  0  0  0  0  # atno 17371 bound_to 10713
  139.9098  135.0188  156.7643 LP  0  0  0  0  0  0  0  0  0  0  0  0  # atno 17394 bound_to 11000
  140.6709  133.9560  155.7856 LP  0  0  0  0  0  0  0  0  0  0  0  0  # atno 17395 bound_to 11000

$$$$
