AV-unprocessed.smi:1417|AV-procd|sdf|5772|dock4
  -GOLD-   22720 5413D 1   1.00000     0.00000
 Structure written by MMmdl.
 39 40  0  0  0  0  0  0  0  0  3 V2000
  137.6453  137.2978  155.0290 C   0  0  0  0  0  0  0  0  0  0  0  0
  139.0469  137.1776  154.5375 C   0  0  0  0  0  0  0  0  0  0  0  0
  139.9497  138.0897  154.0690 C   0  0  0  0  0  0  0  0  0  0  0  0
  141.0922  137.2881  153.7800 C   0  0  0  0  0  0  0  0  0  0  0  0
  142.3285  137.7455  153.2553 N   0  0  0  0  0  0  0  0  0  0  0  0
  143.3905  137.0190  152.8688 C   0  0  0  0  0  0  0  0  0  0  0  0
  143.4634  135.7907  152.8970 O   0  0  0  0  0  0  0  0  0  0  0  0
  144.3850  137.8075  152.4350 N   0  0  0  0  0  0  0  0  0  0  0  0
  145.6752  137.3416  151.9269 C   0  0  2  0  0  0  0  0  0  0  0  0
  146.4218  136.4711  152.9576 C   0  0  0  0  0  0  0  0  0  0  0  0
  146.9334  137.2996  154.1487 C   0  0  0  0  0  0  0  0  0  0  0  0
  147.7939  138.4218  153.6884 N   0  3  2  0  0  0  0  0  0  0  0  0
  148.4329  139.1675  154.8026 C   0  0  0  0  0  0  0  0  0  0  0  0
  149.6139  139.9970  154.2876 C   0  0  0  0  0  0  0  0  0  0  0  0
  149.2214  141.1686  153.7477 N   0  5  0  0  0  0  0  0  0  0  0  0
  150.7568  139.5591  154.3950 O   0  0  0  0  0  0  0  0  0  0  0  0
  147.0743  139.3155  152.7463 C   0  0  0  0  0  0  0  0  0  0  0  0
  146.5569  138.5361  151.5230 C   0  0  0  0  0  0  0  0  0  0  0  0
  140.8957  136.0090  154.0407 N   0  0  0  0  0  0  0  0  0  0  0  0
  139.5873  135.9295  154.5313 O   0  0  0  0  0  0  0  0  0  0  0  0
  137.2900  138.3252  154.9463 H   0  0  0  0  0  0  0  0  0  0  0  0
  137.5760  136.9995  156.0751 H   0  0  0  0  0  0  0  0  0  0  0  0
  136.9762  136.6613  154.4498 H   0  0  0  0  0  0  0  0  0  0  0  0
  139.7991  139.1529  153.9577 H   0  0  0  0  0  0  0  0  0  0  0  0
  142.4072  138.7464  153.1528 H   0  0  0  0  0  0  0  0  0  0  0  0
  144.2327  138.8055  152.4418 H   0  0  0  0  0  0  0  0  0  0  0  0
  145.4859  136.7439  151.0333 H   0  0  0  0  0  0  0  0  0  0  0  0
  145.7859  135.6595  153.3124 H   0  0  0  0  0  0  0  0  0  0  0  0
  147.2720  135.9926  152.4698 H   0  0  0  0  0  0  0  0  0  0  0  0
  146.0943  137.6934  154.7245 H   0  0  0  0  0  0  0  0  0  0  0  0
  147.4930  136.6464  154.8186 H   0  0  0  0  0  0  0  0  0  0  0  0
  147.7177  139.8496  155.2660 H   0  0  0  0  0  0  0  0  0  0  0  0
  148.7575  138.4797  155.5853 H   0  0  0  0  0  0  0  0  0  0  0  0
  148.6175  141.7934  154.2949 H   0  0  0  0  0  0  0  0  0  0  0  0
  146.2488  139.8049  153.2654 H   0  0  0  0  0  0  0  0  0  0  0  0
  147.7454  140.1050  152.4058 H   0  0  0  0  0  0  0  0  0  0  0  0
  147.4107  138.1709  150.9502 H   0  0  0  0  0  0  0  0  0  0  0  0
  146.0094  139.2037  150.8562 H   0  0  0  0  0  0  0  0  0  0  0  0
  148.5577  138.0127  153.1679 H   0  0  0  0  0  0  0  0  0  0  0  0
  1  2  1  0  0  0  0
  1 21  1  0  0  0  0
  1 22  1  0  0  0  0
  1 23  1  0  0  0  0
  2 20  1  0  0  0  0
  2  3  2  0  0  0  0
  3  4  1  0  0  0  0
  3 24  1  0  0  0  0
  4  5  1  0  0  0  0
  4 19  2  0  0  0  0
  5  6  1  0  0  0  0
  5 25  1  0  0  0  0
  6  7  2  0  0  0  0
  6  8  1  0  0  0  0
  8  9  1  0  0  0  0
  8 26  1  0  0  0  0
  9 18  1  0  0  0  0
  9 10  1  0  0  0  0
  9 27  1  0  0  0  0
 10 11  1  0  0  0  0
 10 28  1  0  0  0  0
 10 29  1  0  0  0  0
 11 12  1  0  0  0  0
 11 30  1  0  0  0  0
 11 31  1  0  0  0  0
 12 13  1  0  0  0  0
 12 17  1  0  0  0  0
 12 39  1  0  0  0  0
 13 14  1  0  0  0  0
 13 32  1  0  0  0  0
 13 33  1  0  0  0  0
 14 15  1  0  0  0  0
 14 16  2  0  0  0  0
 15 34  1  0  0  0  0
 17 18  1  0  0  0  0
 17 35  1  0  0  0  0
 17 36  1  0  0  0  0
 18 37  1  0  0  0  0
 18 38  1  0  0  0  0
 19 20  1  0  0  0  0
M  CHG  1  12   1
M  CHG  1  15  -1
M  END
> <s_m_source_file>
AV-unprocessed.smi

> <i_m_source_file_index>
1417

> <i_lp_mmshare_version>
43012

> <i_f3d_flags>
0

> <s_epik_input>
W0NIM11jMVtjSF1jKG5vMSlbTkhdQyg9TylbTkhdW0NIXTJbQ0gyXVtDSDJdTihbQ0gyXVtDSDJdMilbQ0gyXUMoPU8pW05IMl0=

> <s_epik_cmdline>
J2VwaWtfcHl0aG9uJywgJy1waCcsICc3LjAnLCAnLXRuJywgJzgnLCAnLW1hJywgJzIwMCcsICctbWV0YWxfYmluZGluZycsICctaW1hZScsICc8aW5maWxlLm1hZT4nLCAnLW9tYWUnLCAnPG91dGZpbGUubWFlPic=

> <r_epik_Ionization_Penalty>
5.73218

> <r_epik_Ionization_Penalty_Charging>
5.73215

> <r_epik_Ionization_Penalty_Neutral>
3.37968e-05

> <r_epik_State_Penalty>
6.58009

> <r_epik_Charging_Adjusted_Penalty>
12.3122

> <i_epik_Tot_Q>
0

> <i_epik_Tot_abs_Q>
2

> <r_epik_Metal_State_Penalty>
2.55295

> <b_epik_Metal_Only>
1

> <s_lp_Force_Field>
OPLS_2005

> <r_lp_Energy>
7.04924

> <b_lp_Chiralities_Consistent>
1

> <s_lp_Variant>
AV-unprocessed.smi:1417-8

> <Gold.Version>
5.8.1

> <Gold.Id.Protein>
6NUR|6NUR_protein|mol2

> <Gold.PLP.Fitness>
46.1918

> <Gold.PLP.PLP>
-31.0967

> <Gold.PLP.part.hbond>
-9.4324

> <Gold.PLP.part.metal>
0.0000

> <Gold.PLP.part.buried>
1.7534

> <Gold.PLP.part.nonpolar>
-24.2392

> <Gold.PLP.part.repulsive>
0.5181

> <Gold.PLP.ligand.clash>
0.0000

> <Gold.PLP.ligand.torsion>
0.4211

> <Gold.PLP.Chemscore.Hbond>
5.3028

> <Gold.PLP.Chemscore.CHOScore>
0.0000

> <Gold.PLP.Chemscore.Metal>
0.0000

> <Gold.Chemscore.Hbonds>
donor molecule, donor type, donor heavy atom, donor atom, acceptor molecule, acceptor atom, score
      L1  H     5    25       P1 10175  0.59
      L1  H     8    26       P1 10175  1.00
      L1  H    12    39       P1  7948  0.83
      P1  H  7989  7998       L1    16  0.95
      P1  H  8011  8017       L1    15  0.93
      P1  H 11000 11005       L1    20  1.00

> <Gold.PLP.Chemscore.Internal.Correction>
0.0288

> <Gold.Rescore>
     Score         DG    S(hbond)    S(metal)    S(lipo)     H(rot)  DE(clash)    DE(int)     intcor
     13.33     -18.32       3.50        0.00      54.09       2.02       1.41       3.59       ----

> <Gold.Chemscore.Fitness>
13.3288

> <Gold.Chemscore.DG>
-18.3198

> <Gold.Chemscore.ZeroCoef>
-5.4800

> <Gold.Chemscore.Hbond>
3.4959

> <Gold.Chemscore.Metal>
0.0000

> <Gold.Chemscore.Lipo>
54.0902

> <Gold.Chemscore.Internal_Hbond>
0.0000

> <Gold.Chemscore.DEClash>
1.4057

> <Gold.Chemscore.DEInternal>
3.5853

> <Gold.Chemscore.Rot>
2.0176

> <Gold.Chemscore.Internal.Correction>
   9.000000E+99

> <Gold.Chemscore.Hbonds>
donor molecule, donor type, donor heavy atom, donor atom, acceptor molecule, acceptor atom, score
      L1  H     5    25       P1 10175  0.58
      L1  H     8    26       P1 10175  1.00
      L1  H    12    39       P1  7948  0.41
      P1  H  7989  7998       L1    16  0.22
      P1  H  8011  8017       L1    15  0.23
      P1  H 11000 11005       L1    20  0.25

> <Gold.Chemscore.Hbond.Weighted>
-11.6764

> <Gold.Chemscore.Metal.Weighted>
-0.0000

> <Gold.Chemscore.Lipo.Weighted>
-6.3286

> <Gold.Chemscore.Internal_Hbond.Weighted>
0.0000

> <Gold.Chemscore.DEClash.Weighted>
1.4057

> <Gold.Chemscore.DEInternal.Weighted>
3.5853

> <Gold.Chemscore.Rot.Weighted>
5.1651

> <Gold.Chemscore.Internal.Correction.Weighted>
   9.000000E+99

> <Gold.Protein.RotatedTorsions>
[ 6907 6896 6895 6894 ] final  -16.71 input  -60.11 | X-H torsion
[ 7974 7965 7964 7962 ] final -101.54 input  175.53 | X-H torsion
[ 8008 7997 7996 7995 ] final  -69.40 input   59.86 | X-H torsion
[ 10167 10162 10161 10158 ] final   -3.83 input  -65.29 | X-H torsion
[ 10718 10713 10712 10709 ] final   60.36 input   66.30 | X-H torsion
[ 10763 10752 10751 10750 ] final -110.27 input  -60.55 | X-H torsion
[ 11005 11000 10999 10996 ] final   80.22 input  -57.11 | X-H torsion

> <Gold.Protein.ActiveResidues>
 VAL166  LYS551  ARG553  GLY616  TRP617  ASP618  TYR619  PRO620  LYS621  CYS622 
 ASP623  PHE694  ASN695  SER759  ASP760  ASP761  ALA762  ILE779  LEU786  VAL792 
 PHE793  MET794  SER795  GLU796  ALA797  LYS798  CYS799  TRP800  GLU811  SER814 

> <Gold.Protein.RotatedAtoms>
  151.3044  135.0777  159.9249 H   0  0  0  0  0  0  0  0  0  0  0  0  # atno 6907 bound_to 6896
  152.5291  133.9800  159.7812 H   0  0  0  0  0  0  0  0  0  0  0  0  # atno 6908 bound_to 6896
  151.0093  133.5929  159.2715 H   0  0  0  0  0  0  0  0  0  0  0  0  # atno 6909 bound_to 6896
  145.2803  140.9324  143.2936 H   0  0  0  0  0  0  0  0  0  0  0  0  # atno 7974 bound_to 7965
  154.4936  140.0854  156.7648 H   0  0  0  0  0  0  0  0  0  0  0  0  # atno 8008 bound_to 7997
  155.4171  140.3444  155.4250 H   0  0  0  0  0  0  0  0  0  0  0  0  # atno 8009 bound_to 7997
  156.1363  140.1516  156.8977 H   0  0  0  0  0  0  0  0  0  0  0  0  # atno 8010 bound_to 7997
  140.6905  143.6494  150.8364 H   0  0  0  0  0  0  0  0  0  0  0  0  # atno 10167 bound_to 10162
  157.5747  130.8934  149.9326 H   0  0  0  0  0  0  0  0  0  0  0  0  # atno 10718 bound_to 10713
  154.8239  135.4570  154.0860 H   0  0  0  0  0  0  0  0  0  0  0  0  # atno 10763 bound_to 10752
  153.2190  135.6891  153.8029 H   0  0  0  0  0  0  0  0  0  0  0  0  # atno 10764 bound_to 10752
  153.7452  135.3306  155.3288 H   0  0  0  0  0  0  0  0  0  0  0  0  # atno 10765 bound_to 10752
  139.9143  134.7903  156.1880 H   0  0  0  0  0  0  0  0  0  0  0  0  # atno 11005 bound_to 11000
  144.9259  139.4356  143.6519 LP  0  0  0  0  0  0  0  0  0  0  0  0  # atno 17320 bound_to 7965
  146.3218  139.8144  142.8939 LP  0  0  0  0  0  0  0  0  0  0  0  0  # atno 17321 bound_to 7965
  140.0206  143.5546  152.2802 LP  0  0  0  0  0  0  0  0  0  0  0  0  # atno 17342 bound_to 10162
  139.6303  144.7643  151.2550 LP  0  0  0  0  0  0  0  0  0  0  0  0  # atno 17343 bound_to 10162
  156.0791  130.3675  150.0616 LP  0  0  0  0  0  0  0  0  0  0  0  0  # atno 17370 bound_to 10713
  156.8764  130.9542  151.3604 LP  0  0  0  0  0  0  0  0  0  0  0  0  # atno 17371 bound_to 10713
  141.0601  133.6846  156.1936 LP  0  0  0  0  0  0  0  0  0  0  0  0  # atno 17394 bound_to 11000
  140.6674  134.4903  157.5586 LP  0  0  0  0  0  0  0  0  0  0  0  0  # atno 17395 bound_to 11000

$$$$
