AV-unprocessed.smi:3316|AV-procd|sdf|12753|dock4
  -GOLD-   2272019 93D 1   1.00000     0.00000
 Structure written by MMmdl.
 41 43  0  0  0  0  0  0  0  0  2 V2000
  147.6223  140.3607  153.8708 C   0  0  0  0  0  0  0  0  0  0  0  0
  148.1192  141.6103  154.6146 C   0  0  2  0  0  0  0  0  0  0  0  0
  148.7613  141.2427  155.9660 C   0  0  0  0  0  0  0  0  0  0  0  0
  149.8805  142.1461  156.3029 N   0  3  0  0  0  0  0  0  0  0  0  0
  150.3522  142.0229  157.6954 C   0  0  0  0  0  0  0  0  0  0  0  0
  151.8175  142.4766  157.8304 C   0  0  2  0  0  0  0  0  0  0  0  0
  152.4151  142.3298  159.2647 C   0  0  0  0  0  0  0  0  0  0  0  0
  152.9623  143.7455  159.5599 C   0  0  2  0  0  0  0  0  0  0  0  0
  151.7757  144.6737  159.7037 C   0  0  0  0  0  0  0  0  0  0  0  0
  151.2346  144.8155  158.4928 C   0  0  0  0  0  0  0  0  0  0  0  0
  152.0556  143.9802  157.5299 C   0  0  1  0  0  0  0  0  0  0  0  0
  153.4437  144.1441  158.1607 C   0  0  0  0  0  0  0  0  0  0  0  0
  147.0079  142.6421  154.7664 C   0  0  0  0  0  0  0  0  0  0  0  0
  146.3852  143.1965  153.6279 C   0  0  0  0  0  0  0  0  0  0  0  0
  145.3640  144.1499  153.8136 C   0  0  0  0  0  0  0  0  0  0  0  0
  144.9505  144.5656  155.0293 N   0  0  0  0  0  0  0  0  0  0  0  0
  145.5482  144.0323  156.1160 C   0  0  0  0  0  0  0  0  0  0  0  0
  146.5781  143.0734  156.0402 C   0  0  0  0  0  0  0  0  0  0  0  0
  147.2235  140.6220  152.8901 H   0  0  0  0  0  0  0  0  0  0  0  0
  146.8356  139.8470  154.4243 H   0  0  0  0  0  0  0  0  0  0  0  0
  148.4332  139.6488  153.7146 H   0  0  0  0  0  0  0  0  0  0  0  0
  148.8992  142.0553  153.9949 H   0  0  0  0  0  0  0  0  0  0  0  0
  148.0190  141.2756  156.7647 H   0  0  0  0  0  0  0  0  0  0  0  0
  149.1384  140.2198  155.9265 H   0  0  0  0  0  0  0  0  0  0  0  0
  150.6537  141.9460  155.6846 H   0  0  0  0  0  0  0  0  0  0  0  0
  149.7195  142.6395  158.3350 H   0  0  0  0  0  0  0  0  0  0  0  0
  150.2327  140.9898  158.0245 H   0  0  0  0  0  0  0  0  0  0  0  0
  152.4235  141.8940  157.1337 H   0  0  0  0  0  0  0  0  0  0  0  0
  151.6751  142.0242  160.0059 H   0  0  0  0  0  0  0  0  0  0  0  0
  153.2170  141.5904  159.2724 H   0  0  0  0  0  0  0  0  0  0  0  0
  153.7048  143.8233  160.3545 H   0  0  0  0  0  0  0  0  0  0  0  0
  151.4347  145.1000  160.6355 H   0  0  0  0  0  0  0  0  0  0  0  0
  150.3549  145.3816  158.2239 H   0  0  0  0  0  0  0  0  0  0  0  0
  151.9834  144.2814  156.4846 H   0  0  0  0  0  0  0  0  0  0  0  0
  153.8150  145.1700  158.1139 H   0  0  0  0  0  0  0  0  0  0  0  0
  154.2028  143.4770  157.7471 H   0  0  0  0  0  0  0  0  0  0  0  0
  146.6766  142.9001  152.6308 H   0  0  0  0  0  0  0  0  0  0  0  0
  144.8677  144.5911  152.9617 H   0  0  0  0  0  0  0  0  0  0  0  0
  145.1961  144.3812  157.0755 H   0  0  0  0  0  0  0  0  0  0  0  0
  147.0208  142.6802  156.9435 H   0  0  0  0  0  0  0  0  0  0  0  0
  149.5809  143.0983  156.1475 H   0  0  0  0  0  0  0  0  0  0  0  0
  1  2  1  0  0  0  0
  1 19  1  0  0  0  0
  1 20  1  0  0  0  0
  1 21  1  0  0  0  0
  2  3  1  0  0  0  0
  2 13  1  0  0  0  0
  2 22  1  0  0  0  0
  3  4  1  0  0  0  0
  3 23  1  0  0  0  0
  3 24  1  0  0  0  0
  4  5  1  0  0  0  0
  4 25  1  0  0  0  0
  4 41  1  0  0  0  0
  5  6  1  0  0  0  0
  5 26  1  0  0  0  0
  5 27  1  0  0  0  0
  6 11  1  0  0  0  0
  6  7  1  0  0  0  0
  6 28  1  0  0  0  0
  7  8  1  0  0  0  0
  7 29  1  0  0  0  0
  7 30  1  0  0  0  0
  8 12  1  0  0  0  0
  8  9  1  0  0  0  0
  8 31  1  0  0  0  0
  9 10  2  0  0  0  0
  9 32  1  0  0  0  0
 10 11  1  0  0  0  0
 10 33  1  0  0  0  0
 11 12  1  0  0  0  0
 11 34  1  0  0  0  0
 12 35  1  0  0  0  0
 12 36  1  0  0  0  0
 13 18  1  0  0  0  0
 13 14  2  0  0  0  0
 14 15  1  0  0  0  0
 14 37  1  0  0  0  0
 15 16  2  0  0  0  0
 15 38  1  0  0  0  0
 16 17  1  0  0  0  0
 17 18  2  0  0  0  0
 17 39  1  0  0  0  0
 18 40  1  0  0  0  0
M  CHG  1   4   1
M  END
> <s_m_source_file>
AV-unprocessed.smi

> <i_m_source_file_index>
3316

> <i_lp_mmshare_version>
43012

> <i_f3d_flags>
0

> <s_epik_input>
W2NIXTFbY0hdbltjSF1bY0hdYzFbQ0BIXShbQ0gzXSlbQ0gyXVtOSF1bQ0gyXVtDQEhdKFtDSDJdW0NASF0yMylbQ0BIXShbQ0gyXTMpW0NIXT1bQ0hdMg==

> <s_epik_cmdline>
J2VwaWtfcHl0aG9uJywgJy1waCcsICc3LjAnLCAnLXRuJywgJzgnLCAnLW1hJywgJzIwMCcsICctbWV0YWxfYmluZGluZycsICctaW1hZScsICc8aW5maWxlLm1hZT4nLCAnLW9tYWUnLCAnPG91dGZpbGUubWFlPic=

> <r_lp_tautomer_probability>
1

> <r_epik_Ionization_Penalty>
0.00280406

> <r_epik_Ionization_Penalty_Charging>
0.000446589

> <r_epik_Ionization_Penalty_Neutral>
0.00235747

> <r_epik_State_Penalty>
-0

> <r_epik_Charging_Adjusted_Penalty>
0.000446589

> <i_epik_Tot_Q>
1

> <i_epik_Tot_abs_Q>
1

> <r_epik_Metal_State_Penalty>
-0

> <b_epik_Metal_Only>
0

> <s_lp_Force_Field>
OPLS_2005

> <r_lp_Energy>
65.4585

> <b_lp_Chiralities_Consistent>
1

> <s_lp_Variant>
AV-unprocessed.smi:3316-1

> <Gold.Version>
5.8.1

> <Gold.Id.Protein>
6NUR|6NUR_protein|mol2

> <Gold.PLP.Fitness>
50.3969

> <Gold.PLP.PLP>
-43.2430

> <Gold.PLP.part.hbond>
-1.0000

> <Gold.PLP.part.metal>
0.0000

> <Gold.PLP.part.buried>
-4.6908

> <Gold.PLP.part.nonpolar>
-38.4348

> <Gold.PLP.part.repulsive>
0.2139

> <Gold.PLP.ligand.clash>
0.0000

> <Gold.PLP.ligand.torsion>
0.6096

> <Gold.PLP.Chemscore.Hbond>
2.0000

> <Gold.PLP.Chemscore.CHOScore>
0.7504

> <Gold.PLP.Chemscore.Metal>
0.0000

> <Gold.Chemscore.Hbonds>
donor molecule, donor type, donor heavy atom, donor atom, acceptor molecule, acceptor atom, score
      L1  H     4    41       P1  8028  2.00

> <Gold.PLP.Chemscore.Internal.Correction>
0.1221

> <Gold.Rescore>
     Score         DG    S(hbond)    S(metal)    S(lipo)     H(rot)  DE(clash)    DE(int)     intcor
     19.17     -19.82       0.99        0.00     124.16       1.36       0.05       0.60       ----

> <Gold.Chemscore.Fitness>
19.1733

> <Gold.Chemscore.DG>
-19.8235

> <Gold.Chemscore.ZeroCoef>
-5.4800

> <Gold.Chemscore.Hbond>
0.9905

> <Gold.Chemscore.Metal>
0.0000

> <Gold.Chemscore.Lipo>
124.1647

> <Gold.Chemscore.Internal_Hbond>
0.0000

> <Gold.Chemscore.DEClash>
0.0477

> <Gold.Chemscore.DEInternal>
0.6024

> <Gold.Chemscore.Rot>
1.3640

> <Gold.Chemscore.Internal.Correction>
   9.000000E+99

> <Gold.Chemscore.Hbonds>
donor molecule, donor type, donor heavy atom, donor atom, acceptor molecule, acceptor atom, score
      L1  H     4    41       P1  8028  1.00

> <Gold.Chemscore.Hbond.Weighted>
-3.3081

> <Gold.Chemscore.Metal.Weighted>
-0.0000

> <Gold.Chemscore.Lipo.Weighted>
-14.5273

> <Gold.Chemscore.Internal_Hbond.Weighted>
0.0000

> <Gold.Chemscore.DEClash.Weighted>
0.0477

> <Gold.Chemscore.DEInternal.Weighted>
0.6024

> <Gold.Chemscore.Rot.Weighted>
3.4919

> <Gold.Chemscore.Internal.Correction.Weighted>
   9.000000E+99

> <Gold.Protein.RotatedTorsions>
[ 6907 6896 6895 6894 ] final   10.49 input  -60.11 | X-H torsion
[ 7974 7965 7964 7962 ] final   29.06 input  175.53 | X-H torsion
[ 8008 7997 7996 7995 ] final  -83.84 input   59.86 | X-H torsion
[ 10167 10162 10161 10158 ] final  -87.53 input  -65.29 | X-H torsion
[ 10718 10713 10712 10709 ] final -100.55 input   66.30 | X-H torsion
[ 10763 10752 10751 10750 ] final   60.05 input  -60.55 | X-H torsion
[ 11005 11000 10999 10996 ] final  118.29 input  -57.11 | X-H torsion

> <Gold.Protein.ActiveResidues>
 VAL166  LYS551  ARG553  GLY616  TRP617  ASP618  TYR619  PRO620  LYS621  CYS622 
 ASP623  PHE694  ASN695  SER759  ASP760  ASP761  ALA762  ILE779  LEU786  VAL792 
 PHE793  MET794  SER795  GLU796  ALA797  LYS798  CYS799  TRP800  GLU811  SER814 

> <Gold.Protein.RotatedAtoms>
  151.7391  135.0858  160.0312 H   0  0  0  0  0  0  0  0  0  0  0  0  # atno 6907 bound_to 6896
  152.3491  133.6153  159.5940 H   0  0  0  0  0  0  0  0  0  0  0  0  # atno 6908 bound_to 6896
  150.7528  133.9519  159.3530 H   0  0  0  0  0  0  0  0  0  0  0  0  # atno 6909 bound_to 6896
  146.1693  139.6972  142.8979 H   0  0  0  0  0  0  0  0  0  0  0  0  # atno 7974 bound_to 7965
  154.6233  140.0613  156.9642 H   0  0  0  0  0  0  0  0  0  0  0  0  # atno 8008 bound_to 7997
  155.1782  140.3297  155.4361 H   0  0  0  0  0  0  0  0  0  0  0  0  # atno 8009 bound_to 7997
  156.2444  140.1902  156.6880 H   0  0  0  0  0  0  0  0  0  0  0  0  # atno 8010 bound_to 7997
  140.3836  143.2737  151.9353 H   0  0  0  0  0  0  0  0  0  0  0  0  # atno 10167 bound_to 10162
  156.0166  130.5333  150.6834 H   0  0  0  0  0  0  0  0  0  0  0  0  # atno 10718 bound_to 10713
  152.9910  135.5550  154.5812 H   0  0  0  0  0  0  0  0  0  0  0  0  # atno 10763 bound_to 10752
  154.5193  135.2807  155.1278 H   0  0  0  0  0  0  0  0  0  0  0  0  # atno 10764 bound_to 10752
  154.2638  135.6376  153.5337 H   0  0  0  0  0  0  0  0  0  0  0  0  # atno 10765 bound_to 10752
  139.9104  134.9619  156.7480 H   0  0  0  0  0  0  0  0  0  0  0  0  # atno 11005 bound_to 11000
  145.4383  141.0420  143.2872 LP  0  0  0  0  0  0  0  0  0  0  0  0  # atno 17320 bound_to 7965
  144.8139  139.5912  143.7017 LP  0  0  0  0  0  0  0  0  0  0  0  0  # atno 17321 bound_to 7965
  139.4793  144.5795  151.7956 LP  0  0  0  0  0  0  0  0  0  0  0  0  # atno 17342 bound_to 10162
  140.4912  144.1307  150.5951 LP  0  0  0  0  0  0  0  0  0  0  0  0  # atno 17343 bound_to 10162
  157.4531  131.0875  151.0825 LP  0  0  0  0  0  0  0  0  0  0  0  0  # atno 17370 bound_to 10713
  157.1335  130.6112  149.5536 LP  0  0  0  0  0  0  0  0  0  0  0  0  # atno 17371 bound_to 10713
  140.6796  133.9486  155.7903 LP  0  0  0  0  0  0  0  0  0  0  0  0  # atno 17394 bound_to 11000
  141.0520  134.0471  157.3772 LP  0  0  0  0  0  0  0  0  0  0  0  0  # atno 17395 bound_to 11000

$$$$
