AV-unprocessed.smi:1716|AV-procd|sdf|6916|dock9
  -GOLD-   22720 8123D 1   1.00000     0.00000
 Structure written by MMmdl.
 40 41  0  0  0  0  0  0  0  0  1 V2000
  149.0103  141.0760  156.3586 C   0  0  0  0  0  0  0  0  0  0  0  0
  148.6511  141.3112  154.8896 C   0  0  0  0  0  0  0  0  0  0  0  0
  149.4350  141.9640  154.2003 O   0  0  0  0  0  0  0  0  0  0  0  0
  147.4973  140.7973  154.3989 N   0  0  0  0  0  0  0  0  0  0  0  0
  147.1115  140.9172  152.9879 C   0  0  0  0  0  0  0  0  0  0  0  0
  147.2023  139.5309  152.3248 C   0  0  0  0  0  0  0  0  0  0  0  0
  146.3420  138.4900  153.0777 C   0  0  0  0  0  0  0  0  0  0  0  0
  146.5847  137.1471  152.5588 N   0  0  0  0  0  0  0  0  0  0  0  0
  145.6340  136.2479  152.2643 C   0  0  0  0  0  0  0  0  0  0  0  0
  144.4295  136.4653  152.4003 O   0  0  0  0  0  0  0  0  0  0  0  0
  146.1732  135.1031  151.8087 N   0  0  0  0  0  0  0  0  0  0  0  0
  145.5097  133.9127  151.3965 C   0  0  0  0  0  0  0  0  0  0  0  0
  144.4011  133.9256  150.6139 N   0  0  0  0  0  0  0  0  0  0  0  0
  143.8221  132.7601  150.2606 C   0  0  0  0  0  0  0  0  0  0  0  0
  144.3115  131.5064  150.6650 C   0  0  0  0  0  0  0  0  0  0  0  0
  145.4591  131.4744  151.4756 C   0  0  0  0  0  0  0  0  0  0  0  0
  146.0718  132.6891  151.8504 C   0  0  0  0  0  0  0  0  0  0  0  0
  147.3135  132.6560  152.7268 C   0  0  0  0  0  0  0  0  0  0  0  0
  146.6257  138.5198  154.5948 C   0  0  0  0  0  0  0  0  0  0  0  0
  146.5557  139.9548  155.1470 C   0  0  0  0  0  0  0  0  0  0  0  0
  149.0757  140.0093  156.5756 H   0  0  0  0  0  0  0  0  0  0  0  0
  148.2664  141.5279  157.0153 H   0  0  0  0  0  0  0  0  0  0  0  0
  149.9769  141.5225  156.5937 H   0  0  0  0  0  0  0  0  0  0  0  0
  146.0911  141.2974  152.9231 H   0  0  0  0  0  0  0  0  0  0  0  0
  147.7284  141.6303  152.4394 H   0  0  0  0  0  0  0  0  0  0  0  0
  146.8866  139.5987  151.2831 H   0  0  0  0  0  0  0  0  0  0  0  0
  148.2449  139.2097  152.3113 H   0  0  0  0  0  0  0  0  0  0  0  0
  145.2900  138.7443  152.9344 H   0  0  0  0  0  0  0  0  0  0  0  0
  147.5487  136.8847  152.4140 H   0  0  0  0  0  0  0  0  0  0  0  0
  147.1801  135.0768  151.7499 H   0  0  0  0  0  0  0  0  0  0  0  0
  142.9427  132.8301  149.6377 H   0  0  0  0  0  0  0  0  0  0  0  0
  143.8193  130.5944  150.3614 H   0  0  0  0  0  0  0  0  0  0  0  0
  145.8612  130.5271  151.8038 H   0  0  0  0  0  0  0  0  0  0  0  0
  147.5960  131.6330  152.9772 H   0  0  0  0  0  0  0  0  0  0  0  0
  147.1373  133.1924  153.6595 H   0  0  0  0  0  0  0  0  0  0  0  0
  148.1560  133.1201  152.2135 H   0  0  0  0  0  0  0  0  0  0  0  0
  145.9128  137.8839  155.1209 H   0  0  0  0  0  0  0  0  0  0  0  0
  147.6159  138.1079  154.7965 H   0  0  0  0  0  0  0  0  0  0  0  0
  146.7339  139.9467  156.2211 H   0  0  0  0  0  0  0  0  0  0  0  0
  145.5468  140.3512  155.0241 H   0  0  0  0  0  0  0  0  0  0  0  0
  1  2  1  0  0  0  0
  1 21  1  0  0  0  0
  1 22  1  0  0  0  0
  1 23  1  0  0  0  0
  2  3  2  0  0  0  0
  2  4  1  0  0  0  0
  4 20  1  0  0  0  0
  4  5  1  0  0  0  0
  5  6  1  0  0  0  0
  5 24  1  0  0  0  0
  5 25  1  0  0  0  0
  6  7  1  0  0  0  0
  6 26  1  0  0  0  0
  6 27  1  0  0  0  0
  7  8  1  0  0  0  0
  7 19  1  0  0  0  0
  7 28  1  0  0  0  0
  8  9  1  0  0  0  0
  8 29  1  0  0  0  0
  9 10  2  0  0  0  0
  9 11  1  0  0  0  0
 11 12  1  0  0  0  0
 11 30  1  0  0  0  0
 12 17  1  0  0  0  0
 12 13  2  0  0  0  0
 13 14  1  0  0  0  0
 14 15  2  0  0  0  0
 14 31  1  0  0  0  0
 15 16  1  0  0  0  0
 15 32  1  0  0  0  0
 16 17  2  0  0  0  0
 16 33  1  0  0  0  0
 17 18  1  0  0  0  0
 18 34  1  0  0  0  0
 18 35  1  0  0  0  0
 18 36  1  0  0  0  0
 19 20  1  0  0  0  0
 19 37  1  0  0  0  0
 19 38  1  0  0  0  0
 20 39  1  0  0  0  0
 20 40  1  0  0  0  0
M  END
> <s_m_source_file>
AV-unprocessed.smi

> <i_m_source_file_index>
1716

> <i_lp_mmshare_version>
43012

> <i_f3d_flags>
0

> <s_epik_input>
W0NIM11DKD1PKU4xW0NIMl1bQ0gyXVtDSF0oW0NIMl1bQ0gyXTEpW05IXUMoPU8pW05IXWMybltjSF1bY0hdW2NIXWMyW0NIM10=

> <s_epik_cmdline>
J2VwaWtfcHl0aG9uJywgJy1waCcsICc3LjAnLCAnLXRuJywgJzgnLCAnLW1hJywgJzIwMCcsICctbWV0YWxfYmluZGluZycsICctaW1hZScsICc8aW5maWxlLm1hZT4nLCAnLW9tYWUnLCAnPG91dGZpbGUubWFlPic=

> <r_lp_tautomer_probability>
1

> <r_epik_Ionization_Penalty>
5.94044e-05

> <r_epik_Ionization_Penalty_Charging>
0

> <r_epik_Ionization_Penalty_Neutral>
5.94044e-05

> <r_epik_State_Penalty>
-0

> <r_epik_Charging_Adjusted_Penalty>
0

> <i_epik_Tot_Q>
0

> <i_epik_Tot_abs_Q>
0

> <r_epik_Metal_State_Penalty>
-0

> <b_epik_Metal_Only>
0

> <s_lp_Force_Field>
OPLS_2005

> <r_lp_Energy>
26.4914

> <b_lp_Chiralities_Consistent>
1

> <s_lp_Variant>
AV-unprocessed.smi:1716-1

> <Gold.Version>
5.8.1

> <Gold.Id.Protein>
6NUR|6NUR_protein|mol2

> <Gold.PLP.Fitness>
39.2258

> <Gold.PLP.PLP>
-30.4397

> <Gold.PLP.part.hbond>
-4.0000

> <Gold.PLP.part.metal>
0.0000

> <Gold.PLP.part.buried>
-0.6279

> <Gold.PLP.part.nonpolar>
-26.4365

> <Gold.PLP.part.repulsive>
0.6737

> <Gold.PLP.ligand.clash>
0.0000

> <Gold.PLP.ligand.torsion>
0.5700

> <Gold.PLP.Chemscore.Hbond>
2.3039

> <Gold.PLP.Chemscore.CHOScore>
1.0000

> <Gold.PLP.Chemscore.Metal>
0.0000

> <Gold.Chemscore.Hbonds>
donor molecule, donor type, donor heavy atom, donor atom, acceptor molecule, acceptor atom, score
      L1  H     8    29       P1  7948  1.00
      L1  H    11    30       P1  7948  0.83
      P1  H  8011  8017       L1     3  0.38
      L1  C    14    31       P1 10186  1.00

> <Gold.PLP.Chemscore.Internal.Correction>
0.0146

> <Gold.Rescore>
     Score         DG    S(hbond)    S(metal)    S(lipo)     H(rot)  DE(clash)    DE(int)     intcor
     16.15     -18.37       2.07        0.00      73.03       1.00       1.74       0.48       ----

> <Gold.Chemscore.Fitness>
16.1544

> <Gold.Chemscore.DG>
-18.3737

> <Gold.Chemscore.ZeroCoef>
-5.4800

> <Gold.Chemscore.Hbond>
2.0687

> <Gold.Chemscore.Metal>
0.0000

> <Gold.Chemscore.Lipo>
73.0281

> <Gold.Chemscore.Internal_Hbond>
0.0000

> <Gold.Chemscore.DEClash>
1.7414

> <Gold.Chemscore.DEInternal>
0.4779

> <Gold.Chemscore.Rot>
1.0000

> <Gold.Chemscore.Internal.Correction>
   9.000000E+99

> <Gold.Chemscore.Hbonds>
donor molecule, donor type, donor heavy atom, donor atom, acceptor molecule, acceptor atom, score
      L1  H     8    29       P1  7948  0.99
      L1  H    11    30       P1  7948  0.72
      P1  H  8011  8017       L1     3  0.40

> <Gold.Chemscore.Hbond.Weighted>
-6.9094

> <Gold.Chemscore.Metal.Weighted>
-0.0000

> <Gold.Chemscore.Lipo.Weighted>
-8.5443

> <Gold.Chemscore.Internal_Hbond.Weighted>
0.0000

> <Gold.Chemscore.DEClash.Weighted>
1.7414

> <Gold.Chemscore.DEInternal.Weighted>
0.4779

> <Gold.Chemscore.Rot.Weighted>
2.5600

> <Gold.Chemscore.Internal.Correction.Weighted>
   9.000000E+99

> <Gold.Protein.RotatedTorsions>
[ 6907 6896 6895 6894 ] final   28.87 input  -60.11 | X-H torsion
[ 7974 7965 7964 7962 ] final    1.77 input  175.53 | X-H torsion
[ 8008 7997 7996 7995 ] final  -51.99 input   59.86 | X-H torsion
[ 10167 10162 10161 10158 ] final   -6.11 input  -65.29 | X-H torsion
[ 10718 10713 10712 10709 ] final -174.39 input   66.30 | X-H torsion
[ 10763 10752 10751 10750 ] final  100.73 input  -60.55 | X-H torsion
[ 11005 11000 10999 10996 ] final -144.47 input  -57.11 | X-H torsion

> <Gold.Protein.ActiveResidues>
 VAL166  LYS551  ARG553  GLY616  TRP617  ASP618  TYR619  PRO620  LYS621  CYS622 
 ASP623  PHE694  ASN695  SER759  ASP760  ASP761  ALA762  ILE779  LEU786  VAL792 
 PHE793  MET794  SER795  GLU796  ALA797  LYS798  CYS799  TRP800  GLU811  SER814 

> <Gold.Protein.RotatedAtoms>
  152.0232  134.9811  160.0570 H   0  0  0  0  0  0  0  0  0  0  0  0  # atno 6907 bound_to 6896
  152.1317  133.4407  159.4732 H   0  0  0  0  0  0  0  0  0  0  0  0  # atno 6908 bound_to 6896
  150.6857  134.2331  159.4485 H   0  0  0  0  0  0  0  0  0  0  0  0  # atno 6909 bound_to 6896
  146.2441  140.0937  142.8351 H   0  0  0  0  0  0  0  0  0  0  0  0  # atno 7974 bound_to 7965
  154.4096  140.1234  156.4919 H   0  0  0  0  0  0  0  0  0  0  0  0  # atno 8008 bound_to 7997
  155.6981  140.3495  155.4902 H   0  0  0  0  0  0  0  0  0  0  0  0  # atno 8009 bound_to 7997
  155.9409  140.1087  157.1046 H   0  0  0  0  0  0  0  0  0  0  0  0  # atno 8010 bound_to 7997
  140.6986  143.6232  150.8593 H   0  0  0  0  0  0  0  0  0  0  0  0  # atno 10167 bound_to 10162
  156.7844  130.9495  151.3120 H   0  0  0  0  0  0  0  0  0  0  0  0  # atno 10718 bound_to 10713
  153.3177  135.4069  155.1390 H   0  0  0  0  0  0  0  0  0  0  0  0  # atno 10763 bound_to 10752
  154.8592  135.3580  154.5638 H   0  0  0  0  0  0  0  0  0  0  0  0  # atno 10764 bound_to 10752
  153.6070  135.7069  153.5420 H   0  0  0  0  0  0  0  0  0  0  0  0  # atno 10765 bound_to 10752
  140.8021  134.2844  157.4974 H   0  0  0  0  0  0  0  0  0  0  0  0  # atno 11005 bound_to 11000
  145.0628  140.9100  143.4928 LP  0  0  0  0  0  0  0  0  0  0  0  0  # atno 17320 bound_to 7965
  145.1056  139.2792  143.5664 LP  0  0  0  0  0  0  0  0  0  0  0  0  # atno 17321 bound_to 7965
  139.9952  143.5804  152.2896 LP  0  0  0  0  0  0  0  0  0  0  0  0  # atno 17342 bound_to 10162
  139.6473  144.7659  151.2218 LP  0  0  0  0  0  0  0  0  0  0  0  0  # atno 17343 bound_to 10162
  157.6631  130.8983  149.9872 LP  0  0  0  0  0  0  0  0  0  0  0  0  # atno 17370 bound_to 10713
  156.1198  130.3646  149.9907 LP  0  0  0  0  0  0  0  0  0  0  0  0  # atno 17371 bound_to 10713
  139.8721  134.9435  156.3855 LP  0  0  0  0  0  0  0  0  0  0  0  0  # atno 17394 bound_to 11000
  140.9284  133.7596  155.9994 LP  0  0  0  0  0  0  0  0  0  0  0  0  # atno 17395 bound_to 11000

$$$$
