#       Name:                AV-unprocessed.smi:2735
#       Creating user name   scv26
#       Creation time:       Fri Mar 27 14:59:16 2020


#       File generated by GOLD software.
#

@<TRIPOS>MOLECULE
AV-unprocessed.smi:2735
    49    49     1
SMALL
NO_CHARGES


@<TRIPOS>ATOM
      1 ****        -1.9936   2.3657  -2.7943 C.3            1 S1                 0.0000
      2 ****        -2.0493   1.4517  -1.6062 C.2            1 S1                 0.0000
      3 ****        -2.4750   0.0960  -1.5554 C.2            1 S1                 0.0000
      4 ****        -2.3129  -0.2603  -0.2464 C.2            1 S1                 0.0000
      5 ****        -2.5675  -1.5709   0.4242 C.3            1 S1                 0.0000
      6 ****        -1.8305   0.8542   0.4219 N.pl3          1 S1                 0.0000
      7 ****        -1.4294   0.9849   1.8241 C.3            1 S1                 0.0000
      8 ****        -1.9857   2.2727   2.4669 C.3            1 S1                 0.0000
      9 ****         0.0987   0.8567   1.9533 C.2            1 S1                 0.0000
     10 ****         0.7730   1.7610   2.4479 O.2            1 S1                 0.0000
     11 ****         0.6289  -0.2844   1.4867 N.am           1 S1                 0.0000
     12 ****         2.0496  -0.6170   1.4311 C.3            1 S1                 0.0000
     13 ****         2.2940  -1.5406   0.2128 C.3            1 S1                 0.0000
     14 ****         1.8617  -0.9593  -1.1549 C.3            1 S1                 0.0000
     15 ****         2.0553  -1.9994  -2.2685 C.3            1 S1                 0.0000
     16 ****         2.5948   0.3468  -1.5029 C.3            1 S1                 0.0000
     17 ****         2.4530  -1.3762   2.7053 C.2            1 S1                 0.0000
     18 ****         3.4911  -0.9927   3.2871 O.co2          1 S1                 0.0000
     19 ****         1.7277  -2.3282   3.0741 O.co2          1 S1                -1.0000
     20 ****        -1.6623   1.8978  -0.4239 N.2            1 S1                 0.0000
     21 ****         2.6541   0.2874   1.3447 H              1 S1                 0.0000
     22 ****        -2.1694   1.8186  -3.7208 H              1 S1                 0.0000
     23 ****        -1.0188   2.8477  -2.8751 H              1 S1                 0.0000
     24 ****        -2.7490   3.1485  -2.7217 H              1 S1                 0.0000
     25 ****        -2.8348  -0.5256  -2.3618 H              1 S1                 0.0000
     26 ****        -2.9335  -2.3088  -0.2897 H              1 S1                 0.0000
     27 ****        -3.3158  -1.4671   1.2100 H              1 S1                 0.0000
     28 ****        -1.6552  -1.9647   0.8717 H              1 S1                 0.0000
     29 ****        -1.8587   0.1471   2.3737 H              1 S1                 0.0000
     30 ****        -1.7526   2.3129   3.5317 H              1 S1                 0.0000
     31 ****        -3.0707   2.3174   2.3700 H              1 S1                 0.0000
     32 ****        -1.5753   3.1717   2.0050 H              1 S1                 0.0000
     33 ****        -0.0041  -0.9784   1.1177 H              1 S1                 0.0000
     34 ****         3.3537  -1.7978   0.1679 H              1 S1                 0.0000
     35 ****         1.7665  -2.4846   0.3631 H              1 S1                 0.0000
     36 ****         0.7946  -0.7370  -1.1177 H              1 S1                 0.0000
     37 ****         3.1056  -2.2714  -2.3781 H              1 S1                 0.0000
     38 ****         1.7075  -1.6176  -3.2288 H              1 S1                 0.0000
     39 ****         1.4953  -2.9108  -2.0569 H              1 S1                 0.0000
     40 ****         3.6761   0.2068  -1.5046 H              1 S1                 0.0000
     41 ****         2.3598   1.1389  -0.7920 H              1 S1                 0.0000
     42 ****         2.3037   0.7080  -2.4895 H              1 S1                 0.0000
     43 ****         0.3284   2.5955   2.7733 LP             1 S1                 0.0000
     44 ****         1.7650   1.6607   2.5240 LP             1 S1                 0.0000
     45 ****         3.8001  -1.4577   4.1167 LP             1 S1                 0.0000
     46 ****         4.0123  -0.2210   2.9228 LP             1 S1                 0.0000
     47 ****         1.9642  -2.8481   3.8949 LP             1 S1                 0.0000
     48 ****         0.9121  -2.5684   2.5477 LP             1 S1                 0.0000
     49 ****        -1.3189   2.8104  -0.2018 LP             1 S1                 0.0000
@<TRIPOS>BOND
    1    1    2 1     
    2    1   22 1     
    3    1   23 1     
    4    1   24 1     
    5    2   20 2     
    6    2    3 1     
    7    3    4 2     
    8    3   25 1     
    9    4    5 1     
   10    4    6 1     
   11    5   26 1     
   12    5   27 1     
   13    5   28 1     
   14    6    7 1     
   15    6   20 1     
   16    7    8 1     
   17    7    9 1     
   18    7   29 1     
   19    8   30 1     
   20    8   31 1     
   21    8   32 1     
   22    9   10 2     
   23    9   11 am    
   24   11   12 1     
   25   11   33 1     
   26   12   21 1     
   27   12   13 1     
   28   12   17 1     
   29   13   14 1     
   30   13   34 1     
   31   13   35 1     
   32   14   15 1     
   33   14   16 1     
   34   14   36 1     
   35   15   37 1     
   36   15   38 1     
   37   15   39 1     
   38   16   40 1     
   39   16   41 1     
   40   16   42 1     
   41   17   18 ar    
   42   17   19 ar    
   43   10   43 1     
   44   10   44 1     
   45   18   45 1     
   46   18   46 1     
   47   19   47 1     
   48   19   48 1     
   49   20   49 1     
@<TRIPOS>SUBSTRUCTURE
      1 S1             1
@<TRIPOS>SET
LONE_PAIRS      STATIC     ATOMS    <user>   **** ""
7 43 44 45 46 47 48 49
DONOR_HYDROGENS      STATIC     ATOMS    <user>   **** ""
1 33
ATOM$BLUE        STATIC     ATOMS    COLORGROUP SYSTEM
7 43 44 45 46 47 48 49
ATOM$RED        STATIC     ATOMS    COLORGROUP SYSTEM
1 33
