#       Name:                AV-unprocessed.smi:1554
#       Creating user name   scv26
#       Creation time:       Fri Mar 27 06:43:03 2020


#       File generated by GOLD software.
#

@<TRIPOS>MOLECULE
AV-unprocessed.smi:1554
    53    55     1
SMALL
NO_CHARGES


@<TRIPOS>ATOM
      1 ****        -4.2423   4.5195   3.1014 C.3            1 S1                 0.0000
      2 ****        -3.5045   3.6198   2.1254 C.ar           1 S1                 0.0000
      3 ****        -3.0644   4.1561   0.8944 C.ar           1 S1                 0.0000
      4 ****        -2.3715   3.3542  -0.0388 C.ar           1 S1                 0.0000
      5 ****        -1.8553   3.6674  -1.2846 N.2            1 S1                 0.0000
      6 ****        -1.3274   2.5051  -1.6562 C.2            1 S1                 0.0000
      7 ****        -1.4387   1.4742  -0.7967 N.pl3          1 S1                 0.0000
      8 ****        -0.9378   0.1245  -0.9857 C.3            1 S1                 0.0000
      9 ****         0.5628   0.0027  -0.6573 C.3            1 S1                 0.0000
     10 ****         0.7793   0.3604   0.6947 O.3            1 S1                 0.0000
     11 ****         1.0859  -1.4294  -0.8822 C.3            1 S1                 0.0000
     12 ****         2.5612  -1.5252  -0.7125 N.4            1 S1                 1.0000
     13 ****         3.3532  -1.0344  -1.8697 C.3            1 S1                 0.0000
     14 ****         3.3975  -2.0734  -3.0074 C.3            1 S1                 0.0000
     15 ****         3.8756  -3.3170  -2.5095 O.3            1 S1                 0.0000
     16 ****         3.0438  -3.8516  -1.4855 C.3            1 S1                 0.0000
     17 ****         3.5957  -5.2261  -1.0914 C.3            1 S1                 0.0000
     18 ****         3.0280  -2.8701  -0.2958 C.3            1 S1                 0.0000
     19 ****        -2.1290   1.9896   0.2956 C.ar           1 S1                 0.0000
     20 ****        -2.5627   1.4443   1.5171 C.ar           1 S1                 0.0000
     21 ****        -3.2535   2.2596   2.4379 C.ar           1 S1                 0.0000
     22 ****        -3.7179   1.6612   3.7539 C.3            1 S1                 0.0000
     23 ****        -4.3878   5.5190   2.6903 H              1 S1                 0.0000
     24 ****        -3.6782   4.6178   4.0291 H              1 S1                 0.0000
     25 ****        -5.2248   4.1086   3.3351 H              1 S1                 0.0000
     26 ****        -3.2550   5.1923   0.6566 H              1 S1                 0.0000
     27 ****        -0.8275   2.3962  -2.6077 H              1 S1                 0.0000
     28 ****        -1.5245  -0.5573  -0.3688 H              1 S1                 0.0000
     29 ****        -1.1196  -0.1616  -2.0225 H              1 S1                 0.0000
     30 ****         1.1110   0.7066  -1.2830 H              1 S1                 0.0000
     31 ****         0.2261  -0.1747   1.2435 H              1 S1                 0.0000
     32 ****         0.5876  -2.0930  -0.1737 H              1 S1                 0.0000
     33 ****         0.8026  -1.7847  -1.8729 H              1 S1                 0.0000
     34 ****         2.9717  -0.0822  -2.2364 H              1 S1                 0.0000
     35 ****         4.3698  -0.8415  -1.5248 H              1 S1                 0.0000
     36 ****         2.4178  -2.2054  -3.4678 H              1 S1                 0.0000
     37 ****         4.0690  -1.7324  -3.7954 H              1 S1                 0.0000
     38 ****         2.0331  -3.9865  -1.8746 H              1 S1                 0.0000
     39 ****         2.9871  -5.6841  -0.3112 H              1 S1                 0.0000
     40 ****         4.6173  -5.1501  -0.7178 H              1 S1                 0.0000
     41 ****         3.6032  -5.9030  -1.9460 H              1 S1                 0.0000
     42 ****         4.0370  -2.7693   0.1067 H              1 S1                 0.0000
     43 ****         2.4125  -3.2530   0.5191 H              1 S1                 0.0000
     44 ****        -2.3643   0.4077   1.7447 H              1 S1                 0.0000
     45 ****        -3.4296   0.6130   3.8379 H              1 S1                 0.0000
     46 ****        -4.8036   1.7169   3.8361 H              1 S1                 0.0000
     47 ****        -3.2778   2.1977   4.5947 H              1 S1                 0.0000
     48 ****         2.7704  -0.9102   0.0617 H              1 S1                 0.0000
     49 ****        -1.8745   4.5384  -1.7756 LP             1 S1                 0.0000
     50 ****         0.5523   1.3252   0.8276 LP             1 S1                 0.0000
     51 ****         1.7383   0.2076   0.9334 LP             1 S1                 0.0000
     52 ****         4.7942  -3.1817  -2.1382 LP             1 S1                 0.0000
     53 ****         3.9144  -3.9710  -3.2649 LP             1 S1                 0.0000
@<TRIPOS>BOND
    1    1    2 1     
    2    1   23 1     
    3    1   24 1     
    4    1   25 1     
    5    2   21 ar    
    6    2    3 ar    
    7    3    4 ar    
    8    3   26 1     
    9    4   19 ar    
   10    4    5 1     
   11    5    6 2     
   12    6    7 1     
   13    6   27 1     
   14    7    8 1     
   15    7   19 1     
   16    8    9 1     
   17    8   28 1     
   18    8   29 1     
   19    9   10 1     
   20    9   11 1     
   21    9   30 1     
   22   10   31 1     
   23   11   12 1     
   24   11   32 1     
   25   11   33 1     
   26   12   18 1     
   27   12   13 1     
   28   12   48 1     
   29   13   14 1     
   30   13   34 1     
   31   13   35 1     
   32   14   15 1     
   33   14   36 1     
   34   14   37 1     
   35   15   16 1     
   36   16   17 1     
   37   16   18 1     
   38   16   38 1     
   39   17   39 1     
   40   17   40 1     
   41   17   41 1     
   42   18   42 1     
   43   18   43 1     
   44   19   20 ar    
   45   20   21 ar    
   46   20   44 1     
   47   21   22 1     
   48   22   45 1     
   49   22   46 1     
   50   22   47 1     
   51    5   49 1     
   52   10   50 1     
   53   10   51 1     
   54   15   52 1     
   55   15   53 1     
@<TRIPOS>SUBSTRUCTURE
      1 S1             1
@<TRIPOS>SET
LONE_PAIRS      STATIC     ATOMS    <user>   **** ""
5 49 50 51 52 53
DONOR_HYDROGENS      STATIC     ATOMS    <user>   **** ""
2 31 48
ATOM$BLUE        STATIC     ATOMS    COLORGROUP SYSTEM
5 49 50 51 52 53
ATOM$RED        STATIC     ATOMS    COLORGROUP SYSTEM
2 31 48
