AV-unprocessed.smi:557|AV-procd|sdf|2918|dock4
  -GOLD-   2262023413D 1   1.00000     0.00000
 Structure written by MMmdl.
 47 49  0  0  0  0  0  0  0  0  2 V2000
  147.7478  141.7737  153.9945 C   0  0  0  0  0  0  0  0  0  0  0  0
  148.8528  140.9844  154.4948 N   0  0  0  0  0  0  0  0  0  0  0  0
  149.4329  139.8651  153.9378 C   0  0  0  0  0  0  0  0  0  0  0  0
  150.4402  139.4675  154.7712 C   0  0  0  0  0  0  0  0  0  0  0  0
  151.3760  138.3006  154.6258 C   0  0  0  0  0  0  0  0  0  0  0  0
  150.8733  137.0790  155.4060 C   0  0  0  0  0  0  0  0  0  0  0  0
  150.0585  136.2211  154.5499 N   0  0  0  0  0  0  0  0  0  0  0  0
  149.5892  134.9959  154.8395 C   0  0  0  0  0  0  0  0  0  0  0  0
  149.8140  134.4509  155.9182 O   0  0  0  0  0  0  0  0  0  0  0  0
  148.8621  134.4314  153.8605 N   0  0  0  0  0  0  0  0  0  0  0  0
  148.2304  133.1172  153.9274 C   0  0  2  0  0  0  0  0  0  0  0  0
  149.2110  131.9981  154.2587 C   0  0  0  0  0  0  0  0  0  0  0  0
  148.4565  130.7570  153.7801 C   0  0  0  0  0  0  0  0  0  0  0  0
  147.6872  131.1853  152.5899 N   0  3  1  0  0  0  0  0  0  0  0  0
  146.3837  130.4993  152.4154 C   0  0  0  0  0  0  0  0  0  0  0  0
  145.6678  131.0108  151.1522 C   0  0  0  0  0  0  0  0  0  0  0  0
  145.5648  132.5495  151.0987 C   0  0  0  0  0  0  0  0  0  0  0  0
  146.2187  133.2269  152.3138 C   0  0  0  0  0  0  0  0  0  0  0  0
  147.6385  132.6753  152.5773 C   0  0  1  0  0  0  0  0  0  0  0  0
  150.3949  140.4252  155.8244 C   0  0  0  0  0  0  0  0  0  0  0  0
  149.4444  141.3301  155.6564 N   0  0  0  0  0  0  0  0  0  0  0  0
  147.3668  141.3408  153.0692 H   0  0  0  0  0  0  0  0  0  0  0  0
  148.0818  142.7930  153.7980 H   0  0  0  0  0  0  0  0  0  0  0  0
  146.9449  141.7954  154.7320 H   0  0  0  0  0  0  0  0  0  0  0  0
  149.0844  139.4463  153.0049 H   0  0  0  0  0  0  0  0  0  0  0  0
  151.4933  138.0348  153.5744 H   0  0  0  0  0  0  0  0  0  0  0  0
  152.3736  138.5674  154.9770 H   0  0  0  0  0  0  0  0  0  0  0  0
  151.7224  136.5103  155.7893 H   0  0  0  0  0  0  0  0  0  0  0  0
  150.2822  137.4034  156.2639 H   0  0  0  0  0  0  0  0  0  0  0  0
  149.8326  136.5917  153.6378 H   0  0  0  0  0  0  0  0  0  0  0  0
  148.7369  134.9556  153.0065 H   0  0  0  0  0  0  0  0  0  0  0  0
  147.4510  133.1123  154.6928 H   0  0  0  0  0  0  0  0  0  0  0  0
  150.1345  132.1162  153.6892 H   0  0  0  0  0  0  0  0  0  0  0  0
  149.4675  131.9551  155.3177 H   0  0  0  0  0  0  0  0  0  0  0  0
  149.1223  129.9262  153.5463 H   0  0  0  0  0  0  0  0  0  0  0  0
  147.7740  130.4268  154.5651 H   0  0  0  0  0  0  0  0  0  0  0  0
  146.5471  129.4235  152.3423 H   0  0  0  0  0  0  0  0  0  0  0  0
  145.7579  130.6630  153.2942 H   0  0  0  0  0  0  0  0  0  0  0  0
  146.2048  130.6600  150.2700 H   0  0  0  0  0  0  0  0  0  0  0  0
  144.6727  130.5690  151.0921 H   0  0  0  0  0  0  0  0  0  0  0  0
  146.0457  132.9076  150.1874 H   0  0  0  0  0  0  0  0  0  0  0  0
  144.5196  132.8533  151.0266 H   0  0  0  0  0  0  0  0  0  0  0  0
  146.2564  134.3054  152.1585 H   0  0  0  0  0  0  0  0  0  0  0  0
  145.5898  133.0724  153.1918 H   0  0  0  0  0  0  0  0  0  0  0  0
  148.2997  132.9916  151.7687 H   0  0  0  0  0  0  0  0  0  0  0  0
  151.0208  140.4871  156.7024 H   0  0  0  0  0  0  0  0  0  0  0  0
  148.2451  130.9332  151.7864 H   0  0  0  0  0  0  0  0  0  0  0  0
  1  2  1  0  0  0  0
  1 22  1  0  0  0  0
  1 23  1  0  0  0  0
  1 24  1  0  0  0  0
  2 21  1  0  0  0  0
  2  3  1  0  0  0  0
  3  4  2  0  0  0  0
  3 25  1  0  0  0  0
  4  5  1  0  0  0  0
  4 20  1  0  0  0  0
  5  6  1  0  0  0  0
  5 26  1  0  0  0  0
  5 27  1  0  0  0  0
  6  7  1  0  0  0  0
  6 28  1  0  0  0  0
  6 29  1  0  0  0  0
  7  8  1  0  0  0  0
  7 30  1  0  0  0  0
  8  9  2  0  0  0  0
  8 10  1  0  0  0  0
 10 11  1  0  0  0  0
 10 31  1  0  0  0  0
 11 19  1  0  0  0  0
 11 12  1  0  0  0  0
 11 32  1  0  0  0  0
 12 13  1  0  0  0  0
 12 33  1  0  0  0  0
 12 34  1  0  0  0  0
 13 14  1  0  0  0  0
 13 35  1  0  0  0  0
 13 36  1  0  0  0  0
 14 19  1  0  0  0  0
 14 15  1  0  0  0  0
 14 47  1  0  0  0  0
 15 16  1  0  0  0  0
 15 37  1  0  0  0  0
 15 38  1  0  0  0  0
 16 17  1  0  0  0  0
 16 39  1  0  0  0  0
 16 40  1  0  0  0  0
 17 18  1  0  0  0  0
 17 41  1  0  0  0  0
 17 42  1  0  0  0  0
 18 19  1  0  0  0  0
 18 43  1  0  0  0  0
 18 44  1  0  0  0  0
 19 45  1  0  0  0  0
 20 21  2  0  0  0  0
 20 46  1  0  0  0  0
M  CHG  1  14   1
M  END
> <s_m_source_file>
AV-unprocessed.smi

> <i_m_source_file_index>
557

> <i_lp_mmshare_version>
43012

> <i_f3d_flags>
0

> <s_epik_input>
W0NIM11uMVtjSF1jKFtjSF1uMSlbQ0gyXVtDSDJdW05IXUMoPU8pW05IXVtDQEhdKFtDSDJdW0NIMl0yKVtDQEhdKE4yMylbQ0gyXVtDSDJdW0NIMl1bQ0gyXTM=

> <s_epik_cmdline>
J2VwaWtfcHl0aG9uJywgJy1waCcsICc3LjAnLCAnLXRuJywgJzgnLCAnLW1hJywgJzIwMCcsICctbWV0YWxfYmluZGluZycsICctaW1hZScsICc8aW5maWxlLm1hZT4nLCAnLW9tYWUnLCAnPG91dGZpbGUubWFlPic=

> <r_lp_tautomer_probability>
1

> <r_epik_Ionization_Penalty>
0.000956547

> <r_epik_Ionization_Penalty_Charging>
0.000435796

> <r_epik_Ionization_Penalty_Neutral>
0.000520752

> <r_epik_State_Penalty>
-0

> <r_epik_Charging_Adjusted_Penalty>
0.000435796

> <i_epik_Tot_Q>
1

> <i_epik_Tot_abs_Q>
1

> <r_epik_Metal_State_Penalty>
-0

> <b_epik_Metal_Only>
0

> <s_lp_Force_Field>
OPLS_2005

> <r_lp_Energy>
44.7682

> <b_lp_Chiralities_Consistent>
1

> <s_lp_Variant>
AV-unprocessed.smi:557-5

> <Gold.Version>
5.8.1

> <Gold.Id.Protein>
6NUR|6NUR_protein|mol2

> <Gold.PLP.Fitness>
51.8236

> <Gold.PLP.PLP>
-41.7061

> <Gold.PLP.part.hbond>
-3.8196

> <Gold.PLP.part.metal>
0.0000

> <Gold.PLP.part.buried>
0.5122

> <Gold.PLP.part.nonpolar>
-38.0673

> <Gold.PLP.part.repulsive>
0.1952

> <Gold.PLP.ligand.clash>
0.0000

> <Gold.PLP.ligand.torsion>
0.6321

> <Gold.PLP.Chemscore.Hbond>
2.8352

> <Gold.PLP.Chemscore.CHOScore>
0.9534

> <Gold.PLP.Chemscore.Metal>
0.0000

> <Gold.Chemscore.Hbonds>
donor molecule, donor type, donor heavy atom, donor atom, acceptor molecule, acceptor atom, score
      L1  H     7    30       P1  7948  0.93
      L1  H    10    31       P1  7948  1.00
      L1  H    14    47       P1 10747  1.00
      L1  C     3    25       P1  7957  0.88

> <Gold.PLP.Chemscore.Internal.Correction>
0.0159

> <Gold.Rescore>
     Score         DG    S(hbond)    S(metal)    S(lipo)     H(rot)  DE(clash)    DE(int)     intcor
     18.90     -19.20       2.46        0.00      82.24       1.60       0.03       0.27       ----

> <Gold.Chemscore.Fitness>
18.9030

> <Gold.Chemscore.DG>
-19.2042

> <Gold.Chemscore.ZeroCoef>
-5.4800

> <Gold.Chemscore.Hbond>
2.4559

> <Gold.Chemscore.Metal>
0.0000

> <Gold.Chemscore.Lipo>
82.2402

> <Gold.Chemscore.Internal_Hbond>
0.0000

> <Gold.Chemscore.DEClash>
0.0311

> <Gold.Chemscore.DEInternal>
0.2701

> <Gold.Chemscore.Rot>
1.6018

> <Gold.Chemscore.Internal.Correction>
   9.000000E+99

> <Gold.Chemscore.Hbonds>
donor molecule, donor type, donor heavy atom, donor atom, acceptor molecule, acceptor atom, score
      L1  H     7    30       P1  7948  0.30
      L1  H    10    31       P1  7948  0.34
      L1  H    14    47       P1 10747  1.00

> <Gold.Chemscore.Hbond.Weighted>
-8.2027

> <Gold.Chemscore.Metal.Weighted>
-0.0000

> <Gold.Chemscore.Lipo.Weighted>
-9.6221

> <Gold.Chemscore.Internal_Hbond.Weighted>
0.0000

> <Gold.Chemscore.DEClash.Weighted>
0.0311

> <Gold.Chemscore.DEInternal.Weighted>
0.2701

> <Gold.Chemscore.Rot.Weighted>
4.1006

> <Gold.Chemscore.Internal.Correction.Weighted>
   9.000000E+99

> <Gold.Protein.RotatedTorsions>
[ 6907 6896 6895 6894 ] final  108.49 input  -60.11 | X-H torsion
[ 7974 7965 7964 7962 ] final -166.41 input  175.53 | X-H torsion
[ 8008 7997 7996 7995 ] final -141.85 input   59.86 | X-H torsion
[ 10167 10162 10161 10158 ] final -120.39 input  -65.29 | X-H torsion
[ 10718 10713 10712 10709 ] final  119.44 input   66.30 | X-H torsion
[ 10763 10752 10751 10750 ] final -130.32 input  -60.55 | X-H torsion
[ 11005 11000 10999 10996 ] final  155.97 input  -57.11 | X-H torsion

> <Gold.Protein.ActiveResidues>
 VAL166  LYS551  ARG553  GLY616  TRP617  ASP618  TYR619  PRO620  LYS621  CYS622 
 ASP623  PHE694  ASN695  SER759  ASP760  ASP761  ALA762  ILE779  LEU786  VAL792 
 PHE793  MET794  SER795  GLU796  ALA797  LYS798  CYS799  TRP800  GLU811  SER814 

> <Gold.Protein.RotatedAtoms>
  152.5109  133.9081  159.7473 H   0  0  0  0  0  0  0  0  0  0  0  0  # atno 6907 bound_to 6896
  150.9481  133.6572  159.2784 H   0  0  0  0  0  0  0  0  0  0  0  0  # atno 6908 bound_to 6896
  151.3860  135.0953  159.9564 H   0  0  0  0  0  0  0  0  0  0  0  0  # atno 6909 bound_to 6896
  144.7246  140.2671  143.6256 H   0  0  0  0  0  0  0  0  0  0  0  0  # atno 7974 bound_to 7965
  155.4846  140.0563  157.2962 H   0  0  0  0  0  0  0  0  0  0  0  0  # atno 8008 bound_to 7997
  154.4647  140.2013  156.0103 H   0  0  0  0  0  0  0  0  0  0  0  0  # atno 8009 bound_to 7997
  156.0952  140.3227  155.7873 H   0  0  0  0  0  0  0  0  0  0  0  0  # atno 8010 bound_to 7997
  140.0364  143.5197  152.2152 H   0  0  0  0  0  0  0  0  0  0  0  0  # atno 10167 bound_to 10162
  157.5961  131.1058  150.7896 H   0  0  0  0  0  0  0  0  0  0  0  0  # atno 10718 bound_to 10713
  154.8756  135.3866  154.4064 H   0  0  0  0  0  0  0  0  0  0  0  0  # atno 10763 bound_to 10752
  153.4783  135.7030  153.5958 H   0  0  0  0  0  0  0  0  0  0  0  0  # atno 10764 bound_to 10752
  153.4385  135.3861  155.2181 H   0  0  0  0  0  0  0  0  0  0  0  0  # atno 10765 bound_to 10752
  140.1631  134.8595  157.2599 H   0  0  0  0  0  0  0  0  0  0  0  0  # atno 11005 bound_to 11000
  145.8079  139.1991  143.2010 LP  0  0  0  0  0  0  0  0  0  0  0  0  # atno 17320 bound_to 7965
  146.0621  140.7960  142.9730 LP  0  0  0  0  0  0  0  0  0  0  0  0  # atno 17321 bound_to 7965
  139.6042  144.7591  151.3100 LP  0  0  0  0  0  0  0  0  0  0  0  0  # atno 17342 bound_to 10162
  140.7280  143.6949  150.7892 LP  0  0  0  0  0  0  0  0  0  0  0  0  # atno 17343 bound_to 10162
  156.8306  130.5014  149.5332 LP  0  0  0  0  0  0  0  0  0  0  0  0  # atno 17370 bound_to 10713
  156.1024  130.5979  150.9916 LP  0  0  0  0  0  0  0  0  0  0  0  0  # atno 17371 bound_to 10713
  140.2465  134.3733  155.7459 LP  0  0  0  0  0  0  0  0  0  0  0  0  # atno 17394 bound_to 11000
  141.2211  133.7293  156.8870 LP  0  0  0  0  0  0  0  0  0  0  0  0  # atno 17395 bound_to 11000

$$$$
