#       Name:                AV-unprocessed.smi:2730
#       Creating user name   scv26
#       Creation time:       Fri Mar 27 14:57:21 2020


#       File generated by GOLD software.
#

@<TRIPOS>MOLECULE
AV-unprocessed.smi:2730
    48    49     1
SMALL
NO_CHARGES


@<TRIPOS>ATOM
      1 ****        -5.0183  -1.9942  -2.2307 C.3            1 S1                 0.0000
      2 ****        -5.1922  -2.7150  -0.8859 C.3            1 S1                 0.0000
      3 ****        -4.6167  -1.9400   0.3139 C.3            1 S1                 0.0000
      4 ****        -4.9072  -2.6710   1.6357 C.3            1 S1                 0.0000
      5 ****        -4.5555  -1.8924   2.8343 C.1            1 S1                 0.0000
      6 ****        -4.2789  -1.2813   3.7769 N.1            1 S1                 0.0000
      7 ****        -3.1751  -1.7566   0.1439 N.am           1 S1                 0.0000
      8 ****        -2.4941  -0.6302   0.4033 C.2            1 S1                 0.0000
      9 ****        -3.0174   0.3954   0.8395 O.2            1 S1                 0.0000
     10 ****        -1.1871  -0.7773   0.1243 N.am           1 S1                 0.0000
     11 ****        -0.1499   0.1834   0.2513 C.2            1 S1                 0.0000
     12 ****        -0.3324   1.4577   0.7157 N.2            1 S1                 0.0000
     13 ****         0.9156   1.8963   0.6232 C.2            1 S1                 0.0000
     14 ****         1.7791   0.9875   0.1575 N.pl3          1 S1                 0.0000
     15 ****         3.2080   1.0771  -0.1008 C.3            1 S1                 0.0000
     16 ****         3.9819   1.4847   1.1694 C.3            1 S1                 0.0000
     17 ****         5.4907   1.5934   0.8943 C.3            1 S1                 0.0000
     18 ****         5.7789   2.5611  -0.2647 C.3            1 S1                 0.0000
     19 ****         5.0112   2.1546  -1.5330 C.3            1 S1                 0.0000
     20 ****         3.5015   2.0486  -1.2612 C.3            1 S1                 0.0000
     21 ****         1.0903  -0.1508  -0.1002 N.2            1 S1                 0.0000
     22 ****        -5.4878  -2.5598  -3.0356 H              1 S1                 0.0000
     23 ****        -3.9661  -1.8697  -2.4873 H              1 S1                 0.0000
     24 ****        -5.4777  -1.0056  -2.2088 H              1 S1                 0.0000
     25 ****        -6.2562  -2.8871  -0.7203 H              1 S1                 0.0000
     26 ****        -4.7322  -3.7024  -0.9428 H              1 S1                 0.0000
     27 ****        -5.1162  -0.9700   0.3461 H              1 S1                 0.0000
     28 ****        -5.9700  -2.9028   1.7097 H              1 S1                 0.0000
     29 ****        -4.3709  -3.6194   1.6778 H              1 S1                 0.0000
     30 ****        -2.6592  -2.5479  -0.2125 H              1 S1                 0.0000
     31 ****        -0.8998  -1.6788  -0.2264 H              1 S1                 0.0000
     32 ****         1.2058   2.8995   0.8989 H              1 S1                 0.0000
     33 ****         3.5534   0.0849  -0.3979 H              1 S1                 0.0000
     34 ****         3.6157   2.4432   1.5397 H              1 S1                 0.0000
     35 ****         3.8048   0.7582   1.9633 H              1 S1                 0.0000
     36 ****         6.0094   1.9266   1.7936 H              1 S1                 0.0000
     37 ****         5.8902   0.6072   0.6544 H              1 S1                 0.0000
     38 ****         5.4958   3.5739   0.0252 H              1 S1                 0.0000
     39 ****         6.8495   2.5868  -0.4701 H              1 S1                 0.0000
     40 ****         5.1964   2.8782  -2.3272 H              1 S1                 0.0000
     41 ****         5.3855   1.1963  -1.8953 H              1 S1                 0.0000
     42 ****         2.9879   1.7178  -2.1648 H              1 S1                 0.0000
     43 ****         3.1078   3.0385  -1.0267 H              1 S1                 0.0000
     44 ****        -4.0398  -0.7531   4.5917 LP             1 S1                 0.0000
     45 ****        -4.0009   0.4175   1.0190 LP             1 S1                 0.0000
     46 ****        -2.4589   1.2063   1.0143 LP             1 S1                 0.0000
     47 ****        -1.1608   1.9206   1.0311 LP             1 S1                 0.0000
     48 ****         1.4274  -1.0199  -0.4620 LP             1 S1                 0.0000
@<TRIPOS>BOND
    1    1    2 1     
    2    1   22 1     
    3    1   23 1     
    4    1   24 1     
    5    2    3 1     
    6    2   25 1     
    7    2   26 1     
    8    3    4 1     
    9    3    7 1     
   10    3   27 1     
   11    4    5 1     
   12    4   28 1     
   13    4   29 1     
   14    5    6 3     
   15    7    8 am    
   16    7   30 1     
   17    8    9 2     
   18    8   10 am    
   19   10   11 1     
   20   10   31 1     
   21   11   21 2     
   22   11   12 1     
   23   12   13 2     
   24   13   14 1     
   25   13   32 1     
   26   14   15 1     
   27   14   21 1     
   28   15   20 1     
   29   15   16 1     
   30   15   33 1     
   31   16   17 1     
   32   16   34 1     
   33   16   35 1     
   34   17   18 1     
   35   17   36 1     
   36   17   37 1     
   37   18   19 1     
   38   18   38 1     
   39   18   39 1     
   40   19   20 1     
   41   19   40 1     
   42   19   41 1     
   43   20   42 1     
   44   20   43 1     
   45    6   44 1     
   46    9   45 1     
   47    9   46 1     
   48   12   47 1     
   49   21   48 1     
@<TRIPOS>SUBSTRUCTURE
      1 S1             1
@<TRIPOS>SET
LONE_PAIRS      STATIC     ATOMS    <user>   **** ""
5 44 45 46 47 48
DONOR_HYDROGENS      STATIC     ATOMS    <user>   **** ""
2 30 31
ATOM$BLUE        STATIC     ATOMS    COLORGROUP SYSTEM
5 44 45 46 47 48
ATOM$RED        STATIC     ATOMS    COLORGROUP SYSTEM
2 30 31
