AV-unprocessed.smi:3080|AV-procd|sdf|11738|dock1
  -GOLD-   2272017133D 1   1.00000     0.00000
 Structure written by MMmdl.
 27 28  0  0  0  0  0  0  0  0  2 V2000
  151.1205  137.7088  154.8684 C   0  0  0  0  0  0  0  0  0  0  0  0
  151.5903  138.0504  156.1512 C   0  0  0  0  0  0  0  0  0  0  0  0
  151.5418  139.3992  156.5544 C   0  0  0  0  0  0  0  0  0  0  0  0
  151.0209  140.3514  155.6524 C   0  0  0  0  0  0  0  0  0  0  0  0
  150.9500  141.8192  156.0281 C   0  0  0  0  0  0  0  0  0  0  0  0
  150.3675  142.0304  157.4324 C   0  0  0  0  0  0  0  0  0  0  0  0
  150.3152  143.4636  157.7768 N   0  3  0  0  0  0  0  0  0  0  0  0
  151.6421  144.1064  157.8284 C   0  0  0  0  0  0  0  0  0  0  0  0
  152.5074  143.6294  158.9691 C   0  0  0  0  0  0  0  0  0  0  0  0
  151.8313  144.9829  159.0417 C   0  0  0  0  0  0  0  0  0  0  0  0
  150.5698  140.0311  154.4188 N   0  0  0  0  0  0  0  0  0  0  0  0
  150.6206  138.7348  154.0420 C   0  0  0  0  0  0  0  0  0  0  0  0
  151.1425  136.6847  154.5257 H   0  0  0  0  0  0  0  0  0  0  0  0
  151.9813  137.2921  156.8134 H   0  0  0  0  0  0  0  0  0  0  0  0
  151.8971  139.6912  157.5319 H   0  0  0  0  0  0  0  0  0  0  0  0
  151.9525  142.2459  155.9701 H   0  0  0  0  0  0  0  0  0  0  0  0
  150.3477  142.3499  155.2895 H   0  0  0  0  0  0  0  0  0  0  0  0
  149.3610  141.6129  157.4861 H   0  0  0  0  0  0  0  0  0  0  0  0
  150.9742  141.5082  158.1736 H   0  0  0  0  0  0  0  0  0  0  0  0
  149.7558  143.9388  157.0828 H   0  0  0  0  0  0  0  0  0  0  0  0
  152.0766  144.3996  156.8743 H   0  0  0  0  0  0  0  0  0  0  0  0
  152.1230  142.8393  159.6117 H   0  0  0  0  0  0  0  0  0  0  0  0
  153.5839  143.6175  158.8115 H   0  0  0  0  0  0  0  0  0  0  0  0
  152.4649  145.8611  158.9338 H   0  0  0  0  0  0  0  0  0  0  0  0
  151.0000  145.0920  159.7362 H   0  0  0  0  0  0  0  0  0  0  0  0
  150.2528  138.5088  153.0520 H   0  0  0  0  0  0  0  0  0  0  0  0
  149.8702  143.5666  158.6775 H   0  0  0  0  0  0  0  0  0  0  0  0
  1 12  1  0  0  0  0
  1  2  2  0  0  0  0
  1 13  1  0  0  0  0
  2  3  1  0  0  0  0
  2 14  1  0  0  0  0
  3  4  2  0  0  0  0
  3 15  1  0  0  0  0
  4  5  1  0  0  0  0
  4 11  1  0  0  0  0
  5  6  1  0  0  0  0
  5 16  1  0  0  0  0
  5 17  1  0  0  0  0
  6  7  1  0  0  0  0
  6 18  1  0  0  0  0
  6 19  1  0  0  0  0
  7  8  1  0  0  0  0
  7 20  1  0  0  0  0
  7 27  1  0  0  0  0
  8 10  1  0  0  0  0
  8  9  1  0  0  0  0
  8 21  1  0  0  0  0
  9 10  1  0  0  0  0
  9 22  1  0  0  0  0
  9 23  1  0  0  0  0
 10 24  1  0  0  0  0
 10 25  1  0  0  0  0
 11 12  2  0  0  0  0
 12 26  1  0  0  0  0
M  CHG  1   7   1
M  END
> <s_m_source_file>
AV-unprocessed.smi

> <i_m_source_file_index>
3080

> <i_lp_mmshare_version>
43012

> <i_f3d_flags>
0

> <s_epik_input>
bjFbY0hdW2NIXVtjSF1bY0hdYzFbQ0gyXVtDSDJdW05IXVtDSF0yW0NIMl1bQ0gyXTI=

> <s_epik_cmdline>
J2VwaWtfcHl0aG9uJywgJy1waCcsICc3LjAnLCAnLXRuJywgJzgnLCAnLW1hJywgJzIwMCcsICctbWV0YWxfYmluZGluZycsICctaW1hZScsICc8aW5maWxlLm1hZT4nLCAnLW9tYWUnLCAnPG91dGZpbGUubWFlPic=

> <r_epik_Ionization_Penalty>
0.0260151

> <r_epik_Ionization_Penalty_Charging>
0.024724

> <r_epik_Ionization_Penalty_Neutral>
0.00129111

> <r_epik_State_Penalty>
0.0109584

> <r_epik_Charging_Adjusted_Penalty>
0.0356824

> <i_epik_Tot_Q>
1

> <i_epik_Tot_abs_Q>
1

> <r_epik_Metal_State_Penalty>
0.00998059

> <b_epik_Metal_Only>
0

> <s_lp_Force_Field>
OPLS_2005

> <r_lp_Energy>
12.7619

> <b_lp_Chiralities_Consistent>
1

> <s_lp_Variant>
AV-unprocessed.smi:3080-1

> <Gold.Version>
5.8.1

> <Gold.Id.Protein>
6NUR|6NUR_protein|mol2

> <Gold.PLP.Fitness>
43.5709

> <Gold.PLP.PLP>
-31.2980

> <Gold.PLP.part.hbond>
-2.0000

> <Gold.PLP.part.metal>
0.0000

> <Gold.PLP.part.buried>
-3.9499

> <Gold.PLP.part.nonpolar>
-25.7280

> <Gold.PLP.part.repulsive>
0.1270

> <Gold.PLP.ligand.clash>
0.0000

> <Gold.PLP.ligand.torsion>
0.4999

> <Gold.PLP.Chemscore.Hbond>
2.7500

> <Gold.PLP.Chemscore.CHOScore>
1.4645

> <Gold.PLP.Chemscore.Metal>
0.0000

> <Gold.Chemscore.Hbonds>
donor molecule, donor type, donor heavy atom, donor atom, acceptor molecule, acceptor atom, score
      L1  H     7    20       P1  8028  2.00
      P1  H  7989  7998       L1    11  1.00
      L1  C    12    26       P1  7948  0.26
      L1  C    12    26       P1  7957  1.00

> <Gold.PLP.Chemscore.Internal.Correction>
0.6291

> <Gold.Rescore>
     Score         DG    S(hbond)    S(metal)    S(lipo)     H(rot)  DE(clash)    DE(int)     intcor
     16.78     -17.43       1.79        0.00      82.09       1.42       0.00       0.65       ----

> <Gold.Chemscore.Fitness>
16.7827

> <Gold.Chemscore.DG>
-17.4347

> <Gold.Chemscore.ZeroCoef>
-5.4800

> <Gold.Chemscore.Hbond>
1.7902

> <Gold.Chemscore.Metal>
0.0000

> <Gold.Chemscore.Lipo>
82.0887

> <Gold.Chemscore.Internal_Hbond>
0.0000

> <Gold.Chemscore.DEClash>
0.0000

> <Gold.Chemscore.DEInternal>
0.6520

> <Gold.Chemscore.Rot>
1.4175

> <Gold.Chemscore.Internal.Correction>
   9.000000E+99

> <Gold.Chemscore.Hbonds>
donor molecule, donor type, donor heavy atom, donor atom, acceptor molecule, acceptor atom, score
      L1  H     7    20       P1  8028  0.82
      P1  H  7989  7998       L1    11  0.19

> <Gold.Chemscore.Hbond.Weighted>
-5.9792

> <Gold.Chemscore.Metal.Weighted>
-0.0000

> <Gold.Chemscore.Lipo.Weighted>
-9.6044

> <Gold.Chemscore.Internal_Hbond.Weighted>
0.0000

> <Gold.Chemscore.DEClash.Weighted>
0.0000

> <Gold.Chemscore.DEInternal.Weighted>
0.6520

> <Gold.Chemscore.Rot.Weighted>
3.6289

> <Gold.Chemscore.Internal.Correction.Weighted>
   9.000000E+99

> <Gold.Protein.RotatedTorsions>
[ 6907 6896 6895 6894 ] final  -18.78 input  -60.11 | X-H torsion
[ 7974 7965 7964 7962 ] final   -6.03 input  175.53 | X-H torsion
[ 8008 7997 7996 7995 ] final   -2.43 input   59.86 | X-H torsion
[ 10167 10162 10161 10158 ] final -137.62 input  -65.29 | X-H torsion
[ 10718 10713 10712 10709 ] final  111.44 input   66.30 | X-H torsion
[ 10763 10752 10751 10750 ] final   80.59 input  -60.55 | X-H torsion
[ 11005 11000 10999 10996 ] final -161.96 input  -57.11 | X-H torsion

> <Gold.Protein.ActiveResidues>
 VAL166  LYS551  ARG553  GLY616  TRP617  ASP618  TYR619  PRO620  LYS621  CYS622 
 ASP623  PHE694  ASN695  SER759  ASP760  ASP761  ALA762  ILE779  LEU786  VAL792 
 PHE793  MET794  SER795  GLU796  ALA797  LYS798  CYS799  TRP800  GLU811  SER814 

> <Gold.Protein.RotatedAtoms>
  151.2731  135.0690  159.9141 H   0  0  0  0  0  0  0  0  0  0  0  0  # atno 6907 bound_to 6896
  152.5347  134.0110  159.7948 H   0  0  0  0  0  0  0  0  0  0  0  0  # atno 6908 bound_to 6896
  151.0351  133.5705  159.2687 H   0  0  0  0  0  0  0  0  0  0  0  0  # atno 6909 bound_to 6896
  146.2340  140.2110  142.8335 H   0  0  0  0  0  0  0  0  0  0  0  0  # atno 7974 bound_to 7965
  154.6358  140.2534  155.7380 H   0  0  0  0  0  0  0  0  0  0  0  0  # atno 8008 bound_to 7997
  156.2503  140.2897  156.0650 H   0  0  0  0  0  0  0  0  0  0  0  0  # atno 8009 bound_to 7997
  155.1674  140.0385  157.2846 H   0  0  0  0  0  0  0  0  0  0  0  0  # atno 8010 bound_to 7997
  139.8559  143.7138  152.2654 H   0  0  0  0  0  0  0  0  0  0  0  0  # atno 10167 bound_to 10162
  157.6444  131.0951  150.6749 H   0  0  0  0  0  0  0  0  0  0  0  0  # atno 10718 bound_to 10713
  153.1046  135.4797  154.8928 H   0  0  0  0  0  0  0  0  0  0  0  0  # atno 10763 bound_to 10752
  154.7416  135.3083  154.8721 H   0  0  0  0  0  0  0  0  0  0  0  0  # atno 10764 bound_to 10752
  153.9327  135.6843  153.4798 H   0  0  0  0  0  0  0  0  0  0  0  0  # atno 10765 bound_to 10752
  140.6145  134.4814  157.5218 H   0  0  0  0  0  0  0  0  0  0  0  0  # atno 11005 bound_to 11000
  144.9707  140.8365  143.5457 LP  0  0  0  0  0  0  0  0  0  0  0  0  # atno 17320 bound_to 7965
  145.2091  139.2213  143.5152 LP  0  0  0  0  0  0  0  0  0  0  0  0  # atno 17321 bound_to 7965
  139.7420  144.7557  151.0638 LP  0  0  0  0  0  0  0  0  0  0  0  0  # atno 17342 bound_to 10162
  140.7781  143.4961  150.9830 LP  0  0  0  0  0  0  0  0  0  0  0  0  # atno 17343 bound_to 10162
  156.7069  130.4640  149.5558 LP  0  0  0  0  0  0  0  0  0  0  0  0  # atno 17370 bound_to 10713
  156.1757  130.6466  151.0891 LP  0  0  0  0  0  0  0  0  0  0  0  0  # atno 17371 bound_to 10713
  139.9178  134.8210  156.1308 LP  0  0  0  0  0  0  0  0  0  0  0  0  # atno 17394 bound_to 11000
  141.0785  133.6765  156.2286 LP  0  0  0  0  0  0  0  0  0  0  0  0  # atno 17395 bound_to 11000

$$$$
