#       Name:                AV-unprocessed.smi:2859
#       Creating user name   scv26
#       Creation time:       Fri Mar 27 15:46:22 2020


#       File generated by GOLD software.
#

@<TRIPOS>MOLECULE
AV-unprocessed.smi:2859
    58    59     1
SMALL
NO_CHARGES


@<TRIPOS>ATOM
      1 ****        -3.1391  -3.1279  -0.6225 C.3            1 S1                 0.0000
      2 ****        -2.3043  -2.6411   0.5799 C.3            1 S1                 0.0000
      3 ****        -3.2391  -2.2326   1.7372 C.3            1 S1                 0.0000
      4 ****        -1.4516  -3.8333   1.0683 C.3            1 S1                 0.0000
      5 ****        -1.4446  -1.4366   0.1602 C.ar           1 S1                 0.0000
      6 ****        -0.0304  -1.4246   0.2226 C.ar           1 S1                 0.0000
      7 ****         0.6269  -0.2329  -0.1716 C.ar           1 S1                 0.0000
      8 ****         2.0326  -0.0900  -0.1480 N.3            1 S1                 0.0000
      9 ****         2.8458  -1.2582   0.1737 C.3            1 S1                 0.0000
     10 ****         4.3198  -0.9975  -0.1722 C.3            1 S1                 0.0000
     11 ****         4.7634   0.1805   0.4897 O.3            1 S1                 0.0000
     12 ****         4.0490   1.3406   0.0625 C.3            1 S1                 0.0000
     13 ****         4.6536   2.5774   0.7446 C.2            1 S1                 0.0000
     14 ****         5.9561   2.5413   1.0402 N.am           1 S1                 0.0000
     15 ****         3.9623   3.5645   0.9901 O.2            1 S1                 0.0000
     16 ****         2.5488   1.1679   0.3923 C.3            1 S1                 0.0000
     17 ****        -0.0934   0.8308  -0.5961 N.ar           1 S1                 0.0000
     18 ****        -1.4236   0.7189  -0.6662 C.ar           1 S1                 0.0000
     19 ****        -2.2222   1.9879  -1.0067 C.3            1 S1                 0.0000
     20 ****        -3.5359   1.6326  -1.7412 C.3            1 S1                 0.0000
     21 ****        -1.4287   2.9080  -1.9648 C.3            1 S1                 0.0000
     22 ****        -2.5422   2.7542   0.2897 C.3            1 S1                 0.0000
     23 ****        -2.1231  -0.3507  -0.2752 N.ar           1 S1                 0.0000
     24 ****        -3.7486  -3.9930  -0.3591 H              1 S1                 0.0000
     25 ****        -2.4981  -3.4184  -1.4558 H              1 S1                 0.0000
     26 ****        -3.8182  -2.3550  -0.9841 H              1 S1                 0.0000
     27 ****        -3.9206  -1.4329   1.4449 H              1 S1                 0.0000
     28 ****        -2.6705  -1.8800   2.5985 H              1 S1                 0.0000
     29 ****        -3.8524  -3.0712   2.0685 H              1 S1                 0.0000
     30 ****        -2.0803  -4.6756   1.3596 H              1 S1                 0.0000
     31 ****        -0.8508  -3.5691   1.9396 H              1 S1                 0.0000
     32 ****        -0.7779  -4.1929   0.2895 H              1 S1                 0.0000
     33 ****         0.5221  -2.2805   0.5744 H              1 S1                 0.0000
     34 ****         2.7432  -1.4887   1.2348 H              1 S1                 0.0000
     35 ****         2.5024  -2.1266  -0.3893 H              1 S1                 0.0000
     36 ****         4.9348  -1.8380   0.1490 H              1 S1                 0.0000
     37 ****         4.4560  -0.8970  -1.2502 H              1 S1                 0.0000
     38 ****         4.1784   1.4643  -1.0143 H              1 S1                 0.0000
     39 ****         6.3911   3.3395   1.4799 H              1 S1                 0.0000
     40 ****         6.5007   1.7220   0.8142 H              1 S1                 0.0000
     41 ****         2.0017   2.0208  -0.0099 H              1 S1                 0.0000
     42 ****         2.3939   1.1705   1.4723 H              1 S1                 0.0000
     43 ****        -4.0848   2.5299  -2.0295 H              1 S1                 0.0000
     44 ****        -4.2065   1.0411  -1.1171 H              1 S1                 0.0000
     45 ****        -3.3409   1.0613  -2.6496 H              1 S1                 0.0000
     46 ****        -1.1577   2.3864  -2.8836 H              1 S1                 0.0000
     47 ****        -0.5085   3.2759  -1.5091 H              1 S1                 0.0000
     48 ****        -2.0118   3.7855  -2.2463 H              1 S1                 0.0000
     49 ****        -3.1109   3.6618   0.0857 H              1 S1                 0.0000
     50 ****        -1.6302   3.0467   0.8113 H              1 S1                 0.0000
     51 ****        -3.1311   2.1437   0.9753 H              1 S1                 0.0000
     52 ****         2.1784  -0.0178  -1.1347 LP             1 S1                 0.0000
     53 ****         5.7357   0.3118   0.2964 LP             1 S1                 0.0000
     54 ****         4.6318   0.0657   1.4743 LP             1 S1                 0.0000
     55 ****         2.9927   3.5694   0.7452 LP             1 S1                 0.0000
     56 ****         4.3697   4.3623   1.4345 LP             1 S1                 0.0000
     57 ****         0.3605   1.6842  -0.8525 LP             1 S1                 0.0000
     58 ****        -3.1227  -0.3481  -0.3039 LP             1 S1                 0.0000
@<TRIPOS>BOND
    1    1    2 1     
    2    1   24 1     
    3    1   25 1     
    4    1   26 1     
    5    2    3 1     
    6    2    4 1     
    7    2    5 1     
    8    3   27 1     
    9    3   28 1     
   10    3   29 1     
   11    4   30 1     
   12    4   31 1     
   13    4   32 1     
   14    5   23 ar    
   15    5    6 ar    
   16    6    7 ar    
   17    6   33 1     
   18    7    8 1     
   19    7   17 ar    
   20    8   16 1     
   21    8    9 1     
   22    9   10 1     
   23    9   34 1     
   24    9   35 1     
   25   10   11 1     
   26   10   36 1     
   27   10   37 1     
   28   11   12 1     
   29   12   13 1     
   30   12   16 1     
   31   12   38 1     
   32   13   14 am    
   33   13   15 2     
   34   14   39 1     
   35   14   40 1     
   36   16   41 1     
   37   16   42 1     
   38   17   18 ar    
   39   18   19 1     
   40   18   23 ar    
   41   19   20 1     
   42   19   21 1     
   43   19   22 1     
   44   20   43 1     
   45   20   44 1     
   46   20   45 1     
   47   21   46 1     
   48   21   47 1     
   49   21   48 1     
   50   22   49 1     
   51   22   50 1     
   52   22   51 1     
   53    8   52 1     
   54   11   53 1     
   55   11   54 1     
   56   15   55 1     
   57   15   56 1     
   58   17   57 1     
   59   23   58 1     
@<TRIPOS>SUBSTRUCTURE
      1 S1             1
@<TRIPOS>SET
LONE_PAIRS      STATIC     ATOMS    <user>   **** ""
7 52 53 54 55 56 57 58
DONOR_HYDROGENS      STATIC     ATOMS    <user>   **** ""
2 39 40
ATOM$BLUE        STATIC     ATOMS    COLORGROUP SYSTEM
7 52 53 54 55 56 57 58
ATOM$RED        STATIC     ATOMS    COLORGROUP SYSTEM
2 39 40
