AV-unprocessed.smi:2352|AV-procd|sdf|9379|dock9
  -GOLD-   2272013 03D 1   1.00000     0.00000
 Structure written by MMmdl.
 37 38  0  0  0  0  0  0  0  0  1 V2000
  146.1902  137.9752  154.0347 C   0  0  0  0  0  0  0  0  0  0  0  0
  147.5951  138.4996  154.2739 C   0  0  0  0  0  0  0  0  0  0  0  0
  148.5069  137.5715  154.7855 N   0  0  0  0  0  0  0  0  0  0  0  0
  149.7276  137.9279  155.0184 C   0  0  0  0  0  0  0  0  0  0  0  0
  150.1750  139.2356  154.7686 N   0  0  0  0  0  0  0  0  0  0  0  0
  151.5890  139.5114  155.0750 C   0  0  0  0  0  0  0  0  0  0  0  0
  151.9192  139.2941  156.5685 C   0  0  1  0  0  0  0  0  0  0  0  0
  153.2232  138.7561  156.6702 O   0  0  0  0  0  0  0  0  0  0  0  0
  151.7937  140.5940  157.3492 C   0  0  0  0  0  0  0  0  0  0  0  0
  151.2235  141.7295  156.7363 C   0  0  0  0  0  0  0  0  0  0  0  0
  151.1083  142.9391  157.4482 C   0  0  0  0  0  0  0  0  0  0  0  0
  151.5602  143.0291  158.7823 C   0  0  0  0  0  0  0  0  0  0  0  0
  151.4398  144.3409  159.5443 C   0  0  0  0  0  0  0  0  0  0  0  0
  151.9489  144.2331  160.7721 F   0  0  0  0  0  0  0  0  0  0  0  0
  152.1029  145.2916  158.8872 F   0  0  0  0  0  0  0  0  0  0  0  0
  150.1619  144.7057  159.6539 F   0  0  0  0  0  0  0  0  0  0  0  0
  152.1428  141.8961  159.3906 C   0  0  0  0  0  0  0  0  0  0  0  0
  152.2585  140.6862  158.6791 C   0  0  0  0  0  0  0  0  0  0  0  0
  149.3489  140.2054  154.2795 C   0  0  0  0  0  0  0  0  0  0  0  0
  149.7483  141.3542  154.0785 O   0  0  0  0  0  0  0  0  0  0  0  0
  147.9636  139.7842  154.0155 C   0  0  0  0  0  0  0  0  0  0  0  0
  147.0147  140.8382  153.4583 C   0  0  0  0  0  0  0  0  0  0  0  0
  145.9208  138.0698  152.9824 H   0  0  0  0  0  0  0  0  0  0  0  0
  145.4675  138.5319  154.6319 H   0  0  0  0  0  0  0  0  0  0  0  0
  146.1069  136.9224  154.3072 H   0  0  0  0  0  0  0  0  0  0  0  0
  150.4763  137.2441  155.4220 H   0  0  0  0  0  0  0  0  0  0  0  0
  152.2721  138.9388  154.4439 H   0  0  0  0  0  0  0  0  0  0  0  0
  151.7907  140.5518  154.8118 H   0  0  0  0  0  0  0  0  0  0  0  0
  151.2314  138.5692  157.0055 H   0  0  0  0  0  0  0  0  0  0  0  0
  153.1524  137.8414  156.8967 H   0  0  0  0  0  0  0  0  0  0  0  0
  150.8744  141.6786  155.7152 H   0  0  0  0  0  0  0  0  0  0  0  0
  150.6728  143.8006  156.9635 H   0  0  0  0  0  0  0  0  0  0  0  0
  152.5071  141.9488  160.4060 H   0  0  0  0  0  0  0  0  0  0  0  0
  152.7092  139.8294  159.1587 H   0  0  0  0  0  0  0  0  0  0  0  0
  146.9247  141.6702  154.1575 H   0  0  0  0  0  0  0  0  0  0  0  0
  146.0122  140.4573  153.2707 H   0  0  0  0  0  0  0  0  0  0  0  0
  147.3986  141.2285  152.5150 H   0  0  0  0  0  0  0  0  0  0  0  0
  1  2  1  0  0  0  0
  1 23  1  0  0  0  0
  1 24  1  0  0  0  0
  1 25  1  0  0  0  0
  2 21  2  0  0  0  0
  2  3  1  0  0  0  0
  3  4  2  0  0  0  0
  4  5  1  0  0  0  0
  4 26  1  0  0  0  0
  5  6  1  0  0  0  0
  5 19  1  0  0  0  0
  6  7  1  0  0  0  0
  6 27  1  0  0  0  0
  6 28  1  0  0  0  0
  7  8  1  0  0  0  0
  7  9  1  0  0  0  0
  7 29  1  0  0  0  0
  8 30  1  0  0  0  0
  9 18  1  0  0  0  0
  9 10  2  0  0  0  0
 10 11  1  0  0  0  0
 10 31  1  0  0  0  0
 11 12  2  0  0  0  0
 11 32  1  0  0  0  0
 12 13  1  0  0  0  0
 12 17  1  0  0  0  0
 13 14  1  0  0  0  0
 13 15  1  0  0  0  0
 13 16  1  0  0  0  0
 17 18  2  0  0  0  0
 17 33  1  0  0  0  0
 18 34  1  0  0  0  0
 19 20  2  0  0  0  0
 19 21  1  0  0  0  0
 21 22  1  0  0  0  0
 22 35  1  0  0  0  0
 22 36  1  0  0  0  0
 22 37  1  0  0  0  0
M  END
> <s_m_source_file>
AV-unprocessed.smi

> <i_m_source_file_index>
2352

> <i_lp_mmshare_version>
43012

> <i_f3d_flags>
0

> <s_epik_input>
W0NIM11jMW5bY0hdbihjKD1PKWMxW0NIM10pW0NIMl1bQ0BIXShbT0hdKWMyW2NIXVtjSF1jKEMoRikoRilGKVtjSF1bY0hdMg==

> <s_epik_cmdline>
J2VwaWtfcHl0aG9uJywgJy1waCcsICc3LjAnLCAnLXRuJywgJzgnLCAnLW1hJywgJzIwMCcsICctbWV0YWxfYmluZGluZycsICctaW1hZScsICc8aW5maWxlLm1hZT4nLCAnLW9tYWUnLCAnPG91dGZpbGUubWFlPic=

> <r_lp_tautomer_probability>
1

> <r_epik_Ionization_Penalty>
5.07001e-05

> <r_epik_Ionization_Penalty_Charging>
7.56727e-08

> <r_epik_Ionization_Penalty_Neutral>
5.06244e-05

> <r_epik_State_Penalty>
-0

> <r_epik_Charging_Adjusted_Penalty>
7.56727e-08

> <i_epik_Tot_Q>
0

> <i_epik_Tot_abs_Q>
0

> <r_epik_Metal_State_Penalty>
-0

> <b_epik_Metal_Only>
0

> <s_lp_Force_Field>
OPLS_2005

> <r_lp_Energy>
21.4472

> <b_lp_Chiralities_Consistent>
1

> <s_lp_Variant>
AV-unprocessed.smi:2352-2

> <Gold.Version>
5.8.1

> <Gold.Id.Protein>
6NUR|6NUR_protein|mol2

> <Gold.PLP.Fitness>
49.6494

> <Gold.PLP.PLP>
-45.1835

> <Gold.PLP.part.hbond>
-3.0000

> <Gold.PLP.part.metal>
0.0000

> <Gold.PLP.part.buried>
-3.4478

> <Gold.PLP.part.nonpolar>
-38.7980

> <Gold.PLP.part.repulsive>
0.3318

> <Gold.PLP.ligand.clash>
1.0225

> <Gold.PLP.ligand.torsion>
0.6837

> <Gold.PLP.Chemscore.Hbond>
1.9372

> <Gold.PLP.Chemscore.CHOScore>
0.0000

> <Gold.PLP.Chemscore.Metal>
0.0000

> <Gold.Chemscore.Hbonds>
donor molecule, donor type, donor heavy atom, donor atom, acceptor molecule, acceptor atom, score
      P1  H  7989  7998       L1    20  0.27
      P1  H  7997  8009       L1     8  1.00
      P1  H  8011  8017       L1    20  0.67

> <Gold.PLP.Chemscore.Internal.Correction>
1.0440

> <Gold.Rescore>
     Score         DG    S(hbond)    S(metal)    S(lipo)     H(rot)  DE(clash)    DE(int)     intcor
     15.03     -16.39       1.83        0.00      87.79       2.13       0.76       0.60       ----

> <Gold.Chemscore.Fitness>
15.0295

> <Gold.Chemscore.DG>
-16.3917

> <Gold.Chemscore.ZeroCoef>
-5.4800

> <Gold.Chemscore.Hbond>
1.8278

> <Gold.Chemscore.Metal>
0.0000

> <Gold.Chemscore.Lipo>
87.7920

> <Gold.Chemscore.Internal_Hbond>
0.0000

> <Gold.Chemscore.DEClash>
0.7620

> <Gold.Chemscore.DEInternal>
0.6003

> <Gold.Chemscore.Rot>
2.1347

> <Gold.Chemscore.Internal.Correction>
   9.000000E+99

> <Gold.Chemscore.Hbonds>
donor molecule, donor type, donor heavy atom, donor atom, acceptor molecule, acceptor atom, score
      P1  H  7989  7998       L1    20  0.05
      P1  H  7997  8009       L1     8  0.69
      P1  H  8011  8017       L1    20  0.63

> <Gold.Chemscore.Hbond.Weighted>
-6.1050

> <Gold.Chemscore.Metal.Weighted>
-0.0000

> <Gold.Chemscore.Lipo.Weighted>
-10.2717

> <Gold.Chemscore.Internal_Hbond.Weighted>
0.0000

> <Gold.Chemscore.DEClash.Weighted>
0.7620

> <Gold.Chemscore.DEInternal.Weighted>
0.6003

> <Gold.Chemscore.Rot.Weighted>
5.4649

> <Gold.Chemscore.Internal.Correction.Weighted>
   9.000000E+99

> <Gold.Protein.RotatedTorsions>
[ 6907 6896 6895 6894 ] final   96.48 input  -60.11 | X-H torsion
[ 7974 7965 7964 7962 ] final  178.19 input  175.53 | X-H torsion
[ 8008 7997 7996 7995 ] final -178.86 input   59.86 | X-H torsion
[ 10167 10162 10161 10158 ] final  -68.12 input  -65.29 | X-H torsion
[ 10718 10713 10712 10709 ] final   34.85 input   66.30 | X-H torsion
[ 10763 10752 10751 10750 ] final  141.86 input  -60.55 | X-H torsion
[ 11005 11000 10999 10996 ] final -146.02 input  -57.11 | X-H torsion

> <Gold.Protein.ActiveResidues>
 VAL166  LYS551  ARG553  GLY616  TRP617  ASP618  TYR619  PRO620  LYS621  CYS622 
 ASP623  PHE694  ASN695  SER759  ASP760  ASP761  ALA762  ILE779  LEU786  VAL792 
 PHE793  MET794  SER795  GLU796  ALA797  LYS798  CYS799  TRP800  GLU811  SER814 

> <Gold.Protein.RotatedAtoms>
  152.5434  134.0880  159.8263 H   0  0  0  0  0  0  0  0  0  0  0  0  # atno 6907 bound_to 6896
  151.0973  133.5263  159.2619 H   0  0  0  0  0  0  0  0  0  0  0  0  # atno 6908 bound_to 6896
  151.2031  135.0460  159.8935 H   0  0  0  0  0  0  0  0  0  0  0  0  # atno 6909 bound_to 6896
  144.7159  140.0361  143.6438 H   0  0  0  0  0  0  0  0  0  0  0  0  # atno 7974 bound_to 7965
  156.0237  140.1267  157.0330 H   0  0  0  0  0  0  0  0  0  0  0  0  # atno 8008 bound_to 7997
  154.4322  140.1063  156.6071 H   0  0  0  0  0  0  0  0  0  0  0  0  # atno 8009 bound_to 7997
  155.5907  140.3469  155.4568 H   0  0  0  0  0  0  0  0  0  0  0  0  # atno 8010 bound_to 7997
  140.5531  143.2312  151.6873 H   0  0  0  0  0  0  0  0  0  0  0  0  # atno 10167 bound_to 10162
  157.3154  130.7421  149.6751 H   0  0  0  0  0  0  0  0  0  0  0  0  # atno 10718 bound_to 10713
  153.9462  135.2974  155.3440 H   0  0  0  0  0  0  0  0  0  0  0  0  # atno 10763 bound_to 10752
  154.7450  135.5007  153.9192 H   0  0  0  0  0  0  0  0  0  0  0  0  # atno 10764 bound_to 10752
  153.1017  135.6736  153.9768 H   0  0  0  0  0  0  0  0  0  0  0  0  # atno 10765 bound_to 10752
  140.7862  134.3021  157.5029 H   0  0  0  0  0  0  0  0  0  0  0  0  # atno 11005 bound_to 11000
  146.0062  139.3132  143.0897 LP  0  0  0  0  0  0  0  0  0  0  0  0  # atno 17320 bound_to 7965
  145.8735  140.9406  143.0638 LP  0  0  0  0  0  0  0  0  0  0  0  0  # atno 17321 bound_to 7965
  139.5036  144.3785  152.0400 LP  0  0  0  0  0  0  0  0  0  0  0  0  # atno 17342 bound_to 10162
  140.2904  144.3760  150.6090 LP  0  0  0  0  0  0  0  0  0  0  0  0  # atno 17343 bound_to 10162
  155.9681  130.4239  150.4582 LP  0  0  0  0  0  0  0  0  0  0  0  0  # atno 17370 bound_to 10713
  157.2588  131.0562  151.2333 LP  0  0  0  0  0  0  0  0  0  0  0  0  # atno 17371 bound_to 10713
  139.8736  134.9348  156.3616 LP  0  0  0  0  0  0  0  0  0  0  0  0  # atno 17394 bound_to 11000
  140.9434  133.7499  156.0176 LP  0  0  0  0  0  0  0  0  0  0  0  0  # atno 17395 bound_to 11000

$$$$
