AV-unprocessed.smi:1414|AV-procd|sdf|5760|dock10
  -GOLD-   22720 5403D 1   1.00000     0.00000
 Structure written by MMmdl.
 45 46  0  0  0  0  0  0  0  0  1 V2000
  149.1588  138.9195  154.3133 C   0  0  0  0  0  0  0  0  0  0  0  0
  150.6961  138.9728  154.3032 C   0  0  2  0  0  0  0  0  0  0  0  0
  151.3894  137.6150  154.5681 C   0  0  0  0  0  0  0  0  0  0  0  0
  151.6136  137.3398  155.9994 N   0  0  0  0  0  0  0  0  0  0  0  0
  151.0829  135.8544  156.7293 S   0  0  0  0  0  0  0  0  0  0  0  0
  152.0843  134.8260  156.4078 O   0  0  0  0  0  0  0  0  0  0  0  0
  150.7498  136.1407  158.1334 O   0  0  0  0  0  0  0  0  0  0  0  0
  149.5305  135.4481  155.8177 C   0  0  0  0  0  0  0  0  0  0  0  0
  149.7125  134.2473  154.8750 C   0  0  0  0  0  0  0  0  0  0  0  0
  148.8339  134.3395  153.7153 N   0  0  0  0  0  0  0  0  0  0  0  0
  147.8846  133.4486  153.3975 C   0  0  0  0  0  0  0  0  0  0  0  0
  147.6542  132.4367  154.0585 O   0  0  0  0  0  0  0  0  0  0  0  0
  147.2484  133.7977  152.2666 N   0  0  0  0  0  0  0  0  0  0  0  0
  146.1563  133.1449  151.6352 C   0  0  0  0  0  0  0  0  0  0  0  0
  145.8023  131.8565  152.0853 C   0  0  0  0  0  0  0  0  0  0  0  0
  144.7385  131.1797  151.4596 C   0  0  0  0  0  0  0  0  0  0  0  0
  144.0723  131.8180  150.3960 C   0  0  0  0  0  0  0  0  0  0  0  0
  144.4074  133.0443  149.9424 N   0  0  0  0  0  0  0  0  0  0  0  0
  145.4278  133.6888  150.5483 C   0  0  0  0  0  0  0  0  0  0  0  0
  152.0223  138.4866  156.8217 C   0  0  0  0  0  0  0  0  0  0  0  0
  151.1307  139.7037  156.5400 C   0  0  1  0  0  0  0  0  0  0  0  0
  151.5875  140.9429  157.3168 C   0  0  0  0  0  0  0  0  0  0  0  0
  151.1913  140.0052  155.1519 O   0  0  0  0  0  0  0  0  0  0  0  0
  148.7898  138.1769  153.6056 H   0  0  0  0  0  0  0  0  0  0  0  0
  148.7399  139.8837  154.0246 H   0  0  0  0  0  0  0  0  0  0  0  0
  148.7524  138.6707  155.2895 H   0  0  0  0  0  0  0  0  0  0  0  0
  150.9714  139.2716  153.2912 H   0  0  0  0  0  0  0  0  0  0  0  0
  150.8286  136.8044  154.1035 H   0  0  0  0  0  0  0  0  0  0  0  0
  152.3673  137.6215  154.0858 H   0  0  0  0  0  0  0  0  0  0  0  0
  148.7324  135.2950  156.5398 H   0  0  0  0  0  0  0  0  0  0  0  0
  149.2632  136.3277  155.2321 H   0  0  0  0  0  0  0  0  0  0  0  0
  150.7402  134.2093  154.5137 H   0  0  0  0  0  0  0  0  0  0  0  0
  149.5357  133.3094  155.4010 H   0  0  0  0  0  0  0  0  0  0  0  0
  148.9612  135.1371  153.1095 H   0  0  0  0  0  0  0  0  0  0  0  0
  147.6145  134.6021  151.7790 H   0  0  0  0  0  0  0  0  0  0  0  0
  146.3348  131.3913  152.9022 H   0  0  0  0  0  0  0  0  0  0  0  0
  144.4412  130.1942  151.7861 H   0  0  0  0  0  0  0  0  0  0  0  0
  143.2520  131.3281  149.8924 H   0  0  0  0  0  0  0  0  0  0  0  0
  145.6679  134.6516  150.1247 H   0  0  0  0  0  0  0  0  0  0  0  0
  151.9887  138.2273  157.8794 H   0  0  0  0  0  0  0  0  0  0  0  0
  153.0616  138.7224  156.5907 H   0  0  0  0  0  0  0  0  0  0  0  0
  150.1054  139.4862  156.8341 H   0  0  0  0  0  0  0  0  0  0  0  0
  151.5527  140.7658  158.3921 H   0  0  0  0  0  0  0  0  0  0  0  0
  150.9447  141.7964  157.1004 H   0  0  0  0  0  0  0  0  0  0  0  0
  152.6091  141.2198  157.0552 H   0  0  0  0  0  0  0  0  0  0  0  0
  1  2  1  0  0  0  0
  1 24  1  0  0  0  0
  1 25  1  0  0  0  0
  1 26  1  0  0  0  0
  2 23  1  0  0  0  0
  2  3  1  0  0  0  0
  2 27  1  0  0  0  0
  3  4  1  0  0  0  0
  3 28  1  0  0  0  0
  3 29  1  0  0  0  0
  4  5  1  0  0  0  0
  4 20  1  0  0  0  0
  5  6  2  0  0  0  0
  5  7  2  0  0  0  0
  5  8  1  0  0  0  0
  8  9  1  0  0  0  0
  8 30  1  0  0  0  0
  8 31  1  0  0  0  0
  9 10  1  0  0  0  0
  9 32  1  0  0  0  0
  9 33  1  0  0  0  0
 10 11  1  0  0  0  0
 10 34  1  0  0  0  0
 11 12  2  0  0  0  0
 11 13  1  0  0  0  0
 13 14  1  0  0  0  0
 13 35  1  0  0  0  0
 14 19  1  0  0  0  0
 14 15  2  0  0  0  0
 15 16  1  0  0  0  0
 15 36  1  0  0  0  0
 16 17  2  0  0  0  0
 16 37  1  0  0  0  0
 17 18  1  0  0  0  0
 17 38  1  0  0  0  0
 18 19  2  0  0  0  0
 19 39  1  0  0  0  0
 20 21  1  0  0  0  0
 20 40  1  0  0  0  0
 20 41  1  0  0  0  0
 21 22  1  0  0  0  0
 21 23  1  0  0  0  0
 21 42  1  0  0  0  0
 22 43  1  0  0  0  0
 22 44  1  0  0  0  0
 22 45  1  0  0  0  0
M  END
> <s_m_source_file>
AV-unprocessed.smi

> <i_m_source_file_index>
1414

> <i_lp_mmshare_version>
43012

> <i_f3d_flags>
0

> <s_epik_input>
W0NIM11bQ0BASF0xW0NIMl1OKFtDSDJdW0NASF0oTzEpW0NIM10pUyg9TykoPU8pW0NIMl1bQ0gyXVtOSF1DKD1PKVtOSF1jMltjSF1bY0hdW2NIXW5bY0hdMg==

> <s_epik_cmdline>
J2VwaWtfcHl0aG9uJywgJy1waCcsICc3LjAnLCAnLXRuJywgJzgnLCAnLW1hJywgJzIwMCcsICctbWV0YWxfYmluZGluZycsICctaW1hZScsICc8aW5maWxlLm1hZT4nLCAnLW9tYWUnLCAnPG91dGZpbGUubWFlPic=

> <r_epik_Ionization_Penalty>
0.00437531

> <r_epik_Ionization_Penalty_Charging>
0

> <r_epik_Ionization_Penalty_Neutral>
0.00437531

> <r_epik_State_Penalty>
0.00312896

> <r_epik_Charging_Adjusted_Penalty>
0.00312896

> <i_epik_Tot_Q>
0

> <i_epik_Tot_abs_Q>
0

> <r_epik_Metal_State_Penalty>
-0

> <b_epik_Metal_Only>
0

> <s_lp_Force_Field>
OPLS_2005

> <r_lp_Energy>
6.94025

> <b_lp_Chiralities_Consistent>
1

> <s_lp_Variant>
AV-unprocessed.smi:1414-1

> <Gold.Version>
5.8.1

> <Gold.Id.Protein>
6NUR|6NUR_protein|mol2

> <Gold.PLP.Fitness>
52.0279

> <Gold.PLP.PLP>
-36.8696

> <Gold.PLP.part.hbond>
-5.0000

> <Gold.PLP.part.metal>
0.0000

> <Gold.PLP.part.buried>
-4.3692

> <Gold.PLP.part.nonpolar>
-27.7971

> <Gold.PLP.part.repulsive>
0.2910

> <Gold.PLP.ligand.clash>
0.0000

> <Gold.PLP.ligand.torsion>
1.5343

> <Gold.PLP.Chemscore.Hbond>
3.8674

> <Gold.PLP.Chemscore.CHOScore>
1.5039

> <Gold.PLP.Chemscore.Metal>
0.0000

> <Gold.Chemscore.Hbonds>
donor molecule, donor type, donor heavy atom, donor atom, acceptor molecule, acceptor atom, score
      L1  H    10    34       P1  7948  1.00
      L1  H    13    35       P1  7948  0.87
      P1  H  6896  6907       L1     7  0.67
      P1  H  7989  7998       L1    23  0.20
      P1  H 10752 10765       L1     6  0.93
      L1  C    17    38       P1 10952  0.72
      L1  C    19    39       P1  7921  0.77

> <Gold.PLP.Chemscore.Internal.Correction>
2.1129

> <Gold.Rescore>
     Score         DG    S(hbond)    S(metal)    S(lipo)     H(rot)  DE(clash)    DE(int)     intcor
     19.06     -22.00       3.47        0.00      76.49       1.57       0.07       2.87       ----

> <Gold.Chemscore.Fitness>
19.0616

> <Gold.Chemscore.DG>
-22.0005

> <Gold.Chemscore.ZeroCoef>
-5.4800

> <Gold.Chemscore.Hbond>
3.4692

> <Gold.Chemscore.Metal>
0.0000

> <Gold.Chemscore.Lipo>
76.4908

> <Gold.Chemscore.Internal_Hbond>
0.0000

> <Gold.Chemscore.DEClash>
0.0695

> <Gold.Chemscore.DEInternal>
2.8694

> <Gold.Chemscore.Rot>
1.5687

> <Gold.Chemscore.Internal.Correction>
   9.000000E+99

> <Gold.Chemscore.Hbonds>
donor molecule, donor type, donor heavy atom, donor atom, acceptor molecule, acceptor atom, score
      L1  H    10    34       P1  7948  0.30
      L1  H    13    35       P1  7948  0.32
      P1  H  6896  6907       L1     7  0.64
      P1  H 10752 10765       L1     6  0.76

> <Gold.Chemscore.Hbond.Weighted>
-11.5871

> <Gold.Chemscore.Metal.Weighted>
-0.0000

> <Gold.Chemscore.Lipo.Weighted>
-8.9494

> <Gold.Chemscore.Internal_Hbond.Weighted>
0.0000

> <Gold.Chemscore.DEClash.Weighted>
0.0695

> <Gold.Chemscore.DEInternal.Weighted>
2.8694

> <Gold.Chemscore.Rot.Weighted>
4.0160

> <Gold.Chemscore.Internal.Correction.Weighted>
   9.000000E+99

> <Gold.Protein.RotatedTorsions>
[ 6907 6896 6895 6894 ] final  -43.53 input  -60.11 | X-H torsion
[ 7974 7965 7964 7962 ] final  -84.29 input  175.53 | X-H torsion
[ 8008 7997 7996 7995 ] final -109.85 input   59.86 | X-H torsion
[ 10167 10162 10161 10158 ] final  -99.45 input  -65.29 | X-H torsion
[ 10718 10713 10712 10709 ] final   27.47 input   66.30 | X-H torsion
[ 10763 10752 10751 10750 ] final -138.11 input  -60.55 | X-H torsion
[ 11005 11000 10999 10996 ] final  131.30 input  -57.11 | X-H torsion

> <Gold.Protein.ActiveResidues>
 VAL166  LYS551  ARG553  GLY616  TRP617  ASP618  TYR619  PRO620  LYS621  CYS622 
 ASP623  PHE694  ASN695  SER759  ASP760  ASP761  ALA762  ILE779  LEU786  VAL792 
 PHE793  MET794  SER795  GLU796  ALA797  LYS798  CYS799  TRP800  GLU811  SER814 

> <Gold.Protein.RotatedAtoms>
  150.9429  134.8837  159.7623 H   0  0  0  0  0  0  0  0  0  0  0  0  # atno 6907 bound_to 6896
  152.5088  134.3916  159.9396 H   0  0  0  0  0  0  0  0  0  0  0  0  # atno 6908 bound_to 6896
  151.3936  133.3740  159.2758 H   0  0  0  0  0  0  0  0  0  0  0  0  # atno 6909 bound_to 6896
  145.5086  140.9542  143.1720 H   0  0  0  0  0  0  0  0  0  0  0  0  # atno 7974 bound_to 7965
  154.9655  140.0398  157.2210 H   0  0  0  0  0  0  0  0  0  0  0  0  # atno 8008 bound_to 7997
  154.7849  140.2825  155.6013 H   0  0  0  0  0  0  0  0  0  0  0  0  # atno 8009 bound_to 7997
  156.2941  140.2584  156.2683 H   0  0  0  0  0  0  0  0  0  0  0  0  # atno 8010 bound_to 7997
  140.2624  143.3399  152.0613 H   0  0  0  0  0  0  0  0  0  0  0  0  # atno 10167 bound_to 10162
  157.2207  130.6977  149.6269 H   0  0  0  0  0  0  0  0  0  0  0  0  # atno 10718 bound_to 10713
  154.8645  135.3622  154.5332 H   0  0  0  0  0  0  0  0  0  0  0  0  # atno 10763 bound_to 10752
  153.5957  135.7014  153.5409 H   0  0  0  0  0  0  0  0  0  0  0  0  # atno 10764 bound_to 10752
  153.3334  135.4118  155.1476 H   0  0  0  0  0  0  0  0  0  0  0  0  # atno 10765 bound_to 10752
  139.9722  134.9574  156.9418 H   0  0  0  0  0  0  0  0  0  0  0  0  # atno 11005 bound_to 11000
  144.7740  139.6672  143.7183 LP  0  0  0  0  0  0  0  0  0  0  0  0  # atno 17320 bound_to 7965
  146.2181  139.5585  142.9637 LP  0  0  0  0  0  0  0  0  0  0  0  0  # atno 17321 bound_to 7965
  139.5013  144.6710  151.6242 LP  0  0  0  0  0  0  0  0  0  0  0  0  # atno 17342 bound_to 10162
  140.5955  143.9703  150.6352 LP  0  0  0  0  0  0  0  0  0  0  0  0  # atno 17343 bound_to 10162
  155.9682  130.4521  150.5760 LP  0  0  0  0  0  0  0  0  0  0  0  0  # atno 17370 bound_to 10713
  157.3579  131.0745  151.1660 LP  0  0  0  0  0  0  0  0  0  0  0  0  # atno 17371 bound_to 10713
  140.5269  134.0851  155.7306 LP  0  0  0  0  0  0  0  0  0  0  0  0  # atno 17394 bound_to 11000
  141.1401  133.9153  157.2345 LP  0  0  0  0  0  0  0  0  0  0  0  0  # atno 17395 bound_to 11000

$$$$
