AV-unprocessed.smi:1679|AV-procd|sdf|6729|dock5
  -GOLD-   22720 7473D 1   1.00000     0.00000
 Structure written by MMmdl.
 45 46  0  0  0  0  0  0  0  0  1 V2000
  153.6252  141.4536  160.1234 C   0  0  0  0  0  0  0  0  0  0  0  0
  153.0479  142.4253  159.0810 C   0  0  2  0  0  0  0  0  0  0  0  0
  152.7982  143.8106  159.7107 C   0  0  0  0  0  0  0  0  0  0  0  0
  152.2123  144.8022  158.6945 C   0  0  0  0  0  0  0  0  0  0  0  0
  150.9202  144.2542  158.0741 C   0  0  0  0  0  0  0  0  0  0  0  0
  151.1595  142.8806  157.4304 C   0  0  0  0  0  0  0  0  0  0  0  0
  151.7542  141.8741  158.4390 C   0  0  1  0  0  0  0  0  0  0  0  0
  152.0820  140.6703  157.7565 O   0  0  0  0  0  0  0  0  0  0  0  0
  151.0105  140.1060  157.0143 C   0  0  0  0  0  0  0  0  0  0  0  0
  151.5013  138.8259  156.3303 C   0  0  0  0  0  0  0  0  0  0  0  0
  150.4923  137.7797  156.4214 N   0  0  0  0  0  0  0  0  0  0  0  0
  150.6870  136.5019  156.0680 C   0  0  0  0  0  0  0  0  0  0  0  0
  151.7576  136.0834  155.6248 O   0  0  0  0  0  0  0  0  0  0  0  0
  149.4762  135.5713  156.2315 C   0  0  0  0  0  0  0  0  0  0  0  0
  149.7442  134.1848  155.8222 N   0  0  0  0  0  0  0  0  0  0  0  0
  149.3745  133.7470  154.5584 C   0  0  0  0  0  0  0  0  0  0  0  0
  149.5958  132.4885  154.1106 C   0  0  0  0  0  0  0  0  0  0  0  0
  150.2549  131.5061  154.9642 C   0  0  0  0  0  0  0  0  0  0  0  0
  150.4977  130.3430  154.6502 O   0  0  0  0  0  0  0  0  0  0  0  0
  150.6153  131.9854  156.2265 N   0  0  0  0  0  0  0  0  0  0  0  0
  150.3916  133.2816  156.6936 C   0  0  0  0  0  0  0  0  0  0  0  0
  150.7546  133.6023  157.8248 O   0  0  0  0  0  0  0  0  0  0  0  0
  151.0779  131.3415  156.8516 H   0  0  0  0  0  0  0  0  0  0  0  0
  152.9178  141.2747  160.9336 H   0  0  0  0  0  0  0  0  0  0  0  0
  154.5409  141.8492  160.5633 H   0  0  0  0  0  0  0  0  0  0  0  0
  153.8692  140.4896  159.6764 H   0  0  0  0  0  0  0  0  0  0  0  0
  153.7926  142.5465  158.2928 H   0  0  0  0  0  0  0  0  0  0  0  0
  152.1160  143.7142  160.5566 H   0  0  0  0  0  0  0  0  0  0  0  0
  153.7300  144.2107  160.1117 H   0  0  0  0  0  0  0  0  0  0  0  0
  152.0162  145.7593  159.1787 H   0  0  0  0  0  0  0  0  0  0  0  0
  152.9432  144.9962  157.9083 H   0  0  0  0  0  0  0  0  0  0  0  0
  150.1499  144.1712  158.8418 H   0  0  0  0  0  0  0  0  0  0  0  0
  150.5407  144.9532  157.3284 H   0  0  0  0  0  0  0  0  0  0  0  0
  150.2202  142.5070  157.0235 H   0  0  0  0  0  0  0  0  0  0  0  0
  151.8380  142.9920  156.5834 H   0  0  0  0  0  0  0  0  0  0  0  0
  151.0309  141.6765  159.2326 H   0  0  0  0  0  0  0  0  0  0  0  0
  150.1879  139.8694  157.6903 H   0  0  0  0  0  0  0  0  0  0  0  0
  150.6294  140.8051  156.2695 H   0  0  0  0  0  0  0  0  0  0  0  0
  151.7385  139.0241  155.2840 H   0  0  0  0  0  0  0  0  0  0  0  0
  152.4185  138.4814  156.8106 H   0  0  0  0  0  0  0  0  0  0  0  0
  149.5824  138.0489  156.7664 H   0  0  0  0  0  0  0  0  0  0  0  0
  149.1347  135.6034  157.2681 H   0  0  0  0  0  0  0  0  0  0  0  0
  148.6509  135.9796  155.6460 H   0  0  0  0  0  0  0  0  0  0  0  0
  148.8866  134.4424  153.8902 H   0  0  0  0  0  0  0  0  0  0  0  0
  149.2838  132.2078  153.1151 H   0  0  0  0  0  0  0  0  0  0  0  0
  1  2  1  0  0  0  0
  1 24  1  0  0  0  0
  1 25  1  0  0  0  0
  1 26  1  0  0  0  0
  2  7  1  0  0  0  0
  2  3  1  0  0  0  0
  2 27  1  0  0  0  0
  3  4  1  0  0  0  0
  3 28  1  0  0  0  0
  3 29  1  0  0  0  0
  4  5  1  0  0  0  0
  4 30  1  0  0  0  0
  4 31  1  0  0  0  0
  5  6  1  0  0  0  0
  5 32  1  0  0  0  0
  5 33  1  0  0  0  0
  6  7  1  0  0  0  0
  6 34  1  0  0  0  0
  6 35  1  0  0  0  0
  7  8  1  0  0  0  0
  7 36  1  0  0  0  0
  8  9  1  0  0  0  0
  9 10  1  0  0  0  0
  9 37  1  0  0  0  0
  9 38  1  0  0  0  0
 10 11  1  0  0  0  0
 10 39  1  0  0  0  0
 10 40  1  0  0  0  0
 11 12  1  0  0  0  0
 11 41  1  0  0  0  0
 12 13  2  0  0  0  0
 12 14  1  0  0  0  0
 14 15  1  0  0  0  0
 14 42  1  0  0  0  0
 14 43  1  0  0  0  0
 15 21  1  0  0  0  0
 15 16  1  0  0  0  0
 16 17  2  0  0  0  0
 16 44  1  0  0  0  0
 17 18  1  0  0  0  0
 17 45  1  0  0  0  0
 18 19  2  0  0  0  0
 18 20  1  0  0  0  0
 20 23  1  0  0  0  0
 20 21  1  0  0  0  0
 21 22  2  0  0  0  0
M  END
> <s_m_source_file>
AV-unprocessed.smi

> <i_m_source_file_index>
1679

> <i_lp_mmshare_version>
43012

> <i_f3d_flags>
0

> <s_epik_input>
W0NIM11bQ0BASF0xW0NIMl1bQ0gyXVtDSDJdW0NIMl1bQ0BIXTFPW0NIMl1bQ0gyXVtOSF1DKD1PKVtDSDJdbjJbY0hdW2NIXWMoPU8pW25IXWMyPU8=

> <s_epik_cmdline>
J2VwaWtfcHl0aG9uJywgJy1waCcsICc3LjAnLCAnLXRuJywgJzgnLCAnLW1hJywgJzIwMCcsICctbWV0YWxfYmluZGluZycsICctaW1hZScsICc8aW5maWxlLm1hZT4nLCAnLW9tYWUnLCAnPG91dGZpbGUubWFlPic=

> <r_lp_tautomer_probability>
0.999537

> <r_epik_Ionization_Penalty>
0.0033132

> <r_epik_Ionization_Penalty_Charging>
0.00331317

> <r_epik_Ionization_Penalty_Neutral>
2.78599e-08

> <r_epik_State_Penalty>
0.002342

> <r_epik_Charging_Adjusted_Penalty>
0.00565517

> <i_epik_Tot_Q>
0

> <i_epik_Tot_abs_Q>
0

> <r_epik_Metal_State_Penalty>
0.365595

> <b_epik_Metal_Only>
0

> <s_lp_Force_Field>
OPLS_2005

> <r_lp_Energy>
12.8009

> <b_lp_Chiralities_Consistent>
1

> <s_lp_Variant>
AV-unprocessed.smi:1679-1

> <Gold.Version>
5.8.1

> <Gold.Id.Protein>
6NUR|6NUR_protein|mol2

> <Gold.PLP.Fitness>
49.5877

> <Gold.PLP.PLP>
-41.8657

> <Gold.PLP.part.hbond>
-2.0000

> <Gold.PLP.part.metal>
0.0000

> <Gold.PLP.part.buried>
-5.5127

> <Gold.PLP.part.nonpolar>
-35.0939

> <Gold.PLP.part.repulsive>
0.1704

> <Gold.PLP.ligand.clash>
0.0000

> <Gold.PLP.ligand.torsion>
0.6614

> <Gold.PLP.Chemscore.Hbond>
1.9920

> <Gold.PLP.Chemscore.CHOScore>
1.0000

> <Gold.PLP.Chemscore.Metal>
0.0000

> <Gold.Chemscore.Hbonds>
donor molecule, donor type, donor heavy atom, donor atom, acceptor molecule, acceptor atom, score
      P1  H  6896  6909       L1    22  0.54
      P1  H 10752 10763       L1    13  1.00
      L1  C    16    44       P1  7948  0.66

> <Gold.PLP.Chemscore.Internal.Correction>
0.0688

> <Gold.Rescore>
     Score         DG    S(hbond)    S(metal)    S(lipo)     H(rot)  DE(clash)    DE(int)     intcor
     17.20     -18.02       2.08        0.00     102.90       2.52       0.10       0.72       ----

> <Gold.Chemscore.Fitness>
17.1961

> <Gold.Chemscore.DG>
-18.0181

> <Gold.Chemscore.ZeroCoef>
-5.4800

> <Gold.Chemscore.Hbond>
2.0796

> <Gold.Chemscore.Metal>
0.0000

> <Gold.Chemscore.Lipo>
102.9008

> <Gold.Chemscore.Internal_Hbond>
0.0000

> <Gold.Chemscore.DEClash>
0.0998

> <Gold.Chemscore.DEInternal>
0.7222

> <Gold.Chemscore.Rot>
2.5185

> <Gold.Chemscore.Internal.Correction>
   9.000000E+99

> <Gold.Chemscore.Hbonds>
donor molecule, donor type, donor heavy atom, donor atom, acceptor molecule, acceptor atom, score
      P1  H  6896  6909       L1    22  0.54
      P1  H 10752 10763       L1    13  0.98

> <Gold.Chemscore.Hbond.Weighted>
-6.9460

> <Gold.Chemscore.Metal.Weighted>
-0.0000

> <Gold.Chemscore.Lipo.Weighted>
-12.0394

> <Gold.Chemscore.Internal_Hbond.Weighted>
0.0000

> <Gold.Chemscore.DEClash.Weighted>
0.0998

> <Gold.Chemscore.DEInternal.Weighted>
0.7222

> <Gold.Chemscore.Rot.Weighted>
6.4472

> <Gold.Chemscore.Internal.Correction.Weighted>
   9.000000E+99

> <Gold.Protein.RotatedTorsions>
[ 6907 6896 6895 6894 ] final   -5.28 input  -60.11 | X-H torsion
[ 7974 7965 7964 7962 ] final  136.51 input  175.53 | X-H torsion
[ 8008 7997 7996 7995 ] final  -64.58 input   59.86 | X-H torsion
[ 10167 10162 10161 10158 ] final   24.44 input  -65.29 | X-H torsion
[ 10718 10713 10712 10709 ] final -120.80 input   66.30 | X-H torsion
[ 10763 10752 10751 10750 ] final   91.24 input  -60.55 | X-H torsion
[ 11005 11000 10999 10996 ] final   -9.46 input  -57.11 | X-H torsion

> <Gold.Protein.ActiveResidues>
 VAL166  LYS551  ARG553  GLY616  TRP617  ASP618  TYR619  PRO620  LYS621  CYS622 
 ASP623  PHE694  ASN695  SER759  ASP760  ASP761  ALA762  ILE779  LEU786  VAL792 
 PHE793  MET794  SER795  GLU796  ALA797  LYS798  CYS799  TRP800  GLU811  SER814 

> <Gold.Protein.RotatedAtoms>
  151.4841  135.1054  159.9785 H   0  0  0  0  0  0  0  0  0  0  0  0  # atno 6907 bound_to 6896
  152.4767  133.8152  159.7035 H   0  0  0  0  0  0  0  0  0  0  0  0  # atno 6908 bound_to 6896
  150.8811  133.7310  159.2958 H   0  0  0  0  0  0  0  0  0  0  0  0  # atno 6909 bound_to 6896
  144.9558  139.4766  143.5504 H   0  0  0  0  0  0  0  0  0  0  0  0  # atno 7974 bound_to 7965
  154.4620  140.0951  156.6919 H   0  0  0  0  0  0  0  0  0  0  0  0  # atno 8008 bound_to 7997
  155.4966  140.3472  155.4345 H   0  0  0  0  0  0  0  0  0  0  0  0  # atno 8009 bound_to 7997
  156.0888  140.1392  156.9608 H   0  0  0  0  0  0  0  0  0  0  0  0  # atno 8010 bound_to 7997
  140.5187  144.0038  150.6406 H   0  0  0  0  0  0  0  0  0  0  0  0  # atno 10167 bound_to 10162
  156.1286  130.6378  150.9584 H   0  0  0  0  0  0  0  0  0  0  0  0  # atno 10718 bound_to 10713
  153.2061  135.4405  155.0325 H   0  0  0  0  0  0  0  0  0  0  0  0  # atno 10763 bound_to 10752
  154.8174  135.3321  154.7138 H   0  0  0  0  0  0  0  0  0  0  0  0  # atno 10764 bound_to 10752
  153.7580  135.6993  153.4987 H   0  0  0  0  0  0  0  0  0  0  0  0  # atno 10765 bound_to 10752
  140.7344  133.8722  155.8918 H   0  0  0  0  0  0  0  0  0  0  0  0  # atno 11005 bound_to 11000
  146.3336  139.8674  142.8846 LP  0  0  0  0  0  0  0  0  0  0  0  0  # atno 17320 bound_to 7965
  145.2775  141.0128  143.3736 LP  0  0  0  0  0  0  0  0  0  0  0  0  # atno 17321 bound_to 7965
  140.3381  143.3036  152.0617 LP  0  0  0  0  0  0  0  0  0  0  0  0  # atno 17342 bound_to 10162
  139.4917  144.6462  151.6774 LP  0  0  0  0  0  0  0  0  0  0  0  0  # atno 17343 bound_to 10162
  157.6466  131.0903  150.8140 LP  0  0  0  0  0  0  0  0  0  0  0  0  # atno 17370 bound_to 10713
  156.8228  130.4989  149.5341 LP  0  0  0  0  0  0  0  0  0  0  0  0  # atno 17371 bound_to 10713
  140.9892  134.1301  157.4424 LP  0  0  0  0  0  0  0  0  0  0  0  0  # atno 17394 bound_to 11000
  139.8819  135.0035  156.6191 LP  0  0  0  0  0  0  0  0  0  0  0  0  # atno 17395 bound_to 11000

$$$$
