AV-unprocessed.smi:1741|AV-procd|sdf|7018|dock6
  -GOLD-   22720 8233D 1   1.00000     0.00000
 Structure written by MMmdl.
 38 39  0  0  0  0  0  0  0  0  1 V2000
  150.9303  140.6845  155.8532 C   0  0  0  0  0  0  0  0  0  0  0  0
  149.8112  141.5940  155.3314 C   0  0  0  0  0  0  0  0  0  0  0  0
  148.8619  140.8650  154.5129 N   0  0  0  0  0  0  0  0  0  0  0  0
  148.9244  139.5486  154.1006 C   0  0  0  0  0  0  0  0  0  0  0  0
  147.7984  139.3414  153.3549 C   0  0  0  0  0  0  0  0  0  0  0  0
  147.3625  138.1678  152.6892 N   0  0  0  0  0  0  0  0  0  0  0  0
  146.1335  137.6266  152.7085 C   0  0  0  0  0  0  0  0  0  0  0  0
  145.1637  138.0983  153.3025 O   0  0  0  0  0  0  0  0  0  0  0  0
  146.0937  136.4932  151.9932 N   0  0  0  0  0  0  0  0  0  0  0  0
  144.9228  135.6396  151.8029 C   0  0  2  0  0  0  0  0  0  0  0  0
  144.5414  135.0201  153.1563 C   0  0  0  0  0  0  0  0  0  0  0  0
  145.2338  134.5718  150.7359 C   0  0  1  0  0  0  0  0  0  0  0  0
  146.2825  133.5388  151.1509 C   0  0  0  0  0  0  0  0  0  0  0  0
  145.9488  132.3238  150.2996 C   0  0  0  0  0  0  0  0  0  0  0  0
  144.5395  132.6112  149.7748 C   0  0  0  0  0  0  0  0  0  0  0  0
  144.0996  133.7522  150.4976 O   0  0  0  0  0  0  0  0  0  0  0  0
  147.0999  140.5766  153.3574 C   0  0  0  0  0  0  0  0  0  0  0  0
  147.7488  141.4931  154.0592 N   0  0  0  0  0  0  0  0  0  0  0  0
  151.6386  141.2505  156.4580 H   0  0  0  0  0  0  0  0  0  0  0  0
  151.4833  140.2295  155.0309 H   0  0  0  0  0  0  0  0  0  0  0  0
  150.5312  139.8820  156.4742 H   0  0  0  0  0  0  0  0  0  0  0  0
  149.2773  142.0548  156.1636 H   0  0  0  0  0  0  0  0  0  0  0  0
  150.2330  142.4055  154.7374 H   0  0  0  0  0  0  0  0  0  0  0  0
  149.7451  138.9009  154.3714 H   0  0  0  0  0  0  0  0  0  0  0  0
  148.0653  137.6803  152.1528 H   0  0  0  0  0  0  0  0  0  0  0  0
  146.9442  136.1951  151.5386 H   0  0  0  0  0  0  0  0  0  0  0  0
  144.0743  136.2334  151.4586 H   0  0  0  0  0  0  0  0  0  0  0  0
  143.6394  134.4136  153.0757 H   0  0  0  0  0  0  0  0  0  0  0  0
  144.3459  135.7935  153.8998 H   0  0  0  0  0  0  0  0  0  0  0  0
  145.3382  134.3820  153.5401 H   0  0  0  0  0  0  0  0  0  0  0  0
  145.5303  135.0442  149.7970 H   0  0  0  0  0  0  0  0  0  0  0  0
  147.3033  133.8913  151.0010 H   0  0  0  0  0  0  0  0  0  0  0  0
  146.1659  133.2864  152.2058 H   0  0  0  0  0  0  0  0  0  0  0  0
  146.6502  132.2104  149.4721 H   0  0  0  0  0  0  0  0  0  0  0  0
  145.9804  131.4108  150.8951 H   0  0  0  0  0  0  0  0  0  0  0  0
  144.5688  132.8493  148.7106 H   0  0  0  0  0  0  0  0  0  0  0  0
  143.8594  131.7710  149.9171 H   0  0  0  0  0  0  0  0  0  0  0  0
  146.1643  140.8340  152.8830 H   0  0  0  0  0  0  0  0  0  0  0  0
  1  2  1  0  0  0  0
  1 19  1  0  0  0  0
  1 20  1  0  0  0  0
  1 21  1  0  0  0  0
  2  3  1  0  0  0  0
  2 22  1  0  0  0  0
  2 23  1  0  0  0  0
  3 18  1  0  0  0  0
  3  4  1  0  0  0  0
  4  5  2  0  0  0  0
  4 24  1  0  0  0  0
  5  6  1  0  0  0  0
  5 17  1  0  0  0  0
  6  7  1  0  0  0  0
  6 25  1  0  0  0  0
  7  8  2  0  0  0  0
  7  9  1  0  0  0  0
  9 10  1  0  0  0  0
  9 26  1  0  0  0  0
 10 11  1  0  0  0  0
 10 12  1  0  0  0  0
 10 27  1  0  0  0  0
 11 28  1  0  0  0  0
 11 29  1  0  0  0  0
 11 30  1  0  0  0  0
 12 16  1  0  0  0  0
 12 13  1  0  0  0  0
 12 31  1  0  0  0  0
 13 14  1  0  0  0  0
 13 32  1  0  0  0  0
 13 33  1  0  0  0  0
 14 15  1  0  0  0  0
 14 34  1  0  0  0  0
 14 35  1  0  0  0  0
 15 16  1  0  0  0  0
 15 36  1  0  0  0  0
 15 37  1  0  0  0  0
 17 18  2  0  0  0  0
 17 38  1  0  0  0  0
M  END
> <s_m_source_file>
AV-unprocessed.smi

> <i_m_source_file_index>
1741

> <i_lp_mmshare_version>
43012

> <i_f3d_flags>
0

> <s_epik_input>
W0NIM11bQ0gyXW4xW2NIXWMoW2NIXW4xKVtOSF1DKD1PKVtOSF1bQ0BIXShbQ0gzXSlbQ0BASF0yW0NIMl1bQ0gyXVtDSDJdTzI=

> <s_epik_cmdline>
J2VwaWtfcHl0aG9uJywgJy1waCcsICc3LjAnLCAnLXRuJywgJzgnLCAnLW1hJywgJzIwMCcsICctbWV0YWxfYmluZGluZycsICctaW1hZScsICc8aW5maWxlLm1hZT4nLCAnLW9tYWUnLCAnPG91dGZpbGUubWFlPic=

> <r_lp_tautomer_probability>
1

> <r_epik_Ionization_Penalty>
0.000179292

> <r_epik_Ionization_Penalty_Charging>
0

> <r_epik_Ionization_Penalty_Neutral>
0.000179292

> <r_epik_State_Penalty>
-0

> <r_epik_Charging_Adjusted_Penalty>
0

> <i_epik_Tot_Q>
0

> <i_epik_Tot_abs_Q>
0

> <r_epik_Metal_State_Penalty>
-0

> <b_epik_Metal_Only>
0

> <s_lp_Force_Field>
OPLS_2005

> <r_lp_Energy>
22.1528

> <b_lp_Chiralities_Consistent>
1

> <s_lp_Variant>
AV-unprocessed.smi:1741-3

> <Gold.Version>
5.8.1

> <Gold.Id.Protein>
6NUR|6NUR_protein|mol2

> <Gold.PLP.Fitness>
38.7385

> <Gold.PLP.PLP>
-31.2311

> <Gold.PLP.part.hbond>
-2.1522

> <Gold.PLP.part.metal>
0.0000

> <Gold.PLP.part.buried>
-2.7519

> <Gold.PLP.part.nonpolar>
-28.7339

> <Gold.PLP.part.repulsive>
1.9863

> <Gold.PLP.ligand.clash>
0.0000

> <Gold.PLP.ligand.torsion>
0.5102

> <Gold.PLP.Chemscore.Hbond>
1.8320

> <Gold.PLP.Chemscore.CHOScore>
1.0000

> <Gold.PLP.Chemscore.Metal>
0.0000

> <Gold.Chemscore.Hbonds>
donor molecule, donor type, donor heavy atom, donor atom, acceptor molecule, acceptor atom, score
      L1  H     6    25       P1  7948  1.00
      L1  H     9    26       P1  7948  0.82
      L1  C    17    38       P1 10175  1.00

> <Gold.PLP.Chemscore.Internal.Correction>
0.0318

> <Gold.Rescore>
     Score         DG    S(hbond)    S(metal)    S(lipo)     H(rot)  DE(clash)    DE(int)     intcor
     15.56     -16.51       1.86        0.00      71.24       1.38       0.32       0.63       ----

> <Gold.Chemscore.Fitness>
15.5628

> <Gold.Chemscore.DG>
-16.5070

> <Gold.Chemscore.ZeroCoef>
-5.4800

> <Gold.Chemscore.Hbond>
1.8627

> <Gold.Chemscore.Metal>
0.0000

> <Gold.Chemscore.Lipo>
71.2444

> <Gold.Chemscore.Internal_Hbond>
0.0000

> <Gold.Chemscore.DEClash>
0.3164

> <Gold.Chemscore.DEInternal>
0.6277

> <Gold.Chemscore.Rot>
1.3790

> <Gold.Chemscore.Internal.Correction>
   9.000000E+99

> <Gold.Chemscore.Hbonds>
donor molecule, donor type, donor heavy atom, donor atom, acceptor molecule, acceptor atom, score
      L1  H     6    25       P1  7948  0.94
      L1  H     9    26       P1  7948  0.78

> <Gold.Chemscore.Hbond.Weighted>
-6.2215

> <Gold.Chemscore.Metal.Weighted>
-0.0000

> <Gold.Chemscore.Lipo.Weighted>
-8.3356

> <Gold.Chemscore.Internal_Hbond.Weighted>
0.0000

> <Gold.Chemscore.DEClash.Weighted>
0.3164

> <Gold.Chemscore.DEInternal.Weighted>
0.6277

> <Gold.Chemscore.Rot.Weighted>
3.5302

> <Gold.Chemscore.Internal.Correction.Weighted>
   9.000000E+99

> <Gold.Protein.RotatedTorsions>
[ 6907 6896 6895 6894 ] final    4.03 input  -60.11 | X-H torsion
[ 7974 7965 7964 7962 ] final  -90.25 input  175.53 | X-H torsion
[ 8008 7997 7996 7995 ] final  -97.00 input   59.86 | X-H torsion
[ 10167 10162 10161 10158 ] final   82.83 input  -65.29 | X-H torsion
[ 10718 10713 10712 10709 ] final  -43.04 input   66.30 | X-H torsion
[ 10763 10752 10751 10750 ] final -148.27 input  -60.55 | X-H torsion
[ 11005 11000 10999 10996 ] final  172.64 input  -57.11 | X-H torsion

> <Gold.Protein.ActiveResidues>
 VAL166  LYS551  ARG553  GLY616  TRP617  ASP618  TYR619  PRO620  LYS621  CYS622 
 ASP623  PHE694  ASN695  SER759  ASP760  ASP761  ALA762  ILE779  LEU786  VAL792 
 PHE793  MET794  SER795  GLU796  ALA797  LYS798  CYS799  TRP800  GLU811  SER814 

> <Gold.Protein.RotatedAtoms>
  151.6347  135.1019  160.0128 H   0  0  0  0  0  0  0  0  0  0  0  0  # atno 6907 bound_to 6896
  152.4087  133.6925  159.6387 H   0  0  0  0  0  0  0  0  0  0  0  0  # atno 6908 bound_to 6896
  150.7979  133.8580  159.3265 H   0  0  0  0  0  0  0  0  0  0  0  0  # atno 6909 bound_to 6896
  145.4289  140.9555  143.2139 H   0  0  0  0  0  0  0  0  0  0  0  0  # atno 7974 bound_to 7965
  154.7819  140.0466  157.1134 H   0  0  0  0  0  0  0  0  0  0  0  0  # atno 8008 bound_to 7997
  154.9694  140.3087  155.4975 H   0  0  0  0  0  0  0  0  0  0  0  0  # atno 8009 bound_to 7997
  156.2937  140.2256  156.4786 H   0  0  0  0  0  0  0  0  0  0  0  0  # atno 8010 bound_to 7997
  139.9247  144.6190  150.8404 H   0  0  0  0  0  0  0  0  0  0  0  0  # atno 10167 bound_to 10162
  156.2532  130.4190  149.8626 H   0  0  0  0  0  0  0  0  0  0  0  0  # atno 10718 bound_to 10713
  154.8241  135.3338  154.6948 H   0  0  0  0  0  0  0  0  0  0  0  0  # atno 10763 bound_to 10752
  153.7577  135.6935  153.4936 H   0  0  0  0  0  0  0  0  0  0  0  0  # atno 10764 bound_to 10752
  153.2132  135.4475  155.0354 H   0  0  0  0  0  0  0  0  0  0  0  0  # atno 10765 bound_to 10752
  140.3319  134.7350  157.4140 H   0  0  0  0  0  0  0  0  0  0  0  0  # atno 11005 bound_to 11000
  144.8196  139.5816  143.6993 LP  0  0  0  0  0  0  0  0  0  0  0  0  # atno 17320 bound_to 7965
  146.2617  139.6426  142.9357 LP  0  0  0  0  0  0  0  0  0  0  0  0  # atno 17321 bound_to 7965
  140.7653  143.3272  151.2490 LP  0  0  0  0  0  0  0  0  0  0  0  0  # atno 17342 bound_to 10162
  139.6832  143.9819  152.2820 LP  0  0  0  0  0  0  0  0  0  0  0  0  # atno 17343 bound_to 10162
  156.6167  130.8609  151.3466 LP  0  0  0  0  0  0  0  0  0  0  0  0  # atno 17370 bound_to 10713
  157.7222  130.9574  150.1487 LP  0  0  0  0  0  0  0  0  0  0  0  0  # atno 17371 bound_to 10713
  140.0853  134.5675  155.8498 LP  0  0  0  0  0  0  0  0  0  0  0  0  # atno 17394 bound_to 11000
  141.2061  133.6652  156.6221 LP  0  0  0  0  0  0  0  0  0  0  0  0  # atno 17395 bound_to 11000

$$$$
