AV-unprocessed.smi:21|AV-procd|sdf|136|dock3
  -GOLD-   2262015333D 1   1.00000     0.00000
 Structure written by MMmdl.
 62 65  0  0  0  0  0  0  0  0  2 V2000
  144.0247  132.5292  149.6179 C   0  0  0  0  0  0  0  0  0  0  0  0
  144.9439  132.9131  150.6284 O   0  0  0  0  0  0  0  0  0  0  0  0
  145.2186  134.3057  150.6504 C   0  0  2  0  0  0  0  0  0  0  0  0
  146.2003  134.7092  151.7443 C   0  0  0  0  0  0  0  0  0  0  0  0
  145.8976  136.1968  151.9894 C   0  0  2  0  0  0  0  0  0  0  0  0
  146.2717  136.6906  153.4130 C   0  0  0  0  0  0  0  0  0  0  0  0
  146.8769  138.0241  153.4327 N   0  0  0  0  0  0  0  0  0  0  0  0
  146.7864  138.8259  152.2154 C   0  0  0  0  0  0  0  0  0  0  0  0
  147.9398  138.2326  154.2560 C   0  0  0  0  0  0  0  0  0  0  0  0
  148.4417  137.1844  154.9633 N   0  0  0  0  0  0  0  0  0  0  0  0
  149.4432  137.3648  155.8278 C   0  0  0  0  0  0  0  0  0  0  0  0
  150.0780  138.4941  156.1415 N   0  0  0  0  0  0  0  0  0  0  0  0
  149.5955  139.5492  155.4257 C   0  0  0  0  0  0  0  0  0  0  0  0
  148.5495  139.5055  154.4597 C   0  0  0  0  0  0  0  0  0  0  0  0
  148.3620  140.7721  153.9178 N   0  0  0  0  0  0  0  0  0  0  0  0
  149.2327  141.5210  154.5361 C   0  0  0  0  0  0  0  0  0  0  0  0
  149.9880  140.8753  155.4881 N   0  0  0  0  0  0  0  0  0  0  0  0
  151.0114  141.4695  156.3314 C   0  0  0  0  0  0  0  0  0  0  0  0
  150.4718  142.4169  157.4404 C   0  0  1  0  0  0  0  0  0  0  0  0
  149.5842  141.6064  158.4152 C   0  0  0  0  0  0  0  0  0  0  0  0
  148.7059  142.4490  159.1328 O   0  0  0  0  0  0  0  0  0  0  0  0
  151.5876  143.1743  158.2198 C   0  0  1  0  0  0  0  0  0  0  0  0
  151.1346  144.2302  159.2177 C   0  0  0  0  0  0  0  0  0  0  0  0
  152.3655  144.3884  160.0978 C   0  0  0  0  0  0  0  0  0  0  0  0
  152.8761  143.0724  160.2330 O   0  0  0  0  0  0  0  0  0  0  0  0
  152.4349  142.2754  159.1376 C   0  0  0  0  0  0  0  0  0  0  0  0
  144.4672  136.3782  151.5969 N   0  3  2  0  0  0  0  0  0  0  0  0
  143.5444  136.9798  152.5882 C   0  0  0  0  0  0  0  0  0  0  0  0
  143.9749  135.0939  151.0491 C   0  0  0  0  0  0  0  0  0  0  0  0
  145.5709  134.6505  149.6763 H   0  0  0  0  0  0  0  0  0  0  0  0
  146.4644  136.7797  151.2622 H   0  0  0  0  0  0  0  0  0  0  0  0
  143.8257  131.4603  149.6947 H   0  0  0  0  0  0  0  0  0  0  0  0
  144.4220  132.7203  148.6206 H   0  0  0  0  0  0  0  0  0  0  0  0
  143.0758  133.0562  149.7250 H   0  0  0  0  0  0  0  0  0  0  0  0
  145.9936  134.1297  152.6455 H   0  0  0  0  0  0  0  0  0  0  0  0
  147.2378  134.5317  151.4603 H   0  0  0  0  0  0  0  0  0  0  0  0
  145.3724  136.7563  154.0251 H   0  0  0  0  0  0  0  0  0  0  0  0
  146.9073  135.9612  153.9095 H   0  0  0  0  0  0  0  0  0  0  0  0
  146.9142  139.8857  152.4396 H   0  0  0  0  0  0  0  0  0  0  0  0
  145.8103  138.7031  151.7454 H   0  0  0  0  0  0  0  0  0  0  0  0
  147.5491  138.5294  151.4945 H   0  0  0  0  0  0  0  0  0  0  0  0
  149.7765  136.4798  156.3500 H   0  0  0  0  0  0  0  0  0  0  0  0
  149.3305  142.5773  154.3308 H   0  0  0  0  0  0  0  0  0  0  0  0
  151.5657  140.6406  156.7719 H   0  0  0  0  0  0  0  0  0  0  0  0
  151.7207  142.0047  155.6990 H   0  0  0  0  0  0  0  0  0  0  0  0
  149.8307  143.1677  156.9775 H   0  0  0  0  0  0  0  0  0  0  0  0
  149.0051  140.8543  157.8780 H   0  0  0  0  0  0  0  0  0  0  0  0
  150.1820  141.0766  159.1557 H   0  0  0  0  0  0  0  0  0  0  0  0
  147.8190  142.2524  158.8718 H   0  0  0  0  0  0  0  0  0  0  0  0
  152.2552  143.6555  157.5030 H   0  0  0  0  0  0  0  0  0  0  0  0
  150.8614  145.1773  158.7562 H   0  0  0  0  0  0  0  0  0  0  0  0
  150.2900  143.8712  159.8077 H   0  0  0  0  0  0  0  0  0  0  0  0
  153.1133  145.0075  159.6000 H   0  0  0  0  0  0  0  0  0  0  0  0
  152.1425  144.8373  161.0648 H   0  0  0  0  0  0  0  0  0  0  0  0
  151.8406  141.4548  159.5422 H   0  0  0  0  0  0  0  0  0  0  0  0
  153.2872  141.8440  158.6116 H   0  0  0  0  0  0  0  0  0  0  0  0
  143.4770  136.3739  153.4925 H   0  0  0  0  0  0  0  0  0  0  0  0
  142.5428  137.0594  152.1641 H   0  0  0  0  0  0  0  0  0  0  0  0
  143.8593  137.9875  152.8592 H   0  0  0  0  0  0  0  0  0  0  0  0
  143.2895  135.2468  150.2150 H   0  0  0  0  0  0  0  0  0  0  0  0
  143.4368  134.5495  151.8276 H   0  0  0  0  0  0  0  0  0  0  0  0
  144.4899  137.0192  150.8164 H   0  0  0  0  0  0  0  0  0  0  0  0
  1  2  1  0  0  0  0
  1 32  1  0  0  0  0
  1 33  1  0  0  0  0
  1 34  1  0  0  0  0
  2  3  1  0  0  0  0
  3 30  1  0  0  0  0
  3 29  1  0  0  0  0
  3  4  1  0  0  0  0
  4  5  1  0  0  0  0
  4 35  1  0  0  0  0
  4 36  1  0  0  0  0
  5 31  1  0  0  0  0
  5  6  1  0  0  0  0
  5 27  1  0  0  0  0
  6  7  1  0  0  0  0
  6 37  1  0  0  0  0
  6 38  1  0  0  0  0
  7  8  1  0  0  0  0
  7  9  1  0  0  0  0
  8 39  1  0  0  0  0
  8 40  1  0  0  0  0
  8 41  1  0  0  0  0
  9 14  1  0  0  0  0
  9 10  2  0  0  0  0
 10 11  1  0  0  0  0
 11 12  2  0  0  0  0
 11 42  1  0  0  0  0
 12 13  1  0  0  0  0
 13 17  1  0  0  0  0
 13 14  2  0  0  0  0
 14 15  1  0  0  0  0
 15 16  2  0  0  0  0
 16 17  1  0  0  0  0
 16 43  1  0  0  0  0
 17 18  1  0  0  0  0
 18 19  1  0  0  0  0
 18 44  1  0  0  0  0
 18 45  1  0  0  0  0
 19 20  1  0  0  0  0
 19 22  1  0  0  0  0
 19 46  1  0  0  0  0
 20 21  1  0  0  0  0
 20 47  1  0  0  0  0
 20 48  1  0  0  0  0
 21 49  1  0  0  0  0
 22 26  1  0  0  0  0
 22 23  1  0  0  0  0
 22 50  1  0  0  0  0
 23 24  1  0  0  0  0
 23 51  1  0  0  0  0
 23 52  1  0  0  0  0
 24 25  1  0  0  0  0
 24 53  1  0  0  0  0
 24 54  1  0  0  0  0
 25 26  1  0  0  0  0
 26 55  1  0  0  0  0
 26 56  1  0  0  0  0
 27 28  1  0  0  0  0
 27 29  1  0  0  0  0
 27 62  1  0  0  0  0
 28 57  1  0  0  0  0
 28 58  1  0  0  0  0
 28 59  1  0  0  0  0
 29 60  1  0  0  0  0
 29 61  1  0  0  0  0
M  CHG  1  27   1
M  END
> <s_m_source_file>
AV-unprocessed.smi

> <i_m_source_file_index>
21

> <i_lp_mmshare_version>
43012

> <i_f3d_flags>
0

> <s_epik_input>
W0NIM11PW0NASF0xW0NIMl1bQ0BIXShOKFtDSDNdKVtDSDJdMSlbQ0gyXU4oW0NIM10pYyhuW2NIXW4yKWMoYzIzKW5bY0hdbjNbQ0gyXVtDQEhdKFtDSDJdW09IXSlbQ0BASF00W0NIMl1bQ0gyXU9bQ0gyXTQ=

> <s_epik_cmdline>
J2VwaWtfcHl0aG9uJywgJy1waCcsICc3LjAnLCAnLXRuJywgJzgnLCAnLW1hJywgJzIwMCcsICctbWV0YWxfYmluZGluZycsICctaW1hZScsICc8aW5maWxlLm1hZT4nLCAnLW9tYWUnLCAnPG91dGZpbGUubWFlPic=

> <r_lp_tautomer_probability>
1

> <r_epik_Ionization_Penalty>
0.0157465

> <r_epik_Ionization_Penalty_Charging>
0.015354

> <r_epik_Ionization_Penalty_Neutral>
0.000392529

> <r_epik_State_Penalty>
0.0120612

> <r_epik_Charging_Adjusted_Penalty>
0.0274152

> <i_epik_Tot_Q>
1

> <i_epik_Tot_abs_Q>
1

> <r_epik_Metal_State_Penalty>
0.0121253

> <b_epik_Metal_Only>
0

> <s_lp_Force_Field>
OPLS_2005

> <r_lp_Energy>
61.1925

> <b_lp_Chiralities_Consistent>
1

> <s_lp_Variant>
AV-unprocessed.smi:21-16

> <Gold.Version>
5.8.1

> <Gold.Id.Protein>
6NUR|6NUR_protein|mol2

> <Gold.PLP.Fitness>
53.0312

> <Gold.PLP.PLP>
-48.5454

> <Gold.PLP.part.hbond>
-2.0000

> <Gold.PLP.part.metal>
0.0000

> <Gold.PLP.part.buried>
-3.2759

> <Gold.PLP.part.nonpolar>
-43.3966

> <Gold.PLP.part.repulsive>
0.6884

> <Gold.PLP.ligand.clash>
0.0000

> <Gold.PLP.ligand.torsion>
1.3044

> <Gold.PLP.Chemscore.Hbond>
1.0000

> <Gold.PLP.Chemscore.CHOScore>
1.0000

> <Gold.PLP.Chemscore.Metal>
0.0000

> <Gold.Chemscore.Hbonds>
donor molecule, donor type, donor heavy atom, donor atom, acceptor molecule, acceptor atom, score
      L1  H    27    62       P1 10171  1.00
      P1  H  6933  6944       L1    21  0.07
      L1  C    16    43       P1  8028  0.98

> <Gold.PLP.Chemscore.Internal.Correction>
1.0946

> <Gold.Rescore>
     Score         DG    S(hbond)    S(metal)    S(lipo)     H(rot)  DE(clash)    DE(int)     intcor
     11.49     -13.99       1.01        0.00     111.25       3.08       0.03       2.47       ----

> <Gold.Chemscore.Fitness>
11.4929

> <Gold.Chemscore.DG>
-13.9858

> <Gold.Chemscore.ZeroCoef>
-5.4800

> <Gold.Chemscore.Hbond>
1.0069

> <Gold.Chemscore.Metal>
0.0000

> <Gold.Chemscore.Lipo>
111.2539

> <Gold.Chemscore.Internal_Hbond>
0.0000

> <Gold.Chemscore.DEClash>
0.0266

> <Gold.Chemscore.DEInternal>
2.4662

> <Gold.Chemscore.Rot>
3.0758

> <Gold.Chemscore.Internal.Correction>
   9.000000E+99

> <Gold.Chemscore.Hbonds>
donor molecule, donor type, donor heavy atom, donor atom, acceptor molecule, acceptor atom, score
      L1  H    27    62       P1 10171  0.96
      P1  H  6933  6944       L1    21  0.02

> <Gold.Chemscore.Hbond.Weighted>
-3.3632

> <Gold.Chemscore.Metal.Weighted>
-0.0000

> <Gold.Chemscore.Lipo.Weighted>
-13.0167

> <Gold.Chemscore.Internal_Hbond.Weighted>
0.0000

> <Gold.Chemscore.DEClash.Weighted>
0.0266

> <Gold.Chemscore.DEInternal.Weighted>
2.4662

> <Gold.Chemscore.Rot.Weighted>
7.8741

> <Gold.Chemscore.Internal.Correction.Weighted>
   9.000000E+99

> <Gold.Protein.RotatedTorsions>
[ 6907 6896 6895 6894 ] final   46.96 input  -60.11 | X-H torsion
[ 7974 7965 7964 7962 ] final -148.97 input  175.53 | X-H torsion
[ 8008 7997 7996 7995 ] final   43.64 input   59.86 | X-H torsion
[ 10167 10162 10161 10158 ] final  -26.17 input  -65.29 | X-H torsion
[ 10718 10713 10712 10709 ] final   90.62 input   66.30 | X-H torsion
[ 10763 10752 10751 10750 ] final  -82.27 input  -60.55 | X-H torsion
[ 11005 11000 10999 10996 ] final  -49.03 input  -57.11 | X-H torsion

> <Gold.Protein.ActiveResidues>
 VAL166  LYS551  ARG553  GLY616  TRP617  ASP618  TYR619  PRO620  LYS621  CYS622 
 ASP623  PHE694  ASN695  SER759  ASP760  ASP761  ALA762  ILE779  LEU786  VAL792 
 PHE793  MET794  SER795  GLU796  ALA797  LYS798  CYS799  TRP800  GLU811  SER814 

> <Gold.Protein.RotatedAtoms>
  152.2625  134.8019  160.0427 H   0  0  0  0  0  0  0  0  0  0  0  0  # atno 6907 bound_to 6896
  151.8660  133.3461  159.3727 H   0  0  0  0  0  0  0  0  0  0  0  0  # atno 6908 bound_to 6896
  150.7122  134.5087  159.5641 H   0  0  0  0  0  0  0  0  0  0  0  0  # atno 6909 bound_to 6896
  144.7996  140.5126  143.5716 H   0  0  0  0  0  0  0  0  0  0  0  0  # atno 7974 bound_to 7965
  155.3060  140.3388  155.4245 H   0  0  0  0  0  0  0  0  0  0  0  0  # atno 8008 bound_to 7997
  156.1978  140.1721  156.8000 H   0  0  0  0  0  0  0  0  0  0  0  0  # atno 8009 bound_to 7997
  154.5521  140.0703  156.8668 H   0  0  0  0  0  0  0  0  0  0  0  0  # atno 8010 bound_to 7997
  140.7284  143.4201  151.0965 H   0  0  0  0  0  0  0  0  0  0  0  0  # atno 10167 bound_to 10162
  157.6959  131.0377  150.3605 H   0  0  0  0  0  0  0  0  0  0  0  0  # atno 10718 bound_to 10713
  154.5737  135.5597  153.7119 H   0  0  0  0  0  0  0  0  0  0  0  0  # atno 10763 bound_to 10752
  153.0057  135.6303  154.2078 H   0  0  0  0  0  0  0  0  0  0  0  0  # atno 10764 bound_to 10752
  154.2018  135.2877  155.2968 H   0  0  0  0  0  0  0  0  0  0  0  0  # atno 10765 bound_to 10752
  141.0735  133.6672  156.3526 H   0  0  0  0  0  0  0  0  0  0  0  0  # atno 11005 bound_to 11000
  145.5587  139.1478  143.3354 LP  0  0  0  0  0  0  0  0  0  0  0  0  # atno 17320 bound_to 7965
  146.2274  140.5723  142.8990 LP  0  0  0  0  0  0  0  0  0  0  0  0  # atno 17321 bound_to 7965
  139.7846  143.8306  152.3143 LP  0  0  0  0  0  0  0  0  0  0  0  0  # atno 17342 bound_to 10162
  139.8269  144.7271  150.9500 LP  0  0  0  0  0  0  0  0  0  0  0  0  # atno 17343 bound_to 10162
  156.4042  130.3921  149.6938 LP  0  0  0  0  0  0  0  0  0  0  0  0  # atno 17370 bound_to 10713
  156.4245  130.7785  151.2803 LP  0  0  0  0  0  0  0  0  0  0  0  0  # atno 17371 bound_to 10713
  140.5622  134.5922  157.5436 LP  0  0  0  0  0  0  0  0  0  0  0  0  # atno 17394 bound_to 11000
  139.9548  134.7554  156.0367 LP  0  0  0  0  0  0  0  0  0  0  0  0  # atno 17395 bound_to 11000

$$$$
