AV-unprocessed.smi:652|AV-procd|sdf|3201|dock2
  -GOLD-   22720 0133D 1   1.00000     0.00000
 Structure written by MMmdl.
 49 50  0  0  0  0  0  0  0  0  3 V2000
  149.2230  132.8530  154.0844 C   0  0  0  0  0  0  0  0  0  0  0  0
  147.8149  133.3929  153.8010 C   0  0  0  0  0  0  0  0  0  0  0  0
  147.2242  132.7864  152.5181 C   0  0  0  0  0  0  0  0  0  0  0  0
  147.8640  134.8495  153.7055 N   0  0  0  0  0  0  0  0  0  0  0  0
  147.2448  135.7050  154.5339 C   0  0  0  0  0  0  0  0  0  0  0  0
  146.5480  135.3423  155.4821 O   0  0  0  0  0  0  0  0  0  0  0  0
  147.4413  137.1941  154.2301 C   0  0  0  0  0  0  0  0  0  0  0  0
  146.8049  138.1225  155.2862 C   0  0  0  0  0  0  0  0  0  0  0  0
  147.2387  139.5350  155.1420 N   0  3  2  0  0  0  0  0  0  0  0  0
  147.1659  140.0019  153.7374 C   0  0  0  0  0  0  0  0  0  0  0  0
  147.5812  141.4781  153.6373 C   0  0  0  0  0  0  0  0  0  0  0  0
  148.8888  141.6398  154.1727 O   0  0  0  0  0  0  0  0  0  0  0  0
  148.9579  141.2938  155.5513 C   0  0  2  0  0  0  0  0  0  0  0  0
  150.3851  141.6043  156.0313 C   0  0  0  0  0  0  0  0  0  0  0  0
  150.4734  142.8970  156.6948 N   0  0  0  0  0  0  0  0  0  0  0  0
  151.1159  143.0239  157.9335 C   0  0  0  0  0  0  0  0  0  0  0  0
  151.2427  144.2420  158.6412 C   0  0  0  0  0  0  0  0  0  0  0  0
  151.9124  144.2281  159.8764 C   0  0  0  0  0  0  0  0  0  0  0  0
  152.4151  142.9964  160.3315 C   0  0  0  0  0  0  0  0  0  0  0  0
  152.2838  141.8425  159.6397 N   0  0  0  0  0  0  0  0  0  0  0  0
  151.6381  141.8883  158.4610 N   0  3  0  0  0  0  0  0  0  0  0  0
  148.5854  139.8034  155.7065 C   0  0  0  0  0  0  0  0  0  0  0  0
  149.2114  131.7682  154.1932 H   0  0  0  0  0  0  0  0  0  0  0  0
  149.6270  133.2709  155.0070 H   0  0  0  0  0  0  0  0  0  0  0  0
  149.9133  133.0981  153.2765 H   0  0  0  0  0  0  0  0  0  0  0  0
  147.1776  133.1151  154.6426 H   0  0  0  0  0  0  0  0  0  0  0  0
  147.1863  131.6986  152.5821 H   0  0  0  0  0  0  0  0  0  0  0  0
  147.8211  133.0468  151.6435 H   0  0  0  0  0  0  0  0  0  0  0  0
  146.2068  133.1379  152.3438 H   0  0  0  0  0  0  0  0  0  0  0  0
  148.4137  135.2334  152.9504 H   0  0  0  0  0  0  0  0  0  0  0  0
  148.5123  137.3931  154.1685 H   0  0  0  0  0  0  0  0  0  0  0  0
  147.0248  137.3901  153.2422 H   0  0  0  0  0  0  0  0  0  0  0  0
  145.7156  138.0660  155.2476 H   0  0  0  0  0  0  0  0  0  0  0  0
  147.0990  137.7733  156.2778 H   0  0  0  0  0  0  0  0  0  0  0  0
  147.8173  139.3878  153.1133 H   0  0  0  0  0  0  0  0  0  0  0  0
  146.1508  139.8813  153.3572 H   0  0  0  0  0  0  0  0  0  0  0  0
  147.5846  141.7971  152.5950 H   0  0  0  0  0  0  0  0  0  0  0  0
  146.8743  142.1205  154.1648 H   0  0  0  0  0  0  0  0  0  0  0  0
  148.2525  141.9163  156.1056 H   0  0  0  0  0  0  0  0  0  0  0  0
  150.7313  140.8187  156.7041 H   0  0  0  0  0  0  0  0  0  0  0  0
  151.0591  141.6133  155.1738 H   0  0  0  0  0  0  0  0  0  0  0  0
  150.0886  143.7118  156.2392 H   0  0  0  0  0  0  0  0  0  0  0  0
  150.8423  145.1697  158.2604 H   0  0  0  0  0  0  0  0  0  0  0  0
  152.0369  145.1302  160.4570 H   0  0  0  0  0  0  0  0  0  0  0  0
  152.9367  142.9327  161.2752 H   0  0  0  0  0  0  0  0  0  0  0  0
  148.6079  139.5333  156.7616 H   0  0  0  0  0  0  0  0  0  0  0  0
  149.3221  139.1770  155.2006 H   0  0  0  0  0  0  0  0  0  0  0  0
  146.5787  140.0962  155.6617 H   0  0  0  0  0  0  0  0  0  0  0  0
  151.5352  141.0204  157.9349 H   0  0  0  0  0  0  0  0  0  0  0  0
  1  2  1  0  0  0  0
  1 23  1  0  0  0  0
  1 24  1  0  0  0  0
  1 25  1  0  0  0  0
  2  3  1  0  0  0  0
  2  4  1  0  0  0  0
  2 26  1  0  0  0  0
  3 27  1  0  0  0  0
  3 28  1  0  0  0  0
  3 29  1  0  0  0  0
  4  5  1  0  0  0  0
  4 30  1  0  0  0  0
  5  6  2  0  0  0  0
  5  7  1  0  0  0  0
  7  8  1  0  0  0  0
  7 31  1  0  0  0  0
  7 32  1  0  0  0  0
  8  9  1  0  0  0  0
  8 33  1  0  0  0  0
  8 34  1  0  0  0  0
  9 22  1  0  0  0  0
  9 10  1  0  0  0  0
  9 48  1  0  0  0  0
 10 11  1  0  0  0  0
 10 35  1  0  0  0  0
 10 36  1  0  0  0  0
 11 12  1  0  0  0  0
 11 37  1  0  0  0  0
 11 38  1  0  0  0  0
 12 13  1  0  0  0  0
 13 14  1  0  0  0  0
 13 22  1  0  0  0  0
 13 39  1  0  0  0  0
 14 15  1  0  0  0  0
 14 40  1  0  0  0  0
 14 41  1  0  0  0  0
 15 16  1  0  0  0  0
 15 42  1  0  0  0  0
 16 21  1  0  0  0  0
 16 17  2  0  0  0  0
 17 18  1  0  0  0  0
 17 43  1  0  0  0  0
 18 19  2  0  0  0  0
 18 44  1  0  0  0  0
 19 20  1  0  0  0  0
 19 45  1  0  0  0  0
 20 21  2  0  0  0  0
 21 49  1  0  0  0  0
 22 46  1  0  0  0  0
 22 47  1  0  0  0  0
M  CHG  1   9   1
M  CHG  1  21   1
M  END
> <s_m_source_file>
AV-unprocessed.smi

> <i_m_source_file_index>
652

> <i_lp_mmshare_version>
43012

> <i_f3d_flags>
0

> <s_epik_input>
W0NIM11bQ0hdKFtDSDNdKVtOSF1DKD1PKVtDSDJdW0NIMl1OMVtDSDJdW0NIMl1PW0NASF0oW0NIMl0xKVtDSDJdW05IXWMyW2NIXVtjSF1bY0hdbm4y

> <s_epik_cmdline>
J2VwaWtfcHl0aG9uJywgJy1waCcsICc3LjAnLCAnLXRuJywgJzgnLCAnLW1hJywgJzIwMCcsICctbWV0YWxfYmluZGluZycsICctaW1hZScsICc8aW5maWxlLm1hZT4nLCAnLW9tYWUnLCAnPG91dGZpbGUubWFlPic=

> <r_lp_tautomer_probability>
0.966961

> <r_epik_Ionization_Penalty>
2.79885

> <r_epik_Ionization_Penalty_Charging>
2.79884

> <r_epik_Ionization_Penalty_Neutral>
3.2567e-06

> <r_epik_State_Penalty>
2.43203

> <r_epik_Charging_Adjusted_Penalty>
5.23087

> <i_epik_Tot_Q>
2

> <i_epik_Tot_abs_Q>
2

> <r_epik_Metal_State_Penalty>
2.43963

> <b_epik_Metal_Only>
0

> <s_lp_Force_Field>
OPLS_2005

> <r_lp_Energy>
30.0621

> <b_lp_Chiralities_Consistent>
1

> <s_lp_Variant>
AV-unprocessed.smi:652-10

> <Gold.Version>
5.8.1

> <Gold.Id.Protein>
6NUR|6NUR_protein|mol2

> <Gold.PLP.Fitness>
46.5872

> <Gold.PLP.PLP>
-37.7354

> <Gold.PLP.part.hbond>
-3.3533

> <Gold.PLP.part.metal>
0.0000

> <Gold.PLP.part.buried>
-5.0054

> <Gold.PLP.part.nonpolar>
-29.2823

> <Gold.PLP.part.repulsive>
0.3598

> <Gold.PLP.ligand.clash>
0.0537

> <Gold.PLP.ligand.torsion>
0.7722

> <Gold.PLP.Chemscore.Hbond>
3.4535

> <Gold.PLP.Chemscore.CHOScore>
0.0000

> <Gold.PLP.Chemscore.Metal>
0.0000

> <Gold.Chemscore.Hbonds>
donor molecule, donor type, donor heavy atom, donor atom, acceptor molecule, acceptor atom, score
      L1  H     4    30       P1  7948  1.00
      L1  H    15    42       P1  8028  2.00
      P1  H  8011  8017       L1    12  0.28

> <Gold.PLP.Chemscore.Internal.Correction>
0.0893

> <Gold.Rescore>
     Score         DG    S(hbond)    S(metal)    S(lipo)     H(rot)  DE(clash)    DE(int)     intcor
     15.98     -17.21       2.34        0.00      84.49       2.33       0.33       0.91       ----

> <Gold.Chemscore.Fitness>
15.9789

> <Gold.Chemscore.DG>
-17.2127

> <Gold.Chemscore.ZeroCoef>
-5.4800

> <Gold.Chemscore.Hbond>
2.3411

> <Gold.Chemscore.Metal>
0.0000

> <Gold.Chemscore.Lipo>
84.4861

> <Gold.Chemscore.Internal_Hbond>
0.0000

> <Gold.Chemscore.DEClash>
0.3252

> <Gold.Chemscore.DEInternal>
0.9086

> <Gold.Chemscore.Rot>
2.3326

> <Gold.Chemscore.Internal.Correction>
   9.000000E+99

> <Gold.Chemscore.Hbonds>
donor molecule, donor type, donor heavy atom, donor atom, acceptor molecule, acceptor atom, score
      L1  H     4    30       P1  7948  0.85
      L1  H    15    42       P1  8028  0.99
      P1  H  8011  8017       L1    12  0.04

> <Gold.Chemscore.Hbond.Weighted>
-7.8192

> <Gold.Chemscore.Metal.Weighted>
-0.0000

> <Gold.Chemscore.Lipo.Weighted>
-9.8849

> <Gold.Chemscore.Internal_Hbond.Weighted>
0.0000

> <Gold.Chemscore.DEClash.Weighted>
0.3252

> <Gold.Chemscore.DEInternal.Weighted>
0.9086

> <Gold.Chemscore.Rot.Weighted>
5.9714

> <Gold.Chemscore.Internal.Correction.Weighted>
   9.000000E+99

> <Gold.Protein.RotatedTorsions>
[ 6907 6896 6895 6894 ] final -174.02 input  -60.11 | X-H torsion
[ 7974 7965 7964 7962 ] final -136.41 input  175.53 | X-H torsion
[ 8008 7997 7996 7995 ] final  -46.60 input   59.86 | X-H torsion
[ 10167 10162 10161 10158 ] final  100.67 input  -65.29 | X-H torsion
[ 10718 10713 10712 10709 ] final -152.05 input   66.30 | X-H torsion
[ 10763 10752 10751 10750 ] final -168.31 input  -60.55 | X-H torsion
[ 11005 11000 10999 10996 ] final  -15.62 input  -57.11 | X-H torsion

> <Gold.Protein.ActiveResidues>
 VAL166  LYS551  ARG553  GLY616  TRP617  ASP618  TYR619  PRO620  LYS621  CYS622 
 ASP623  PHE694  ASN695  SER759  ASP760  ASP761  ALA762  ILE779  LEU786  VAL792 
 PHE793  MET794  SER795  GLU796  ALA797  LYS798  CYS799  TRP800  GLU811  SER814 

> <Gold.Protein.RotatedAtoms>
  151.5656  133.3397  159.2979 H   0  0  0  0  0  0  0  0  0  0  0  0  # atno 6907 bound_to 6896
  150.8397  134.7687  159.6933 H   0  0  0  0  0  0  0  0  0  0  0  0  # atno 6908 bound_to 6896
  152.4467  134.5486  159.9912 H   0  0  0  0  0  0  0  0  0  0  0  0  # atno 6909 bound_to 6896
  144.8929  140.6667  143.5134 H   0  0  0  0  0  0  0  0  0  0  0  0  # atno 7974 bound_to 7965
  154.4009  140.1367  156.4038 H   0  0  0  0  0  0  0  0  0  0  0  0  # atno 8008 bound_to 7997
  155.7799  140.3482  155.5271 H   0  0  0  0  0  0  0  0  0  0  0  0  # atno 8009 bound_to 7997
  155.8684  140.0968  157.1557 H   0  0  0  0  0  0  0  0  0  0  0  0  # atno 8010 bound_to 7997
  139.7507  144.6985  151.0437 H   0  0  0  0  0  0  0  0  0  0  0  0  # atno 10167 bound_to 10162
  156.4674  130.8242  151.2472 H   0  0  0  0  0  0  0  0  0  0  0  0  # atno 10718 bound_to 10713
  154.6642  135.2929  154.9827 H   0  0  0  0  0  0  0  0  0  0  0  0  # atno 10763 bound_to 10752
  154.0877  135.6595  153.4851 H   0  0  0  0  0  0  0  0  0  0  0  0  # atno 10764 bound_to 10752
  153.0447  135.5212  154.7607 H   0  0  0  0  0  0  0  0  0  0  0  0  # atno 10765 bound_to 10752
  140.7985  133.8232  155.9447 H   0  0  0  0  0  0  0  0  0  0  0  0  # atno 11005 bound_to 11000
  145.3751  139.1649  143.4311 LP  0  0  0  0  0  0  0  0  0  0  0  0  # atno 17320 bound_to 7965
  146.3064  140.3826  142.8685 LP  0  0  0  0  0  0  0  0  0  0  0  0  # atno 17321 bound_to 7965
  140.7797  143.4813  151.0015 LP  0  0  0  0  0  0  0  0  0  0  0  0  # atno 17342 bound_to 10162
  139.8500  143.7450  152.3178 LP  0  0  0  0  0  0  0  0  0  0  0  0  # atno 17343 bound_to 10162
  157.7494  131.0087  150.3240 LP  0  0  0  0  0  0  0  0  0  0  0  0  # atno 17370 bound_to 10713
  156.3654  130.3854  149.7218 LP  0  0  0  0  0  0  0  0  0  0  0  0  # atno 17371 bound_to 10713
  140.9319  134.2011  157.4858 LP  0  0  0  0  0  0  0  0  0  0  0  0  # atno 17394 bound_to 11000
  139.8724  134.9836  156.5205 LP  0  0  0  0  0  0  0  0  0  0  0  0  # atno 17395 bound_to 11000

$$$$
