AV-unprocessed.smi:1601|AV-procd|sdf|6437|dock1
  -GOLD-   22720 7 83D 1   1.00000     0.00000
 Structure written by MMmdl.
 42 43  0  0  0  0  0  0  0  0  2 V2000
  146.8943  138.6585  151.3541 C   0  0  0  0  0  0  0  0  0  0  0  0
  146.6187  138.4026  152.8561 C   0  0  2  0  0  0  0  0  0  0  0  0
  145.5915  137.2454  153.0223 C   0  0  0  0  0  0  0  0  0  0  0  0
  146.0311  135.9913  152.4163 N   0  0  0  0  0  0  0  0  0  0  0  0
  146.3019  134.8632  153.0925 C   0  0  0  0  0  0  0  0  0  0  0  0
  146.1965  134.7757  154.3164 O   0  0  0  0  0  0  0  0  0  0  0  0
  146.7695  133.6615  152.2565 C   0  0  1  0  0  0  0  0  0  0  0  0
  147.3075  132.5085  153.1286 C   0  0  0  0  0  0  0  0  0  0  0  0
  145.7093  133.2257  151.3545 N   0  0  0  0  0  0  0  0  0  0  0  0
  145.7847  132.2806  150.3515 C   0  0  0  0  0  0  0  0  0  0  0  0
  144.5623  132.2246  149.7459 C   0  0  0  0  0  0  0  0  0  0  0  0
  143.7937  133.1950  150.4463 C   0  0  0  0  0  0  0  0  0  0  0  0
  144.4836  133.7985  151.3998 N   0  0  0  0  0  0  0  0  0  0  0  0
  146.1981  139.6658  153.5506 N   0  3  0  0  0  0  0  0  0  0  0  0
  145.8765  139.5014  154.9965 C   0  0  0  0  0  0  0  0  0  0  0  0
  145.4614  140.8356  155.6403 C   0  0  0  0  0  0  0  0  0  0  0  0
  146.4852  141.8001  155.4577 O   0  0  0  0  0  0  0  0  0  0  0  0
  146.7042  142.0605  154.0809 C   0  0  0  0  0  0  0  0  0  0  0  0
  147.1784  140.7758  153.3824 C   0  0  0  0  0  0  0  0  0  0  0  0
  147.1494  137.7430  150.8214 H   0  0  0  0  0  0  0  0  0  0  0  0
  147.7392  139.3253  151.1911 H   0  0  0  0  0  0  0  0  0  0  0  0
  146.0230  139.0908  150.8613 H   0  0  0  0  0  0  0  0  0  0  0  0
  147.5529  138.0801  153.3186 H   0  0  0  0  0  0  0  0  0  0  0  0
  145.3914  137.0303  154.0720 H   0  0  0  0  0  0  0  0  0  0  0  0
  144.6382  137.5234  152.5719 H   0  0  0  0  0  0  0  0  0  0  0  0
  146.1412  135.9812  151.4125 H   0  0  0  0  0  0  0  0  0  0  0  0
  147.5986  134.0017  151.6335 H   0  0  0  0  0  0  0  0  0  0  0  0
  148.1349  132.8431  153.7554 H   0  0  0  0  0  0  0  0  0  0  0  0
  147.6783  131.6930  152.5073 H   0  0  0  0  0  0  0  0  0  0  0  0
  146.5411  132.0982  153.7875 H   0  0  0  0  0  0  0  0  0  0  0  0
  146.6928  131.7299  150.1549 H   0  0  0  0  0  0  0  0  0  0  0  0
  144.2629  131.5896  148.9254 H   0  0  0  0  0  0  0  0  0  0  0  0
  142.7638  133.4792  150.2889 H   0  0  0  0  0  0  0  0  0  0  0  0
  145.0450  138.8125  155.1360 H   0  0  0  0  0  0  0  0  0  0  0  0
  146.7398  139.0854  155.5182 H   0  0  0  0  0  0  0  0  0  0  0  0
  144.5228  141.1976  155.2170 H   0  0  0  0  0  0  0  0  0  0  0  0
  145.2940  140.6995  156.7089 H   0  0  0  0  0  0  0  0  0  0  0  0
  145.7943  142.4451  153.6170 H   0  0  0  0  0  0  0  0  0  0  0  0
  147.4617  142.8388  153.9867 H   0  0  0  0  0  0  0  0  0  0  0  0
  148.1462  140.4719  153.7846 H   0  0  0  0  0  0  0  0  0  0  0  0
  147.3289  141.0137  152.3315 H   0  0  0  0  0  0  0  0  0  0  0  0
  145.3419  139.9650  153.1062 H   0  0  0  0  0  0  0  0  0  0  0  0
  1  2  1  0  0  0  0
  1 20  1  0  0  0  0
  1 21  1  0  0  0  0
  1 22  1  0  0  0  0
  2  3  1  0  0  0  0
  2 14  1  0  0  0  0
  2 23  1  0  0  0  0
  3  4  1  0  0  0  0
  3 24  1  0  0  0  0
  3 25  1  0  0  0  0
  4  5  1  0  0  0  0
  4 26  1  0  0  0  0
  5  6  2  0  0  0  0
  5  7  1  0  0  0  0
  7  8  1  0  0  0  0
  7  9  1  0  0  0  0
  7 27  1  0  0  0  0
  8 28  1  0  0  0  0
  8 29  1  0  0  0  0
  8 30  1  0  0  0  0
  9 13  1  0  0  0  0
  9 10  1  0  0  0  0
 10 11  2  0  0  0  0
 10 31  1  0  0  0  0
 11 12  1  0  0  0  0
 11 32  1  0  0  0  0
 12 13  2  0  0  0  0
 12 33  1  0  0  0  0
 14 19  1  0  0  0  0
 14 15  1  0  0  0  0
 14 42  1  0  0  0  0
 15 16  1  0  0  0  0
 15 34  1  0  0  0  0
 15 35  1  0  0  0  0
 16 17  1  0  0  0  0
 16 36  1  0  0  0  0
 16 37  1  0  0  0  0
 17 18  1  0  0  0  0
 18 19  1  0  0  0  0
 18 38  1  0  0  0  0
 18 39  1  0  0  0  0
 19 40  1  0  0  0  0
 19 41  1  0  0  0  0
M  CHG  1  14   1
M  END
> <s_m_source_file>
AV-unprocessed.smi

> <i_m_source_file_index>
1601

> <i_lp_mmshare_version>
43012

> <i_f3d_flags>
0

> <s_epik_input>
W0NIMl0xW0NIMl1PW0NIMl1bQ0gyXU4xW0NASF0oW0NIM10pW0NIMl1bTkhdQyg9TylbQ0BIXShbQ0gzXSluMltjSF1bY0hdW2NIXW4y

> <s_epik_cmdline>
J2VwaWtfcHl0aG9uJywgJy1waCcsICc3LjAnLCAnLXRuJywgJzgnLCAnLW1hJywgJzIwMCcsICctbWV0YWxfYmluZGluZycsICctaW1hZScsICc8aW5maWxlLm1hZT4nLCAnLW9tYWUnLCAnPG91dGZpbGUubWFlPic=

> <r_lp_tautomer_probability>
1

> <r_epik_Ionization_Penalty>
0.732551

> <r_epik_Ionization_Penalty_Charging>
0.732531

> <r_epik_Ionization_Penalty_Neutral>
2.04647e-05

> <r_epik_State_Penalty>
0.757939

> <r_epik_Charging_Adjusted_Penalty>
1.49047

> <i_epik_Tot_Q>
1

> <i_epik_Tot_abs_Q>
1

> <r_epik_Metal_State_Penalty>
0.757952

> <b_epik_Metal_Only>
0

> <s_lp_Force_Field>
OPLS_2005

> <r_lp_Energy>
24.7345

> <b_lp_Chiralities_Consistent>
1

> <s_lp_Variant>
AV-unprocessed.smi:1601-7

> <Gold.Version>
5.8.1

> <Gold.Id.Protein>
6NUR|6NUR_protein|mol2

> <Gold.PLP.Fitness>
43.5771

> <Gold.PLP.PLP>
-31.8088

> <Gold.PLP.part.hbond>
-2.0000

> <Gold.PLP.part.metal>
0.0000

> <Gold.PLP.part.buried>
-0.5407

> <Gold.PLP.part.nonpolar>
-29.9012

> <Gold.PLP.part.repulsive>
0.3137

> <Gold.PLP.ligand.clash>
0.0000

> <Gold.PLP.ligand.torsion>
0.1957

> <Gold.PLP.Chemscore.Hbond>
2.0000

> <Gold.PLP.Chemscore.CHOScore>
2.0000

> <Gold.PLP.Chemscore.Metal>
0.0000

> <Gold.Chemscore.Hbonds>
donor molecule, donor type, donor heavy atom, donor atom, acceptor molecule, acceptor atom, score
      L1  H    14    42       P1 10175  2.00
      L1  C    10    31       P1 10747  1.00
      L1  C    12    33       P1 10186  1.00

> <Gold.PLP.Chemscore.Internal.Correction>
0.1598

> <Gold.Rescore>
     Score         DG    S(hbond)    S(metal)    S(lipo)     H(rot)  DE(clash)    DE(int)     intcor
     11.76     -13.36       1.00        0.00      79.59       1.86       0.05       1.55       ----

> <Gold.Chemscore.Fitness>
11.7559

> <Gold.Chemscore.DG>
-13.3624

> <Gold.Chemscore.ZeroCoef>
-5.4800

> <Gold.Chemscore.Hbond>
1.0000

> <Gold.Chemscore.Metal>
0.0000

> <Gold.Chemscore.Lipo>
79.5904

> <Gold.Chemscore.Internal_Hbond>
0.0000

> <Gold.Chemscore.DEClash>
0.0548

> <Gold.Chemscore.DEInternal>
1.5517

> <Gold.Chemscore.Rot>
1.8631

> <Gold.Chemscore.Internal.Correction>
   9.000000E+99

> <Gold.Chemscore.Hbonds>
donor molecule, donor type, donor heavy atom, donor atom, acceptor molecule, acceptor atom, score
      L1  H    14    42       P1 10175  1.00

> <Gold.Chemscore.Hbond.Weighted>
-3.3400

> <Gold.Chemscore.Metal.Weighted>
-0.0000

> <Gold.Chemscore.Lipo.Weighted>
-9.3121

> <Gold.Chemscore.Internal_Hbond.Weighted>
0.0000

> <Gold.Chemscore.DEClash.Weighted>
0.0548

> <Gold.Chemscore.DEInternal.Weighted>
1.5517

> <Gold.Chemscore.Rot.Weighted>
4.7697

> <Gold.Chemscore.Internal.Correction.Weighted>
   9.000000E+99

> <Gold.Protein.RotatedTorsions>
[ 6907 6896 6895 6894 ] final -172.13 input  -60.11 | X-H torsion
[ 7974 7965 7964 7962 ] final  -95.69 input  175.53 | X-H torsion
[ 8008 7997 7996 7995 ] final -135.32 input   59.86 | X-H torsion
[ 10167 10162 10161 10158 ] final  -57.57 input  -65.29 | X-H torsion
[ 10718 10713 10712 10709 ] final -151.14 input   66.30 | X-H torsion
[ 10763 10752 10751 10750 ] final -155.12 input  -60.55 | X-H torsion
[ 11005 11000 10999 10996 ] final   47.67 input  -57.11 | X-H torsion

> <Gold.Protein.ActiveResidues>
 VAL166  LYS551  ARG553  GLY616  TRP617  ASP618  TYR619  PRO620  LYS621  CYS622 
 ASP623  PHE694  ASN695  SER759  ASP760  ASP761  ALA762  ILE779  LEU786  VAL792 
 PHE793  MET794  SER795  GLU796  ALA797  LYS798  CYS799  TRP800  GLU811  SER814 

> <Gold.Protein.RotatedAtoms>
  151.5350  133.3442  159.2924 H   0  0  0  0  0  0  0  0  0  0  0  0  # atno 6907 bound_to 6896
  150.8570  134.7914  159.7064 H   0  0  0  0  0  0  0  0  0  0  0  0  # atno 6908 bound_to 6896
  152.4601  134.5213  159.9835 H   0  0  0  0  0  0  0  0  0  0  0  0  # atno 6909 bound_to 6896
  145.3567  140.9485  143.2524 H   0  0  0  0  0  0  0  0  0  0  0  0  # atno 7974 bound_to 7965
  155.3768  140.0491  157.3044 H   0  0  0  0  0  0  0  0  0  0  0  0  # atno 8008 bound_to 7997
  154.5102  140.2189  155.9133 H   0  0  0  0  0  0  0  0  0  0  0  0  # atno 8009 bound_to 7997
  156.1574  140.3123  155.8755 H   0  0  0  0  0  0  0  0  0  0  0  0  # atno 8010 bound_to 7997
  140.6250  143.2434  151.5386 H   0  0  0  0  0  0  0  0  0  0  0  0  # atno 10167 bound_to 10162
  156.4553  130.8187  151.2418 H   0  0  0  0  0  0  0  0  0  0  0  0  # atno 10718 bound_to 10713
  154.7810  135.3175  154.7989 H   0  0  0  0  0  0  0  0  0  0  0  0  # atno 10763 bound_to 10752
  153.8700  135.6845  153.4779 H   0  0  0  0  0  0  0  0  0  0  0  0  # atno 10764 bound_to 10752
  153.1447  135.4724  154.9485 H   0  0  0  0  0  0  0  0  0  0  0  0  # atno 10765 bound_to 10752
  140.1258  134.4770  155.8560 H   0  0  0  0  0  0  0  0  0  0  0  0  # atno 11005 bound_to 11000
  144.8677  139.5084  143.6782 LP  0  0  0  0  0  0  0  0  0  0  0  0  # atno 17320 bound_to 7965
  146.2945  139.7236  142.9137 LP  0  0  0  0  0  0  0  0  0  0  0  0  # atno 17321 bound_to 7965
  139.5472  144.2491  152.1463 LP  0  0  0  0  0  0  0  0  0  0  0  0  # atno 17342 bound_to 10162
  140.1720  144.4927  150.6574 LP  0  0  0  0  0  0  0  0  0  0  0  0  # atno 17343 bound_to 10162
  157.7501  131.0124  150.3385 LP  0  0  0  0  0  0  0  0  0  0  0  0  # atno 17370 bound_to 10713
  156.3773  130.3874  149.7129 LP  0  0  0  0  0  0  0  0  0  0  0  0  # atno 17371 bound_to 10713
  141.2161  133.6777  156.6976 LP  0  0  0  0  0  0  0  0  0  0  0  0  # atno 17394 bound_to 11000
  140.2906  134.8244  157.4013 LP  0  0  0  0  0  0  0  0  0  0  0  0  # atno 17395 bound_to 11000

$$$$
