AV-unprocessed.smi:38|AV-procd|sdf|343|dock9
  -GOLD-   2262016183D 1   1.00000     0.00000
 Structure written by MMmdl.
 27 28  0  0  0  0  0  0  0  0  2 V2000
  152.9285  139.0177  160.4465 O   0  0  0  0  0  0  0  0  0  0  0  0
  152.6799  138.8673  159.2512 C   0  0  0  0  0  0  0  0  0  0  0  0
  152.9597  137.7141  158.5776 N   0  5  0  0  0  0  0  0  0  0  0  0
  152.6835  137.5496  157.2505 C   0  0  0  0  0  0  0  0  0  0  0  0
  152.9157  136.5058  156.6403 O   0  0  0  0  0  0  0  0  0  0  0  0
  152.0913  138.6246  156.5323 N   0  0  0  0  0  0  0  0  0  0  0  0
  151.7786  138.4473  155.0610 C   0  0  1  0  0  0  0  0  0  0  0  0
  150.7723  137.3106  154.8642 C   0  0  0  0  0  0  0  0  0  0  0  0
  149.4637  138.0686  154.7907 C   0  0  2  0  0  0  0  0  0  0  0  0
  148.4909  137.3284  154.0821 O   0  0  0  0  0  0  0  0  0  0  0  0
  149.8828  139.3439  154.0555 C   0  0  1  0  0  0  0  0  0  0  0  0
  148.9487  140.5374  154.3113 C   0  0  0  0  0  0  0  0  0  0  0  0
  149.2314  141.5817  153.4043 O   0  0  0  0  0  0  0  0  0  0  0  0
  151.1888  139.6162  154.5651 O   0  0  0  0  0  0  0  0  0  0  0  0
  151.7861  139.8025  157.1941 C   0  0  0  0  0  0  0  0  0  0  0  0
  152.0557  139.9587  158.5062 C   0  0  0  0  0  0  0  0  0  0  0  0
  151.7457  141.1135  159.1200 F   0  0  0  0  0  0  0  0  0  0  0  0
  152.7367  138.2829  154.5653 H   0  0  0  0  0  0  0  0  0  0  0  0
  149.1049  138.2985  155.7950 H   0  0  0  0  0  0  0  0  0  0  0  0
  149.9656  139.1327  152.9873 H   0  0  0  0  0  0  0  0  0  0  0  0
  150.9959  136.8199  153.9156 H   0  0  0  0  0  0  0  0  0  0  0  0
  150.8140  136.5689  155.6630 H   0  0  0  0  0  0  0  0  0  0  0  0
  148.8503  137.0920  153.2409 H   0  0  0  0  0  0  0  0  0  0  0  0
  147.9118  140.2407  154.1520 H   0  0  0  0  0  0  0  0  0  0  0  0
  149.0269  140.8954  155.3376 H   0  0  0  0  0  0  0  0  0  0  0  0
  149.5208  141.2011  152.5894 H   0  0  0  0  0  0  0  0  0  0  0  0
  151.3198  140.6181  156.6648 H   0  0  0  0  0  0  0  0  0  0  0  0
  1  2  2  0  0  0  0
  2 16  1  0  0  0  0
  2  3  1  0  0  0  0
  3  4  1  0  0  0  0
  4  5  2  0  0  0  0
  4  6  1  0  0  0  0
  6  7  1  0  0  0  0
  6 15  1  0  0  0  0
  7 18  1  0  0  0  0
  7 14  1  0  0  0  0
  7  8  1  0  0  0  0
  8  9  1  0  0  0  0
  8 21  1  0  0  0  0
  8 22  1  0  0  0  0
  9 19  1  0  0  0  0
  9 10  1  0  0  0  0
  9 11  1  0  0  0  0
 10 23  1  0  0  0  0
 11 20  1  0  0  0  0
 11 12  1  0  0  0  0
 11 14  1  0  0  0  0
 12 13  1  0  0  0  0
 12 24  1  0  0  0  0
 12 25  1  0  0  0  0
 13 26  1  0  0  0  0
 15 16  2  0  0  0  0
 15 27  1  0  0  0  0
 16 17  1  0  0  0  0
M  CHG  1   3  -1
M  END
> <s_m_source_file>
AV-unprocessed.smi

> <i_m_source_file_index>
38

> <i_lp_mmshare_version>
43012

> <i_f3d_flags>
0

> <s_epik_input>
Tz1jMVtuSF1jKD1PKW4oW2NIXWMxRilbQ0BIXTJbQ0gyXVtDQEhdKFtPSF0pW0NASF0oTzIpW0NIMl1bT0hd

> <s_epik_cmdline>
J2VwaWtfcHl0aG9uJywgJy1waCcsICc3LjAnLCAnLXRuJywgJzgnLCAnLW1hJywgJzIwMCcsICctbWV0YWxfYmluZGluZycsICctaW1hZScsICc8aW5maWxlLm1hZT4nLCAnLW9tYWUnLCAnPG91dGZpbGUubWFlPic=

> <r_epik_Ionization_Penalty>
1.68146

> <r_epik_Ionization_Penalty_Charging>
3.4211e-08

> <r_epik_Ionization_Penalty_Neutral>
1.68146

> <r_epik_State_Penalty>
1.78593

> <r_epik_Charging_Adjusted_Penalty>
1.78593

> <i_epik_Tot_Q>
-1

> <i_epik_Tot_abs_Q>
1

> <r_epik_Metal_State_Penalty>
0.0113696

> <b_epik_Metal_Only>
0

> <s_epik_Chemistry_Notes>
This compound contains an acetal/aminal-like group ( X-CH(R)-Y where X, Y are N, S, or O) that may be acid/base labile, releasing an aldehyde.

> <s_lp_Force_Field>
OPLS_2005

> <r_lp_Energy>
36.3434

> <b_lp_Chiralities_Consistent>
1

> <s_lp_Variant>
AV-unprocessed.smi:38-9

> <Gold.Version>
5.8.1

> <Gold.Id.Protein>
6NUR|6NUR_protein|mol2

> <Gold.PLP.Fitness>
39.1988

> <Gold.PLP.PLP>
-27.8461

> <Gold.PLP.part.hbond>
-6.0000

> <Gold.PLP.part.metal>
0.0000

> <Gold.PLP.part.buried>
-2.1974

> <Gold.PLP.part.nonpolar>
-19.1494

> <Gold.PLP.part.repulsive>
0.0929

> <Gold.PLP.ligand.clash>
0.0000

> <Gold.PLP.ligand.torsion>
0.1009

> <Gold.PLP.Chemscore.Hbond>
3.8480

> <Gold.PLP.Chemscore.CHOScore>
0.0000

> <Gold.PLP.Chemscore.Metal>
0.0000

> <Gold.Chemscore.Hbonds>
donor molecule, donor type, donor heavy atom, donor atom, acceptor molecule, acceptor atom, score
      L1  H    10    23       P1  7948  1.00
      L1  H    13    26       P1  7957  1.00
      P1  H  7989  7998       L1    14  0.95
      P1  H 10752 10764       L1     5  0.93

> <Gold.PLP.Chemscore.Internal.Correction>
0.0104

> <Gold.Rescore>
     Score         DG    S(hbond)    S(metal)    S(lipo)     H(rot)  DE(clash)    DE(int)     intcor
     13.39     -14.73       3.77        0.00      34.33       2.88       0.00       1.33       ----

> <Gold.Chemscore.Fitness>
13.3948

> <Gold.Chemscore.DG>
-14.7268

> <Gold.Chemscore.ZeroCoef>
-5.4800

> <Gold.Chemscore.Hbond>
3.7746

> <Gold.Chemscore.Metal>
0.0000

> <Gold.Chemscore.Lipo>
34.3258

> <Gold.Chemscore.Internal_Hbond>
0.0000

> <Gold.Chemscore.DEClash>
0.0000

> <Gold.Chemscore.DEInternal>
1.3320

> <Gold.Chemscore.Rot>
2.8815

> <Gold.Chemscore.Internal.Correction>
   9.000000E+99

> <Gold.Chemscore.Hbonds>
donor molecule, donor type, donor heavy atom, donor atom, acceptor molecule, acceptor atom, score
      L1  H    10    23       P1  7948  0.98
      L1  H    13    26       P1  7957  1.00
      P1  H  7989  7998       L1    14  0.22
      P1  H 10752 10764       L1     5  0.91

> <Gold.Chemscore.Hbond.Weighted>
-12.6072

> <Gold.Chemscore.Metal.Weighted>
-0.0000

> <Gold.Chemscore.Lipo.Weighted>
-4.0161

> <Gold.Chemscore.Internal_Hbond.Weighted>
0.0000

> <Gold.Chemscore.DEClash.Weighted>
0.0000

> <Gold.Chemscore.DEInternal.Weighted>
1.3320

> <Gold.Chemscore.Rot.Weighted>
7.3765

> <Gold.Chemscore.Internal.Correction.Weighted>
   9.000000E+99

> <Gold.Protein.RotatedTorsions>
[ 6907 6896 6895 6894 ] final  -11.77 input  -60.11 | X-H torsion
[ 7974 7965 7964 7962 ] final  -61.82 input  175.53 | X-H torsion
[ 8008 7997 7996 7995 ] final   91.70 input   59.86 | X-H torsion
[ 10167 10162 10161 10158 ] final  -37.16 input  -65.29 | X-H torsion
[ 10718 10713 10712 10709 ] final   40.69 input   66.30 | X-H torsion
[ 10763 10752 10751 10750 ] final    7.69 input  -60.55 | X-H torsion
[ 11005 11000 10999 10996 ] final   55.37 input  -57.11 | X-H torsion

> <Gold.Protein.ActiveResidues>
 VAL166  LYS551  ARG553  GLY616  TRP617  ASP618  TYR619  PRO620  LYS621  CYS622 
 ASP623  PHE694  ASN695  SER759  ASP760  ASP761  ALA762  ILE779  LEU786  VAL792 
 PHE793  MET794  SER795  GLU796  ALA797  LYS798  CYS799  TRP800  GLU811  SER814 

> <Gold.Protein.RotatedAtoms>
  151.3810  135.0939  159.9495 H   0  0  0  0  0  0  0  0  0  0  0  0  # atno 6907 bound_to 6896
  152.5108  133.9072  159.7480 H   0  0  0  0  0  0  0  0  0  0  0  0  # atno 6908 bound_to 6896
  150.9506  133.6499  159.2801 H   0  0  0  0  0  0  0  0  0  0  0  0  # atno 6909 bound_to 6896
  145.7988  140.8667  143.0242 H   0  0  0  0  0  0  0  0  0  0  0  0  # atno 7974 bound_to 7965
  156.0268  140.3334  155.7097 H   0  0  0  0  0  0  0  0  0  0  0  0  # atno 8008 bound_to 7997
  155.5942  140.0649  157.2768 H   0  0  0  0  0  0  0  0  0  0  0  0  # atno 8009 bound_to 7997
  154.4337  140.1821  156.1094 H   0  0  0  0  0  0  0  0  0  0  0  0  # atno 8010 bound_to 7997
  140.7125  143.3360  151.2461 H   0  0  0  0  0  0  0  0  0  0  0  0  # atno 10167 bound_to 10162
  157.3851  130.7775  149.7224 H   0  0  0  0  0  0  0  0  0  0  0  0  # atno 10718 bound_to 10713
  153.2334  135.6895  153.7864 H   0  0  0  0  0  0  0  0  0  0  0  0  # atno 10763 bound_to 10752
  153.7020  135.3296  155.3228 H   0  0  0  0  0  0  0  0  0  0  0  0  # atno 10764 bound_to 10752
  154.8324  135.4570  154.1228 H   0  0  0  0  0  0  0  0  0  0  0  0  # atno 10765 bound_to 10752
  140.0613  134.5599  155.9149 H   0  0  0  0  0  0  0  0  0  0  0  0  # atno 11005 bound_to 11000
  144.6771  140.0230  143.7483 LP  0  0  0  0  0  0  0  0  0  0  0  0  # atno 17320 bound_to 7965
  145.9899  139.3007  143.0991 LP  0  0  0  0  0  0  0  0  0  0  0  0  # atno 17321 bound_to 7965
  139.6856  143.9780  152.2832 LP  0  0  0  0  0  0  0  0  0  0  0  0  # atno 17342 bound_to 10162
  139.9424  144.6673  150.8253 LP  0  0  0  0  0  0  0  0  0  0  0  0  # atno 17343 bound_to 10162
  155.9785  130.4051  150.3647 LP  0  0  0  0  0  0  0  0  0  0  0  0  # atno 17370 bound_to 10713
  157.1755  131.0379  151.2774 LP  0  0  0  0  0  0  0  0  0  0  0  0  # atno 17371 bound_to 10713
  141.1974  133.6596  156.5740 LP  0  0  0  0  0  0  0  0  0  0  0  0  # atno 17394 bound_to 11000
  140.3766  134.7559  157.4634 LP  0  0  0  0  0  0  0  0  0  0  0  0  # atno 17395 bound_to 11000

$$$$
