AV-unprocessed.smi:1792|AV-procd|sdf|7222|dock4
  -GOLD-   22720 8463D 1   1.00000     0.00000
 Structure written by MMmdl.
 42 43  0  0  0  0  0  0  0  0  1 V2000
  146.8736  142.5030  153.9609 C   0  0  0  0  0  0  0  0  0  0  0  0
  147.4541  141.1022  154.2718 C   0  0  0  0  0  0  0  0  0  0  0  0
  147.1087  140.1846  153.0709 C   0  0  0  0  0  0  0  0  0  0  0  0
  149.0042  141.2355  154.2828 C   0  0  0  0  0  0  0  0  0  0  0  0
  149.4650  142.1655  155.3124 N   0  0  0  0  0  0  0  0  0  0  0  0
  150.3406  141.8869  156.2876 C   0  0  0  0  0  0  0  0  0  0  0  0
  150.9004  140.7974  156.4120 O   0  0  0  0  0  0  0  0  0  0  0  0
  150.5114  142.9468  157.0970 N   0  0  0  0  0  0  0  0  0  0  0  0
  151.3324  143.0484  158.2514 C   0  0  0  0  0  0  0  0  0  0  0  0
  151.4537  144.3511  158.7857 C   0  0  0  0  0  0  0  0  0  0  0  0
  152.2421  144.5587  159.9339 C   0  0  0  0  0  0  0  0  0  0  0  0
  152.8918  143.4568  160.5181 C   0  0  0  0  0  0  0  0  0  0  0  0
  152.7205  142.1938  159.9221 C   0  0  0  0  0  0  0  0  0  0  0  0
  151.9642  141.9924  158.8222 N   0  0  0  0  0  0  0  0  0  0  0  0
  146.9416  140.5284  155.5483 N   0  0  0  0  0  0  0  0  0  0  0  0
  146.8713  141.4750  156.6674 C   0  0  0  0  0  0  0  0  0  0  0  0
  146.2252  140.8499  157.9158 C   0  0  0  0  0  0  0  0  0  0  0  0
  146.9403  139.6794  158.2923 O   0  0  0  0  0  0  0  0  0  0  0  0
  146.9772  138.7094  157.2532 C   0  0  0  0  0  0  0  0  0  0  0  0
  147.6339  139.3164  156.0020 C   0  0  0  0  0  0  0  0  0  0  0  0
  147.2672  142.8884  153.0195 H   0  0  0  0  0  0  0  0  0  0  0  0
  147.1273  143.2337  154.7285 H   0  0  0  0  0  0  0  0  0  0  0  0
  145.7885  142.4876  153.8632 H   0  0  0  0  0  0  0  0  0  0  0  0
  147.6269  140.4993  152.1641 H   0  0  0  0  0  0  0  0  0  0  0  0
  146.0454  140.1979  152.8323 H   0  0  0  0  0  0  0  0  0  0  0  0
  147.3913  139.1485  153.2613 H   0  0  0  0  0  0  0  0  0  0  0  0
  149.4552  140.2513  154.4228 H   0  0  0  0  0  0  0  0  0  0  0  0
  149.3811  141.5777  153.3193 H   0  0  0  0  0  0  0  0  0  0  0  0
  149.0554  143.0881  155.2932 H   0  0  0  0  0  0  0  0  0  0  0  0
  149.9805  143.7741  156.8687 H   0  0  0  0  0  0  0  0  0  0  0  0
  150.9474  145.1866  158.3243 H   0  0  0  0  0  0  0  0  0  0  0  0
  152.3454  145.5463  160.3584 H   0  0  0  0  0  0  0  0  0  0  0  0
  153.5054  143.5764  161.3987 H   0  0  0  0  0  0  0  0  0  0  0  0
  153.2027  141.3219  160.3386 H   0  0  0  0  0  0  0  0  0  0  0  0
  147.8697  141.8263  156.9281 H   0  0  0  0  0  0  0  0  0  0  0  0
  146.2866  142.3529  156.3985 H   0  0  0  0  0  0  0  0  0  0  0  0
  146.2408  141.5581  158.7443 H   0  0  0  0  0  0  0  0  0  0  0  0
  145.1798  140.6014  157.7264 H   0  0  0  0  0  0  0  0  0  0  0  0
  147.5427  137.8426  157.5950 H   0  0  0  0  0  0  0  0  0  0  0  0
  145.9663  138.3647  157.0300 H   0  0  0  0  0  0  0  0  0  0  0  0
  147.6334  138.5530  155.2262 H   0  0  0  0  0  0  0  0  0  0  0  0
  148.6770  139.5390  156.2267 H   0  0  0  0  0  0  0  0  0  0  0  0
  1  2  1  0  0  0  0
  1 21  1  0  0  0  0
  1 22  1  0  0  0  0
  1 23  1  0  0  0  0
  2  3  1  0  0  0  0
  2  4  1  0  0  0  0
  2 15  1  0  0  0  0
  3 24  1  0  0  0  0
  3 25  1  0  0  0  0
  3 26  1  0  0  0  0
  4  5  1  0  0  0  0
  4 27  1  0  0  0  0
  4 28  1  0  0  0  0
  5  6  1  0  0  0  0
  5 29  1  0  0  0  0
  6  7  2  0  0  0  0
  6  8  1  0  0  0  0
  8  9  1  0  0  0  0
  8 30  1  0  0  0  0
  9 14  1  0  0  0  0
  9 10  2  0  0  0  0
 10 11  1  0  0  0  0
 10 31  1  0  0  0  0
 11 12  2  0  0  0  0
 11 32  1  0  0  0  0
 12 13  1  0  0  0  0
 12 33  1  0  0  0  0
 13 14  2  0  0  0  0
 13 34  1  0  0  0  0
 15 20  1  0  0  0  0
 15 16  1  0  0  0  0
 16 17  1  0  0  0  0
 16 35  1  0  0  0  0
 16 36  1  0  0  0  0
 17 18  1  0  0  0  0
 17 37  1  0  0  0  0
 17 38  1  0  0  0  0
 18 19  1  0  0  0  0
 19 20  1  0  0  0  0
 19 39  1  0  0  0  0
 19 40  1  0  0  0  0
 20 41  1  0  0  0  0
 20 42  1  0  0  0  0
M  END
> <s_m_source_file>
AV-unprocessed.smi

> <i_m_source_file_index>
1792

> <i_lp_mmshare_version>
43012

> <i_f3d_flags>
0

> <s_epik_input>
W0NIMl0xW0NIMl1PW0NIMl1bQ0gyXU4xQyhbQ0gzXSkoW0NIM10pW0NIMl1bTkhdQyg9TylbTkhdYzJbY0hdW2NIXVtjSF1bY0hdbjI=

> <s_epik_cmdline>
J2VwaWtfcHl0aG9uJywgJy1waCcsICc3LjAnLCAnLXRuJywgJzgnLCAnLW1hJywgJzIwMCcsICctbWV0YWxfYmluZGluZycsICctaW1hZScsICc8aW5maWxlLm1hZT4nLCAnLW9tYWUnLCAnPG91dGZpbGUubWFlPic=

> <r_epik_Ionization_Penalty>
0.26604

> <r_epik_Ionization_Penalty_Charging>
0

> <r_epik_Ionization_Penalty_Neutral>
0.26604

> <r_epik_State_Penalty>
0.257924

> <r_epik_Charging_Adjusted_Penalty>
0.257924

> <i_epik_Tot_Q>
0

> <i_epik_Tot_abs_Q>
0

> <r_epik_Metal_State_Penalty>
0.257923

> <b_epik_Metal_Only>
0

> <s_lp_Force_Field>
OPLS_2005

> <r_lp_Energy>
43.4175

> <b_lp_Chiralities_Consistent>
1

> <s_lp_Variant>
AV-unprocessed.smi:1792-1

> <Gold.Version>
5.8.1

> <Gold.Id.Protein>
6NUR|6NUR_protein|mol2

> <Gold.PLP.Fitness>
42.5031

> <Gold.PLP.PLP>
-37.1020

> <Gold.PLP.part.hbond>
-3.0000

> <Gold.PLP.part.metal>
0.0000

> <Gold.PLP.part.buried>
-5.2844

> <Gold.PLP.part.nonpolar>
-29.2994

> <Gold.PLP.part.repulsive>
0.2817

> <Gold.PLP.ligand.clash>
0.0000

> <Gold.PLP.ligand.torsion>
0.3314

> <Gold.PLP.Chemscore.Hbond>
2.0000

> <Gold.PLP.Chemscore.CHOScore>
0.0000

> <Gold.PLP.Chemscore.Metal>
0.0000

> <Gold.Chemscore.Hbonds>
donor molecule, donor type, donor heavy atom, donor atom, acceptor molecule, acceptor atom, score
      L1  H     5    29       P1  8028  1.00
      L1  H     8    30       P1  8028  1.00

> <Gold.PLP.Chemscore.Internal.Correction>
0.0640

> <Gold.Rescore>
     Score         DG    S(hbond)    S(metal)    S(lipo)     H(rot)  DE(clash)    DE(int)     intcor
     15.85     -17.72       1.99        0.00      80.74       1.50       0.03       1.84       ----

> <Gold.Chemscore.Fitness>
15.8463

> <Gold.Chemscore.DG>
-17.7178

> <Gold.Chemscore.ZeroCoef>
-5.4800

> <Gold.Chemscore.Hbond>
1.9889

> <Gold.Chemscore.Metal>
0.0000

> <Gold.Chemscore.Lipo>
80.7386

> <Gold.Chemscore.Internal_Hbond>
0.0000

> <Gold.Chemscore.DEClash>
0.0272

> <Gold.Chemscore.DEInternal>
1.8443

> <Gold.Chemscore.Rot>
1.5045

> <Gold.Chemscore.Internal.Correction>
   9.000000E+99

> <Gold.Chemscore.Hbonds>
donor molecule, donor type, donor heavy atom, donor atom, acceptor molecule, acceptor atom, score
      L1  H     5    29       P1  8028  0.99
      L1  H     8    30       P1  8028  0.95

> <Gold.Chemscore.Hbond.Weighted>
-6.6429

> <Gold.Chemscore.Metal.Weighted>
-0.0000

> <Gold.Chemscore.Lipo.Weighted>
-9.4464

> <Gold.Chemscore.Internal_Hbond.Weighted>
0.0000

> <Gold.Chemscore.DEClash.Weighted>
0.0272

> <Gold.Chemscore.DEInternal.Weighted>
1.8443

> <Gold.Chemscore.Rot.Weighted>
3.8515

> <Gold.Chemscore.Internal.Correction.Weighted>
   9.000000E+99

> <Gold.Protein.RotatedTorsions>
[ 6907 6896 6895 6894 ] final  -79.84 input  -60.11 | X-H torsion
[ 7974 7965 7964 7962 ] final -159.13 input  175.53 | X-H torsion
[ 8008 7997 7996 7995 ] final  176.50 input   59.86 | X-H torsion
[ 10167 10162 10161 10158 ] final  -53.74 input  -65.29 | X-H torsion
[ 10718 10713 10712 10709 ] final  -90.23 input   66.30 | X-H torsion
[ 10763 10752 10751 10750 ] final   68.88 input  -60.55 | X-H torsion
[ 11005 11000 10999 10996 ] final  -32.81 input  -57.11 | X-H torsion

> <Gold.Protein.ActiveResidues>
 VAL166  LYS551  ARG553  GLY616  TRP617  ASP618  TYR619  PRO620  LYS621  CYS622 
 ASP623  PHE694  ASN695  SER759  ASP760  ASP761  ALA762  ILE779  LEU786  VAL792 
 PHE793  MET794  SER795  GLU796  ALA797  LYS798  CYS799  TRP800  GLU811  SER814 

> <Gold.Protein.RotatedAtoms>
  150.6941  134.4060  159.5140 H   0  0  0  0  0  0  0  0  0  0  0  0  # atno 6907 bound_to 6896
  152.1826  134.8738  160.0534 H   0  0  0  0  0  0  0  0  0  0  0  0  # atno 6908 bound_to 6896
  151.9723  133.3695  159.4112 H   0  0  0  0  0  0  0  0  0  0  0  0  # atno 6909 bound_to 6896
  144.7477  140.3729  143.6072 H   0  0  0  0  0  0  0  0  0  0  0  0  # atno 7974 bound_to 7965
  156.0758  140.1382  156.9773 H   0  0  0  0  0  0  0  0  0  0  0  0  # atno 8008 bound_to 7997
  154.4557  140.0962  156.6800 H   0  0  0  0  0  0  0  0  0  0  0  0  # atno 8009 bound_to 7997
  155.5155  140.3455  155.4399 H   0  0  0  0  0  0  0  0  0  0  0  0  # atno 8010 bound_to 7997
  140.6468  143.2540  151.4836 H   0  0  0  0  0  0  0  0  0  0  0  0  # atno 10167 bound_to 10162
  155.9987  130.4902  150.5291 H   0  0  0  0  0  0  0  0  0  0  0  0  # atno 10718 bound_to 10713
  153.0258  135.5231  154.7202 H   0  0  0  0  0  0  0  0  0  0  0  0  # atno 10763 bound_to 10752
  154.6259  135.2894  155.0274 H   0  0  0  0  0  0  0  0  0  0  0  0  # atno 10764 bound_to 10752
  154.1244  135.6602  153.4962 H   0  0  0  0  0  0  0  0  0  0  0  0  # atno 10765 bound_to 10752
  140.9583  133.7180  156.1328 H   0  0  0  0  0  0  0  0  0  0  0  0  # atno 11005 bound_to 11000
  145.7058  139.1672  143.2567 LP  0  0  0  0  0  0  0  0  0  0  0  0  # atno 17320 bound_to 7965
  146.1382  140.7093  142.9379 LP  0  0  0  0  0  0  0  0  0  0  0  0  # atno 17321 bound_to 7965
  139.5679  144.1997  152.1793 LP  0  0  0  0  0  0  0  0  0  0  0  0  # atno 17342 bound_to 10162
  140.1285  144.5310  150.6818 LP  0  0  0  0  0  0  0  0  0  0  0  0  # atno 17343 bound_to 10162
  157.3243  131.0687  151.1909 LP  0  0  0  0  0  0  0  0  0  0  0  0  # atno 17370 bound_to 10713
  157.2811  130.6750  149.6066 LP  0  0  0  0  0  0  0  0  0  0  0  0  # atno 17371 bound_to 10713
  140.7505  134.4051  157.5542 LP  0  0  0  0  0  0  0  0  0  0  0  0  # atno 17394 bound_to 11000
  139.8869  134.8896  156.2557 LP  0  0  0  0  0  0  0  0  0  0  0  0  # atno 17395 bound_to 11000

$$$$
