#       Name:                AV-unprocessed.smi:1111
#       Creating user name   scv26
#       Creation time:       Fri Mar 27 03:34:05 2020


#       File generated by GOLD software.
#

@<TRIPOS>MOLECULE
AV-unprocessed.smi:1111
    35    36     1
SMALL
NO_CHARGES


@<TRIPOS>ATOM
      1 ****        -2.2042   1.0856  -0.1610 C.3            1 S1                 0.0000
      2 ****        -1.6408  -0.3513  -0.1797 C.3            1 S1                 0.0000
      3 ****        -0.1723  -0.3304  -0.1299 N.am           1 S1                 0.0000
      4 ****         0.6846   0.2107  -1.0138 C.2            1 S1                 0.0000
      5 ****         0.3395   0.8106  -2.0308 O.2            1 S1                 0.0000
      6 ****         2.1717   0.0538  -0.6973 C.3            1 S1                 0.0000
      7 ****         2.6687   1.1865   0.0888 N.pl3          1 S1                 0.0000
      8 ****         2.7817   1.2666   1.4535 C.2            1 S1                 0.0000
      9 ****         3.2890   2.5098   1.7314 C.2            1 S1                 0.0000
     10 ****         3.4619   3.1365   0.5262 N.pl3          1 S1                 1.0000
     11 ****         3.0835   2.3308  -0.4714 C.2            1 S1                 0.0000
     12 ****        -2.1300  -1.1248   1.0685 C.3            1 S1                 0.0000
     13 ****        -1.9090  -2.6293   0.8662 C.3            1 S1                 0.0000
     14 ****        -2.1031  -2.9220  -0.9296 S.o2           1 S1                 0.0000
     15 ****        -0.8706  -3.5368  -1.4457 O.2            1 S1                 0.0000
     16 ****        -3.4191  -3.5226  -1.1942 O.2            1 S1                 0.0000
     17 ****        -2.1448  -1.1512  -1.4034 C.3            1 S1                 0.0000
     18 ****        -3.2930   1.0819  -0.0992 H              1 S1                 0.0000
     19 ****        -1.9408   1.6407  -1.0611 H              1 S1                 0.0000
     20 ****        -1.8307   1.6459   0.6966 H              1 S1                 0.0000
     21 ****         0.2375  -0.7987   0.6653 H              1 S1                 0.0000
     22 ****         2.3540  -0.8638  -0.1355 H              1 S1                 0.0000
     23 ****         2.7496  -0.0094  -1.6207 H              1 S1                 0.0000
     24 ****         2.5008   0.4543   2.1083 H              1 S1                 0.0000
     25 ****         3.5331   2.9830   2.6714 H              1 S1                 0.0000
     26 ****         3.1061   2.5598  -1.5222 H              1 S1                 0.0000
     27 ****        -1.6554  -0.7725   1.9854 H              1 S1                 0.0000
     28 ****        -3.2009  -0.9573   1.1934 H              1 S1                 0.0000
     29 ****        -0.8964  -2.9180   1.1482 H              1 S1                 0.0000
     30 ****        -2.6148  -3.2422   1.4268 H              1 S1                 0.0000
     31 ****        -3.1845  -0.9033  -1.6193 H              1 S1                 0.0000
     32 ****        -1.5745  -0.9959  -2.3188 H              1 S1                 0.0000
     33 ****         3.8235   4.0743   0.4045 H              1 S1                 0.0000
     34 ****        -0.6319   0.9196  -2.2417 LP             1 S1                 0.0000
     35 ****         1.0304   1.1892  -2.6467 LP             1 S1                 0.0000
@<TRIPOS>BOND
    1    1    2 1     
    2    1   18 1     
    3    1   19 1     
    4    1   20 1     
    5    2   17 1     
    6    2    3 1     
    7    2   12 1     
    8    3    4 am    
    9    3   21 1     
   10    4    5 2     
   11    4    6 1     
   12    6    7 1     
   13    6   22 1     
   14    6   23 1     
   15    7   11 1     
   16    7    8 1     
   17    8    9 2     
   18    8   24 1     
   19    9   10 1     
   20    9   25 1     
   21   10   11 2     
   22   10   33 1     
   23   11   26 1     
   24   12   13 1     
   25   12   27 1     
   26   12   28 1     
   27   13   14 1     
   28   13   29 1     
   29   13   30 1     
   30   14   15 2     
   31   14   16 2     
   32   14   17 1     
   33   17   31 1     
   34   17   32 1     
   35    5   34 1     
   36    5   35 1     
@<TRIPOS>SUBSTRUCTURE
      1 S1             1
@<TRIPOS>SET
LONE_PAIRS      STATIC     ATOMS    <user>   **** ""
4 34 35 15 16
DONOR_HYDROGENS      STATIC     ATOMS    <user>   **** ""
2 21 33
ATOM$BLUE        STATIC     ATOMS    COLORGROUP SYSTEM
4 34 35 15 16
ATOM$RED        STATIC     ATOMS    COLORGROUP SYSTEM
2 21 33
