AV-unprocessed.smi:2226|AV-procd|sdf|9006|dock5
  -GOLD-   2272012213D 1   1.00000     0.00000
 Structure written by MMmdl.
 41 43  0  0  0  0  0  0  0  0  3 V2000
  147.3762  139.4502  152.8510 C   0  0  0  0  0  0  0  0  0  0  0  0
  148.4014  138.6821  153.5966 N   0  3  2  0  0  0  0  0  0  0  0  0
  147.9816  138.2225  154.9429 C   0  0  1  0  0  0  0  0  0  0  0  0
  148.9335  137.0930  155.4028 C   0  0  0  0  0  0  0  0  0  0  0  0
  150.4288  137.4669  155.3347 C   0  0  0  0  0  0  0  0  0  0  0  0
  150.7843  138.2595  154.0595 C   0  0  0  0  0  0  0  0  0  0  0  0
  149.7349  139.3274  153.6703 C   0  0  2  0  0  0  0  0  0  0  0  0
  149.7069  140.5776  154.5864 C   0  0  0  0  0  0  0  0  0  0  0  0
  149.0924  140.3358  155.9844 C   0  0  1  0  0  0  0  0  0  0  0  0
  148.7179  141.6184  156.5820 N   0  0  0  0  0  0  0  0  0  0  0  0
  148.0598  141.7818  157.7414 C   0  0  0  0  0  0  0  0  0  0  0  0
  147.6855  140.8507  158.4547 O   0  0  0  0  0  0  0  0  0  0  0  0
  147.8634  143.0797  158.0223 N   0  0  0  0  0  0  0  0  0  0  0  0
  147.2034  143.5839  159.1672 C   0  0  0  0  0  0  0  0  0  0  0  0
  146.7985  144.8462  159.2990 N   0  3  0  0  0  0  0  0  0  0  0  0
  146.1993  144.9909  160.5258 C   0  0  0  0  0  0  0  0  0  0  0  0
  146.2651  143.7543  161.1217 C   0  0  0  0  0  0  0  0  0  0  0  0
  146.8938  142.8590  160.2797 O   0  0  0  0  0  0  0  0  0  0  0  0
  147.8550  139.4104  155.9306 C   0  0  0  0  0  0  0  0  0  0  0  0
  147.1326  140.3950  153.3360 H   0  0  0  0  0  0  0  0  0  0  0  0
  146.4578  138.8695  152.7620 H   0  0  0  0  0  0  0  0  0  0  0  0
  147.7259  139.6688  151.8417 H   0  0  0  0  0  0  0  0  0  0  0  0
  146.9923  137.7720  154.8481 H   0  0  0  0  0  0  0  0  0  0  0  0
  148.6758  136.7629  156.4097 H   0  0  0  0  0  0  0  0  0  0  0  0
  148.7713  136.2288  154.7570 H   0  0  0  0  0  0  0  0  0  0  0  0
  150.7219  138.0225  156.2210 H   0  0  0  0  0  0  0  0  0  0  0  0
  151.0311  136.5585  155.3757 H   0  0  0  0  0  0  0  0  0  0  0  0
  151.7705  138.7132  154.1637 H   0  0  0  0  0  0  0  0  0  0  0  0
  150.8696  137.5513  153.2341 H   0  0  0  0  0  0  0  0  0  0  0  0
  149.9976  139.6660  152.6668 H   0  0  0  0  0  0  0  0  0  0  0  0
  150.7134  140.9844  154.6916 H   0  0  0  0  0  0  0  0  0  0  0  0
  149.1355  141.3554  154.0780 H   0  0  0  0  0  0  0  0  0  0  0  0
  149.8442  139.8642  156.6108 H   0  0  0  0  0  0  0  0  0  0  0  0
  148.9825  142.4468  156.0688 H   0  0  0  0  0  0  0  0  0  0  0  0
  146.8957  145.6026  158.6332 H   0  0  0  0  0  0  0  0  0  0  0  0
  145.7939  145.9398  160.8465 H   0  0  0  0  0  0  0  0  0  0  0  0
  145.9359  143.3670  162.0751 H   0  0  0  0  0  0  0  0  0  0  0  0
  146.9844  139.9997  155.6395 H   0  0  0  0  0  0  0  0  0  0  0  0
  147.6282  139.0399  156.9310 H   0  0  0  0  0  0  0  0  0  0  0  0
  148.5358  137.8417  153.0519 H   0  0  0  0  0  0  0  0  0  0  0  0
  148.2129  143.7623  157.3662 H   0  0  0  0  0  0  0  0  0  0  0  0
  1  2  1  0  0  0  0
  1 20  1  0  0  0  0
  1 21  1  0  0  0  0
  1 22  1  0  0  0  0
  2  7  1  0  0  0  0
  2  3  1  0  0  0  0
  2 40  1  0  0  0  0
  3 19  1  0  0  0  0
  3  4  1  0  0  0  0
  3 23  1  0  0  0  0
  4  5  1  0  0  0  0
  4 24  1  0  0  0  0
  4 25  1  0  0  0  0
  5  6  1  0  0  0  0
  5 26  1  0  0  0  0
  5 27  1  0  0  0  0
  6  7  1  0  0  0  0
  6 28  1  0  0  0  0
  6 29  1  0  0  0  0
  7  8  1  0  0  0  0
  7 30  1  0  0  0  0
  8  9  1  0  0  0  0
  8 31  1  0  0  0  0
  8 32  1  0  0  0  0
  9 10  1  0  0  0  0
  9 19  1  0  0  0  0
  9 33  1  0  0  0  0
 10 34  1  0  0  0  0
 10 11  1  0  0  0  0
 11 13  1  0  0  0  0
 11 12  2  0  0  0  0
 13 14  1  0  0  0  0
 13 41  1  0  0  0  0
 14 18  1  0  0  0  0
 14 15  2  0  0  0  0
 15 35  1  0  0  0  0
 15 16  1  0  0  0  0
 16 36  1  0  0  0  0
 16 17  2  0  0  0  0
 17 37  1  0  0  0  0
 17 18  1  0  0  0  0
 19 38  1  0  0  0  0
 19 39  1  0  0  0  0
M  CHG  1   2   1
M  CHG  1  15   1
M  END
> <s_m_source_file>
AV-unprocessed.smi

> <i_m_source_file_index>
2226

> <i_lp_mmshare_version>
43012

> <i_f3d_flags>
0

> <s_epik_input>
W0NIMl0xW0NIMl1bQ0gyXVtDQEhdKE4oW0NIM10pW0NIXTEyKVtDSDJdW0NASF0oW0NIMl0yKVtOSF1DKD1PKVtOSF1jM25bY0hdW2NIXW8z

> <s_epik_cmdline>
J2VwaWtfcHl0aG9uJywgJy1waCcsICc3LjAnLCAnLXRuJywgJzgnLCAnLW1hJywgJzIwMCcsICctbWV0YWxfYmluZGluZycsICctaW1hZScsICc8aW5maWxlLm1hZT4nLCAnLW9tYWUnLCAnPG91dGZpbGUubWFlPic=

> <r_epik_Ionization_Penalty>
6.92532

> <r_epik_Ionization_Penalty_Charging>
6.82059

> <r_epik_Ionization_Penalty_Neutral>
0.104727

> <r_epik_State_Penalty>
2.17671

> <r_epik_Charging_Adjusted_Penalty>
8.99731

> <i_epik_Tot_Q>
2

> <i_epik_Tot_abs_Q>
2

> <r_epik_Metal_State_Penalty>
2.20618

> <b_epik_Metal_Only>
0

> <s_lp_Force_Field>
OPLS_2005

> <r_lp_Energy>
47.1954

> <b_lp_Chiralities_Consistent>
1

> <s_lp_Variant>
AV-unprocessed.smi:2226-6

> <Gold.Version>
5.8.1

> <Gold.Id.Protein>
6NUR|6NUR_protein|mol2

> <Gold.PLP.Fitness>
39.5737

> <Gold.PLP.PLP>
-22.3013

> <Gold.PLP.part.hbond>
-8.2986

> <Gold.PLP.part.metal>
0.0000

> <Gold.PLP.part.buried>
5.1615

> <Gold.PLP.part.nonpolar>
-19.0238

> <Gold.PLP.part.repulsive>
0.2065

> <Gold.PLP.ligand.clash>
0.0000

> <Gold.PLP.ligand.torsion>
0.0980

> <Gold.PLP.Chemscore.Hbond>
5.8206

> <Gold.PLP.Chemscore.CHOScore>
0.0000

> <Gold.PLP.Chemscore.Metal>
0.0000

> <Gold.Chemscore.Hbonds>
donor molecule, donor type, donor heavy atom, donor atom, acceptor molecule, acceptor atom, score
      L1  H     2    40       P1  7948  2.00
      L1  H    10    34       P1  8028  0.31
      L1  H    13    41       P1  8028  0.20
      L1  H    15    35       P1  8029  1.54
      P1  H  6933  6944       L1    18  0.89
      P1  H  6934  6946       L1    18  0.89

> <Gold.PLP.Chemscore.Internal.Correction>
0.0066

> <Gold.Rescore>
     Score         DG    S(hbond)    S(metal)    S(lipo)     H(rot)  DE(clash)    DE(int)     intcor
     15.11     -19.92       3.07        0.00      57.66       1.00       2.12       2.68       ----

> <Gold.Chemscore.Fitness>
15.1115

> <Gold.Chemscore.DG>
-19.9207

> <Gold.Chemscore.ZeroCoef>
-5.4800

> <Gold.Chemscore.Hbond>
3.0702

> <Gold.Chemscore.Metal>
0.0000

> <Gold.Chemscore.Lipo>
57.6587

> <Gold.Chemscore.Internal_Hbond>
0.0000

> <Gold.Chemscore.DEClash>
2.1248

> <Gold.Chemscore.DEInternal>
2.6844

> <Gold.Chemscore.Rot>
1.0000

> <Gold.Chemscore.Internal.Correction>
   9.000000E+99

> <Gold.Chemscore.Hbonds>
donor molecule, donor type, donor heavy atom, donor atom, acceptor molecule, acceptor atom, score
      L1  H     2    40       P1  7948  0.93
      L1  H    10    34       P1  8028  0.30
      L1  H    15    35       P1  8029  0.76
      P1  H  6933  6944       L1    18  0.19
      P1  H  6934  6946       L1    18  0.80

> <Gold.Chemscore.Hbond.Weighted>
-10.2546

> <Gold.Chemscore.Metal.Weighted>
-0.0000

> <Gold.Chemscore.Lipo.Weighted>
-6.7461

> <Gold.Chemscore.Internal_Hbond.Weighted>
0.0000

> <Gold.Chemscore.DEClash.Weighted>
2.1248

> <Gold.Chemscore.DEInternal.Weighted>
2.6844

> <Gold.Chemscore.Rot.Weighted>
2.5600

> <Gold.Chemscore.Internal.Correction.Weighted>
   9.000000E+99

> <Gold.Protein.RotatedTorsions>
[ 6907 6896 6895 6894 ] final  -84.50 input  -60.11 | X-H torsion
[ 7974 7965 7964 7962 ] final   59.38 input  175.53 | X-H torsion
[ 8008 7997 7996 7995 ] final -174.95 input   59.86 | X-H torsion
[ 10167 10162 10161 10158 ] final    6.30 input  -65.29 | X-H torsion
[ 10718 10713 10712 10709 ] final  -75.77 input   66.30 | X-H torsion
[ 10763 10752 10751 10750 ] final  -90.01 input  -60.55 | X-H torsion
[ 11005 11000 10999 10996 ] final   44.11 input  -57.11 | X-H torsion

> <Gold.Protein.ActiveResidues>
 VAL166  LYS551  ARG553  GLY616  TRP617  ASP618  TYR619  PRO620  LYS621  CYS622 
 ASP623  PHE694  ASN695  SER759  ASP760  ASP761  ALA762  ILE779  LEU786  VAL792 
 PHE793  MET794  SER795  GLU796  ALA797  LYS798  CYS799  TRP800  GLU811  SER814 

> <Gold.Protein.RotatedAtoms>
  150.6876  134.3349  159.4842 H   0  0  0  0  0  0  0  0  0  0  0  0  # atno 6907 bound_to 6896
  152.1209  134.9203  160.0572 H   0  0  0  0  0  0  0  0  0  0  0  0  # atno 6908 bound_to 6896
  152.0410  133.3943  159.4374 H   0  0  0  0  0  0  0  0  0  0  0  0  # atno 6909 bound_to 6896
  145.9077  139.3630  143.0554 H   0  0  0  0  0  0  0  0  0  0  0  0  # atno 7974 bound_to 7965
  155.9765  140.1173  157.0766 H   0  0  0  0  0  0  0  0  0  0  0  0  # atno 8008 bound_to 7997
  154.4170  140.1153  156.5444 H   0  0  0  0  0  0  0  0  0  0  0  0  # atno 8009 bound_to 7997
  155.6528  140.3473  155.4756 H   0  0  0  0  0  0  0  0  0  0  0  0  # atno 8010 bound_to 7997
  140.6435  143.7718  150.7463 H   0  0  0  0  0  0  0  0  0  0  0  0  # atno 10167 bound_to 10162
  156.0197  130.4449  150.3092 H   0  0  0  0  0  0  0  0  0  0  0  0  # atno 10718 bound_to 10713
  154.6613  135.5320  153.8021 H   0  0  0  0  0  0  0  0  0  0  0  0  # atno 10763 bound_to 10752
  153.0444  135.6506  154.0867 H   0  0  0  0  0  0  0  0  0  0  0  0  # atno 10764 bound_to 10752
  154.0776  135.2949  155.3276 H   0  0  0  0  0  0  0  0  0  0  0  0  # atno 10765 bound_to 10752
  140.1582  134.4375  155.8335 H   0  0  0  0  0  0  0  0  0  0  0  0  # atno 11005 bound_to 11000
  145.8711  140.9419  143.0650 LP  0  0  0  0  0  0  0  0  0  0  0  0  # atno 17320 bound_to 7965
  144.6740  140.0655  143.7474 LP  0  0  0  0  0  0  0  0  0  0  0  0  # atno 17321 bound_to 7965
  140.1354  143.4488  152.2228 LP  0  0  0  0  0  0  0  0  0  0  0  0  # atno 17342 bound_to 10162
  139.5645  144.7426  151.4062 LP  0  0  0  0  0  0  0  0  0  0  0  0  # atno 17343 bound_to 10162
  157.1194  131.0243  151.3015 LP  0  0  0  0  0  0  0  0  0  0  0  0  # atno 17370 bound_to 10713
  157.4640  130.7670  149.7262 LP  0  0  0  0  0  0  0  0  0  0  0  0  # atno 17371 bound_to 10713
  141.2206  133.6901  156.7545 LP  0  0  0  0  0  0  0  0  0  0  0  0  # atno 17394 bound_to 11000
  140.2522  134.8532  157.3678 LP  0  0  0  0  0  0  0  0  0  0  0  0  # atno 17395 bound_to 11000

$$$$
