AV-unprocessed.smi:2072|AV-procd|sdf|8447|dock9
  -GOLD-   2272011143D 1   1.00000     0.00000
 Structure written by MMmdl.
 40 42  0  0  0  0  0  0  0  0  2 V2000
  145.5942  137.5980  154.5815 O   0  0  0  0  0  0  0  0  0  0  0  0
  146.4845  137.1453  153.8633 C   0  0  0  0  0  0  0  0  0  0  0  0
  147.6280  137.7738  153.5389 N   0  0  0  0  0  0  0  0  0  0  0  0
  148.0895  139.0665  153.9150 C   0  0  0  0  0  0  0  0  0  0  0  0
  147.2801  140.2265  154.0020 C   0  0  0  0  0  0  0  0  0  0  0  0
  147.8751  141.4447  154.3829 C   0  0  0  0  0  0  0  0  0  0  0  0
  149.2552  141.4631  154.6603 C   0  0  0  0  0  0  0  0  0  0  0  0
  150.0399  140.3687  154.5781 N   0  0  0  0  0  0  0  0  0  0  0  0
  149.4626  139.2044  154.2125 C   0  0  0  0  0  0  0  0  0  0  0  0
  146.4278  135.9277  153.3049 N   0  0  0  0  0  0  0  0  0  0  0  0
  145.3210  134.9864  153.4539 C   0  0  1  0  0  0  0  0  0  0  0  0
  143.9441  135.6739  153.4493 C   0  0  0  0  0  0  0  0  0  0  0  0
  143.0065  134.7057  152.7010 C   0  0  0  0  0  0  0  0  0  0  0  0
  143.8314  133.5220  152.3921 N   0  3  1  0  0  0  0  0  0  0  0  0
  143.4157  132.6932  151.2397 C   0  0  0  0  0  0  0  0  0  0  0  0
  144.3420  131.4650  151.1373 C   0  0  0  0  0  0  0  0  0  0  0  0
  145.8285  131.8734  151.0976 C   0  0  0  0  0  0  0  0  0  0  0  0
  146.1803  132.8116  152.2682 C   0  0  0  0  0  0  0  0  0  0  0  0
  145.2148  134.0093  152.2794 C   0  0  2  0  0  0  0  0  0  0  0  0
  148.2643  137.2506  152.9553 H   0  0  0  0  0  0  0  0  0  0  0  0
  146.2248  140.2200  153.7836 H   0  0  0  0  0  0  0  0  0  0  0  0
  147.2857  142.3463  154.4591 H   0  0  0  0  0  0  0  0  0  0  0  0
  149.7414  142.3816  154.9542 H   0  0  0  0  0  0  0  0  0  0  0  0
  150.1230  138.3512  154.1567 H   0  0  0  0  0  0  0  0  0  0  0  0
  147.2032  135.6337  152.7290 H   0  0  0  0  0  0  0  0  0  0  0  0
  145.4197  134.4250  154.3857 H   0  0  0  0  0  0  0  0  0  0  0  0
  143.5990  135.8723  154.4648 H   0  0  0  0  0  0  0  0  0  0  0  0
  143.9783  136.6295  152.9235 H   0  0  0  0  0  0  0  0  0  0  0  0
  142.1375  134.4245  153.2963 H   0  0  0  0  0  0  0  0  0  0  0  0
  142.6507  135.1676  151.7787 H   0  0  0  0  0  0  0  0  0  0  0  0
  142.3812  132.3744  151.3716 H   0  0  0  0  0  0  0  0  0  0  0  0
  143.4585  133.2823  150.3224 H   0  0  0  0  0  0  0  0  0  0  0  0
  144.1720  130.8124  151.9947 H   0  0  0  0  0  0  0  0  0  0  0  0
  144.0910  130.8801  150.2519 H   0  0  0  0  0  0  0  0  0  0  0  0
  146.4628  130.9868  151.1227 H   0  0  0  0  0  0  0  0  0  0  0  0
  146.0399  132.3774  150.1535 H   0  0  0  0  0  0  0  0  0  0  0  0
  146.1187  132.2694  153.2127 H   0  0  0  0  0  0  0  0  0  0  0  0
  147.2106  133.1536  152.1691 H   0  0  0  0  0  0  0  0  0  0  0  0
  145.3136  134.5632  151.3427 H   0  0  0  0  0  0  0  0  0  0  0  0
  143.8042  132.9322  153.2117 H   0  0  0  0  0  0  0  0  0  0  0  0
  1  2  2  0  0  0  0
  2  3  1  0  0  0  0
  2 10  1  0  0  0  0
  3  4  1  0  0  0  0
  3 20  1  0  0  0  0
  4  9  1  0  0  0  0
  4  5  2  0  0  0  0
  5  6  1  0  0  0  0
  5 21  1  0  0  0  0
  6  7  2  0  0  0  0
  6 22  1  0  0  0  0
  7  8  1  0  0  0  0
  7 23  1  0  0  0  0
  8  9  2  0  0  0  0
  9 24  1  0  0  0  0
 10 11  1  0  0  0  0
 10 25  1  0  0  0  0
 11 19  1  0  0  0  0
 11 12  1  0  0  0  0
 11 26  1  0  0  0  0
 12 13  1  0  0  0  0
 12 27  1  0  0  0  0
 12 28  1  0  0  0  0
 13 14  1  0  0  0  0
 13 29  1  0  0  0  0
 13 30  1  0  0  0  0
 14 19  1  0  0  0  0
 14 15  1  0  0  0  0
 14 40  1  0  0  0  0
 15 16  1  0  0  0  0
 15 31  1  0  0  0  0
 15 32  1  0  0  0  0
 16 17  1  0  0  0  0
 16 33  1  0  0  0  0
 16 34  1  0  0  0  0
 17 18  1  0  0  0  0
 17 35  1  0  0  0  0
 17 36  1  0  0  0  0
 18 19  1  0  0  0  0
 18 37  1  0  0  0  0
 18 38  1  0  0  0  0
 19 39  1  0  0  0  0
M  CHG  1  14   1
M  END
> <s_m_source_file>
AV-unprocessed.smi

> <i_m_source_file_index>
2072

> <i_lp_mmshare_version>
43012

> <i_f3d_flags>
0

> <s_epik_input>
W0NIMl0xW0NIMl1bQ0gyXVtDSDJdW0NASF0oTjEyKVtDQEBIXShbQ0gyXVtDSDJdMilbTkhdQyg9TylbTkhdYzNbY0hdW2NIXVtjSF1uW2NIXTM=

> <s_epik_cmdline>
J2VwaWtfcHl0aG9uJywgJy1waCcsICc3LjAnLCAnLXRuJywgJzgnLCAnLW1hJywgJzIwMCcsICctbWV0YWxfYmluZGluZycsICctaW1hZScsICc8aW5maWxlLm1hZT4nLCAnLW9tYWUnLCAnPG91dGZpbGUubWFlPic=

> <r_lp_tautomer_probability>
1

> <r_epik_Ionization_Penalty>
0.00482425

> <r_epik_Ionization_Penalty_Charging>
0.000974069

> <r_epik_Ionization_Penalty_Neutral>
0.00385018

> <r_epik_State_Penalty>
-0

> <r_epik_Charging_Adjusted_Penalty>
0.000974069

> <i_epik_Tot_Q>
1

> <i_epik_Tot_abs_Q>
1

> <r_epik_Metal_State_Penalty>
-0

> <b_epik_Metal_Only>
0

> <s_lp_Force_Field>
OPLS_2005

> <r_lp_Energy>
37.8914

> <b_lp_Chiralities_Consistent>
1

> <s_lp_Variant>
AV-unprocessed.smi:2072-6

> <Gold.Version>
5.8.1

> <Gold.Id.Protein>
6NUR|6NUR_protein|mol2

> <Gold.PLP.Fitness>
43.5367

> <Gold.PLP.PLP>
-30.7471

> <Gold.PLP.part.hbond>
-3.4800

> <Gold.PLP.part.metal>
0.0000

> <Gold.PLP.part.buried>
-3.8844

> <Gold.PLP.part.nonpolar>
-24.3683

> <Gold.PLP.part.repulsive>
0.2073

> <Gold.PLP.ligand.clash>
0.0000

> <Gold.PLP.ligand.torsion>
0.6378

> <Gold.PLP.Chemscore.Hbond>
3.6855

> <Gold.PLP.Chemscore.CHOScore>
1.0000

> <Gold.PLP.Chemscore.Metal>
0.0000

> <Gold.Chemscore.Hbonds>
donor molecule, donor type, donor heavy atom, donor atom, acceptor molecule, acceptor atom, score
      L1  H     3    20       P1  7948  1.00
      L1  H    10    25       P1  7948  0.91
      L1  H    14    40       P1 10957  0.88
      P1  H  7989  7998       L1     8  0.94
      L1  C     7    23       P1  8028  0.88

> <Gold.PLP.Chemscore.Internal.Correction>
0.0088

> <Gold.Rescore>
     Score         DG    S(hbond)    S(metal)    S(lipo)     H(rot)  DE(clash)    DE(int)     intcor
     19.83     -21.57       3.01        0.00      73.39       1.00       0.04       1.70       ----

> <Gold.Chemscore.Fitness>
19.8266

> <Gold.Chemscore.DG>
-21.5695

> <Gold.Chemscore.ZeroCoef>
-5.4800

> <Gold.Chemscore.Hbond>
3.0129

> <Gold.Chemscore.Metal>
0.0000

> <Gold.Chemscore.Lipo>
73.3877

> <Gold.Chemscore.Internal_Hbond>
0.0000

> <Gold.Chemscore.DEClash>
0.0402

> <Gold.Chemscore.DEInternal>
1.7027

> <Gold.Chemscore.Rot>
1.0000

> <Gold.Chemscore.Internal.Correction>
   9.000000E+99

> <Gold.Chemscore.Hbonds>
donor molecule, donor type, donor heavy atom, donor atom, acceptor molecule, acceptor atom, score
      L1  H     3    20       P1  7948  1.00
      L1  H    10    25       P1  7948  0.84
      L1  H    14    40       P1 10957  0.25
      P1  H  7989  7998       L1     8  0.44

> <Gold.Chemscore.Hbond.Weighted>
-10.0632

> <Gold.Chemscore.Metal.Weighted>
-0.0000

> <Gold.Chemscore.Lipo.Weighted>
-8.5864

> <Gold.Chemscore.Internal_Hbond.Weighted>
0.0000

> <Gold.Chemscore.DEClash.Weighted>
0.0402

> <Gold.Chemscore.DEInternal.Weighted>
1.7027

> <Gold.Chemscore.Rot.Weighted>
2.5600

> <Gold.Chemscore.Internal.Correction.Weighted>
   9.000000E+99

> <Gold.Protein.RotatedTorsions>
[ 6907 6896 6895 6894 ] final  -54.08 input  -60.11 | X-H torsion
[ 7974 7965 7964 7962 ] final  116.16 input  175.53 | X-H torsion
[ 8008 7997 7996 7995 ] final -156.37 input   59.86 | X-H torsion
[ 10167 10162 10161 10158 ] final -106.60 input  -65.29 | X-H torsion
[ 10718 10713 10712 10709 ] final  169.94 input   66.30 | X-H torsion
[ 10763 10752 10751 10750 ] final  -11.80 input  -60.55 | X-H torsion
[ 11005 11000 10999 10996 ] final    3.12 input  -57.11 | X-H torsion

> <Gold.Protein.ActiveResidues>
 VAL166  LYS551  ARG553  GLY616  TRP617  ASP618  TYR619  PRO620  LYS621  CYS622 
 ASP623  PHE694  ASN695  SER759  ASP760  ASP761  ALA762  ILE779  LEU786  VAL792 
 PHE793  MET794  SER795  GLU796  ALA797  LYS798  CYS799  TRP800  GLU811  SER814 

> <Gold.Protein.RotatedAtoms>
  150.8370  134.7647  159.6900 H   0  0  0  0  0  0  0  0  0  0  0  0  # atno 6907 bound_to 6896
  152.4465  134.5481  159.9868 H   0  0  0  0  0  0  0  0  0  0  0  0  # atno 6908 bound_to 6896
  151.5629  133.3363  159.3010 H   0  0  0  0  0  0  0  0  0  0  0  0  # atno 6909 bound_to 6896
  145.1830  139.3040  143.4408 H   0  0  0  0  0  0  0  0  0  0  0  0  # atno 7974 bound_to 7965
  155.7162  140.0784  157.2350 H   0  0  0  0  0  0  0  0  0  0  0  0  # atno 8008 bound_to 7997
  154.4051  140.1621  156.2405 H   0  0  0  0  0  0  0  0  0  0  0  0  # atno 8009 bound_to 7997
  155.9238  140.3396  155.6197 H   0  0  0  0  0  0  0  0  0  0  0  0  # atno 8010 bound_to 7997
  140.1860  143.3929  152.1244 H   0  0  0  0  0  0  0  0  0  0  0  0  # atno 10167 bound_to 10162
  157.0153  131.0216  151.2791 H   0  0  0  0  0  0  0  0  0  0  0  0  # atno 10718 bound_to 10713
  153.4891  135.7017  153.5894 H   0  0  0  0  0  0  0  0  0  0  0  0  # atno 10763 bound_to 10752
  153.4074  135.3857  155.2028 H   0  0  0  0  0  0  0  0  0  0  0  0  # atno 10764 bound_to 10752
  154.8718  135.3896  154.4349 H   0  0  0  0  0  0  0  0  0  0  0  0  # atno 10765 bound_to 10752
  140.5966  133.9874  155.8113 H   0  0  0  0  0  0  0  0  0  0  0  0  # atno 11005 bound_to 11000
  146.3450  140.2016  142.8589 LP  0  0  0  0  0  0  0  0  0  0  0  0  # atno 17320 bound_to 7965
  145.0117  140.8719  143.5220 LP  0  0  0  0  0  0  0  0  0  0  0  0  # atno 17321 bound_to 7965
  139.5276  144.7121  151.5173 LP  0  0  0  0  0  0  0  0  0  0  0  0  # atno 17342 bound_to 10162
  140.6488  143.8740  150.6764 LP  0  0  0  0  0  0  0  0  0  0  0  0  # atno 17343 bound_to 10162
  157.5290  130.8046  149.7895 LP  0  0  0  0  0  0  0  0  0  0  0  0  # atno 17370 bound_to 10713
  156.0121  130.3829  150.2229 LP  0  0  0  0  0  0  0  0  0  0  0  0  # atno 17371 bound_to 10713
  141.0900  133.9932  157.3253 LP  0  0  0  0  0  0  0  0  0  0  0  0  # atno 17394 bound_to 11000
  139.9250  135.0201  156.8203 LP  0  0  0  0  0  0  0  0  0  0  0  0  # atno 17395 bound_to 11000

$$$$
