AV-unprocessed.smi:1897|AV-procd|sdf|7689|dock2
  -GOLD-   22720 9423D 1   1.00000     0.00000
 Structure written by MMmdl.
 39 41  0  0  0  0  0  0  0  0  2 V2000
  153.6863  142.3599  160.1865 C   0  0  0  0  0  0  0  0  0  0  0  0
  152.5834  142.0614  159.2295 C   0  0  0  0  0  0  0  0  0  0  0  0
  152.1608  140.8169  158.9773 N   0  0  0  0  0  0  0  0  0  0  0  0
  151.1221  140.7911  158.0586 N   0  0  0  0  0  0  0  0  0  0  0  0
  150.7942  142.0199  157.6332 C   0  0  0  0  0  0  0  0  0  0  0  0
  149.7494  142.3033  156.7052 N   0  0  0  0  0  0  0  0  0  0  0  0
  148.8977  141.4918  156.0430 C   0  0  0  0  0  0  0  0  0  0  0  0
  148.9429  140.2714  156.1869 O   0  0  0  0  0  0  0  0  0  0  0  0
  148.0161  142.0931  155.2272 N   0  0  0  0  0  0  0  0  0  0  0  0
  147.0614  141.4130  154.3586 C   0  0  1  0  0  0  0  0  0  0  0  0
  147.7344  140.4565  153.3577 C   0  0  0  0  0  0  0  0  0  0  0  0
  146.8193  139.2177  153.2954 C   0  0  0  0  0  0  0  0  0  0  0  0
  145.6443  139.5588  154.1194 N   0  3  1  0  0  0  0  0  0  0  0  0
  144.8673  138.4335  154.6835 C   0  0  0  0  0  0  0  0  0  0  0  0
  143.6445  138.9890  155.4410 C   0  0  0  0  0  0  0  0  0  0  0  0
  144.0518  140.0444  156.4897 C   0  0  0  0  0  0  0  0  0  0  0  0
  144.9370  141.1391  155.8632 C   0  0  0  0  0  0  0  0  0  0  0  0
  146.1331  140.4876  155.1489 C   0  0  2  0  0  0  0  0  0  0  0  0
  151.7367  143.3217  158.3408 S   0  0  0  0  0  0  0  0  0  0  0  0
  153.7562  141.5787  160.9442 H   0  0  0  0  0  0  0  0  0  0  0  0
  153.5037  143.3118  160.6853 H   0  0  0  0  0  0  0  0  0  0  0  0
  154.6355  142.4187  159.6540 H   0  0  0  0  0  0  0  0  0  0  0  0
  149.5607  143.2883  156.5864 H   0  0  0  0  0  0  0  0  0  0  0  0
  148.0396  143.1020  155.1763 H   0  0  0  0  0  0  0  0  0  0  0  0
  146.4658  142.1347  153.7957 H   0  0  0  0  0  0  0  0  0  0  0  0
  147.8417  140.9285  152.3803 H   0  0  0  0  0  0  0  0  0  0  0  0
  148.7315  140.1631  153.6901 H   0  0  0  0  0  0  0  0  0  0  0  0
  146.5205  138.9697  152.2766 H   0  0  0  0  0  0  0  0  0  0  0  0
  147.3337  138.3533  153.7182 H   0  0  0  0  0  0  0  0  0  0  0  0
  144.5437  137.7717  153.8796 H   0  0  0  0  0  0  0  0  0  0  0  0
  145.4970  137.8450  155.3531 H   0  0  0  0  0  0  0  0  0  0  0  0
  142.9538  139.4404  154.7274 H   0  0  0  0  0  0  0  0  0  0  0  0
  143.1008  138.1751  155.9218 H   0  0  0  0  0  0  0  0  0  0  0  0
  143.1638  140.4905  156.9386 H   0  0  0  0  0  0  0  0  0  0  0  0
  144.5962  139.5582  157.3003 H   0  0  0  0  0  0  0  0  0  0  0  0
  144.3536  141.7315  155.1571 H   0  0  0  0  0  0  0  0  0  0  0  0
  145.2834  141.8245  156.6372 H   0  0  0  0  0  0  0  0  0  0  0  0
  146.7245  139.9223  155.8734 H   0  0  0  0  0  0  0  0  0  0  0  0
  145.0213  140.0899  153.5278 H   0  0  0  0  0  0  0  0  0  0  0  0
  1  2  1  0  0  0  0
  1 20  1  0  0  0  0
  1 21  1  0  0  0  0
  1 22  1  0  0  0  0
  2 19  1  0  0  0  0
  2  3  2  0  0  0  0
  3  4  1  0  0  0  0
  4  5  2  0  0  0  0
  5  6  1  0  0  0  0
  5 19  1  0  0  0  0
  6  7  1  0  0  0  0
  6 23  1  0  0  0  0
  7  8  2  0  0  0  0
  7  9  1  0  0  0  0
  9 10  1  0  0  0  0
  9 24  1  0  0  0  0
 10 18  1  0  0  0  0
 10 11  1  0  0  0  0
 10 25  1  0  0  0  0
 11 12  1  0  0  0  0
 11 26  1  0  0  0  0
 11 27  1  0  0  0  0
 12 13  1  0  0  0  0
 12 28  1  0  0  0  0
 12 29  1  0  0  0  0
 13 18  1  0  0  0  0
 13 14  1  0  0  0  0
 13 39  1  0  0  0  0
 14 15  1  0  0  0  0
 14 30  1  0  0  0  0
 14 31  1  0  0  0  0
 15 16  1  0  0  0  0
 15 32  1  0  0  0  0
 15 33  1  0  0  0  0
 16 17  1  0  0  0  0
 16 34  1  0  0  0  0
 16 35  1  0  0  0  0
 17 18  1  0  0  0  0
 17 36  1  0  0  0  0
 17 37  1  0  0  0  0
 18 38  1  0  0  0  0
M  CHG  1  13   1
M  END
> <s_m_source_file>
AV-unprocessed.smi

> <i_m_source_file_index>
1897

> <i_lp_mmshare_version>
43012

> <i_f3d_flags>
0

> <s_epik_input>
W0NIM11jMW5uYyhzMSlbTkhdQyg9TylbTkhdW0NASF0oW0NIMl1bQ0gyXTIpW0NAQEhdKE4yMylbQ0gyXVtDSDJdW0NIMl1bQ0gyXTM=

> <s_epik_cmdline>
J2VwaWtfcHl0aG9uJywgJy1waCcsICc3LjAnLCAnLXRuJywgJzgnLCAnLW1hJywgJzIwMCcsICctbWV0YWxfYmluZGluZycsICctaW1hZScsICc8aW5maWxlLm1hZT4nLCAnLW9tYWUnLCAnPG91dGZpbGUubWFlPic=

> <r_lp_tautomer_probability>
1

> <r_epik_Ionization_Penalty>
0.00228891

> <r_epik_Ionization_Penalty_Charging>
0.00107044

> <r_epik_Ionization_Penalty_Neutral>
0.00121847

> <r_epik_State_Penalty>
-0

> <r_epik_Charging_Adjusted_Penalty>
0.00107044

> <i_epik_Tot_Q>
1

> <i_epik_Tot_abs_Q>
1

> <r_epik_Metal_State_Penalty>
0.304057

> <b_epik_Metal_Only>
0

> <s_lp_Force_Field>
OPLS_2005

> <r_lp_Energy>
35.8573

> <b_lp_Chiralities_Consistent>
1

> <s_lp_Variant>
AV-unprocessed.smi:1897-6

> <Gold.Version>
5.8.1

> <Gold.Id.Protein>
6NUR|6NUR_protein|mol2

> <Gold.PLP.Fitness>
36.8256

> <Gold.PLP.PLP>
-24.8257

> <Gold.PLP.part.hbond>
-3.0000

> <Gold.PLP.part.metal>
0.0000

> <Gold.PLP.part.buried>
-2.1105

> <Gold.PLP.part.nonpolar>
-20.6530

> <Gold.PLP.part.repulsive>
0.1738

> <Gold.PLP.ligand.clash>
0.0000

> <Gold.PLP.ligand.torsion>
0.0050

> <Gold.PLP.Chemscore.Hbond>
4.0000

> <Gold.PLP.Chemscore.CHOScore>
0.0000

> <Gold.PLP.Chemscore.Metal>
0.0000

> <Gold.Chemscore.Hbonds>
donor molecule, donor type, donor heavy atom, donor atom, acceptor molecule, acceptor atom, score
      L1  H     6    23       P1  8028  1.00
      L1  H     9    24       P1  8028  1.00
      L1  H    13    39       P1 10175  2.00

> <Gold.PLP.Chemscore.Internal.Correction>
0.0099

> <Gold.Rescore>
     Score         DG    S(hbond)    S(metal)    S(lipo)     H(rot)  DE(clash)    DE(int)     intcor
     16.80     -19.18       2.89        0.00      56.58       1.00       0.02       2.37       ----

> <Gold.Chemscore.Fitness>
16.8008

> <Gold.Chemscore.DG>
-19.1839

> <Gold.Chemscore.ZeroCoef>
-5.4800

> <Gold.Chemscore.Hbond>
2.8873

> <Gold.Chemscore.Metal>
0.0000

> <Gold.Chemscore.Lipo>
56.5835

> <Gold.Chemscore.Internal_Hbond>
0.0000

> <Gold.Chemscore.DEClash>
0.0174

> <Gold.Chemscore.DEInternal>
2.3657

> <Gold.Chemscore.Rot>
1.0000

> <Gold.Chemscore.Internal.Correction>
   9.000000E+99

> <Gold.Chemscore.Hbonds>
donor molecule, donor type, donor heavy atom, donor atom, acceptor molecule, acceptor atom, score
      L1  H     6    23       P1  8028  0.97
      L1  H     9    24       P1  8028  0.83
      L1  H    13    39       P1 10175  1.00

> <Gold.Chemscore.Hbond.Weighted>
-9.6437

> <Gold.Chemscore.Metal.Weighted>
-0.0000

> <Gold.Chemscore.Lipo.Weighted>
-6.6203

> <Gold.Chemscore.Internal_Hbond.Weighted>
0.0000

> <Gold.Chemscore.DEClash.Weighted>
0.0174

> <Gold.Chemscore.DEInternal.Weighted>
2.3657

> <Gold.Chemscore.Rot.Weighted>
2.5600

> <Gold.Chemscore.Internal.Correction.Weighted>
   9.000000E+99

> <Gold.Protein.RotatedTorsions>
[ 6907 6896 6895 6894 ] final  119.86 input  -60.11 | X-H torsion
[ 7974 7965 7964 7962 ] final   98.47 input  175.53 | X-H torsion
[ 8008 7997 7996 7995 ] final  140.42 input   59.86 | X-H torsion
[ 10167 10162 10161 10158 ] final  -39.29 input  -65.29 | X-H torsion
[ 10718 10713 10712 10709 ] final -124.98 input   66.30 | X-H torsion
[ 10763 10752 10751 10750 ] final  -18.28 input  -60.55 | X-H torsion
[ 11005 11000 10999 10996 ] final   91.99 input  -57.11 | X-H torsion

> <Gold.Protein.ActiveResidues>
 VAL166  LYS551  ARG553  GLY616  TRP617  ASP618  TYR619  PRO620  LYS621  CYS622 
 ASP623  PHE694  ASN695  SER759  ASP760  ASP761  ALA762  ILE779  LEU786  VAL792 
 PHE793  MET794  SER795  GLU796  ALA797  LYS798  CYS799  TRP800  GLU811  SER814 

> <Gold.Protein.RotatedAtoms>
  152.4441  133.7502  159.6689 H   0  0  0  0  0  0  0  0  0  0  0  0  # atno 6907 bound_to 6896
  150.8337  133.8038  159.3094 H   0  0  0  0  0  0  0  0  0  0  0  0  # atno 6908 bound_to 6896
  151.5684  135.1066  160.0041 H   0  0  0  0  0  0  0  0  0  0  0  0  # atno 6909 bound_to 6896
  145.4117  139.2333  143.3244 H   0  0  0  0  0  0  0  0  0  0  0  0  # atno 7974 bound_to 7965
  156.2979  140.2342  156.4398 H   0  0  0  0  0  0  0  0  0  0  0  0  # atno 8008 bound_to 7997
  154.8196  140.0438  157.1421 H   0  0  0  0  0  0  0  0  0  0  0  0  # atno 8009 bound_to 7997
  154.9330  140.3019  155.5162 H   0  0  0  0  0  0  0  0  0  0  0  0  # atno 8010 bound_to 7997
  140.7068  143.3223  151.2762 H   0  0  0  0  0  0  0  0  0  0  0  0  # atno 10167 bound_to 10162
  156.1635  130.6618  151.0083 H   0  0  0  0  0  0  0  0  0  0  0  0  # atno 10718 bound_to 10713
  153.5868  135.7003  153.5440 H   0  0  0  0  0  0  0  0  0  0  0  0  # atno 10763 bound_to 10752
  153.3213  135.4073  155.1418 H   0  0  0  0  0  0  0  0  0  0  0  0  # atno 10764 bound_to 10752
  154.8608  135.3696  154.5398 H   0  0  0  0  0  0  0  0  0  0  0  0  # atno 10765 bound_to 10752
  139.8830  134.8707  156.3508 H   0  0  0  0  0  0  0  0  0  0  0  0  # atno 11005 bound_to 11000
  146.2701  140.4829  142.8818 LP  0  0  0  0  0  0  0  0  0  0  0  0  # atno 17320 bound_to 7965
  144.8304  140.6698  143.6294 LP  0  0  0  0  0  0  0  0  0  0  0  0  # atno 17321 bound_to 7965
  139.6681  144.0069  152.2736 LP  0  0  0  0  0  0  0  0  0  0  0  0  # atno 17342 bound_to 10162
  139.9658  144.6527  150.8036 LP  0  0  0  0  0  0  0  0  0  0  0  0  # atno 17343 bound_to 10162
  157.6750  131.0852  150.7516 LP  0  0  0  0  0  0  0  0  0  0  0  0  # atno 17370 bound_to 10713
  156.7578  130.4789  149.5443 LP  0  0  0  0  0  0  0  0  0  0  0  0  # atno 17371 bound_to 10713
  140.9595  133.7398  156.0382 LP  0  0  0  0  0  0  0  0  0  0  0  0  # atno 17394 bound_to 11000
  140.8007  134.3512  157.5440 LP  0  0  0  0  0  0  0  0  0  0  0  0  # atno 17395 bound_to 11000

$$$$
