#       Name:                AV-unprocessed.smi:3202
#       Creating user name   scv26
#       Creation time:       Fri Mar 27 18:07:56 2020


#       File generated by GOLD software.
#

@<TRIPOS>MOLECULE
AV-unprocessed.smi:3202
    44    45     1
SMALL
NO_CHARGES


@<TRIPOS>ATOM
      1 ****        -6.0541  -0.3512  -1.7562 C.3            1 S1                 0.0000
      2 ****        -4.7055  -0.8788  -1.4024 C.2            1 S1                 0.0000
      3 ****        -3.4545  -0.3612  -1.5870 C.2            1 S1                 0.0000
      4 ****        -2.5812  -1.3420  -1.0318 C.2            1 S1                 0.0000
      5 ****        -1.0790  -1.2985  -0.9493 C.3            1 S1                 0.0000
      6 ****        -0.5511  -0.6334   0.3386 C.3            1 S1                 0.0000
      7 ****        -0.9941  -1.3515   1.6244 C.3            1 S1                 0.0000
      8 ****         0.9272  -0.5803   0.2918 N.4            1 S1                 1.0000
      9 ****         1.5202   0.7766   0.3021 C.3            1 S1                 0.0000
     10 ****         1.3405   1.5113   1.6383 C.3            1 S1                 0.0000
     11 ****         2.4915   2.5236   1.7049 C.3            1 S1                 0.0000
     12 ****         3.4246   2.1962   0.5291 C.3            1 S1                 0.0000
     13 ****         3.0425   0.7851   0.0457 C.3            1 S1                 0.0000
     14 ****         3.7979  -0.2760   0.8797 C.3            1 S1                 0.0000
     15 ****         3.3741   0.5990  -1.4469 C.3            1 S1                 0.0000
     16 ****        -3.2386  -2.3839  -0.5422 N.2            1 S1                 0.0000
     17 ****        -4.5314  -2.0900  -0.7737 N.pl3          1 S1                 0.0000
     18 ****        -5.2754  -2.7177  -0.5020 H              1 S1                 0.0000
     19 ****        -5.9741   0.5896  -2.3014 H              1 S1                 0.0000
     20 ****        -6.6470  -0.1711  -0.8592 H              1 S1                 0.0000
     21 ****        -6.5952  -1.0591  -2.3846 H              1 S1                 0.0000
     22 ****        -3.2001   0.5806  -2.0502 H              1 S1                 0.0000
     23 ****        -0.6756  -2.3093  -1.0304 H              1 S1                 0.0000
     24 ****        -0.6918  -0.7585  -1.8145 H              1 S1                 0.0000
     25 ****        -0.9474   0.3827   0.3731 H              1 S1                 0.0000
     26 ****        -2.0768  -1.3249   1.7473 H              1 S1                 0.0000
     27 ****        -0.5628  -0.8776   2.5066 H              1 S1                 0.0000
     28 ****        -0.6834  -2.3969   1.6233 H              1 S1                 0.0000
     29 ****         1.2970  -1.0996   1.0751 H              1 S1                 0.0000
     30 ****         1.0384   1.3656  -0.4811 H              1 S1                 0.0000
     31 ****         0.3658   1.9943   1.7146 H              1 S1                 0.0000
     32 ****         1.4235   0.8140   2.4732 H              1 S1                 0.0000
     33 ****         2.1268   3.5488   1.6336 H              1 S1                 0.0000
     34 ****         3.0183   2.4318   2.6554 H              1 S1                 0.0000
     35 ****         3.2467   2.9218  -0.2662 H              1 S1                 0.0000
     36 ****         4.4775   2.2807   0.8016 H              1 S1                 0.0000
     37 ****         4.8766  -0.1725   0.7570 H              1 S1                 0.0000
     38 ****         3.5385  -1.2899   0.5737 H              1 S1                 0.0000
     39 ****         3.5855  -0.1893   1.9455 H              1 S1                 0.0000
     40 ****         4.4460   0.6928  -1.6256 H              1 S1                 0.0000
     41 ****         2.8732   1.3429  -2.0675 H              1 S1                 0.0000
     42 ****         3.0662  -0.3849  -1.8020 H              1 S1                 0.0000
     43 ****         1.2221  -1.0386  -0.5585 H              1 S1                 0.0000
     44 ****        -2.8614  -3.1992  -0.1028 LP             1 S1                 0.0000
@<TRIPOS>BOND
    1    1    2 1     
    2    1   19 1     
    3    1   20 1     
    4    1   21 1     
    5    2   17 1     
    6    2    3 2     
    7    3    4 1     
    8    3   22 1     
    9    4    5 1     
   10    4   16 2     
   11    5    6 1     
   12    5   23 1     
   13    5   24 1     
   14    6    7 1     
   15    6    8 1     
   16    6   25 1     
   17    7   26 1     
   18    7   27 1     
   19    7   28 1     
   20    8    9 1     
   21    8   29 1     
   22    8   43 1     
   23    9   13 1     
   24    9   10 1     
   25    9   30 1     
   26   10   11 1     
   27   10   31 1     
   28   10   32 1     
   29   11   12 1     
   30   11   33 1     
   31   11   34 1     
   32   12   13 1     
   33   12   35 1     
   34   12   36 1     
   35   13   14 1     
   36   13   15 1     
   37   14   37 1     
   38   14   38 1     
   39   14   39 1     
   40   15   40 1     
   41   15   41 1     
   42   15   42 1     
   43   16   17 1     
   44   17   18 1     
   45   16   44 1     
@<TRIPOS>SUBSTRUCTURE
      1 S1             1
@<TRIPOS>SET
LONE_PAIRS      STATIC     ATOMS    <user>   **** ""
1 44
DONOR_HYDROGENS      STATIC     ATOMS    <user>   **** ""
3 29 43 18
ATOM$BLUE        STATIC     ATOMS    COLORGROUP SYSTEM
1 44
ATOM$RED        STATIC     ATOMS    COLORGROUP SYSTEM
3 29 43 18
