#       Name:                AV-unprocessed.smi:3061
#       Creating user name   scv26
#       Creation time:       Fri Mar 27 17:08:42 2020


#       File generated by GOLD software.
#

@<TRIPOS>MOLECULE
AV-unprocessed.smi:3061
    41    42     1
SMALL
NO_CHARGES


@<TRIPOS>ATOM
      1 ****        -3.2056  -1.6113   1.4829 C.3            1 S1                 0.0000
      2 ****        -2.4515  -0.7261   0.4817 C.3            1 S1                 0.0000
      3 ****        -2.9390  -0.9686  -0.9627 C.3            1 S1                 0.0000
      4 ****        -2.3215  -0.0685  -1.9211 N.pl3          1 S1                 0.0000
      5 ****        -2.5241   1.2304  -2.1478 C.2            1 S1                 0.0000
      6 ****        -1.7555   1.7331  -3.1039 N.2            1 S1                 0.0000
      7 ****        -1.0562   0.6110  -3.4483 C.2            1 S1                 0.0000
      8 ****        -1.3600  -0.4971  -2.7725 N.2            1 S1                 0.0000
      9 ****        -1.0177  -0.9902   0.5977 N.am           1 S1                 0.0000
     10 ****        -0.0473  -0.0627   0.5689 C.2            1 S1                 0.0000
     11 ****        -0.2679   1.1462   0.4862 O.2            1 S1                 0.0000
     12 ****         1.3975  -0.5817   0.6181 C.3            1 S1                 0.0000
     13 ****         2.1506  -0.2533  -0.6874 C.3            1 S1                 0.0000
     14 ****         3.1955   0.7650  -0.2629 C.2            1 S1                 0.0000
     15 ****         3.9308   1.3414  -1.0631 O.2            1 S1                 0.0000
     16 ****         3.1852   0.9365   1.0619 N.am           1 S1                 0.0000
     17 ****         4.0417   1.8467   1.8095 C.3            1 S1                 0.0000
     18 ****         2.2268   0.0809   1.7400 C.3            1 S1                 0.0000
     19 ****        -4.2785  -1.4209   1.4438 H              1 S1                 0.0000
     20 ****        -2.8750  -1.4184   2.5040 H              1 S1                 0.0000
     21 ****        -3.0482  -2.6704   1.2755 H              1 S1                 0.0000
     22 ****        -2.6612   0.3111   0.7497 H              1 S1                 0.0000
     23 ****        -2.7457  -1.9996  -1.2644 H              1 S1                 0.0000
     24 ****        -4.0185  -0.8252  -1.0212 H              1 S1                 0.0000
     25 ****        -3.2406   1.8214  -1.5964 H              1 S1                 0.0000
     26 ****        -0.3015   0.6103  -4.2210 H              1 S1                 0.0000
     27 ****        -0.7401  -1.9588   0.6659 H              1 S1                 0.0000
     28 ****         1.3819  -1.6622   0.7709 H              1 S1                 0.0000
     29 ****         2.6463  -1.1376  -1.0885 H              1 S1                 0.0000
     30 ****         1.5129   0.1591  -1.4713 H              1 S1                 0.0000
     31 ****         5.0921   1.6582   1.5854 H              1 S1                 0.0000
     32 ****         3.8991   1.7268   2.8837 H              1 S1                 0.0000
     33 ****         3.8143   2.8815   1.5507 H              1 S1                 0.0000
     34 ****         1.6195   0.6631   2.4356 H              1 S1                 0.0000
     35 ****         2.7618  -0.6712   2.3211 H              1 S1                 0.0000
     36 ****        -1.7029   2.6632  -3.4674 LP             1 S1                 0.0000
     37 ****        -0.9745  -1.4146  -2.8699 LP             1 S1                 0.0000
     38 ****        -1.2091   1.4805   0.4366 LP             1 S1                 0.0000
     39 ****         0.4941   1.7935   0.4687 LP             1 S1                 0.0000
     40 ****         3.8553   1.1470  -2.0411 LP             1 S1                 0.0000
     41 ****         4.6040   2.0044  -0.7356 LP             1 S1                 0.0000
@<TRIPOS>BOND
    1    1    2 1     
    2    1   19 1     
    3    1   20 1     
    4    1   21 1     
    5    2    3 1     
    6    2    9 1     
    7    2   22 1     
    8    3    4 1     
    9    3   23 1     
   10    3   24 1     
   11    4    8 1     
   12    4    5 1     
   13    5    6 2     
   14    5   25 1     
   15    6    7 1     
   16    7    8 2     
   17    7   26 1     
   18    9   10 am    
   19    9   27 1     
   20   10   11 2     
   21   10   12 1     
   22   12   18 1     
   23   12   13 1     
   24   12   28 1     
   25   13   14 1     
   26   13   29 1     
   27   13   30 1     
   28   14   15 2     
   29   14   16 am    
   30   16   17 1     
   31   16   18 1     
   32   17   31 1     
   33   17   32 1     
   34   17   33 1     
   35   18   34 1     
   36   18   35 1     
   37    6   36 1     
   38    8   37 1     
   39   11   38 1     
   40   11   39 1     
   41   15   40 1     
   42   15   41 1     
@<TRIPOS>SUBSTRUCTURE
      1 S1             1
@<TRIPOS>SET
LONE_PAIRS      STATIC     ATOMS    <user>   **** ""
6 36 37 38 39 40 41
DONOR_HYDROGENS      STATIC     ATOMS    <user>   **** ""
1 27
ATOM$BLUE        STATIC     ATOMS    COLORGROUP SYSTEM
6 36 37 38 39 40 41
ATOM$RED        STATIC     ATOMS    COLORGROUP SYSTEM
1 27
