#       Name:                AV-unprocessed.smi:1056
#       Creating user name   scv26
#       Creation time:       Fri Mar 27 03:13:47 2020


#       File generated by GOLD software.
#

@<TRIPOS>MOLECULE
AV-unprocessed.smi:1056
    50    52     1
SMALL
NO_CHARGES


@<TRIPOS>ATOM
      1 ****        -1.5027   5.3358  -1.5192 C.3            1 S1                 0.0000
      2 ****        -1.4277   4.0326  -0.7434 C.ar           1 S1                 0.0000
      3 ****        -2.0722   3.9423   0.5111 C.ar           1 S1                 0.0000
      4 ****        -2.0255   2.7494   1.2650 C.ar           1 S1                 0.0000
      5 ****        -2.5746   2.4414   2.4980 N.2            1 S1                 0.0000
      6 ****        -2.1829   1.1809   2.6598 C.2            1 S1                 0.0000
      7 ****        -1.4388   0.6368   1.6775 N.pl3          1 S1                 0.0000
      8 ****        -0.8991  -0.7089   1.6249 C.3            1 S1                 0.0000
      9 ****         0.6226  -0.7395   1.8753 C.3            1 S1                 0.0000
     10 ****         0.8903  -0.2464   3.1724 O.3            1 S1                 0.0000
     11 ****         1.2178  -2.1579   1.7719 C.3            1 S1                 0.0000
     12 ****         1.0821  -2.7415   0.4133 N.4            1 S1                 1.0000
     13 ****         2.0302  -2.1798  -0.5788 C.3            1 S1                 0.0000
     14 ****         1.6738  -2.6761  -1.9911 C.3            1 S1                 0.0000
     15 ****         1.3482  -4.0999  -2.0316 N.am           1 S1                 0.0000
     16 ****         1.0752  -4.8666  -0.9632 C.2            1 S1                 0.0000
     17 ****         0.7968  -6.0573  -1.0759 O.2            1 S1                 0.0000
     18 ****         1.1189  -4.2263   0.4325 C.3            1 S1                 0.0000
     19 ****        -1.3107   1.6410   0.7246 C.ar           1 S1                 0.0000
     20 ****        -0.6662   1.7174  -0.5228 C.ar           1 S1                 0.0000
     21 ****        -0.7211   2.9175  -1.2618 C.ar           1 S1                 0.0000
     22 ****        -0.0182   2.9929  -2.6056 C.3            1 S1                 0.0000
     23 ****        -2.1430   6.0618  -1.0169 H              1 S1                 0.0000
     24 ****        -1.9099   5.1673  -2.5163 H              1 S1                 0.0000
     25 ****        -0.5104   5.7760  -1.6193 H              1 S1                 0.0000
     26 ****        -2.6094   4.7921   0.9065 H              1 S1                 0.0000
     27 ****        -2.4491   0.6217   3.5450 H              1 S1                 0.0000
     28 ****        -1.4216  -1.3277   2.3560 H              1 S1                 0.0000
     29 ****        -1.1344  -1.1208   0.6430 H              1 S1                 0.0000
     30 ****         1.1236  -0.0700   1.1770 H              1 S1                 0.0000
     31 ****         0.5653   0.6395   3.2320 H              1 S1                 0.0000
     32 ****         2.2712  -2.1567   2.0574 H              1 S1                 0.0000
     33 ****         0.7073  -2.7990   2.4927 H              1 S1                 0.0000
     34 ****         2.0176  -1.0907  -0.5706 H              1 S1                 0.0000
     35 ****         3.0445  -2.4861  -0.3172 H              1 S1                 0.0000
     36 ****         0.8053  -2.1300  -2.3612 H              1 S1                 0.0000
     37 ****         2.4907  -2.4713  -2.6834 H              1 S1                 0.0000
     38 ****         1.3214  -4.5363  -2.9426 H              1 S1                 0.0000
     39 ****         2.0309  -4.5607   0.9296 H              1 S1                 0.0000
     40 ****         0.2783  -4.6016   1.0179 H              1 S1                 0.0000
     41 ****        -0.1327   0.8609  -0.9067 H              1 S1                 0.0000
     42 ****         0.5103   2.0661  -2.8311 H              1 S1                 0.0000
     43 ****         0.7115   3.8029  -2.6106 H              1 S1                 0.0000
     44 ****        -0.7389   3.1706  -3.4039 H              1 S1                 0.0000
     45 ****         0.1566  -2.4970   0.0914 H              1 S1                 0.0000
     46 ****        -3.1219   3.0158   3.1068 LP             1 S1                 0.0000
     47 ****         1.8762  -0.2553   3.3392 LP             1 S1                 0.0000
     48 ****         0.4321  -0.8196   3.8517 LP             1 S1                 0.0000
     49 ****         0.7689  -6.4807  -1.9814 LP             1 S1                 0.0000
     50 ****         0.5980  -6.6035  -0.2622 LP             1 S1                 0.0000
@<TRIPOS>BOND
    1    1    2 1     
    2    1   23 1     
    3    1   24 1     
    4    1   25 1     
    5    2   21 ar    
    6    2    3 ar    
    7    3    4 ar    
    8    3   26 1     
    9    4   19 ar    
   10    4    5 1     
   11    5    6 2     
   12    6    7 1     
   13    6   27 1     
   14    7    8 1     
   15    7   19 1     
   16    8    9 1     
   17    8   28 1     
   18    8   29 1     
   19    9   10 1     
   20    9   11 1     
   21    9   30 1     
   22   10   31 1     
   23   11   12 1     
   24   11   32 1     
   25   11   33 1     
   26   12   18 1     
   27   12   13 1     
   28   12   45 1     
   29   13   14 1     
   30   13   34 1     
   31   13   35 1     
   32   14   15 1     
   33   14   36 1     
   34   14   37 1     
   35   15   16 am    
   36   15   38 1     
   37   16   17 2     
   38   16   18 1     
   39   18   39 1     
   40   18   40 1     
   41   19   20 ar    
   42   20   21 ar    
   43   20   41 1     
   44   21   22 1     
   45   22   42 1     
   46   22   43 1     
   47   22   44 1     
   48    5   46 1     
   49   10   47 1     
   50   10   48 1     
   51   17   49 1     
   52   17   50 1     
@<TRIPOS>SUBSTRUCTURE
      1 S1             1
@<TRIPOS>SET
LONE_PAIRS      STATIC     ATOMS    <user>   **** ""
5 46 47 48 49 50
DONOR_HYDROGENS      STATIC     ATOMS    <user>   **** ""
3 31 45 38
ATOM$BLUE        STATIC     ATOMS    COLORGROUP SYSTEM
5 46 47 48 49 50
ATOM$RED        STATIC     ATOMS    COLORGROUP SYSTEM
3 31 45 38
