AV-unprocessed.smi:1645|AV-procd|sdf|6614|dock3
  -GOLD-   22720 7313D 1   1.00000     0.00000
 Structure written by MMmdl.
 56 59  0  0  0  0  0  0  0  0  3 V2000
  148.7985  135.4988  156.4392 O   0  0  0  0  0  0  0  0  0  0  0  0
  148.9864  135.7149  155.2425 C   0  0  0  0  0  0  0  0  0  0  0  0
  149.5214  136.8361  154.7290 N   0  0  0  0  0  0  0  0  0  0  0  0
  150.0413  137.9657  155.4182 C   0  0  0  0  0  0  0  0  0  0  0  0
  151.1097  138.6670  154.8217 C   0  0  0  0  0  0  0  0  0  0  0  0
  151.6711  139.7828  155.4757 C   0  0  0  0  0  0  0  0  0  0  0  0
  151.1669  140.1901  156.7368 C   0  0  0  0  0  0  0  0  0  0  0  0
  151.6617  141.2954  157.4655 N   0  0  0  0  0  0  0  0  0  0  0  0
  150.8993  142.5431  157.3508 C   0  0  0  0  0  0  0  0  0  0  0  0
  151.7293  143.7543  157.8092 C   0  0  0  0  0  0  0  0  0  0  0  0
  152.3004  143.5335  159.2165 C   0  0  0  0  0  0  0  0  0  0  0  0
  153.1120  142.2314  159.2496 C   0  0  0  0  0  0  0  0  0  0  0  0
  152.2679  141.0369  158.7733 C   0  0  0  0  0  0  0  0  0  0  0  0
  150.1463  139.4775  157.2726 N   0  3  0  0  0  0  0  0  0  0  0  0
  149.5776  138.4055  156.6807 C   0  0  0  0  0  0  0  0  0  0  0  0
  148.6494  134.8486  154.2757 N   0  0  0  0  0  0  0  0  0  0  0  0
  148.0614  133.5277  154.4961 C   0  0  2  0  0  0  0  0  0  0  0  0
  149.0665  132.3780  154.2926 C   0  0  0  0  0  0  0  0  0  0  0  0
  148.2625  131.2838  153.5826 C   0  0  0  0  0  0  0  0  0  0  0  0
  147.3291  132.0523  152.7512 N   0  3  1  0  0  0  0  0  0  0  0  0
  146.2164  131.3401  152.0912 C   0  0  0  0  0  0  0  0  0  0  0  0
  145.5081  132.3241  151.1351 C   0  0  0  0  0  0  0  0  0  0  0  0
  145.1010  133.6381  151.8410 C   0  0  0  0  0  0  0  0  0  0  0  0
  146.2784  134.2617  152.6220 C   0  0  0  0  0  0  0  0  0  0  0  0
  146.8742  133.1967  153.5600 C   0  0  2  0  0  0  0  0  0  0  0  0
  149.5351  136.9007  153.7216 H   0  0  0  0  0  0  0  0  0  0  0  0
  151.5007  138.3556  153.8638 H   0  0  0  0  0  0  0  0  0  0  0  0
  152.4909  140.2982  154.9986 H   0  0  0  0  0  0  0  0  0  0  0  0
  150.5670  142.7215  156.3283 H   0  0  0  0  0  0  0  0  0  0  0  0
  150.0001  142.4565  157.9621 H   0  0  0  0  0  0  0  0  0  0  0  0
  152.5463  143.9241  157.1065 H   0  0  0  0  0  0  0  0  0  0  0  0
  151.1146  144.6546  157.7917 H   0  0  0  0  0  0  0  0  0  0  0  0
  152.9278  144.3768  159.5062 H   0  0  0  0  0  0  0  0  0  0  0  0
  151.4878  143.4825  159.9424 H   0  0  0  0  0  0  0  0  0  0  0  0
  153.9902  142.3348  158.6106 H   0  0  0  0  0  0  0  0  0  0  0  0
  153.4836  142.0466  160.2577 H   0  0  0  0  0  0  0  0  0  0  0  0
  151.4793  140.8235  159.4961 H   0  0  0  0  0  0  0  0  0  0  0  0
  152.9138  140.1599  158.7247 H   0  0  0  0  0  0  0  0  0  0  0  0
  148.7869  137.9430  157.2518 H   0  0  0  0  0  0  0  0  0  0  0  0
  148.8324  135.1113  153.3181 H   0  0  0  0  0  0  0  0  0  0  0  0
  147.7048  133.4716  155.5268 H   0  0  0  0  0  0  0  0  0  0  0  0
  149.8841  132.6996  153.6452 H   0  0  0  0  0  0  0  0  0  0  0  0
  149.5054  132.0320  155.2290 H   0  0  0  0  0  0  0  0  0  0  0  0
  148.8889  130.6189  152.9871 H   0  0  0  0  0  0  0  0  0  0  0  0
  147.7064  130.6842  154.3052 H   0  0  0  0  0  0  0  0  0  0  0  0
  146.6036  130.4867  151.5334 H   0  0  0  0  0  0  0  0  0  0  0  0
  145.5216  130.9523  152.8377 H   0  0  0  0  0  0  0  0  0  0  0  0
  146.1776  132.5601  150.3067 H   0  0  0  0  0  0  0  0  0  0  0  0
  144.6311  131.8500  150.6932 H   0  0  0  0  0  0  0  0  0  0  0  0
  144.7153  134.3512  151.1118 H   0  0  0  0  0  0  0  0  0  0  0  0
  144.2816  133.4334  152.5313 H   0  0  0  0  0  0  0  0  0  0  0  0
  147.0373  134.6267  151.9284 H   0  0  0  0  0  0  0  0  0  0  0  0
  145.9256  135.1218  153.1918 H   0  0  0  0  0  0  0  0  0  0  0  0
  146.0702  132.8400  154.2074 H   0  0  0  0  0  0  0  0  0  0  0  0
  147.8940  132.4444  152.0114 H   0  0  0  0  0  0  0  0  0  0  0  0
  149.7838  139.7681  158.1809 H   0  0  0  0  0  0  0  0  0  0  0  0
  1  2  2  0  0  0  0
  2  3  1  0  0  0  0
  2 16  1  0  0  0  0
  3  4  1  0  0  0  0
  3 26  1  0  0  0  0
  4 15  1  0  0  0  0
  4  5  2  0  0  0  0
  5  6  1  0  0  0  0
  5 27  1  0  0  0  0
  6  7  2  0  0  0  0
  6 28  1  0  0  0  0
  7  8  1  0  0  0  0
  7 14  1  0  0  0  0
  8 13  1  0  0  0  0
  8  9  1  0  0  0  0
  9 10  1  0  0  0  0
  9 29  1  0  0  0  0
  9 30  1  0  0  0  0
 10 11  1  0  0  0  0
 10 31  1  0  0  0  0
 10 32  1  0  0  0  0
 11 12  1  0  0  0  0
 11 33  1  0  0  0  0
 11 34  1  0  0  0  0
 12 13  1  0  0  0  0
 12 35  1  0  0  0  0
 12 36  1  0  0  0  0
 13 37  1  0  0  0  0
 13 38  1  0  0  0  0
 14 15  2  0  0  0  0
 14 56  1  0  0  0  0
 15 39  1  0  0  0  0
 16 17  1  0  0  0  0
 16 40  1  0  0  0  0
 17 25  1  0  0  0  0
 17 18  1  0  0  0  0
 17 41  1  0  0  0  0
 18 19  1  0  0  0  0
 18 42  1  0  0  0  0
 18 43  1  0  0  0  0
 19 20  1  0  0  0  0
 19 44  1  0  0  0  0
 19 45  1  0  0  0  0
 20 25  1  0  0  0  0
 20 21  1  0  0  0  0
 20 55  1  0  0  0  0
 21 22  1  0  0  0  0
 21 46  1  0  0  0  0
 21 47  1  0  0  0  0
 22 23  1  0  0  0  0
 22 48  1  0  0  0  0
 22 49  1  0  0  0  0
 23 24  1  0  0  0  0
 23 50  1  0  0  0  0
 23 51  1  0  0  0  0
 24 25  1  0  0  0  0
 24 52  1  0  0  0  0
 24 53  1  0  0  0  0
 25 54  1  0  0  0  0
M  CHG  1  14   1
M  CHG  1  20   1
M  END
> <s_m_source_file>
AV-unprocessed.smi

> <i_m_source_file_index>
1645

> <i_lp_mmshare_version>
43012

> <i_f3d_flags>
0

> <s_epik_input>
W0NIMl0xW0NIMl1bQ0gyXVtDSDJdW0NASF0oTjEyKVtDQEBIXShbQ0gyXVtDSDJdMilbTkhdQyg9TylbTkhdYzNbY0hdW2NIXWMobltjSF0zKU40W0NIMl1bQ0gyXVtDSDJdW0NIMl1bQ0gyXTQ=

> <s_epik_cmdline>
J2VwaWtfcHl0aG9uJywgJy1waCcsICc3LjAnLCAnLXRuJywgJzgnLCAnLW1hJywgJzIwMCcsICctbWV0YWxfYmluZGluZycsICctaW1hZScsICc8aW5maWxlLm1hZT4nLCAnLW9tYWUnLCAnPG91dGZpbGUubWFlPic=

> <r_lp_tautomer_probability>
0.999994

> <r_epik_Ionization_Penalty>
1.26838

> <r_epik_Ionization_Penalty_Charging>
1.26836

> <r_epik_Ionization_Penalty_Neutral>
1.95562e-05

> <r_epik_State_Penalty>
1.33841

> <r_epik_Charging_Adjusted_Penalty>
2.60677

> <i_epik_Tot_Q>
2

> <i_epik_Tot_abs_Q>
2

> <r_epik_Metal_State_Penalty>
1.40601

> <b_epik_Metal_Only>
0

> <s_lp_Force_Field>
OPLS_2005

> <r_lp_Energy>
64.8366

> <b_lp_Chiralities_Consistent>
1

> <s_lp_Variant>
AV-unprocessed.smi:1645-15

> <Gold.Version>
5.8.1

> <Gold.Id.Protein>
6NUR|6NUR_protein|mol2

> <Gold.PLP.Fitness>
48.1029

> <Gold.PLP.PLP>
-42.8683

> <Gold.PLP.part.hbond>
-3.0000

> <Gold.PLP.part.metal>
0.0000

> <Gold.PLP.part.buried>
-2.7420

> <Gold.PLP.part.nonpolar>
-37.5262

> <Gold.PLP.part.repulsive>
0.0771

> <Gold.PLP.ligand.clash>
0.0000

> <Gold.PLP.ligand.torsion>
0.7066

> <Gold.PLP.Chemscore.Hbond>
2.0411

> <Gold.PLP.Chemscore.CHOScore>
0.0000

> <Gold.PLP.Chemscore.Metal>
0.0000

> <Gold.Chemscore.Hbonds>
donor molecule, donor type, donor heavy atom, donor atom, acceptor molecule, acceptor atom, score
      L1  H     3    26       P1  7948  0.99
      L1  H    16    40       P1  7948  1.00

> <Gold.PLP.Chemscore.Internal.Correction>
0.5245

> <Gold.Rescore>
     Score         DG    S(hbond)    S(metal)    S(lipo)     H(rot)  DE(clash)    DE(int)     intcor
     20.15     -21.98       1.80        0.00     115.52       1.18       0.00       1.82       ----

> <Gold.Chemscore.Fitness>
20.1545

> <Gold.Chemscore.DG>
-21.9784

> <Gold.Chemscore.ZeroCoef>
-5.4800

> <Gold.Chemscore.Hbond>
1.7998

> <Gold.Chemscore.Metal>
0.0000

> <Gold.Chemscore.Lipo>
115.5235

> <Gold.Chemscore.Internal_Hbond>
0.0000

> <Gold.Chemscore.DEClash>
0.0015

> <Gold.Chemscore.DEInternal>
1.8224

> <Gold.Chemscore.Rot>
1.1833

> <Gold.Chemscore.Internal.Correction>
   9.000000E+99

> <Gold.Chemscore.Hbonds>
donor molecule, donor type, donor heavy atom, donor atom, acceptor molecule, acceptor atom, score
      L1  H     3    26       P1  7948  0.76
      L1  H    16    40       P1  7948  0.55

> <Gold.Chemscore.Hbond.Weighted>
-6.0115

> <Gold.Chemscore.Metal.Weighted>
-0.0000

> <Gold.Chemscore.Lipo.Weighted>
-13.5162

> <Gold.Chemscore.Internal_Hbond.Weighted>
0.0000

> <Gold.Chemscore.DEClash.Weighted>
0.0015

> <Gold.Chemscore.DEInternal.Weighted>
1.8224

> <Gold.Chemscore.Rot.Weighted>
3.0293

> <Gold.Chemscore.Internal.Correction.Weighted>
   9.000000E+99

> <Gold.Protein.RotatedTorsions>
[ 6907 6896 6895 6894 ] final  -76.44 input  -60.11 | X-H torsion
[ 7974 7965 7964 7962 ] final    9.61 input  175.53 | X-H torsion
[ 8008 7997 7996 7995 ] final  -39.89 input   59.86 | X-H torsion
[ 10167 10162 10161 10158 ] final  174.32 input  -65.29 | X-H torsion
[ 10718 10713 10712 10709 ] final   28.61 input   66.30 | X-H torsion
[ 10763 10752 10751 10750 ] final   46.54 input  -60.55 | X-H torsion
[ 11005 11000 10999 10996 ] final  177.44 input  -57.11 | X-H torsion

> <Gold.Protein.ActiveResidues>
 VAL166  LYS551  ARG553  GLY616  TRP617  ASP618  TYR619  PRO620  LYS621  CYS622 
 ASP623  PHE694  ASN695  SER759  ASP760  ASP761  ALA762  ILE779  LEU786  VAL792 
 PHE793  MET794  SER795  GLU796  ALA797  LYS798  CYS799  TRP800  GLU811  SER814 

> <Gold.Protein.RotatedAtoms>
  150.7027  134.4571  159.5363 H   0  0  0  0  0  0  0  0  0  0  0  0  # atno 6907 bound_to 6896
  152.2253  134.8371  160.0490 H   0  0  0  0  0  0  0  0  0  0  0  0  # atno 6908 bound_to 6896
  151.9207  133.3550  159.3933 H   0  0  0  0  0  0  0  0  0  0  0  0  # atno 6909 bound_to 6896
  146.2401  139.9758  142.8442 H   0  0  0  0  0  0  0  0  0  0  0  0  # atno 7974 bound_to 7965
  154.4018  140.1539  156.2938 H   0  0  0  0  0  0  0  0  0  0  0  0  # atno 8008 bound_to 7997
  155.8762  140.3446  155.5833 H   0  0  0  0  0  0  0  0  0  0  0  0  # atno 8009 bound_to 7997
  155.7719  140.0831  157.2094 H   0  0  0  0  0  0  0  0  0  0  0  0  # atno 8010 bound_to 7997
  139.5138  144.3160  152.0247 H   0  0  0  0  0  0  0  0  0  0  0  0  # atno 10167 bound_to 10162
  157.2357  130.7045  149.6334 H   0  0  0  0  0  0  0  0  0  0  0  0  # atno 10718 bound_to 10713
  152.9809  135.6005  154.3616 H   0  0  0  0  0  0  0  0  0  0  0  0  # atno 10763 bound_to 10752
  154.3297  135.2768  155.2480 H   0  0  0  0  0  0  0  0  0  0  0  0  # atno 10764 bound_to 10752
  154.4609  135.5966  153.6311 H   0  0  0  0  0  0  0  0  0  0  0  0  # atno 10765 bound_to 10752
  140.3841  134.6920  157.4468 H   0  0  0  0  0  0  0  0  0  0  0  0  # atno 11005 bound_to 11000
  145.1638  140.9686  143.4361 LP  0  0  0  0  0  0  0  0  0  0  0  0  # atno 17320 bound_to 7965
  145.0091  139.3526  143.6129 LP  0  0  0  0  0  0  0  0  0  0  0  0  # atno 17321 bound_to 7965
  140.2603  144.4074  150.6188 LP  0  0  0  0  0  0  0  0  0  0  0  0  # atno 17342 bound_to 10162
  140.6162  143.2172  151.6788 LP  0  0  0  0  0  0  0  0  0  0  0  0  # atno 17343 bound_to 10162
  155.9673  130.4474  150.5579 LP  0  0  0  0  0  0  0  0  0  0  0  0  # atno 17370 bound_to 10713
  157.3431  131.0720  151.1772 LP  0  0  0  0  0  0  0  0  0  0  0  0  # atno 17371 bound_to 10713
  140.0456  134.6204  155.8925 LP  0  0  0  0  0  0  0  0  0  0  0  0  # atno 17394 bound_to 11000
  141.1913  133.6571  156.5452 LP  0  0  0  0  0  0  0  0  0  0  0  0  # atno 17395 bound_to 11000

$$$$
