AV-unprocessed.smi:770|AV-procd|sdf|3679|dock5
  -GOLD-   22720 1 93D 1   1.00000     0.00000
 Structure written by MMmdl.
 37 38  0  0  0  0  0  0  0  0  1 V2000
  145.6486  149.4438  159.4328 C   0  0  0  0  0  0  0  0  0  0  0  0
  145.7160  148.2789  159.7927 C   0  0  0  0  0  0  0  0  0  0  0  0
  145.8222  146.8709  160.2139 C   0  0  0  0  0  0  0  0  0  0  0  0
  147.0176  146.2193  159.6907 N   0  0  0  0  0  0  0  0  0  0  0  0
  148.0425  145.7802  160.4351 C   0  0  0  0  0  0  0  0  0  0  0  0
  148.0658  145.8182  161.6655 O   0  0  0  0  0  0  0  0  0  0  0  0
  149.0553  145.3378  159.6753 N   0  0  0  0  0  0  0  0  0  0  0  0
  150.3652  144.9225  160.1732 C   0  0  0  0  0  0  0  0  0  0  0  0
  151.4074  144.7953  159.0430 C   0  0  0  0  0  0  0  0  0  0  0  0
  151.8804  143.3879  158.8202 C   0  0  0  0  0  0  0  0  0  0  0  0
  152.7576  142.6791  159.6043 C   0  0  0  0  0  0  0  0  0  0  0  0
  152.9699  141.0477  159.0322 S   0  0  0  0  0  0  0  0  0  0  0  0
  151.8567  141.4022  157.7147 C   0  0  0  0  0  0  0  0  0  0  0  0
  151.5139  140.4498  156.7600 N   0  0  0  0  0  0  0  0  0  0  0  0
  150.4550  140.5708  155.7629 C   0  0  0  0  0  0  0  0  0  0  0  0
  150.6299  139.4340  154.7593 C   0  0  0  0  0  0  0  0  0  0  0  0
  151.2422  138.3430  155.6158 C   0  0  0  0  0  0  0  0  0  0  0  0
  152.1283  139.1394  156.5709 C   0  0  0  0  0  0  0  0  0  0  0  0
  151.3893  142.6529  157.7371 N   0  0  0  0  0  0  0  0  0  0  0  0
  145.5966  150.4608  159.1149 H   0  0  0  0  0  0  0  0  0  0  0  0
  145.7949  146.8285  161.3038 H   0  0  0  0  0  0  0  0  0  0  0  0
  144.9415  146.3428  159.8485 H   0  0  0  0  0  0  0  0  0  0  0  0
  147.0921  146.1449  158.6867 H   0  0  0  0  0  0  0  0  0  0  0  0
  148.9334  145.3449  158.6732 H   0  0  0  0  0  0  0  0  0  0  0  0
  150.7230  145.6172  160.9350 H   0  0  0  0  0  0  0  0  0  0  0  0
  150.2488  143.9603  160.6722 H   0  0  0  0  0  0  0  0  0  0  0  0
  150.9812  145.1918  158.1209 H   0  0  0  0  0  0  0  0  0  0  0  0
  152.2589  145.4372  159.2714 H   0  0  0  0  0  0  0  0  0  0  0  0
  153.2694  143.0091  160.4958 H   0  0  0  0  0  0  0  0  0  0  0  0
  149.4932  140.4878  156.2700 H   0  0  0  0  0  0  0  0  0  0  0  0
  150.4881  141.5427  155.2699 H   0  0  0  0  0  0  0  0  0  0  0  0
  149.6941  139.1356  154.2862 H   0  0  0  0  0  0  0  0  0  0  0  0
  151.3300  139.7299  153.9769 H   0  0  0  0  0  0  0  0  0  0  0  0
  150.4599  137.8267  156.1743 H   0  0  0  0  0  0  0  0  0  0  0  0
  151.7953  137.6020  155.0381 H   0  0  0  0  0  0  0  0  0  0  0  0
  153.1205  139.2820  156.1413 H   0  0  0  0  0  0  0  0  0  0  0  0
  152.2480  138.6192  157.5218 H   0  0  0  0  0  0  0  0  0  0  0  0
  1  2  3  0  0  0  0
  1 20  1  0  0  0  0
  2  3  1  0  0  0  0
  3  4  1  0  0  0  0
  3 21  1  0  0  0  0
  3 22  1  0  0  0  0
  4  5  1  0  0  0  0
  4 23  1  0  0  0  0
  5  6  2  0  0  0  0
  5  7  1  0  0  0  0
  7  8  1  0  0  0  0
  7 24  1  0  0  0  0
  8  9  1  0  0  0  0
  8 25  1  0  0  0  0
  8 26  1  0  0  0  0
  9 10  1  0  0  0  0
  9 27  1  0  0  0  0
  9 28  1  0  0  0  0
 10 19  1  0  0  0  0
 10 11  2  0  0  0  0
 11 12  1  0  0  0  0
 11 29  1  0  0  0  0
 12 13  1  0  0  0  0
 13 14  1  0  0  0  0
 13 19  2  0  0  0  0
 14 18  1  0  0  0  0
 14 15  1  0  0  0  0
 15 16  1  0  0  0  0
 15 30  1  0  0  0  0
 15 31  1  0  0  0  0
 16 17  1  0  0  0  0
 16 32  1  0  0  0  0
 16 33  1  0  0  0  0
 17 18  1  0  0  0  0
 17 34  1  0  0  0  0
 17 35  1  0  0  0  0
 18 36  1  0  0  0  0
 18 37  1  0  0  0  0
M  END
> <s_m_source_file>
AV-unprocessed.smi

> <i_m_source_file_index>
770

> <i_lp_mmshare_version>
43012

> <i_f3d_flags>
0

> <s_epik_input>
W0NIXSNDW0NIMl1bTkhdQyg9TylbTkhdW0NIMl1bQ0gyXWMxW2NIXXNjKG4xKU4yW0NIMl1bQ0gyXVtDSDJdW0NIMl0y

> <s_epik_cmdline>
J2VwaWtfcHl0aG9uJywgJy1waCcsICc3LjAnLCAnLXRuJywgJzgnLCAnLW1hJywgJzIwMCcsICctbWV0YWxfYmluZGluZycsICctaW1hZScsICc8aW5maWxlLm1hZT4nLCAnLW9tYWUnLCAnPG91dGZpbGUubWFlPic=

> <r_epik_Ionization_Penalty>
0.174338

> <r_epik_Ionization_Penalty_Charging>
0

> <r_epik_Ionization_Penalty_Neutral>
0.174338

> <r_epik_State_Penalty>
0.163676

> <r_epik_Charging_Adjusted_Penalty>
0.163676

> <i_epik_Tot_Q>
0

> <i_epik_Tot_abs_Q>
0

> <r_epik_Metal_State_Penalty>
0.126089

> <b_epik_Metal_Only>
0

> <s_lp_Force_Field>
OPLS_2005

> <r_lp_Energy>
12.0865

> <b_lp_Chiralities_Consistent>
1

> <s_lp_Variant>
AV-unprocessed.smi:770-1

> <Gold.Version>
5.8.1

> <Gold.Id.Protein>
6NUR|6NUR_protein|mol2

> <Gold.PLP.Fitness>
45.3206

> <Gold.PLP.PLP>
-41.0259

> <Gold.PLP.part.hbond>
-3.2692

> <Gold.PLP.part.metal>
0.0000

> <Gold.PLP.part.buried>
-3.5273

> <Gold.PLP.part.nonpolar>
-34.2754

> <Gold.PLP.part.repulsive>
0.7825

> <Gold.PLP.ligand.clash>
0.0000

> <Gold.PLP.ligand.torsion>
0.7274

> <Gold.PLP.Chemscore.Hbond>
1.9120

> <Gold.PLP.Chemscore.CHOScore>
0.0000

> <Gold.PLP.Chemscore.Metal>
0.0000

> <Gold.Chemscore.Hbonds>
donor molecule, donor type, donor heavy atom, donor atom, acceptor molecule, acceptor atom, score
      L1  H     4    23       P1  8029  1.00
      L1  H     7    24       P1  8029  0.91

> <Gold.PLP.Chemscore.Internal.Correction>
0.0135

> <Gold.Rescore>
     Score         DG    S(hbond)    S(metal)    S(lipo)     H(rot)  DE(clash)    DE(int)     intcor
     18.26     -19.26       1.90        0.00     101.35       1.73       0.27       0.73       ----

> <Gold.Chemscore.Fitness>
18.2639

> <Gold.Chemscore.DG>
-19.2643

> <Gold.Chemscore.ZeroCoef>
-5.4800

> <Gold.Chemscore.Hbond>
1.9003

> <Gold.Chemscore.Metal>
0.0000

> <Gold.Chemscore.Lipo>
101.3492

> <Gold.Chemscore.Internal_Hbond>
0.0000

> <Gold.Chemscore.DEClash>
0.2699

> <Gold.Chemscore.DEInternal>
0.7305

> <Gold.Chemscore.Rot>
1.7267

> <Gold.Chemscore.Internal.Correction>
   9.000000E+99

> <Gold.Chemscore.Hbonds>
donor molecule, donor type, donor heavy atom, donor atom, acceptor molecule, acceptor atom, score
      L1  H     4    23       P1  8029  0.97
      L1  H     7    24       P1  8029  0.89

> <Gold.Chemscore.Hbond.Weighted>
-6.3468

> <Gold.Chemscore.Metal.Weighted>
-0.0000

> <Gold.Chemscore.Lipo.Weighted>
-11.8579

> <Gold.Chemscore.Internal_Hbond.Weighted>
0.0000

> <Gold.Chemscore.DEClash.Weighted>
0.2699

> <Gold.Chemscore.DEInternal.Weighted>
0.7305

> <Gold.Chemscore.Rot.Weighted>
4.4204

> <Gold.Chemscore.Internal.Correction.Weighted>
   9.000000E+99

> <Gold.Protein.RotatedTorsions>
[ 6907 6896 6895 6894 ] final  -47.08 input  -60.11 | X-H torsion
[ 7974 7965 7964 7962 ] final  -14.97 input  175.53 | X-H torsion
[ 8008 7997 7996 7995 ] final -101.78 input   59.86 | X-H torsion
[ 10167 10162 10161 10158 ] final -171.05 input  -65.29 | X-H torsion
[ 10718 10713 10712 10709 ] final    6.09 input   66.30 | X-H torsion
[ 10763 10752 10751 10750 ] final -151.06 input  -60.55 | X-H torsion
[ 11005 11000 10999 10996 ] final  -88.20 input  -57.11 | X-H torsion

> <Gold.Protein.ActiveResidues>
 VAL166  LYS551  ARG553  GLY616  TRP617  ASP618  TYR619  PRO620  LYS621  CYS622 
 ASP623  PHE694  ASN695  SER759  ASP760  ASP761  ALA762  ILE779  LEU786  VAL792 
 PHE793  MET794  SER795  GLU796  ALA797  LYS798  CYS799  TRP800  GLU811  SER814 

> <Gold.Protein.RotatedAtoms>
  150.9046  134.8460  159.7383 H   0  0  0  0  0  0  0  0  0  0  0  0  # atno 6907 bound_to 6896
  152.4911  134.4451  159.9566 H   0  0  0  0  0  0  0  0  0  0  0  0  # atno 6908 bound_to 6896
  151.4500  133.3581  159.2829 H   0  0  0  0  0  0  0  0  0  0  0  0  # atno 6909 bound_to 6896
  146.2052  140.3426  142.8409 H   0  0  0  0  0  0  0  0  0  0  0  0  # atno 7974 bound_to 7965
  154.8474  140.0432  157.1581 H   0  0  0  0  0  0  0  0  0  0  0  0  # atno 8008 bound_to 7997
  154.8980  140.2996  155.5313 H   0  0  0  0  0  0  0  0  0  0  0  0  # atno 8009 bound_to 7997
  156.2995  140.2381  156.4005 H   0  0  0  0  0  0  0  0  0  0  0  0  # atno 8010 bound_to 7997
  139.5825  144.1392  152.1533 H   0  0  0  0  0  0  0  0  0  0  0  0  # atno 10167 bound_to 10162
  156.9170  130.5777  149.5647 H   0  0  0  0  0  0  0  0  0  0  0  0  # atno 10718 bound_to 10713
  154.8081  135.3269  154.7378 H   0  0  0  0  0  0  0  0  0  0  0  0  # atno 10763 bound_to 10752
  153.8032  135.6902  153.4857 H   0  0  0  0  0  0  0  0  0  0  0  0  # atno 10764 bound_to 10752
  153.1840  135.4576  155.0010 H   0  0  0  0  0  0  0  0  0  0  0  0  # atno 10765 bound_to 10752
  141.1605  133.7556  156.9417 H   0  0  0  0  0  0  0  0  0  0  0  0  # atno 11005 bound_to 11000
  144.8775  140.7356  143.6008 LP  0  0  0  0  0  0  0  0  0  0  0  0  # atno 17320 bound_to 7965
  145.3346  139.1750  143.4518 LP  0  0  0  0  0  0  0  0  0  0  0  0  # atno 17321 bound_to 7965
  140.0948  144.5590  150.7029 LP  0  0  0  0  0  0  0  0  0  0  0  0  # atno 17342 bound_to 10162
  140.7101  143.2498  151.4606 LP  0  0  0  0  0  0  0  0  0  0  0  0  # atno 17343 bound_to 10162
  156.0509  130.5578  150.8986 LP  0  0  0  0  0  0  0  0  0  0  0  0  # atno 17370 bound_to 10713
  157.5932  131.0944  150.9085 LP  0  0  0  0  0  0  0  0  0  0  0  0  # atno 17371 bound_to 10713
  140.1317  134.9351  157.2346 LP  0  0  0  0  0  0  0  0  0  0  0  0  # atno 17394 bound_to 11000
  140.2945  134.3202  155.7306 LP  0  0  0  0  0  0  0  0  0  0  0  0  # atno 17395 bound_to 11000

$$$$
