#       Name:                AV-unprocessed.smi:2029
#       Creating user name   scv26
#       Creation time:       Fri Mar 27 10:49:23 2020


#       File generated by GOLD software.
#

@<TRIPOS>MOLECULE
AV-unprocessed.smi:2029
    31    32     1
SMALL
NO_CHARGES


@<TRIPOS>ATOM
      1 ****        -0.1393   2.2843   1.3041 O.2            1 S1                 0.0000
      2 ****        -0.4897   1.1128   1.4540 C.2            1 S1                 0.0000
      3 ****         0.3767   0.0890   1.4800 N.am           1 S1                 0.0000
      4 ****         1.8225   0.2069   1.3142 C.3            1 S1                 0.0000
      5 ****         2.2397   0.4550  -0.1492 C.3            1 S1                 0.0000
      6 ****         1.6580  -0.5536  -1.1253 C.ar           1 S1                 0.0000
      7 ****         0.5542  -0.2173  -1.9385 C.ar           1 S1                 0.0000
      8 ****         0.0468  -1.1922  -2.8186 C.ar           1 S1                 0.0000
      9 ****         0.6596  -2.4596  -2.8521 C.ar           1 S1                 0.0000
     10 ****         1.7573  -2.6960  -2.0007 C.ar           1 S1                 0.0000
     11 ****         2.2514  -1.7684  -1.1525 N.ar           1 S1                 0.0000
     12 ****        -1.9170   0.7020   1.6115 C.3            1 S1                 0.0000
     13 ****        -2.9587   1.4757   0.8293 C.3            1 S1                 0.0000
     14 ****        -2.8513   1.6598   2.3224 C.3            1 S1                 0.0000
     15 ****         0.0071  -0.8424   1.6061 H              1 S1                 0.0000
     16 ****         2.2125   0.9958   1.9590 H              1 S1                 0.0000
     17 ****         2.2679  -0.7244   1.6649 H              1 S1                 0.0000
     18 ****         1.9368   1.4577  -0.4537 H              1 S1                 0.0000
     19 ****         3.3274   0.4367  -0.2274 H              1 S1                 0.0000
     20 ****         0.1024   0.7625  -1.8851 H              1 S1                 0.0000
     21 ****        -0.7978  -0.9726  -3.4549 H              1 S1                 0.0000
     22 ****         0.2974  -3.2321  -3.5141 H              1 S1                 0.0000
     23 ****         2.2513  -3.6563  -1.9999 H              1 S1                 0.0000
     24 ****        -2.1045  -0.3613   1.7540 H              1 S1                 0.0000
     25 ****        -2.6300   2.2999   0.1983 H              1 S1                 0.0000
     26 ****        -3.8055   0.9117   0.4432 H              1 S1                 0.0000
     27 ****        -3.6245   1.2200   2.9489 H              1 S1                 0.0000
     28 ****        -2.4520   2.6065   2.6825 H              1 S1                 0.0000
     29 ****         0.8297   2.5063   1.1949 LP             1 S1                 0.0000
     30 ****        -0.8237   3.0132   1.2916 LP             1 S1                 0.0000
     31 ****         3.0323  -1.9737  -0.5626 LP             1 S1                 0.0000
@<TRIPOS>BOND
    1    1    2 2     
    2    2    3 am    
    3    2   12 1     
    4    3    4 1     
    5    3   15 1     
    6    4    5 1     
    7    4   16 1     
    8    4   17 1     
    9    5    6 1     
   10    5   18 1     
   11    5   19 1     
   12    6   11 ar    
   13    6    7 ar    
   14    7    8 ar    
   15    7   20 1     
   16    8    9 ar    
   17    8   21 1     
   18    9   10 ar    
   19    9   22 1     
   20   10   11 ar    
   21   10   23 1     
   22   12   14 1     
   23   12   13 1     
   24   12   24 1     
   25   13   14 1     
   26   13   25 1     
   27   13   26 1     
   28   14   27 1     
   29   14   28 1     
   30    1   29 1     
   31    1   30 1     
   32   11   31 1     
@<TRIPOS>SUBSTRUCTURE
      1 S1             1
@<TRIPOS>SET
LONE_PAIRS      STATIC     ATOMS    <user>   **** ""
3 29 30 31
DONOR_HYDROGENS      STATIC     ATOMS    <user>   **** ""
1 15
ATOM$BLUE        STATIC     ATOMS    COLORGROUP SYSTEM
3 29 30 31
ATOM$RED        STATIC     ATOMS    COLORGROUP SYSTEM
1 15
