AV-unprocessed.smi:1361|AV-procd|sdf|5556|dock10
  -GOLD-   22720 5153D 1   1.00000     0.00000
 Structure written by MMmdl.
 46 47  0  0  0  0  0  0  0  0  1 V2000
  146.5295  138.8215  151.5896 C   0  0  0  0  0  0  0  0  0  0  0  0
  146.8879  139.4537  152.9170 C   0  0  0  0  0  0  0  0  0  0  0  0
  146.6010  140.8070  152.9847 N   0  0  0  0  0  0  0  0  0  0  0  0
  146.8827  141.4705  154.1659 C   0  0  0  0  0  0  0  0  0  0  0  0
  146.5256  142.9469  154.1596 C   0  0  0  0  0  0  0  0  0  0  0  0
  147.4314  140.8198  155.2232 C   0  0  0  0  0  0  0  0  0  0  0  0
  147.7478  141.5128  156.5467 C   0  0  0  0  0  0  0  0  0  0  0  0
  149.2116  141.4503  156.9854 C   0  0  0  0  0  0  0  0  0  0  0  0
  149.7552  140.3602  157.1603 O   0  0  0  0  0  0  0  0  0  0  0  0
  149.8350  142.6264  157.1571 N   0  0  0  0  0  0  0  0  0  0  0  0
  151.2228  142.8043  157.5780 C   0  0  0  0  0  0  0  0  0  0  0  0
  151.4771  142.0053  158.8760 C   0  0  0  0  0  0  0  0  0  0  0  0
  152.8215  142.3047  159.5649 C   0  0  0  0  0  0  0  0  0  0  0  0
  152.6985  142.9837  160.9417 C   0  0  0  0  0  0  0  0  0  0  0  0
  151.6838  144.1394  161.0685 C   0  0  0  0  0  0  0  0  0  0  0  0
  151.8093  145.2750  160.0374 C   0  0  0  0  0  0  0  0  0  0  0  0
  150.9280  145.1248  158.7782 C   0  0  0  0  0  0  0  0  0  0  0  0
  151.5570  144.3138  157.6293 C   0  0  0  0  0  0  0  0  0  0  0  0
  147.7323  139.3750  155.0845 C   0  0  0  0  0  0  0  0  0  0  0  0
  148.2486  138.7333  155.9983 O   0  0  0  0  0  0  0  0  0  0  0  0
  147.4147  138.7463  153.8696 N   0  0  0  0  0  0  0  0  0  0  0  0
  146.1913  141.3283  152.2229 H   0  0  0  0  0  0  0  0  0  0  0  0
  146.6346  137.7367  151.6336 H   0  0  0  0  0  0  0  0  0  0  0  0
  147.1848  139.1965  150.8031 H   0  0  0  0  0  0  0  0  0  0  0  0
  145.4978  139.0523  151.3221 H   0  0  0  0  0  0  0  0  0  0  0  0
  145.7986  143.1686  154.9410 H   0  0  0  0  0  0  0  0  0  0  0  0
  146.0929  143.2513  153.2058 H   0  0  0  0  0  0  0  0  0  0  0  0
  147.4143  143.5545  154.3308 H   0  0  0  0  0  0  0  0  0  0  0  0
  147.1353  141.1064  157.3520 H   0  0  0  0  0  0  0  0  0  0  0  0
  147.4391  142.5561  156.4714 H   0  0  0  0  0  0  0  0  0  0  0  0
  149.3045  143.4684  156.9868 H   0  0  0  0  0  0  0  0  0  0  0  0
  151.8674  142.3841  156.8035 H   0  0  0  0  0  0  0  0  0  0  0  0
  150.6483  142.1377  159.5704 H   0  0  0  0  0  0  0  0  0  0  0  0
  151.4507  140.9434  158.6277 H   0  0  0  0  0  0  0  0  0  0  0  0
  153.3598  141.3662  159.7027 H   0  0  0  0  0  0  0  0  0  0  0  0
  153.4707  142.8937  158.9195 H   0  0  0  0  0  0  0  0  0  0  0  0
  152.4317  142.2253  161.6788 H   0  0  0  0  0  0  0  0  0  0  0  0
  153.6855  143.3413  161.2370 H   0  0  0  0  0  0  0  0  0  0  0  0
  150.6618  143.7608  161.0834 H   0  0  0  0  0  0  0  0  0  0  0  0
  151.8265  144.5724  162.0593 H   0  0  0  0  0  0  0  0  0  0  0  0
  151.4849  146.1888  160.5370 H   0  0  0  0  0  0  0  0  0  0  0  0
  152.8528  145.4507  159.7740 H   0  0  0  0  0  0  0  0  0  0  0  0
  149.9363  144.7490  159.0318 H   0  0  0  0  0  0  0  0  0  0  0  0
  150.7596  146.1319  158.3947 H   0  0  0  0  0  0  0  0  0  0  0  0
  152.6356  144.4695  157.6185 H   0  0  0  0  0  0  0  0  0  0  0  0
  151.2202  144.7513  156.6881 H   0  0  0  0  0  0  0  0  0  0  0  0
  1 23  1  0  0  0  0
  1 24  1  0  0  0  0
  1 25  1  0  0  0  0
  1  2  1  0  0  0  0
  2  3  1  0  0  0  0
  2 21  2  0  0  0  0
  3  4  1  0  0  0  0
  3 22  1  0  0  0  0
  4  6  2  0  0  0  0
  4  5  1  0  0  0  0
  5 26  1  0  0  0  0
  5 27  1  0  0  0  0
  5 28  1  0  0  0  0
  6 19  1  0  0  0  0
  6  7  1  0  0  0  0
  7  8  1  0  0  0  0
  7 29  1  0  0  0  0
  7 30  1  0  0  0  0
  8  9  2  0  0  0  0
  8 10  1  0  0  0  0
 10 11  1  0  0  0  0
 10 31  1  0  0  0  0
 11 18  1  0  0  0  0
 11 12  1  0  0  0  0
 11 32  1  0  0  0  0
 12 13  1  0  0  0  0
 12 33  1  0  0  0  0
 12 34  1  0  0  0  0
 13 14  1  0  0  0  0
 13 35  1  0  0  0  0
 13 36  1  0  0  0  0
 14 15  1  0  0  0  0
 14 37  1  0  0  0  0
 14 38  1  0  0  0  0
 15 16  1  0  0  0  0
 15 39  1  0  0  0  0
 15 40  1  0  0  0  0
 16 17  1  0  0  0  0
 16 41  1  0  0  0  0
 16 42  1  0  0  0  0
 17 18  1  0  0  0  0
 17 43  1  0  0  0  0
 17 44  1  0  0  0  0
 18 45  1  0  0  0  0
 18 46  1  0  0  0  0
 19 20  2  0  0  0  0
 19 21  1  0  0  0  0
M  END
> <s_m_source_file>
AV-unprocessed.smi

> <i_m_source_file_index>
1361

> <i_lp_mmshare_version>
43012

> <i_f3d_flags>
0

> <s_epik_input>
W0NIM11jMW5jKFtDSDNdKWMoYyg9TylbbkhdMSlbQ0gyXUMoPU8pW05IXVtDSF0yW0NIMl1bQ0gyXVtDSDJdW0NIMl1bQ0gyXVtDSDJdW0NIMl0y

> <s_epik_cmdline>
J2VwaWtfcHl0aG9uJywgJy1waCcsICc3LjAnLCAnLXRuJywgJzgnLCAnLW1hJywgJzIwMCcsICctbWV0YWxfYmluZGluZycsICctaW1hZScsICc8aW5maWxlLm1hZT4nLCAnLW9tYWUnLCAnPG91dGZpbGUubWFlPic=

> <r_lp_tautomer_probability>
0.156392

> <r_epik_Ionization_Penalty>
0.0140222

> <r_epik_Ionization_Penalty_Charging>
0.0138986

> <r_epik_Ionization_Penalty_Neutral>
0.000123575

> <r_epik_State_Penalty>
1.53084

> <r_epik_Charging_Adjusted_Penalty>
1.54474

> <i_epik_Tot_Q>
0

> <i_epik_Tot_abs_Q>
0

> <r_epik_Metal_State_Penalty>
1.70646

> <b_epik_Metal_Only>
0

> <s_lp_Force_Field>
OPLS_2005

> <r_lp_Energy>
27.031

> <b_lp_Chiralities_Consistent>
1

> <s_lp_Variant>
AV-unprocessed.smi:1361-2

> <Gold.Version>
5.8.1

> <Gold.Id.Protein>
6NUR|6NUR_protein|mol2

> <Gold.PLP.Fitness>
49.0903

> <Gold.PLP.PLP>
-46.1396

> <Gold.PLP.part.hbond>
-2.0000

> <Gold.PLP.part.metal>
0.0000

> <Gold.PLP.part.buried>
-6.2876

> <Gold.PLP.part.nonpolar>
-40.2260

> <Gold.PLP.part.repulsive>
0.2235

> <Gold.PLP.ligand.clash>
0.0000

> <Gold.PLP.ligand.torsion>
0.0311

> <Gold.PLP.Chemscore.Hbond>
0.9920

> <Gold.PLP.Chemscore.CHOScore>
0.0000

> <Gold.PLP.Chemscore.Metal>
0.0000

> <Gold.Chemscore.Hbonds>
donor molecule, donor type, donor heavy atom, donor atom, acceptor molecule, acceptor atom, score
      L1  H    10    31       P1  8028  0.88

> <Gold.PLP.Chemscore.Internal.Correction>
0.0369

> <Gold.Rescore>
     Score         DG    S(hbond)    S(metal)    S(lipo)     H(rot)  DE(clash)    DE(int)     intcor
     14.88     -16.63       0.86        0.00     102.89       1.47       0.07       1.68       ----

> <Gold.Chemscore.Fitness>
14.8751

> <Gold.Chemscore.DG>
-16.6268

> <Gold.Chemscore.ZeroCoef>
-5.4800

> <Gold.Chemscore.Hbond>
0.8592

> <Gold.Chemscore.Metal>
0.0000

> <Gold.Chemscore.Lipo>
102.8862

> <Gold.Chemscore.Internal_Hbond>
0.0000

> <Gold.Chemscore.DEClash>
0.0680

> <Gold.Chemscore.DEInternal>
1.6837

> <Gold.Chemscore.Rot>
1.4690

> <Gold.Chemscore.Internal.Correction>
   9.000000E+99

> <Gold.Chemscore.Hbonds>
donor molecule, donor type, donor heavy atom, donor atom, acceptor molecule, acceptor atom, score
      L1  H    10    31       P1  8028  0.76

> <Gold.Chemscore.Hbond.Weighted>
-2.8698

> <Gold.Chemscore.Metal.Weighted>
-0.0000

> <Gold.Chemscore.Lipo.Weighted>
-12.0377

> <Gold.Chemscore.Internal_Hbond.Weighted>
0.0000

> <Gold.Chemscore.DEClash.Weighted>
0.0680

> <Gold.Chemscore.DEInternal.Weighted>
1.6837

> <Gold.Chemscore.Rot.Weighted>
3.7607

> <Gold.Chemscore.Internal.Correction.Weighted>
   9.000000E+99

> <Gold.Protein.RotatedTorsions>
[ 6907 6896 6895 6894 ] final   91.31 input  -60.11 | X-H torsion
[ 7974 7965 7964 7962 ] final -136.36 input  175.53 | X-H torsion
[ 8008 7997 7996 7995 ] final  -68.04 input   59.86 | X-H torsion
[ 10167 10162 10161 10158 ] final  115.49 input  -65.29 | X-H torsion
[ 10718 10713 10712 10709 ] final   93.86 input   66.30 | X-H torsion
[ 10763 10752 10751 10750 ] final -167.05 input  -60.55 | X-H torsion
[ 11005 11000 10999 10996 ] final -111.26 input  -57.11 | X-H torsion

> <Gold.Protein.ActiveResidues>
 VAL166  LYS551  ARG553  GLY616  TRP617  ASP618  TYR619  PRO620  LYS621  CYS622 
 ASP623  PHE694  ASN695  SER759  ASP760  ASP761  ALA762  ILE779  LEU786  VAL792 
 PHE793  MET794  SER795  GLU796  ALA797  LYS798  CYS799  TRP800  GLU811  SER814 

> <Gold.Protein.RotatedAtoms>
  152.5449  134.1677  159.8583 H   0  0  0  0  0  0  0  0  0  0  0  0  # atno 6907 bound_to 6896
  151.1690  133.4789  159.2601 H   0  0  0  0  0  0  0  0  0  0  0  0  # atno 6908 bound_to 6896
  151.1295  135.0133  159.8631 H   0  0  0  0  0  0  0  0  0  0  0  0  # atno 6909 bound_to 6896
  144.8934  140.6673  143.5131 H   0  0  0  0  0  0  0  0  0  0  0  0  # atno 7974 bound_to 7965
  154.4841  140.0880  156.7445 H   0  0  0  0  0  0  0  0  0  0  0  0  # atno 8008 bound_to 7997
  155.4395  140.3453  155.4270 H   0  0  0  0  0  0  0  0  0  0  0  0  # atno 8009 bound_to 7997
  156.1235  140.1481  156.9158 H   0  0  0  0  0  0  0  0  0  0  0  0  # atno 8010 bound_to 7997
  139.6313  144.7115  151.2426 H   0  0  0  0  0  0  0  0  0  0  0  0  # atno 10167 bound_to 10162
  157.6952  131.0493  150.4098 H   0  0  0  0  0  0  0  0  0  0  0  0  # atno 10718 bound_to 10713
  154.6772  135.2948  154.9663 H   0  0  0  0  0  0  0  0  0  0  0  0  # atno 10763 bound_to 10752
  154.0670  135.6623  153.4823 H   0  0  0  0  0  0  0  0  0  0  0  0  # atno 10764 bound_to 10752
  153.0523  135.5166  154.7796 H   0  0  0  0  0  0  0  0  0  0  0  0  # atno 10765 bound_to 10752
  141.0745  133.9325  157.2418 H   0  0  0  0  0  0  0  0  0  0  0  0  # atno 11005 bound_to 11000
  145.3743  139.1651  143.4315 LP  0  0  0  0  0  0  0  0  0  0  0  0  # atno 17320 bound_to 7965
  146.3067  140.3818  142.8685 LP  0  0  0  0  0  0  0  0  0  0  0  0  # atno 17321 bound_to 7965
  140.7441  143.6475  150.8279 LP  0  0  0  0  0  0  0  0  0  0  0  0  # atno 17342 bound_to 10162
  140.0100  143.5653  152.2842 LP  0  0  0  0  0  0  0  0  0  0  0  0  # atno 17343 bound_to 10162
  156.4483  130.4006  149.6652 LP  0  0  0  0  0  0  0  0  0  0  0  0  # atno 17370 bound_to 10713
  156.3810  130.7579  151.2572 LP  0  0  0  0  0  0  0  0  0  0  0  0  # atno 17371 bound_to 10713
  139.9557  135.0166  156.9121 LP  0  0  0  0  0  0  0  0  0  0  0  0  # atno 17394 bound_to 11000
  140.5604  134.0541  155.7397 LP  0  0  0  0  0  0  0  0  0  0  0  0  # atno 17395 bound_to 11000

$$$$
