AV-unprocessed.smi:2905|AV-procd|sdf|11161|dock8
  -GOLD-   2272016 43D 1   1.00000     0.00000
 Structure written by MMmdl.
 39 40  0  0  0  0  0  0  0  0  1 V2000
  144.4137  131.6000  151.5767 C   0  0  0  0  0  0  0  0  0  0  0  0
  144.9918  132.8821  150.9287 C   0  0  0  0  0  0  0  0  0  0  0  0
  146.5035  132.9089  151.2341 C   0  0  0  0  0  0  0  0  0  0  0  0
  144.7501  132.7750  149.4091 C   0  0  0  0  0  0  0  0  0  0  0  0
  144.3265  134.1584  151.4747 C   0  0  0  0  0  0  0  0  0  0  0  0
  143.2058  134.0312  152.1972 N   0  0  0  0  0  0  0  0  0  0  0  0
  142.6318  135.1581  152.6702 C   0  0  0  0  0  0  0  0  0  0  0  0
  143.1876  136.4354  152.4196 C   0  0  0  0  0  0  0  0  0  0  0  0
  142.6353  137.6696  152.8543 N   0  0  0  0  0  0  0  0  0  0  0  0
  141.4289  137.9039  153.4058 C   0  0  0  0  0  0  0  0  0  0  0  0
  140.6129  137.0332  153.6995 O   0  0  0  0  0  0  0  0  0  0  0  0
  141.1818  139.2023  153.6565 N   0  0  0  0  0  0  0  0  0  0  0  0
  139.9796  139.7953  154.2456 C   0  0  0  0  0  0  0  0  0  0  0  0
  138.6890  139.4510  153.4586 C   0  0  0  0  0  0  0  0  0  0  0  0
  137.9713  140.7696  153.3597 C   0  0  0  0  0  0  0  0  0  0  0  0
  138.7102  141.7842  153.8038 C   0  0  0  0  0  0  0  0  0  0  0  0
  140.0647  141.3402  154.2851 C   0  0  0  0  0  0  0  0  0  0  0  0
  144.3614  136.4512  151.6402 C   0  0  0  0  0  0  0  0  0  0  0  0
  144.9272  135.3174  151.1753 N   0  0  0  0  0  0  0  0  0  0  0  0
  144.8925  130.7043  151.1794 H   0  0  0  0  0  0  0  0  0  0  0  0
  143.3436  131.5010  151.3895 H   0  0  0  0  0  0  0  0  0  0  0  0
  144.5643  131.5913  152.6571 H   0  0  0  0  0  0  0  0  0  0  0  0
  146.6881  132.9817  152.3064 H   0  0  0  0  0  0  0  0  0  0  0  0
  146.9963  133.7574  150.7582 H   0  0  0  0  0  0  0  0  0  0  0  0
  146.9985  132.0062  150.8745 H   0  0  0  0  0  0  0  0  0  0  0  0
  145.1891  131.8647  148.9991 H   0  0  0  0  0  0  0  0  0  0  0  0
  145.1895  133.6147  148.8701 H   0  0  0  0  0  0  0  0  0  0  0  0
  143.6840  132.7595  149.1793 H   0  0  0  0  0  0  0  0  0  0  0  0
  141.7182  135.0154  153.2257 H   0  0  0  0  0  0  0  0  0  0  0  0
  143.2380  138.4733  152.7544 H   0  0  0  0  0  0  0  0  0  0  0  0
  141.9284  139.8488  153.4460 H   0  0  0  0  0  0  0  0  0  0  0  0
  139.8663  139.4492  155.2747 H   0  0  0  0  0  0  0  0  0  0  0  0
  138.8983  139.0811  152.4538 H   0  0  0  0  0  0  0  0  0  0  0  0
  138.0804  138.7128  153.9814 H   0  0  0  0  0  0  0  0  0  0  0  0
  136.9762  140.8562  152.9491 H   0  0  0  0  0  0  0  0  0  0  0  0
  138.4074  142.8209  153.8093 H   0  0  0  0  0  0  0  0  0  0  0  0
  140.2618  141.7097  155.2919 H   0  0  0  0  0  0  0  0  0  0  0  0
  140.8291  141.7347  153.6143 H   0  0  0  0  0  0  0  0  0  0  0  0
  144.8530  137.3791  151.3867 H   0  0  0  0  0  0  0  0  0  0  0  0
  1  2  1  0  0  0  0
  1 20  1  0  0  0  0
  1 21  1  0  0  0  0
  1 22  1  0  0  0  0
  2  3  1  0  0  0  0
  2  4  1  0  0  0  0
  2  5  1  0  0  0  0
  3 23  1  0  0  0  0
  3 24  1  0  0  0  0
  3 25  1  0  0  0  0
  4 26  1  0  0  0  0
  4 27  1  0  0  0  0
  4 28  1  0  0  0  0
  5 19  1  0  0  0  0
  5  6  2  0  0  0  0
  6  7  1  0  0  0  0
  7  8  2  0  0  0  0
  7 29  1  0  0  0  0
  8  9  1  0  0  0  0
  8 18  1  0  0  0  0
  9 10  1  0  0  0  0
  9 30  1  0  0  0  0
 10 11  2  0  0  0  0
 10 12  1  0  0  0  0
 12 13  1  0  0  0  0
 12 31  1  0  0  0  0
 13 17  1  0  0  0  0
 13 14  1  0  0  0  0
 13 32  1  0  0  0  0
 14 15  1  0  0  0  0
 14 33  1  0  0  0  0
 14 34  1  0  0  0  0
 15 16  2  0  0  0  0
 15 35  1  0  0  0  0
 16 17  1  0  0  0  0
 16 36  1  0  0  0  0
 17 37  1  0  0  0  0
 17 38  1  0  0  0  0
 18 19  2  0  0  0  0
 18 39  1  0  0  0  0
M  END
> <s_m_source_file>
AV-unprocessed.smi

> <i_m_source_file_index>
2905

> <i_lp_mmshare_version>
43012

> <i_f3d_flags>
0

> <s_epik_input>
W0NIM11DKFtDSDNdKShbQ0gzXSljMW5bY0hdYyhbY0hdbjEpW05IXUMoPU8pW05IXVtDSF0yW0NIMl1bQ0hdPVtDSF1bQ0gyXTI=

> <s_epik_cmdline>
J2VwaWtfcHl0aG9uJywgJy1waCcsICc3LjAnLCAnLXRuJywgJzgnLCAnLW1hJywgJzIwMCcsICctbWV0YWxfYmluZGluZycsICctaW1hZScsICc8aW5maWxlLm1hZT4nLCAnLW9tYWUnLCAnPG91dGZpbGUubWFlPic=

> <r_lp_tautomer_probability>
1

> <r_epik_Ionization_Penalty>
2.65275e-05

> <r_epik_Ionization_Penalty_Charging>
0

> <r_epik_Ionization_Penalty_Neutral>
2.65275e-05

> <r_epik_State_Penalty>
-0

> <r_epik_Charging_Adjusted_Penalty>
0

> <i_epik_Tot_Q>
0

> <i_epik_Tot_abs_Q>
0

> <r_epik_Metal_State_Penalty>
-0

> <b_epik_Metal_Only>
0

> <s_lp_Force_Field>
OPLS_2005

> <r_lp_Energy>
27.7511

> <b_lp_Chiralities_Consistent>
1

> <s_lp_Variant>
AV-unprocessed.smi:2905-1

> <Gold.Version>
5.8.1

> <Gold.Id.Protein>
6NUR|6NUR_protein|mol2

> <Gold.PLP.Fitness>
37.4708

> <Gold.PLP.PLP>
-30.2531

> <Gold.PLP.part.hbond>
-2.5592

> <Gold.PLP.part.metal>
0.0000

> <Gold.PLP.part.buried>
-4.1456

> <Gold.PLP.part.nonpolar>
-25.4336

> <Gold.PLP.part.repulsive>
0.5539

> <Gold.PLP.ligand.clash>
0.0000

> <Gold.PLP.ligand.torsion>
0.4625

> <Gold.PLP.Chemscore.Hbond>
2.0000

> <Gold.PLP.Chemscore.CHOScore>
0.7124

> <Gold.PLP.Chemscore.Metal>
0.0000

> <Gold.Chemscore.Hbonds>
donor molecule, donor type, donor heavy atom, donor atom, acceptor molecule, acceptor atom, score
      L1  H     9    30       P1 10175  1.00
      L1  H    12    31       P1 10175  1.00
      L1  C    18    39       P1 10171  0.71

> <Gold.PLP.Chemscore.Internal.Correction>
0.0057

> <Gold.Rescore>
     Score         DG    S(hbond)    S(metal)    S(lipo)     H(rot)  DE(clash)    DE(int)     intcor
     14.16     -17.34       1.81        0.00      75.47       1.17       1.46       1.72       ----

> <Gold.Chemscore.Fitness>
14.1573

> <Gold.Chemscore.DG>
-17.3445

> <Gold.Chemscore.ZeroCoef>
-5.4800

> <Gold.Chemscore.Hbond>
1.8053

> <Gold.Chemscore.Metal>
0.0000

> <Gold.Chemscore.Lipo>
75.4662

> <Gold.Chemscore.Internal_Hbond>
0.0000

> <Gold.Chemscore.DEClash>
1.4623

> <Gold.Chemscore.DEInternal>
1.7249

> <Gold.Chemscore.Rot>
1.1699

> <Gold.Chemscore.Internal.Correction>
   9.000000E+99

> <Gold.Chemscore.Hbonds>
donor molecule, donor type, donor heavy atom, donor atom, acceptor molecule, acceptor atom, score
      L1  H     9    30       P1 10175  0.92
      L1  H    12    31       P1 10175  0.65

> <Gold.Chemscore.Hbond.Weighted>
-6.0298

> <Gold.Chemscore.Metal.Weighted>
-0.0000

> <Gold.Chemscore.Lipo.Weighted>
-8.8296

> <Gold.Chemscore.Internal_Hbond.Weighted>
0.0000

> <Gold.Chemscore.DEClash.Weighted>
1.4623

> <Gold.Chemscore.DEInternal.Weighted>
1.7249

> <Gold.Chemscore.Rot.Weighted>
2.9949

> <Gold.Chemscore.Internal.Correction.Weighted>
   9.000000E+99

> <Gold.Protein.RotatedTorsions>
[ 6907 6896 6895 6894 ] final  -60.11 input  -60.11 | X-H torsion
[ 7974 7965 7964 7962 ] final  -41.04 input  175.53 | X-H torsion
[ 8008 7997 7996 7995 ] final   52.83 input   59.86 | X-H torsion
[ 10167 10162 10161 10158 ] final -100.45 input  -65.29 | X-H torsion
[ 10718 10713 10712 10709 ] final   39.58 input   66.30 | X-H torsion
[ 10763 10752 10751 10750 ] final -104.15 input  -60.55 | X-H torsion
[ 11005 11000 10999 10996 ] final   42.74 input  -57.11 | X-H torsion

> <Gold.Protein.ActiveResidues>
 VAL166  LYS551  ARG553  GLY616  TRP617  ASP618  TYR619  PRO620  LYS621  CYS622 
 ASP623  PHE694  ASN695  SER759  ASP760  ASP761  ALA762  ILE779  LEU786  VAL792 
 PHE793  MET794  SER795  GLU796  ALA797  LYS798  CYS799  TRP800  GLU811  SER814 

> <Gold.Protein.RotatedAtoms>
  150.7880  134.6880  159.6480 H   0  0  0  0  0  0  0  0  0  0  0  0  # atno 6907 bound_to 6896
  152.3980  134.6330  160.0090 H   0  0  0  0  0  0  0  0  0  0  0  0  # atno 6908 bound_to 6896
  151.6610  133.3280  159.3210 H   0  0  0  0  0  0  0  0  0  0  0  0  # atno 6909 bound_to 6896
  146.0249  140.6805  142.9160 H   0  0  0  0  0  0  0  0  0  0  0  0  # atno 7974 bound_to 7965
  155.4582  140.3461  155.4309 H   0  0  0  0  0  0  0  0  0  0  0  0  # atno 8008 bound_to 7997
  156.1177  140.1478  156.9278 H   0  0  0  0  0  0  0  0  0  0  0  0  # atno 8009 bound_to 7997
  154.4801  140.0872  156.7335 H   0  0  0  0  0  0  0  0  0  0  0  0  # atno 8010 bound_to 7997
  140.2518  143.3467  152.0708 H   0  0  0  0  0  0  0  0  0  0  0  0  # atno 10167 bound_to 10162
  157.3722  130.7707  149.7127 H   0  0  0  0  0  0  0  0  0  0  0  0  # atno 10718 bound_to 10713
  154.7858  135.4797  153.9942 H   0  0  0  0  0  0  0  0  0  0  0  0  # atno 10763 bound_to 10752
  153.1558  135.6799  153.8822 H   0  0  0  0  0  0  0  0  0  0  0  0  # atno 10764 bound_to 10752
  153.8452  135.3174  155.3407 H   0  0  0  0  0  0  0  0  0  0  0  0  # atno 10765 bound_to 10752
  140.1711  134.4221  155.8257 H   0  0  0  0  0  0  0  0  0  0  0  0  # atno 11005 bound_to 11000
  144.7005  140.3631  143.7160 LP  0  0  0  0  0  0  0  0  0  0  0  0  # atno 17320 bound_to 7965
  145.7135  139.1691  143.2525 LP  0  0  0  0  0  0  0  0  0  0  0  0  # atno 17321 bound_to 7965
  139.5044  144.6774  151.6094 LP  0  0  0  0  0  0  0  0  0  0  0  0  # atno 17342 bound_to 10162
  140.6035  143.9567  150.6402 LP  0  0  0  0  0  0  0  0  0  0  0  0  # atno 17343 bound_to 10162
  155.9758  130.4084  150.3825 LP  0  0  0  0  0  0  0  0  0  0  0  0  # atno 17370 bound_to 10713
  157.1918  131.0417  151.2696 LP  0  0  0  0  0  0  0  0  0  0  0  0  # atno 17371 bound_to 10713
  141.2217  133.6956  156.7765 LP  0  0  0  0  0  0  0  0  0  0  0  0  # atno 17394 bound_to 11000
  140.2376  134.8638  157.3541 LP  0  0  0  0  0  0  0  0  0  0  0  0  # atno 17395 bound_to 11000

$$$$
