AV-unprocessed.smi:1565|AV-procd|sdf|6301|dock4
  -GOLD-   22720 6503D 1   1.00000     0.00000
 Structure written by MMmdl.
 39 40  0  0  0  0  0  0  0  0  2 V2000
  150.7767  141.7702  157.2209 C   0  0  0  0  0  0  0  0  0  0  0  0
  151.8710  142.3768  158.1056 C   0  0  2  0  0  0  0  0  0  0  0  0
  152.2942  141.4215  159.2372 C   0  0  0  0  0  0  0  0  0  0  0  0
  153.2486  142.0755  160.1277 N   0  0  0  0  0  0  0  0  0  0  0  0
  153.9080  141.2203  161.0368 C   0  0  0  0  0  0  0  0  0  0  0  0
  154.1538  139.8713  160.6899 C   0  0  0  0  0  0  0  0  0  0  0  0
  154.8005  139.0300  161.6155 C   0  0  0  0  0  0  0  0  0  0  0  0
  155.1983  139.5558  162.8657 C   0  0  0  0  0  0  0  0  0  0  0  0
  155.8552  138.7055  163.9196 C   0  0  0  0  0  0  0  0  0  0  0  0
  155.9411  139.1656  165.0636 O   0  0  0  0  0  0  0  0  0  0  0  0
  156.3181  137.5237  163.4223 N   0  5  0  0  0  0  0  0  0  0  0  0
  156.0081  136.2114  163.9951 C   0  0  0  0  0  0  0  0  0  0  0  0
  154.5388  135.8180  163.7399 C   0  0  0  0  0  0  0  0  0  0  0  0
  154.2964  135.8757  162.4303 F   0  0  0  0  0  0  0  0  0  0  0  0
  154.3040  134.5728  164.1566 F   0  0  0  0  0  0  0  0  0  0  0  0
  153.7014  136.6523  164.3578 F   0  0  0  0  0  0  0  0  0  0  0  0
  154.9072  140.9132  163.1206 C   0  0  0  0  0  0  0  0  0  0  0  0
  154.2887  141.7249  162.2359 N   0  0  0  0  0  0  0  0  0  0  0  0
  152.7807  143.3682  160.6226 C   0  0  0  0  0  0  0  0  0  0  0  0
  152.3467  144.2680  159.4507 C   0  0  2  0  0  0  0  0  0  0  0  0
  151.7386  145.5888  159.9337 C   0  0  0  0  0  0  0  0  0  0  0  0
  151.3684  143.5833  158.6732 O   0  0  0  0  0  0  0  0  0  0  0  0
  151.1176  140.8462  156.7526 H   0  0  0  0  0  0  0  0  0  0  0  0
  150.4915  142.4600  156.4263 H   0  0  0  0  0  0  0  0  0  0  0  0
  149.8822  141.5415  157.8010 H   0  0  0  0  0  0  0  0  0  0  0  0
  152.7342  142.6084  157.4789 H   0  0  0  0  0  0  0  0  0  0  0  0
  151.4231  141.1202  159.8206 H   0  0  0  0  0  0  0  0  0  0  0  0
  152.7102  140.5150  158.7993 H   0  0  0  0  0  0  0  0  0  0  0  0
  153.8630  139.4755  159.7286 H   0  0  0  0  0  0  0  0  0  0  0  0
  154.9790  137.9957  161.3596 H   0  0  0  0  0  0  0  0  0  0  0  0
  156.6610  135.4283  163.6064 H   0  0  0  0  0  0  0  0  0  0  0  0
  156.1842  136.2158  165.0714 H   0  0  0  0  0  0  0  0  0  0  0  0
  155.1771  141.3703  164.0617 H   0  0  0  0  0  0  0  0  0  0  0  0
  151.9445  143.2107  161.3055 H   0  0  0  0  0  0  0  0  0  0  0  0
  153.5738  143.8625  161.1853 H   0  0  0  0  0  0  0  0  0  0  0  0
  153.2096  144.4937  158.8213 H   0  0  0  0  0  0  0  0  0  0  0  0
  152.4553  146.1570  160.5272 H   0  0  0  0  0  0  0  0  0  0  0  0
  150.8561  145.4152  160.5500 H   0  0  0  0  0  0  0  0  0  0  0  0
  151.4385  146.2110  159.0902 H   0  0  0  0  0  0  0  0  0  0  0  0
  1  2  1  0  0  0  0
  1 23  1  0  0  0  0
  1 24  1  0  0  0  0
  1 25  1  0  0  0  0
  2 22  1  0  0  0  0
  2  3  1  0  0  0  0
  2 26  1  0  0  0  0
  3  4  1  0  0  0  0
  3 27  1  0  0  0  0
  3 28  1  0  0  0  0
  4  5  1  0  0  0  0
  4 19  1  0  0  0  0
  5 18  1  0  0  0  0
  5  6  2  0  0  0  0
  6  7  1  0  0  0  0
  6 29  1  0  0  0  0
  7  8  2  0  0  0  0
  7 30  1  0  0  0  0
  8  9  1  0  0  0  0
  8 17  1  0  0  0  0
  9 10  2  0  0  0  0
  9 11  1  0  0  0  0
 11 12  1  0  0  0  0
 12 13  1  0  0  0  0
 12 31  1  0  0  0  0
 12 32  1  0  0  0  0
 13 14  1  0  0  0  0
 13 15  1  0  0  0  0
 13 16  1  0  0  0  0
 17 18  2  0  0  0  0
 17 33  1  0  0  0  0
 19 20  1  0  0  0  0
 19 34  1  0  0  0  0
 19 35  1  0  0  0  0
 20 21  1  0  0  0  0
 20 22  1  0  0  0  0
 20 36  1  0  0  0  0
 21 37  1  0  0  0  0
 21 38  1  0  0  0  0
 21 39  1  0  0  0  0
M  CHG  1  11  -1
M  END
> <s_m_source_file>
AV-unprocessed.smi

> <i_m_source_file_index>
1565

> <i_lp_mmshare_version>
43012

> <i_f3d_flags>
0

> <s_epik_input>
W0NIM11bQ0BASF0xW0NIMl1OKFtDSDJdW0NASF0oTzEpW0NIM10pYzJbY0hdW2NIXWMoW2NIXW4yKUMoPU8pW05IXVtDSDJdQyhGKShGKUY=

> <s_epik_cmdline>
J2VwaWtfcHl0aG9uJywgJy1waCcsICc3LjAnLCAnLXRuJywgJzgnLCAnLW1hJywgJzIwMCcsICctbWV0YWxfYmluZGluZycsICctaW1hZScsICc8aW5maWxlLm1hZT4nLCAnLW9tYWUnLCAnPG91dGZpbGUubWFlPic=

> <r_lp_tautomer_probability>
1

> <r_epik_Ionization_Penalty>
6.78525

> <r_epik_Ionization_Penalty_Charging>
6.78469

> <r_epik_Ionization_Penalty_Neutral>
0.000559052

> <r_epik_State_Penalty>
6.78469

> <r_epik_Charging_Adjusted_Penalty>
13.5694

> <i_epik_Tot_Q>
-1

> <i_epik_Tot_abs_Q>
1

> <r_epik_Metal_State_Penalty>
2.70441

> <b_epik_Metal_Only>
1

> <s_lp_Force_Field>
OPLS_2005

> <r_lp_Energy>
25.7162

> <b_lp_Chiralities_Consistent>
1

> <s_lp_Variant>
AV-unprocessed.smi:1565-5

> <Gold.Version>
5.8.1

> <Gold.Id.Protein>
6NUR|6NUR_protein|mol2

> <Gold.PLP.Fitness>
42.5666

> <Gold.PLP.PLP>
-44.4956

> <Gold.PLP.part.hbond>
-1.0000

> <Gold.PLP.part.metal>
0.0000

> <Gold.PLP.part.buried>
-4.5379

> <Gold.PLP.part.nonpolar>
-39.0113

> <Gold.PLP.part.repulsive>
0.0982

> <Gold.PLP.ligand.clash>
0.0000

> <Gold.PLP.ligand.torsion>
1.1376

> <Gold.PLP.Chemscore.Hbond>
0.0000

> <Gold.PLP.Chemscore.CHOScore>
0.0000

> <Gold.PLP.Chemscore.Metal>
0.0000

> <Gold.PLP.Chemscore.Internal.Correction>
0.3462

> <Gold.Rescore>
     Score         DG    S(hbond)    S(metal)    S(lipo)     H(rot)  DE(clash)    DE(int)     intcor
     12.19     -13.60       0.00        0.00      97.69       1.29       0.19       1.22       ----

> <Gold.Chemscore.Fitness>
12.1890

> <Gold.Chemscore.DG>
-13.6025

> <Gold.Chemscore.ZeroCoef>
-5.4800

> <Gold.Chemscore.Hbond>
0.0000

> <Gold.Chemscore.Metal>
0.0000

> <Gold.Chemscore.Lipo>
97.6949

> <Gold.Chemscore.Internal_Hbond>
0.0000

> <Gold.Chemscore.DEClash>
0.1911

> <Gold.Chemscore.DEInternal>
1.2224

> <Gold.Chemscore.Rot>
1.2921

> <Gold.Chemscore.Internal.Correction>
   9.000000E+99

> <Gold.Chemscore.Hbond.Weighted>
-0.0000

> <Gold.Chemscore.Metal.Weighted>
-0.0000

> <Gold.Chemscore.Lipo.Weighted>
-11.4303

> <Gold.Chemscore.Internal_Hbond.Weighted>
0.0000

> <Gold.Chemscore.DEClash.Weighted>
0.1911

> <Gold.Chemscore.DEInternal.Weighted>
1.2224

> <Gold.Chemscore.Rot.Weighted>
3.3078

> <Gold.Chemscore.Internal.Correction.Weighted>
   9.000000E+99

> <Gold.Protein.RotatedTorsions>
[ 6907 6896 6895 6894 ] final   62.96 input  -60.11 | X-H torsion
[ 7974 7965 7964 7962 ] final  -63.35 input  175.53 | X-H torsion
[ 8008 7997 7996 7995 ] final  158.02 input   59.86 | X-H torsion
[ 10167 10162 10161 10158 ] final   38.06 input  -65.29 | X-H torsion
[ 10718 10713 10712 10709 ] final   34.68 input   66.30 | X-H torsion
[ 10763 10752 10751 10750 ] final -125.02 input  -60.55 | X-H torsion
[ 11005 11000 10999 10996 ] final -136.30 input  -57.11 | X-H torsion

> <Gold.Protein.ActiveResidues>
 VAL166  LYS551  ARG553  GLY616  TRP617  ASP618  TYR619  PRO620  LYS621  CYS622 
 ASP623  PHE694  ASN695  SER759  ASP760  ASP761  ALA762  ILE779  LEU786  VAL792 
 PHE793  MET794  SER795  GLU796  ALA797  LYS798  CYS799  TRP800  GLU811  SER814 

> <Gold.Protein.RotatedAtoms>
  152.4215  134.5947  159.9983 H   0  0  0  0  0  0  0  0  0  0  0  0  # atno 6907 bound_to 6896
  151.6095  133.3343  159.3072 H   0  0  0  0  0  0  0  0  0  0  0  0  # atno 6908 bound_to 6896
  150.8103  134.7291  159.6747 H   0  0  0  0  0  0  0  0  0  0  0  0  # atno 6909 bound_to 6896
  145.7801  140.8766  143.0334 H   0  0  0  0  0  0  0  0  0  0  0  0  # atno 7974 bound_to 7965
  156.2328  140.1869  156.7197 H   0  0  0  0  0  0  0  0  0  0  0  0  # atno 8008 bound_to 7997
  154.6053  140.0630  156.9450 H   0  0  0  0  0  0  0  0  0  0  0  0  # atno 8009 bound_to 7997
  155.2106  140.3299  155.4332 H   0  0  0  0  0  0  0  0  0  0  0  0  # atno 8010 bound_to 7997
  140.3973  144.1771  150.6132 H   0  0  0  0  0  0  0  0  0  0  0  0  # atno 10167 bound_to 10162
  157.3133  130.7410  149.6738 H   0  0  0  0  0  0  0  0  0  0  0  0  # atno 10718 bound_to 10713
  154.8731  135.4043  154.3201 H   0  0  0  0  0  0  0  0  0  0  0  0  # atno 10763 bound_to 10752
  153.4030  135.7018  153.6418 H   0  0  0  0  0  0  0  0  0  0  0  0  # atno 10764 bound_to 10752
  153.5152  135.3699  155.2576 H   0  0  0  0  0  0  0  0  0  0  0  0  # atno 10765 bound_to 10752
  140.8818  134.1923  157.4586 H   0  0  0  0  0  0  0  0  0  0  0  0  # atno 11005 bound_to 11000
  144.6798  139.9977  143.7484 LP  0  0  0  0  0  0  0  0  0  0  0  0  # atno 17320 bound_to 7965
  146.0082  139.3148  143.0886 LP  0  0  0  0  0  0  0  0  0  0  0  0  # atno 17321 bound_to 7965
  140.4777  143.2390  151.9000 LP  0  0  0  0  0  0  0  0  0  0  0  0  # atno 17342 bound_to 10162
  139.4786  144.5303  151.8676 LP  0  0  0  0  0  0  0  0  0  0  0  0  # atno 17343 bound_to 10162
  155.9679  130.4245  150.4610 LP  0  0  0  0  0  0  0  0  0  0  0  0  # atno 17370 bound_to 10713
  157.2612  131.0567  151.2319 LP  0  0  0  0  0  0  0  0  0  0  0  0  # atno 17371 bound_to 10713
  139.8720  134.9820  156.5140 LP  0  0  0  0  0  0  0  0  0  0  0  0  # atno 17394 bound_to 11000
  140.8452  133.8174  155.9114 LP  0  0  0  0  0  0  0  0  0  0  0  0  # atno 17395 bound_to 11000

$$$$
