AV-unprocessed.smi:1976|AV-procd|sdf|7986|dock10
  -GOLD-   2272010163D 1   1.00000     0.00000
 Structure written by MMmdl.
 45 47  0  0  0  0  0  0  0  0  2 V2000
  149.6193  139.9450  155.0999 O   0  0  0  0  0  0  0  0  0  0  0  0
  149.4951  141.1621  155.2445 C   0  0  0  0  0  0  0  0  0  0  0  0
  150.7038  142.0504  155.5734 C   0  0  0  0  0  0  0  0  0  0  0  0
  151.1645  141.9217  156.9662 N   0  0  0  0  0  0  0  0  0  0  0  0
  151.1000  143.0762  157.7710 C   0  0  0  0  0  0  0  0  0  0  0  0
  151.4866  143.0930  159.0610 C   0  0  0  0  0  0  0  0  0  0  0  0
  151.4638  144.3702  159.8861 C   0  0  0  0  0  0  0  0  0  0  0  0
  152.1681  145.3191  159.2707 F   0  0  0  0  0  0  0  0  0  0  0  0
  150.2176  144.8157  160.0468 F   0  0  0  0  0  0  0  0  0  0  0  0
  151.9974  144.1741  161.0926 F   0  0  0  0  0  0  0  0  0  0  0  0
  152.0154  141.8519  159.5921 C   0  0  0  0  0  0  0  0  0  0  0  0
  152.0960  140.7421  158.8322 C   0  0  0  0  0  0  0  0  0  0  0  0
  151.6535  140.7350  157.4362 C   0  0  0  0  0  0  0  0  0  0  0  0
  151.7214  139.7276  156.7314 O   0  0  0  0  0  0  0  0  0  0  0  0
  148.3207  141.7956  155.1078 N   0  0  0  0  0  0  0  0  0  0  0  0
  147.0531  141.1375  154.8035 C   0  0  1  0  0  0  0  0  0  0  0  0
  146.6830  140.0449  155.7979 C   0  0  0  0  0  0  0  0  0  0  0  0
  145.1820  139.8547  155.5562 C   0  0  0  0  0  0  0  0  0  0  0  0
  144.6629  141.1443  155.0372 N   0  3  1  0  0  0  0  0  0  0  0  0
  143.5380  141.7072  155.8315 C   0  0  0  0  0  0  0  0  0  0  0  0
  143.3148  143.1892  155.4955 C   0  0  0  0  0  0  0  0  0  0  0  0
  144.5538  144.0392  155.8364 C   0  0  0  0  0  0  0  0  0  0  0  0
  145.8501  143.2067  155.8662 C   0  0  0  0  0  0  0  0  0  0  0  0
  145.8193  142.0611  154.8248 C   0  0  1  0  0  0  0  0  0  0  0  0
  151.5100  141.7996  154.8824 H   0  0  0  0  0  0  0  0  0  0  0  0
  150.4543  143.0901  155.3528 H   0  0  0  0  0  0  0  0  0  0  0  0
  150.7248  143.9548  157.2665 H   0  0  0  0  0  0  0  0  0  0  0  0
  152.3508  141.8101  160.6179 H   0  0  0  0  0  0  0  0  0  0  0  0
  152.4963  139.8351  159.2610 H   0  0  0  0  0  0  0  0  0  0  0  0
  148.3014  142.7972  155.2367 H   0  0  0  0  0  0  0  0  0  0  0  0
  147.1276  140.6750  153.8168 H   0  0  0  0  0  0  0  0  0  0  0  0
  147.2526  139.1263  155.6528 H   0  0  0  0  0  0  0  0  0  0  0  0
  146.8528  140.3891  156.8192 H   0  0  0  0  0  0  0  0  0  0  0  0
  145.0208  139.0976  154.7881 H   0  0  0  0  0  0  0  0  0  0  0  0
  144.6703  139.5158  156.4581 H   0  0  0  0  0  0  0  0  0  0  0  0
  142.6365  141.1273  155.6305 H   0  0  0  0  0  0  0  0  0  0  0  0
  143.7444  141.6099  156.8989 H   0  0  0  0  0  0  0  0  0  0  0  0
  143.0915  143.2804  154.4315 H   0  0  0  0  0  0  0  0  0  0  0  0
  142.4419  143.5745  156.0232 H   0  0  0  0  0  0  0  0  0  0  0  0
  144.6433  144.8432  155.1048 H   0  0  0  0  0  0  0  0  0  0  0  0
  144.4226  144.5240  156.8045 H   0  0  0  0  0  0  0  0  0  0  0  0
  146.6992  143.8699  155.7010 H   0  0  0  0  0  0  0  0  0  0  0  0
  145.9859  142.7846  156.8632 H   0  0  0  0  0  0  0  0  0  0  0  0
  145.7079  142.5180  153.8403 H   0  0  0  0  0  0  0  0  0  0  0  0
  144.2959  140.9503  154.1162 H   0  0  0  0  0  0  0  0  0  0  0  0
  1  2  2  0  0  0  0
  2  3  1  0  0  0  0
  2 15  1  0  0  0  0
  3  4  1  0  0  0  0
  3 25  1  0  0  0  0
  3 26  1  0  0  0  0
  4 13  1  0  0  0  0
  4  5  1  0  0  0  0
  5  6  2  0  0  0  0
  5 27  1  0  0  0  0
  6  7  1  0  0  0  0
  6 11  1  0  0  0  0
  7  8  1  0  0  0  0
  7  9  1  0  0  0  0
  7 10  1  0  0  0  0
 11 12  2  0  0  0  0
 11 28  1  0  0  0  0
 12 13  1  0  0  0  0
 12 29  1  0  0  0  0
 13 14  2  0  0  0  0
 15 16  1  0  0  0  0
 15 30  1  0  0  0  0
 16 24  1  0  0  0  0
 16 17  1  0  0  0  0
 16 31  1  0  0  0  0
 17 18  1  0  0  0  0
 17 32  1  0  0  0  0
 17 33  1  0  0  0  0
 18 19  1  0  0  0  0
 18 34  1  0  0  0  0
 18 35  1  0  0  0  0
 19 24  1  0  0  0  0
 19 20  1  0  0  0  0
 19 45  1  0  0  0  0
 20 21  1  0  0  0  0
 20 36  1  0  0  0  0
 20 37  1  0  0  0  0
 21 22  1  0  0  0  0
 21 38  1  0  0  0  0
 21 39  1  0  0  0  0
 22 23  1  0  0  0  0
 22 40  1  0  0  0  0
 22 41  1  0  0  0  0
 23 24  1  0  0  0  0
 23 42  1  0  0  0  0
 23 43  1  0  0  0  0
 24 44  1  0  0  0  0
M  CHG  1  19   1
M  END
> <s_m_source_file>
AV-unprocessed.smi

> <i_m_source_file_index>
1976

> <i_lp_mmshare_version>
43012

> <i_f3d_flags>
0

> <s_epik_input>
W0NIMl0xW0NIMl1bQ0gyXVtDSDJdW0NASF0oTjEyKVtDQEBIXShbQ0gyXVtDSDJdMilbTkhdQyg9TylbQ0gyXW4zW2NIXWMoQyhGKShGKUYpW2NIXVtjSF1jMz1P

> <s_epik_cmdline>
J2VwaWtfcHl0aG9uJywgJy1waCcsICc3LjAnLCAnLXRuJywgJzgnLCAnLW1hJywgJzIwMCcsICctbWV0YWxfYmluZGluZycsICctaW1hZScsICc8aW5maWxlLm1hZT4nLCAnLW9tYWUnLCAnPG91dGZpbGUubWFlPic=

> <r_lp_tautomer_probability>
1

> <r_epik_Ionization_Penalty>
0.00171506

> <r_epik_Ionization_Penalty_Charging>
0.00171498

> <r_epik_Ionization_Penalty_Neutral>
7.81737e-08

> <r_epik_State_Penalty>
0.00115937

> <r_epik_Charging_Adjusted_Penalty>
0.00287436

> <i_epik_Tot_Q>
1

> <i_epik_Tot_abs_Q>
1

> <r_epik_Metal_State_Penalty>
-0

> <b_epik_Metal_Only>
0

> <s_lp_Force_Field>
OPLS_2005

> <r_lp_Energy>
52.608

> <b_lp_Chiralities_Consistent>
1

> <s_lp_Variant>
AV-unprocessed.smi:1976-4

> <Gold.Version>
5.8.1

> <Gold.Id.Protein>
6NUR|6NUR_protein|mol2

> <Gold.PLP.Fitness>
52.0948

> <Gold.PLP.PLP>
-40.5501

> <Gold.PLP.part.hbond>
-2.0000

> <Gold.PLP.part.metal>
0.0000

> <Gold.PLP.part.buried>
-6.7034

> <Gold.PLP.part.nonpolar>
-31.9447

> <Gold.PLP.part.repulsive>
0.1867

> <Gold.PLP.ligand.clash>
0.0000

> <Gold.PLP.ligand.torsion>
0.2346

> <Gold.PLP.Chemscore.Hbond>
2.9913

> <Gold.PLP.Chemscore.CHOScore>
1.0000

> <Gold.PLP.Chemscore.Metal>
0.0000

> <Gold.Chemscore.Hbonds>
donor molecule, donor type, donor heavy atom, donor atom, acceptor molecule, acceptor atom, score
      L1  H    15    30       P1  8028  0.99
      L1  H    19    45       P1 10175  2.00
      L1  C     5    27       P1  8028  0.99

> <Gold.PLP.Chemscore.Internal.Correction>
0.0401

> <Gold.Rescore>
     Score         DG    S(hbond)    S(metal)    S(lipo)     H(rot)  DE(clash)    DE(int)     intcor
     13.23     -15.83       1.76        0.00      72.78       1.58       0.08       2.52       ----

> <Gold.Chemscore.Fitness>
13.2284

> <Gold.Chemscore.DG>
-15.8333

> <Gold.Chemscore.ZeroCoef>
-5.4800

> <Gold.Chemscore.Hbond>
1.7634

> <Gold.Chemscore.Metal>
0.0000

> <Gold.Chemscore.Lipo>
72.7848

> <Gold.Chemscore.Internal_Hbond>
0.0000

> <Gold.Chemscore.DEClash>
0.0820

> <Gold.Chemscore.DEInternal>
2.5230

> <Gold.Chemscore.Rot>
1.5830

> <Gold.Chemscore.Internal.Correction>
   9.000000E+99

> <Gold.Chemscore.Hbonds>
donor molecule, donor type, donor heavy atom, donor atom, acceptor molecule, acceptor atom, score
      L1  H    15    30       P1  8028  0.92
      L1  H    19    45       P1 10175  0.91

> <Gold.Chemscore.Hbond.Weighted>
-5.8899

> <Gold.Chemscore.Metal.Weighted>
-0.0000

> <Gold.Chemscore.Lipo.Weighted>
-8.5158

> <Gold.Chemscore.Internal_Hbond.Weighted>
0.0000

> <Gold.Chemscore.DEClash.Weighted>
0.0820

> <Gold.Chemscore.DEInternal.Weighted>
2.5230

> <Gold.Chemscore.Rot.Weighted>
4.0524

> <Gold.Chemscore.Internal.Correction.Weighted>
   9.000000E+99

> <Gold.Protein.RotatedTorsions>
[ 6907 6896 6895 6894 ] final  154.08 input  -60.11 | X-H torsion
[ 7974 7965 7964 7962 ] final  144.93 input  175.53 | X-H torsion
[ 8008 7997 7996 7995 ] final  -75.21 input   59.86 | X-H torsion
[ 10167 10162 10161 10158 ] final  117.13 input  -65.29 | X-H torsion
[ 10718 10713 10712 10709 ] final  157.04 input   66.30 | X-H torsion
[ 10763 10752 10751 10750 ] final -118.87 input  -60.55 | X-H torsion
[ 11005 11000 10999 10996 ] final   64.88 input  -57.11 | X-H torsion

> <Gold.Protein.ActiveResidues>
 VAL166  LYS551  ARG553  GLY616  TRP617  ASP618  TYR619  PRO620  LYS621  CYS622 
 ASP623  PHE694  ASN695  SER759  ASP760  ASP761  ALA762  ILE779  LEU786  VAL792 
 PHE793  MET794  SER795  GLU796  ALA797  LYS798  CYS799  TRP800  GLU811  SER814 

> <Gold.Protein.RotatedAtoms>
  152.0636  133.4073  159.4428 H   0  0  0  0  0  0  0  0  0  0  0  0  # atno 6907 bound_to 6896
  150.6865  134.3172  159.4780 H   0  0  0  0  0  0  0  0  0  0  0  0  # atno 6908 bound_to 6896
  152.0996  134.9350  160.0620 H   0  0  0  0  0  0  0  0  0  0  0  0  # atno 6909 bound_to 6896
  144.8794  139.5722  143.5850 H   0  0  0  0  0  0  0  0  0  0  0  0  # atno 7974 bound_to 7965
  154.5397  140.0748  156.8488 H   0  0  0  0  0  0  0  0  0  0  0  0  # atno 8008 bound_to 7997
  155.3206  140.3396  155.4223 H   0  0  0  0  0  0  0  0  0  0  0  0  # atno 8009 bound_to 7997
  156.1862  140.1670  156.8166 H   0  0  0  0  0  0  0  0  0  0  0  0  # atno 8010 bound_to 7997
  139.6199  144.7099  151.2657 H   0  0  0  0  0  0  0  0  0  0  0  0  # atno 10167 bound_to 10162
  157.1969  131.0667  151.2047 H   0  0  0  0  0  0  0  0  0  0  0  0  # atno 10718 bound_to 10713
  154.8600  135.4258  154.2208 H   0  0  0  0  0  0  0  0  0  0  0  0  # atno 10763 bound_to 10752
  153.3213  135.6982  153.7034 H   0  0  0  0  0  0  0  0  0  0  0  0  # atno 10764 bound_to 10752
  153.6087  135.3523  155.2945 H   0  0  0  0  0  0  0  0  0  0  0  0  # atno 10765 bound_to 10752
  139.9930  134.6562  156.0058 H   0  0  0  0  0  0  0  0  0  0  0  0  # atno 11005 bound_to 11000
  146.2984  139.7350  142.9109 LP  0  0  0  0  0  0  0  0  0  0  0  0  # atno 17320 bound_to 7965
  145.3982  141.0381  143.3085 LP  0  0  0  0  0  0  0  0  0  0  0  0  # atno 17321 bound_to 7965
  140.7375  143.6675  150.8110 LP  0  0  0  0  0  0  0  0  0  0  0  0  # atno 17342 bound_to 10162
  140.0284  143.5469  152.2771 LP  0  0  0  0  0  0  0  0  0  0  0  0  # atno 17343 bound_to 10162
  157.3806  130.7229  149.6627 LP  0  0  0  0  0  0  0  0  0  0  0  0  # atno 17370 bound_to 10713
  155.9705  130.4173  150.4275 LP  0  0  0  0  0  0  0  0  0  0  0  0  # atno 17371 bound_to 10713
  141.1581  133.6541  156.4229 LP  0  0  0  0  0  0  0  0  0  0  0  0  # atno 17394 bound_to 11000
  140.4872  134.6609  157.5196 LP  0  0  0  0  0  0  0  0  0  0  0  0  # atno 17395 bound_to 11000

$$$$
