AV-unprocessed.smi:1758|AV-procd|sdf|7086|dock2
  -GOLD-   22720 8303D 1   1.00000     0.00000
 Structure written by MMmdl.
 44 46  0  0  0  0  0  0  0  0  2 V2000
  150.5302  139.7277  155.4904 C   0  0  0  0  0  0  0  0  0  0  0  0
  149.5104  140.8497  155.7170 C   0  0  0  0  0  0  0  0  0  0  0  0
  148.3607  140.7128  154.8442 N   0  0  0  0  0  0  0  0  0  0  0  0
  147.6823  139.5603  154.5008 C   0  0  0  0  0  0  0  0  0  0  0  0
  146.6861  139.9522  153.6580 C   0  0  0  0  0  0  0  0  0  0  0  0
  145.7433  139.0800  153.0583 N   0  0  0  0  0  0  0  0  0  0  0  0
  145.4854  137.8066  153.3970 C   0  0  0  0  0  0  0  0  0  0  0  0
  146.0562  137.1819  154.2908 O   0  0  0  0  0  0  0  0  0  0  0  0
  144.5201  137.2828  152.6280 N   0  0  0  0  0  0  0  0  0  0  0  0
  144.0075  135.9194  152.7335 C   0  0  1  0  0  0  0  0  0  0  0  0
  142.5078  135.8616  153.0000 C   0  0  0  0  0  0  0  0  0  0  0  0
  142.1573  134.4339  152.5757 C   0  0  0  0  0  0  0  0  0  0  0  0
  143.0700  134.1031  151.4567 N   0  3  2  0  0  0  0  0  0  0  0  0
  143.5261  132.6917  151.4320 C   0  0  0  0  0  0  0  0  0  0  0  0
  144.4454  132.4339  150.2233 C   0  0  0  0  0  0  0  0  0  0  0  0
  145.5587  133.4916  150.0711 C   0  0  0  0  0  0  0  0  0  0  0  0
  145.5576  134.5101  151.2213 C   0  0  0  0  0  0  0  0  0  0  0  0
  144.1543  135.1259  151.4242 C   0  0  2  0  0  0  0  0  0  0  0  0
  146.8202  141.3637  153.5282 C   0  0  0  0  0  0  0  0  0  0  0  0
  147.8374  141.8125  154.2486 N   0  0  0  0  0  0  0  0  0  0  0  0
  151.3884  139.8449  156.1521 H   0  0  0  0  0  0  0  0  0  0  0  0
  150.8984  139.7302  154.4640 H   0  0  0  0  0  0  0  0  0  0  0  0
  150.0895  138.7498  155.6867 H   0  0  0  0  0  0  0  0  0  0  0  0
  149.1645  140.8415  156.7512 H   0  0  0  0  0  0  0  0  0  0  0  0
  149.9726  141.8230  155.5455 H   0  0  0  0  0  0  0  0  0  0  0  0
  147.9630  138.5877  154.8775 H   0  0  0  0  0  0  0  0  0  0  0  0
  145.2103  139.4671  152.2936 H   0  0  0  0  0  0  0  0  0  0  0  0
  144.1071  137.8721  151.9198 H   0  0  0  0  0  0  0  0  0  0  0  0
  144.5094  135.3878  153.5450 H   0  0  0  0  0  0  0  0  0  0  0  0
  142.2519  136.0680  154.0398 H   0  0  0  0  0  0  0  0  0  0  0  0
  141.9787  136.5787  152.3702 H   0  0  0  0  0  0  0  0  0  0  0  0
  142.3335  133.7571  153.4135 H   0  0  0  0  0  0  0  0  0  0  0  0
  141.1128  134.3309  152.2804 H   0  0  0  0  0  0  0  0  0  0  0  0
  144.0529  132.4604  152.3594 H   0  0  0  0  0  0  0  0  0  0  0  0
  142.6606  132.0294  151.3908 H   0  0  0  0  0  0  0  0  0  0  0  0
  144.8864  131.4403  150.3114 H   0  0  0  0  0  0  0  0  0  0  0  0
  143.8466  132.4147  149.3118 H   0  0  0  0  0  0  0  0  0  0  0  0
  146.5327  133.0061  150.0039 H   0  0  0  0  0  0  0  0  0  0  0  0
  145.4208  134.0218  149.1277 H   0  0  0  0  0  0  0  0  0  0  0  0
  145.8891  134.0189  152.1370 H   0  0  0  0  0  0  0  0  0  0  0  0
  146.2871  135.2952  151.0202 H   0  0  0  0  0  0  0  0  0  0  0  0
  143.9265  135.7778  150.5790 H   0  0  0  0  0  0  0  0  0  0  0  0
  146.2375  142.0675  152.9529 H   0  0  0  0  0  0  0  0  0  0  0  0
  142.5437  134.2428  150.6059 H   0  0  0  0  0  0  0  0  0  0  0  0
  1  2  1  0  0  0  0
  1 21  1  0  0  0  0
  1 22  1  0  0  0  0
  1 23  1  0  0  0  0
  2  3  1  0  0  0  0
  2 24  1  0  0  0  0
  2 25  1  0  0  0  0
  3 20  1  0  0  0  0
  3  4  1  0  0  0  0
  4  5  2  0  0  0  0
  4 26  1  0  0  0  0
  5  6  1  0  0  0  0
  5 19  1  0  0  0  0
  6  7  1  0  0  0  0
  6 27  1  0  0  0  0
  7  8  2  0  0  0  0
  7  9  1  0  0  0  0
  9 10  1  0  0  0  0
  9 28  1  0  0  0  0
 10 18  1  0  0  0  0
 10 11  1  0  0  0  0
 10 29  1  0  0  0  0
 11 12  1  0  0  0  0
 11 30  1  0  0  0  0
 11 31  1  0  0  0  0
 12 13  1  0  0  0  0
 12 32  1  0  0  0  0
 12 33  1  0  0  0  0
 13 18  1  0  0  0  0
 13 14  1  0  0  0  0
 13 44  1  0  0  0  0
 14 15  1  0  0  0  0
 14 34  1  0  0  0  0
 14 35  1  0  0  0  0
 15 16  1  0  0  0  0
 15 36  1  0  0  0  0
 15 37  1  0  0  0  0
 16 17  1  0  0  0  0
 16 38  1  0  0  0  0
 16 39  1  0  0  0  0
 17 18  1  0  0  0  0
 17 40  1  0  0  0  0
 17 41  1  0  0  0  0
 18 42  1  0  0  0  0
 19 20  2  0  0  0  0
 19 43  1  0  0  0  0
M  CHG  1  13   1
M  END
> <s_m_source_file>
AV-unprocessed.smi

> <i_m_source_file_index>
1758

> <i_lp_mmshare_version>
43012

> <i_f3d_flags>
0

> <s_epik_input>
W0NIM11bQ0gyXW4xW2NIXWMoW2NIXW4xKVtOSF1DKD1PKVtOSF1bQ0BIXShbQ0gyXVtDSDJdMilbQ0BASF0oTjIzKVtDSDJdW0NIMl1bQ0gyXVtDSDJdMw==

> <s_epik_cmdline>
J2VwaWtfcHl0aG9uJywgJy1waCcsICc3LjAnLCAnLXRuJywgJzgnLCAnLW1hJywgJzIwMCcsICctbWV0YWxfYmluZGluZycsICctaW1hZScsICc8aW5maWxlLm1hZT4nLCAnLW9tYWUnLCAnPG91dGZpbGUubWFlPic=

> <r_lp_tautomer_probability>
1

> <r_epik_Ionization_Penalty>
0.00111541

> <r_epik_Ionization_Penalty_Charging>
0.000974069

> <r_epik_Ionization_Penalty_Neutral>
0.000141346

> <r_epik_State_Penalty>
0.000633842

> <r_epik_Charging_Adjusted_Penalty>
0.00160791

> <i_epik_Tot_Q>
1

> <i_epik_Tot_abs_Q>
1

> <r_epik_Metal_State_Penalty>
-0

> <b_epik_Metal_Only>
0

> <s_lp_Force_Field>
OPLS_2005

> <r_lp_Energy>
44.0656

> <b_lp_Chiralities_Consistent>
1

> <s_lp_Variant>
AV-unprocessed.smi:1758-8

> <Gold.Version>
5.8.1

> <Gold.Id.Protein>
6NUR|6NUR_protein|mol2

> <Gold.PLP.Fitness>
45.1365

> <Gold.PLP.PLP>
-35.3225

> <Gold.PLP.part.hbond>
-3.8454

> <Gold.PLP.part.metal>
0.0000

> <Gold.PLP.part.buried>
-1.7697

> <Gold.PLP.part.nonpolar>
-27.8259

> <Gold.PLP.part.repulsive>
0.2913

> <Gold.PLP.ligand.clash>
0.0000

> <Gold.PLP.ligand.torsion>
0.3021

> <Gold.PLP.Chemscore.Hbond>
3.4695

> <Gold.PLP.Chemscore.CHOScore>
0.0000

> <Gold.PLP.Chemscore.Metal>
0.0000

> <Gold.Chemscore.Hbonds>
donor molecule, donor type, donor heavy atom, donor atom, acceptor molecule, acceptor atom, score
      L1  H     6    27       P1 10175  0.53
      L1  H     9    28       P1 10171  0.50
      L1  H    13    44       P1 10186  2.00

> <Gold.PLP.Chemscore.Internal.Correction>
0.0095

> <Gold.Rescore>
     Score         DG    S(hbond)    S(metal)    S(lipo)     H(rot)  DE(clash)    DE(int)     intcor
     15.61     -19.54       2.19        0.00      83.58       1.19       2.37       1.55       ----

> <Gold.Chemscore.Fitness>
15.6111

> <Gold.Chemscore.DG>
-19.5372

> <Gold.Chemscore.ZeroCoef>
-5.4800

> <Gold.Chemscore.Hbond>
2.1918

> <Gold.Chemscore.Metal>
0.0000

> <Gold.Chemscore.Lipo>
83.5799

> <Gold.Chemscore.Internal_Hbond>
0.0000

> <Gold.Chemscore.DEClash>
2.3745

> <Gold.Chemscore.DEInternal>
1.5516

> <Gold.Chemscore.Rot>
1.1884

> <Gold.Chemscore.Internal.Correction>
   9.000000E+99

> <Gold.Chemscore.Hbonds>
donor molecule, donor type, donor heavy atom, donor atom, acceptor molecule, acceptor atom, score
      L1  H     6    27       P1 10175  0.52
      L1  H     9    28       P1 10171  0.49
      L1  H    13    44       P1 10186  0.54

> <Gold.Chemscore.Hbond.Weighted>
-7.3206

> <Gold.Chemscore.Metal.Weighted>
-0.0000

> <Gold.Chemscore.Lipo.Weighted>
-9.7788

> <Gold.Chemscore.Internal_Hbond.Weighted>
0.0000

> <Gold.Chemscore.DEClash.Weighted>
2.3745

> <Gold.Chemscore.DEInternal.Weighted>
1.5516

> <Gold.Chemscore.Rot.Weighted>
3.0423

> <Gold.Chemscore.Internal.Correction.Weighted>
   9.000000E+99

> <Gold.Protein.RotatedTorsions>
[ 6907 6896 6895 6894 ] final -134.93 input  -60.11 | X-H torsion
[ 7974 7965 7964 7962 ] final   43.21 input  175.53 | X-H torsion
[ 8008 7997 7996 7995 ] final   18.15 input   59.86 | X-H torsion
[ 10167 10162 10161 10158 ] final   27.11 input  -65.29 | X-H torsion
[ 10718 10713 10712 10709 ] final -138.44 input   66.30 | X-H torsion
[ 10763 10752 10751 10750 ] final -132.48 input  -60.55 | X-H torsion
[ 11005 11000 10999 10996 ] final  -70.82 input  -57.11 | X-H torsion

> <Gold.Protein.ActiveResidues>
 VAL166  LYS551  ARG553  GLY616  TRP617  ASP618  TYR619  PRO620  LYS621  CYS622 
 ASP623  PHE694  ASN695  SER759  ASP760  ASP761  ALA762  ILE779  LEU786  VAL792 
 PHE793  MET794  SER795  GLU796  ALA797  LYS798  CYS799  TRP800  GLU811  SER814 

> <Gold.Protein.RotatedAtoms>
  150.9917  133.6142  159.2707 H   0  0  0  0  0  0  0  0  0  0  0  0  # atno 6907 bound_to 6896
  151.3361  135.0852  159.9365 H   0  0  0  0  0  0  0  0  0  0  0  0  # atno 6908 bound_to 6896
  152.5248  133.9538  159.7739 H   0  0  0  0  0  0  0  0  0  0  0  0  # atno 6909 bound_to 6896
  146.0674  139.5212  142.9619 H   0  0  0  0  0  0  0  0  0  0  0  0  # atno 7974 bound_to 7965
  154.9017  140.3001  155.5314 H   0  0  0  0  0  0  0  0  0  0  0  0  # atno 8008 bound_to 7997
  156.3018  140.2405  156.3981 H   0  0  0  0  0  0  0  0  0  0  0  0  # atno 8009 bound_to 7997
  154.8514  140.0409  157.1595 H   0  0  0  0  0  0  0  0  0  0  0  0  # atno 8010 bound_to 7997
  140.4966  144.0382  150.6316 H   0  0  0  0  0  0  0  0  0  0  0  0  # atno 10167 bound_to 10162
  156.2994  130.7420  151.1468 H   0  0  0  0  0  0  0  0  0  0  0  0  # atno 10718 bound_to 10713
  154.8742  135.3796  154.4416 H   0  0  0  0  0  0  0  0  0  0  0  0  # atno 10763 bound_to 10752
  153.5100  135.7029  153.5791 H   0  0  0  0  0  0  0  0  0  0  0  0  # atno 10764 bound_to 10752
  153.4084  135.3931  155.2000 H   0  0  0  0  0  0  0  0  0  0  0  0  # atno 10765 bound_to 10752
  141.1581  133.6800  156.6811 H   0  0  0  0  0  0  0  0  0  0  0  0  # atno 11005 bound_to 11000
  145.6452  141.0275  143.1790 LP  0  0  0  0  0  0  0  0  0  0  0  0  # atno 17320 bound_to 7965
  144.7211  139.8028  143.7381 LP  0  0  0  0  0  0  0  0  0  0  0  0  # atno 17321 bound_to 7965
  140.3666  143.2878  152.0324 LP  0  0  0  0  0  0  0  0  0  0  0  0  # atno 17342 bound_to 10162
  139.4862  144.6262  151.7160 LP  0  0  0  0  0  0  0  0  0  0  0  0  # atno 17343 bound_to 10162
  157.7364  131.0563  150.5416 LP  0  0  0  0  0  0  0  0  0  0  0  0  # atno 17370 bound_to 10713
  156.5542  130.4239  149.6093 LP  0  0  0  0  0  0  0  0  0  0  0  0  # atno 17371 bound_to 10713
  140.3102  134.8093  157.4169 LP  0  0  0  0  0  0  0  0  0  0  0  0  # atno 17394 bound_to 11000
  140.1186  134.5250  155.8203 LP  0  0  0  0  0  0  0  0  0  0  0  0  # atno 17395 bound_to 11000

$$$$
