#       Name:                AV-unprocessed.smi:623
#       Creating user name   scv26
#       Creation time:       Fri Mar 27 00:01:48 2020


#       File generated by GOLD software.
#

@<TRIPOS>MOLECULE
AV-unprocessed.smi:623
    51    53     1
SMALL
NO_CHARGES


@<TRIPOS>ATOM
      1 ****         0.1689  -1.7334  -0.3967 C.3            1 S1                 0.0000
      2 ****        -1.3337  -1.3699  -0.2303 C.3            1 S1                 0.0000
      3 ****        -2.0731  -2.1935  -1.3222 C.3            1 S1                 0.0000
      4 ****        -1.8809  -1.5727   1.1969 C.3            1 S1                 0.0000
      5 ****        -3.3299  -1.0426   1.1067 C.3            1 S1                 0.0000
      6 ****        -3.1932   0.1411   0.1259 C.3            1 S1                 0.0000
      7 ****        -1.6762   0.1464  -0.1950 C.3            1 S1                 0.0000
      8 ****        -1.3444   0.9432  -1.4731 C.3            1 S1                 0.0000
      9 ****        -0.9945   0.6703   1.1061 C.3            1 S1                 0.0000
     10 ****         0.3714   1.1271   0.8803 N.am           1 S1                 0.0000
     11 ****         1.1377   1.8247   1.7324 C.2            1 S1                 0.0000
     12 ****         0.7454   2.1905   2.8398 O.2            1 S1                 0.0000
     13 ****         2.5756   2.1494   1.2895 C.3            1 S1                 0.0000
     14 ****         2.9678   1.5291   0.0092 N.am           1 S1                 0.0000
     15 ****         3.5840   0.2663   0.0647 C.2            1 S1                 0.0000
     16 ****         3.9331  -0.4044  -1.0494 C.2            1 S1                 0.0000
     17 ****         3.6577   0.2128  -2.3406 C.2            1 S1                 0.0000
     18 ****         3.9664  -0.3860  -3.3689 O.2            1 S1                 0.0000
     19 ****         3.0606   1.4403  -2.3428 N.pl3          1 S1                -1.0000
     20 ****         2.7073   2.1089  -1.2017 C.2            1 S1                 0.0000
     21 ****         2.1507   3.2066  -1.2270 O.2            1 S1                 0.0000
     22 ****        -1.0866  -0.5540   2.0461 C.3            1 S1                 0.0000
     23 ****         0.3102  -2.8133  -0.3466 H              1 S1                 0.0000
     24 ****         0.8347  -1.3138   0.3518 H              1 S1                 0.0000
     25 ****         0.5432  -1.4074  -1.3678 H              1 S1                 0.0000
     26 ****        -3.1512  -2.0541  -1.3577 H              1 S1                 0.0000
     27 ****        -1.9070  -3.2612  -1.1752 H              1 S1                 0.0000
     28 ****        -1.6960  -1.9451  -2.3147 H              1 S1                 0.0000
     29 ****        -1.8156  -2.5935   1.5744 H              1 S1                 0.0000
     30 ****        -4.0112  -1.8006   0.7199 H              1 S1                 0.0000
     31 ****        -3.7172  -0.7296   2.0770 H              1 S1                 0.0000
     32 ****        -3.7979  -0.0179  -0.7671 H              1 S1                 0.0000
     33 ****        -3.5342   1.0791   0.5655 H              1 S1                 0.0000
     34 ****        -1.5942   1.9973  -1.3497 H              1 S1                 0.0000
     35 ****        -1.9055   0.5701  -2.3298 H              1 S1                 0.0000
     36 ****        -0.2860   0.8832  -1.7277 H              1 S1                 0.0000
     37 ****        -1.5537   1.5125   1.5185 H              1 S1                 0.0000
     38 ****         0.7818   0.8824  -0.0097 H              1 S1                 0.0000
     39 ****         2.6878   3.2336   1.2415 H              1 S1                 0.0000
     40 ****         3.2565   1.8294   2.0794 H              1 S1                 0.0000
     41 ****         3.7421  -0.1237   1.0596 H              1 S1                 0.0000
     42 ****         4.3993  -1.3767  -0.9892 H              1 S1                 0.0000
     43 ****        -1.5942  -0.3098   2.9798 H              1 S1                 0.0000
     44 ****        -0.1050  -0.9429   2.3180 H              1 S1                 0.0000
     45 ****        -0.1826   1.9694   3.1396 LP             1 S1                 0.0000
     46 ****         1.3546   2.7089   3.4399 LP             1 S1                 0.0000
     47 ****         4.4007  -1.2850  -3.3128 LP             1 S1                 0.0000
     48 ****         3.7831   0.0259  -4.2615 LP             1 S1                 0.0000
     49 ****         2.8714   1.8738  -3.2239 LP             1 S1                 0.0000
     50 ****         1.8973   3.6586  -0.3717 LP             1 S1                 0.0000
     51 ****         1.9519   3.6464  -2.1029 LP             1 S1                 0.0000
@<TRIPOS>BOND
    1    1    2 1     
    2    1   23 1     
    3    1   24 1     
    4    1   25 1     
    5    2    7 1     
    6    2    3 1     
    7    2    4 1     
    8    3   26 1     
    9    3   27 1     
   10    3   28 1     
   11    4   22 1     
   12    4    5 1     
   13    4   29 1     
   14    5    6 1     
   15    5   30 1     
   16    5   31 1     
   17    6    7 1     
   18    6   32 1     
   19    6   33 1     
   20    7    8 1     
   21    7    9 1     
   22    8   34 1     
   23    8   35 1     
   24    8   36 1     
   25    9   10 1     
   26    9   22 1     
   27    9   37 1     
   28   10   11 am    
   29   10   38 1     
   30   11   12 2     
   31   11   13 1     
   32   13   14 1     
   33   13   39 1     
   34   13   40 1     
   35   14   20 am    
   36   14   15 1     
   37   15   16 2     
   38   15   41 1     
   39   16   17 1     
   40   16   42 1     
   41   17   18 2     
   42   17   19 1     
   43   19   20 1     
   44   20   21 2     
   45   22   43 1     
   46   22   44 1     
   47   12   45 1     
   48   12   46 1     
   49   18   47 1     
   50   18   48 1     
   51   19   49 1     
   52   21   50 1     
   53   21   51 1     
@<TRIPOS>SUBSTRUCTURE
      1 S1             1
@<TRIPOS>SET
LONE_PAIRS      STATIC     ATOMS    <user>   **** ""
7 45 46 47 48 49 50 51
DONOR_HYDROGENS      STATIC     ATOMS    <user>   **** ""
1 38
ATOM$BLUE        STATIC     ATOMS    COLORGROUP SYSTEM
7 45 46 47 48 49 50 51
ATOM$RED        STATIC     ATOMS    COLORGROUP SYSTEM
1 38
