#       Name:                AV-unprocessed.smi:112
#       Creating user name   scv26
#       Creation time:       Thu Mar 26 18:18:48 2020


#       File generated by GOLD software.
#

@<TRIPOS>MOLECULE
AV-unprocessed.smi:112
    68    71     1
SMALL
NO_CHARGES


@<TRIPOS>ATOM
      1 ****        -1.0333   4.3121   0.4942 C.3            1 S1                 0.0000
      2 ****        -0.2966   2.9821   0.4578 C.2            1 S1                 0.0000
      3 ****         1.0456   2.9063   0.3055 C.2            1 S1                 0.0000
      4 ****         1.7520   1.7144   0.2687 N.am           1 S1                 0.0000
      5 ****         3.2718   1.6538   0.1747 C.3            1 S1                 0.0000
      6 ****         3.9302   2.8701  -0.4930 C.3            1 S1                 0.0000
      7 ****         4.4750   3.6725   0.6889 C.3            1 S1                 0.0000
      8 ****         3.9941   5.0014   0.6576 O.3            1 S1                 0.0000
      9 ****         3.9801   2.9182   1.9366 C.3            1 S1                 0.0000
     10 ****         4.9671   2.9010   3.1139 C.3            1 S1                 0.0000
     11 ****         5.0838   4.1879   3.6830 O.3            1 S1                 0.0000
     12 ****         3.7867   1.5906   1.4657 O.3            1 S1                 0.0000
     13 ****         1.0610   0.5034   0.4921 C.2            1 S1                 0.0000
     14 ****         1.6665  -0.5701   0.5389 O.2            1 S1                 0.0000
     15 ****        -0.3423   0.5469   0.6532 N.am           1 S1                 0.0000
     16 ****        -1.0764  -0.7246   0.8481 C.3            1 S1                 0.0000
     17 ****        -1.5543  -1.3774  -0.4677 C.2            1 S1                 0.0000
     18 ****        -1.2691  -0.8379  -1.5375 O.2            1 S1                 0.0000
     19 ****        -2.2696  -2.5268  -0.3812 N.am           1 S1                 0.0000
     20 ****        -2.6046  -3.1813   0.8956 C.3            1 S1                 0.0000
     21 ****        -3.4178  -4.4440   0.5364 C.3            1 S1                 0.0000
     22 ****        -3.4758  -4.3952  -0.9617 C.ar           1 S1                 0.0000
     23 ****        -4.1083  -5.3223  -1.8073 C.ar           1 S1                 0.0000
     24 ****        -4.0616  -5.1139  -3.2082 C.ar           1 S1                 0.0000
     25 ****        -4.7139  -6.0676  -4.1274 N.pl3          1 S1                 1.0000
     26 ****        -4.6544  -5.8471  -5.3327 O.2            1 S1                 0.0000
     27 ****        -5.2869  -7.0396  -3.6455 O.2            1 S1                -1.0000
     28 ****        -3.3788  -3.9759  -3.7144 C.ar           1 S1                 0.0000
     29 ****        -2.7485  -3.0543  -2.8498 C.ar           1 S1                 0.0000
     30 ****        -2.8071  -3.2819  -1.4576 C.ar           1 S1                 0.0000
     31 ****        -1.0783   1.7556   0.6199 C.2            1 S1                 0.0000
     32 ****        -2.3063   1.7472   0.7270 O.2            1 S1                 0.0000
     33 ****        -0.3586   5.1557   0.3455 H              1 S1                 0.0000
     34 ****        -1.5273   4.4464   1.4572 H              1 S1                 0.0000
     35 ****        -1.7914   4.3511  -0.2888 H              1 S1                 0.0000
     36 ****         1.5762   3.8404   0.2243 H              1 S1                 0.0000
     37 ****         3.4934   0.7422  -0.3822 H              1 S1                 0.0000
     38 ****         4.7609   2.5152  -1.1043 H              1 S1                 0.0000
     39 ****         3.2494   3.4031  -1.1570 H              1 S1                 0.0000
     40 ****         5.5650   3.6815   0.6499 H              1 S1                 0.0000
     41 ****         4.2894   5.4478   1.4362 H              1 S1                 0.0000
     42 ****         3.0133   3.3027   2.2670 H              1 S1                 0.0000
     43 ****         4.6130   2.2173   3.8859 H              1 S1                 0.0000
     44 ****         5.9497   2.5488   2.7987 H              1 S1                 0.0000
     45 ****         5.4686   4.7667   3.0429 H              1 S1                 0.0000
     46 ****        -0.4616  -1.4422   1.3930 H              1 S1                 0.0000
     47 ****        -1.9366  -0.5645   1.4992 H              1 S1                 0.0000
     48 ****        -1.6991  -3.4556   1.4385 H              1 S1                 0.0000
     49 ****        -3.1967  -2.5188   1.5281 H              1 S1                 0.0000
     50 ****        -2.9220  -5.3560   0.8706 H              1 S1                 0.0000
     51 ****        -4.4231  -4.4132   0.9577 H              1 S1                 0.0000
     52 ****        -4.6179  -6.1744  -1.3818 H              1 S1                 0.0000
     53 ****        -3.3311  -3.7970  -4.7785 H              1 S1                 0.0000
     54 ****        -2.2410  -2.2034  -3.2757 H              1 S1                 0.0000
     55 ****         2.9944   4.9973   0.6305 LP             1 S1                 0.0000
     56 ****         4.3475   5.4685  -0.1529 LP             1 S1                 0.0000
     57 ****         5.6678   4.1462   4.4936 LP             1 S1                 0.0000
     58 ****         4.1786   4.5254   3.9414 LP             1 S1                 0.0000
     59 ****         4.6605   1.1045   1.4575 LP             1 S1                 0.0000
     60 ****         3.1438   1.1107   2.0627 LP             1 S1                 0.0000
     61 ****         2.6589  -0.5900   0.4179 LP             1 S1                 0.0000
     62 ****         1.1649  -1.4205   0.6978 LP             1 S1                 0.0000
     63 ****        -0.7367   0.0086  -1.5443 LP             1 S1                 0.0000
     64 ****        -1.5701  -1.2462  -2.3993 LP             1 S1                 0.0000
     65 ****        -4.1730  -5.0380  -5.6698 LP             1 S1                 0.0000
     66 ****        -5.0874  -6.4764  -5.9781 LP             1 S1                 0.0000
     67 ****        -2.8161   2.6073   0.7050 LP             1 S1                 0.0000
     68 ****        -2.7928   0.8804   0.8358 LP             1 S1                 0.0000
@<TRIPOS>BOND
    1    1    2 1     
    2    1   33 1     
    3    1   34 1     
    4    1   35 1     
    5    2   31 1     
    6    2    3 2     
    7    3    4 1     
    8    3   36 1     
    9    4    5 1     
   10    4   13 am    
   11    5   12 1     
   12    5    6 1     
   13    5   37 1     
   14    6    7 1     
   15    6   38 1     
   16    6   39 1     
   17    7    8 1     
   18    7    9 1     
   19    7   40 1     
   20    8   41 1     
   21    9   10 1     
   22    9   12 1     
   23    9   42 1     
   24   10   11 1     
   25   10   43 1     
   26   10   44 1     
   27   11   45 1     
   28   13   14 2     
   29   13   15 am    
   30   15   16 1     
   31   15   31 am    
   32   16   17 1     
   33   16   46 1     
   34   16   47 1     
   35   17   18 2     
   36   17   19 am    
   37   19   30 1     
   38   19   20 1     
   39   20   21 1     
   40   20   48 1     
   41   20   49 1     
   42   21   22 1     
   43   21   50 1     
   44   21   51 1     
   45   22   30 ar    
   46   22   23 ar    
   47   23   24 ar    
   48   23   52 1     
   49   24   25 1     
   50   24   28 ar    
   51   25   26 2     
   52   25   27 1     
   53   28   29 ar    
   54   28   53 1     
   55   29   30 ar    
   56   29   54 1     
   57   31   32 2     
   58    8   55 1     
   59    8   56 1     
   60   11   57 1     
   61   11   58 1     
   62   12   59 1     
   63   12   60 1     
   64   14   61 1     
   65   14   62 1     
   66   18   63 1     
   67   18   64 1     
   68   26   65 1     
   69   26   66 1     
   70   32   67 1     
   71   32   68 1     
@<TRIPOS>SUBSTRUCTURE
      1 S1             1
@<TRIPOS>SET
LONE_PAIRS      STATIC     ATOMS    <user>   **** ""
15 55 56 57 58 59 60 61 62 63 64 65 66 27 67 68
DONOR_HYDROGENS      STATIC     ATOMS    <user>   **** ""
2 41 45
ATOM$BLUE        STATIC     ATOMS    COLORGROUP SYSTEM
15 55 56 57 58 59 60 61 62 63 64 65 66 27 67 68
ATOM$RED        STATIC     ATOMS    COLORGROUP SYSTEM
2 41 45
