AV-unprocessed.smi:2953|AV-procd|sdf|11294|dock5
  -GOLD-   2272016183D 1   1.00000     0.00000
 Structure written by MMmdl.
 45 47  0  0  0  0  0  0  0  0  1 V2000
  147.8454  145.1259  161.3419 C   0  0  0  0  0  0  0  0  0  0  0  0
  146.6723  144.2017  161.0757 C   0  0  0  0  0  0  0  0  0  0  0  0
  145.6198  144.1549  162.0137 C   0  0  0  0  0  0  0  0  0  0  0  0
  144.5113  143.3169  161.7995 C   0  0  0  0  0  0  0  0  0  0  0  0
  144.4528  142.5196  160.6437 C   0  0  0  0  0  0  0  0  0  0  0  0
  145.5015  142.5589  159.7055 C   0  0  0  0  0  0  0  0  0  0  0  0
  146.6266  143.4002  159.9083 C   0  0  0  0  0  0  0  0  0  0  0  0
  147.6858  143.4752  159.0245 O   0  0  0  0  0  0  0  0  0  0  0  0
  148.0027  142.3147  158.2649 C   0  0  0  0  0  0  0  0  0  0  0  0
  149.2100  142.5792  157.3548 C   0  0  0  0  0  0  0  0  0  0  0  0
  150.4047  141.8655  157.7860 N   0  0  0  0  0  0  0  0  0  0  0  0
  150.8964  140.6697  157.3647 C   0  0  0  0  0  0  0  0  0  0  0  0
  150.2375  139.8387  156.2938 C   0  0  1  0  0  0  0  0  0  0  0  0
  149.9731  140.6454  155.0145 C   0  0  0  0  0  0  0  0  0  0  0  0
  151.1004  138.6992  156.0032 N   0  0  0  0  0  0  0  0  0  0  0  0
  152.2580  138.7799  155.3355 C   0  0  0  0  0  0  0  0  0  0  0  0
  152.7088  139.8352  154.8976 O   0  0  0  0  0  0  0  0  0  0  0  0
  151.9939  140.2460  157.9975 N   0  0  0  0  0  0  0  0  0  0  0  0
  152.2622  141.2752  158.8758 C   0  0  0  0  0  0  0  0  0  0  0  0
  153.3074  141.4331  159.8138 C   0  0  0  0  0  0  0  0  0  0  0  0
  153.3778  142.5909  160.6158 C   0  0  0  0  0  0  0  0  0  0  0  0
  152.4052  143.6041  160.4924 C   0  0  0  0  0  0  0  0  0  0  0  0
  151.3541  143.4643  159.5658 C   0  0  0  0  0  0  0  0  0  0  0  0
  151.2891  142.3068  158.7665 C   0  0  0  0  0  0  0  0  0  0  0  0
  147.5319  145.9876  161.9320 H   0  0  0  0  0  0  0  0  0  0  0  0
  148.2793  145.5024  160.4157 H   0  0  0  0  0  0  0  0  0  0  0  0
  148.6166  144.5974  161.9014 H   0  0  0  0  0  0  0  0  0  0  0  0
  145.6589  144.7659  162.9037 H   0  0  0  0  0  0  0  0  0  0  0  0
  143.7077  143.2860  162.5207 H   0  0  0  0  0  0  0  0  0  0  0  0
  143.6031  141.8743  160.4766 H   0  0  0  0  0  0  0  0  0  0  0  0
  145.4183  141.9250  158.8361 H   0  0  0  0  0  0  0  0  0  0  0  0
  148.2212  141.4743  158.9255 H   0  0  0  0  0  0  0  0  0  0  0  0
  147.1498  142.0389  157.6428 H   0  0  0  0  0  0  0  0  0  0  0  0
  148.9727  142.2491  156.3430 H   0  0  0  0  0  0  0  0  0  0  0  0
  149.4146  143.6455  157.2697 H   0  0  0  0  0  0  0  0  0  0  0  0
  149.2709  139.4753  156.6388 H   0  0  0  0  0  0  0  0  0  0  0  0
  149.3658  141.5241  155.2306 H   0  0  0  0  0  0  0  0  0  0  0  0
  149.4427  140.0456  154.2744 H   0  0  0  0  0  0  0  0  0  0  0  0
  150.9009  140.9916  154.5578 H   0  0  0  0  0  0  0  0  0  0  0  0
  150.7896  137.7915  156.3180 H   0  0  0  0  0  0  0  0  0  0  0  0
  152.7434  137.7970  155.2312 H   0  0  0  0  0  0  0  0  0  0  0  0
  154.0570  140.6623  159.9162 H   0  0  0  0  0  0  0  0  0  0  0  0
  154.1814  142.7018  161.3288 H   0  0  0  0  0  0  0  0  0  0  0  0
  152.4665  144.4882  161.1098 H   0  0  0  0  0  0  0  0  0  0  0  0
  150.6083  144.2393  159.4699 H   0  0  0  0  0  0  0  0  0  0  0  0
  1  2  1  0  0  0  0
  1 25  1  0  0  0  0
  1 26  1  0  0  0  0
  1 27  1  0  0  0  0
  2  7  1  0  0  0  0
  2  3  2  0  0  0  0
  3  4  1  0  0  0  0
  3 28  1  0  0  0  0
  4  5  2  0  0  0  0
  4 29  1  0  0  0  0
  5  6  1  0  0  0  0
  5 30  1  0  0  0  0
  6  7  2  0  0  0  0
  6 31  1  0  0  0  0
  7  8  1  0  0  0  0
  8  9  1  0  0  0  0
  9 10  1  0  0  0  0
  9 32  1  0  0  0  0
  9 33  1  0  0  0  0
 10 11  1  0  0  0  0
 10 34  1  0  0  0  0
 10 35  1  0  0  0  0
 11 24  1  0  0  0  0
 11 12  1  0  0  0  0
 12 13  1  0  0  0  0
 12 18  2  0  0  0  0
 13 14  1  0  0  0  0
 13 15  1  0  0  0  0
 13 36  1  0  0  0  0
 14 37  1  0  0  0  0
 14 38  1  0  0  0  0
 14 39  1  0  0  0  0
 15 16  1  0  0  0  0
 15 40  1  0  0  0  0
 16 17  2  0  0  0  0
 16 41  1  0  0  0  0
 18 19  1  0  0  0  0
 19 24  2  0  0  0  0
 19 20  1  0  0  0  0
 20 21  2  0  0  0  0
 20 42  1  0  0  0  0
 21 22  1  0  0  0  0
 21 43  1  0  0  0  0
 22 23  2  0  0  0  0
 22 44  1  0  0  0  0
 23 24  1  0  0  0  0
 23 45  1  0  0  0  0
M  END
> <s_m_source_file>
AV-unprocessed.smi

> <i_m_source_file_index>
2953

> <i_lp_mmshare_version>
43012

> <i_f3d_flags>
0

> <s_epik_input>
W0NIM11jMVtjSF1bY0hdW2NIXVtjSF1jMU9bQ0gyXVtDSDJdbihjKG4yKVtDQEhdKFtDSDNdKVtOSF1bQ0hdPU8pYyhjMjMpW2NIXVtjSF1bY0hdW2NIXTM=

> <s_epik_cmdline>
J2VwaWtfcHl0aG9uJywgJy1waCcsICc3LjAnLCAnLXRuJywgJzgnLCAnLW1hJywgJzIwMCcsICctbWV0YWxfYmluZGluZycsICctaW1hZScsICc8aW5maWxlLm1hZT4nLCAnLW9tYWUnLCAnPG91dGZpbGUubWFlPic=

> <r_lp_tautomer_probability>
1

> <r_epik_Ionization_Penalty>
0.0924205

> <r_epik_Ionization_Penalty_Charging>
0

> <r_epik_Ionization_Penalty_Neutral>
0.0924205

> <r_epik_State_Penalty>
0.0827154

> <r_epik_Charging_Adjusted_Penalty>
0.0827154

> <i_epik_Tot_Q>
0

> <i_epik_Tot_abs_Q>
0

> <r_epik_Metal_State_Penalty>
0.071464

> <b_epik_Metal_Only>
0

> <s_lp_Force_Field>
OPLS_2005

> <r_lp_Energy>
13.3209

> <b_lp_Chiralities_Consistent>
1

> <s_lp_Variant>
AV-unprocessed.smi:2953-2

> <Gold.Version>
5.8.1

> <Gold.Id.Protein>
6NUR|6NUR_protein|mol2

> <Gold.PLP.Fitness>
47.8923

> <Gold.PLP.PLP>
-45.8987

> <Gold.PLP.part.hbond>
-2.0000

> <Gold.PLP.part.metal>
0.0000

> <Gold.PLP.part.buried>
-3.8830

> <Gold.PLP.part.nonpolar>
-40.1611

> <Gold.PLP.part.repulsive>
0.8367

> <Gold.PLP.ligand.clash>
0.0000

> <Gold.PLP.ligand.torsion>
1.2969

> <Gold.PLP.Chemscore.Hbond>
1.4800

> <Gold.PLP.Chemscore.CHOScore>
0.0000

> <Gold.PLP.Chemscore.Metal>
0.0000

> <Gold.Chemscore.Hbonds>
donor molecule, donor type, donor heavy atom, donor atom, acceptor molecule, acceptor atom, score
      P1  H  7989  7998       L1    17  0.50
      P1  H  7997  8010       L1    17  0.96

> <Gold.PLP.Chemscore.Internal.Correction>
0.1474

> <Gold.Rescore>
     Score         DG    S(hbond)    S(metal)    S(lipo)     H(rot)  DE(clash)    DE(int)     intcor
     12.10     -16.19       0.92        0.00     114.73       2.26       1.37       2.72       ----

> <Gold.Chemscore.Fitness>
12.1029

> <Gold.Chemscore.DG>
-16.1887

> <Gold.Chemscore.ZeroCoef>
-5.4800

> <Gold.Chemscore.Hbond>
0.9208

> <Gold.Chemscore.Metal>
0.0000

> <Gold.Chemscore.Lipo>
114.7337

> <Gold.Chemscore.Internal_Hbond>
0.0000

> <Gold.Chemscore.DEClash>
1.3685

> <Gold.Chemscore.DEInternal>
2.7172

> <Gold.Chemscore.Rot>
2.2619

> <Gold.Chemscore.Internal.Correction>
   9.000000E+99

> <Gold.Chemscore.Hbonds>
donor molecule, donor type, donor heavy atom, donor atom, acceptor molecule, acceptor atom, score
      P1  H  7989  7998       L1    17  0.47
      P1  H  7997  8010       L1    17  0.46

> <Gold.Chemscore.Hbond.Weighted>
-3.0754

> <Gold.Chemscore.Metal.Weighted>
-0.0000

> <Gold.Chemscore.Lipo.Weighted>
-13.4238

> <Gold.Chemscore.Internal_Hbond.Weighted>
0.0000

> <Gold.Chemscore.DEClash.Weighted>
1.3685

> <Gold.Chemscore.DEInternal.Weighted>
2.7172

> <Gold.Chemscore.Rot.Weighted>
5.7906

> <Gold.Chemscore.Internal.Correction.Weighted>
   9.000000E+99

> <Gold.Protein.RotatedTorsions>
[ 6907 6896 6895 6894 ] final   10.37 input  -60.11 | X-H torsion
[ 7974 7965 7964 7962 ] final   49.60 input  175.53 | X-H torsion
[ 8008 7997 7996 7995 ] final   96.26 input   59.86 | X-H torsion
[ 10167 10162 10161 10158 ] final -157.87 input  -65.29 | X-H torsion
[ 10718 10713 10712 10709 ] final -165.78 input   66.30 | X-H torsion
[ 10763 10752 10751 10750 ] final  -82.01 input  -60.55 | X-H torsion
[ 11005 11000 10999 10996 ] final  104.50 input  -57.11 | X-H torsion

> <Gold.Protein.ActiveResidues>
 VAL166  LYS551  ARG553  GLY616  TRP617  ASP618  TYR619  PRO620  LYS621  CYS622 
 ASP623  PHE694  ASN695  SER759  ASP760  ASP761  ALA762  ILE779  LEU786  VAL792 
 PHE793  MET794  SER795  GLU796  ALA797  LYS798  CYS799  TRP800  GLU811  SER814 

> <Gold.Protein.RotatedAtoms>
  151.7371  135.0862  160.0309 H   0  0  0  0  0  0  0  0  0  0  0  0  # atno 6907 bound_to 6896
  152.3503  133.6168  159.5949 H   0  0  0  0  0  0  0  0  0  0  0  0  # atno 6908 bound_to 6896
  150.7536  133.9500  159.3524 H   0  0  0  0  0  0  0  0  0  0  0  0  # atno 6909 bound_to 6896
  146.0093  139.4525  142.9966 H   0  0  0  0  0  0  0  0  0  0  0  0  # atno 7974 bound_to 7965
  156.0778  140.3275  155.7655 H   0  0  0  0  0  0  0  0  0  0  0  0  # atno 8008 bound_to 7997
  155.5202  140.0584  157.2925 H   0  0  0  0  0  0  0  0  0  0  0  0  # atno 8009 bound_to 7997
  154.4565  140.1945  156.0382 H   0  0  0  0  0  0  0  0  0  0  0  0  # atno 8010 bound_to 7997
  139.6737  143.9701  152.2298 H   0  0  0  0  0  0  0  0  0  0  0  0  # atno 10167 bound_to 10162
  156.6584  130.9036  151.3025 H   0  0  0  0  0  0  0  0  0  0  0  0  # atno 10718 bound_to 10713
  154.5705  135.5606  153.7091 H   0  0  0  0  0  0  0  0  0  0  0  0  # atno 10763 bound_to 10752
  153.0047  135.6296  154.2120 H   0  0  0  0  0  0  0  0  0  0  0  0  # atno 10764 bound_to 10752
  154.2060  135.2876  155.2954 H   0  0  0  0  0  0  0  0  0  0  0  0  # atno 10765 bound_to 10752
  139.8792  134.9302  156.5371 H   0  0  0  0  0  0  0  0  0  0  0  0  # atno 11005 bound_to 11000
  145.7367  141.0023  143.1323 LP  0  0  0  0  0  0  0  0  0  0  0  0  # atno 17320 bound_to 7965
  144.6947  139.9049  143.7460 LP  0  0  0  0  0  0  0  0  0  0  0  0  # atno 17321 bound_to 7965
  139.9472  144.6644  150.8207 LP  0  0  0  0  0  0  0  0  0  0  0  0  # atno 17342 bound_to 10162
  140.7627  143.3206  151.2632 LP  0  0  0  0  0  0  0  0  0  0  0  0  # atno 17343 bound_to 10162
  157.7118  130.9449  150.1114 LP  0  0  0  0  0  0  0  0  0  0  0  0  # atno 17370 bound_to 10713
  156.2030  130.3661  149.8765 LP  0  0  0  0  0  0  0  0  0  0  0  0  # atno 17371 bound_to 10713
  140.8338  133.8258  155.9009 LP  0  0  0  0  0  0  0  0  0  0  0  0  # atno 17394 bound_to 11000
  140.9303  134.2030  157.4868 LP  0  0  0  0  0  0  0  0  0  0  0  0  # atno 17395 bound_to 11000

$$$$
