#       Name:                AV-unprocessed.smi:2858
#       Creating user name   scv26
#       Creation time:       Fri Mar 27 15:45:31 2020


#       File generated by GOLD software.
#

@<TRIPOS>MOLECULE
AV-unprocessed.smi:2858
    45    46     1
SMALL
NO_CHARGES


@<TRIPOS>ATOM
      1 ****        -4.6715   4.8040   1.6853 O.2            1 S1                 0.0000
      2 ****        -4.0548   3.9597   1.0407 C.2            1 S1                 0.0000
      3 ****        -2.5560   3.7484   1.3043 C.3            1 S1                 0.0000
      4 ****        -2.0186   2.4776   0.7525 N.4            1 S1                 1.0000
      5 ****        -0.5496   2.3671   0.9319 C.3            1 S1                 0.0000
      6 ****        -0.0648   0.9075   0.9288 C.3            1 S1                 0.0000
      7 ****         1.4435   0.7945   1.2057 C.3            1 S1                 0.0000
      8 ****         1.8910  -0.5935   1.1917 N.am           1 S1                 0.0000
      9 ****         2.1371  -1.3086   0.0843 C.2            1 S1                 0.0000
     10 ****         1.9971  -0.8619  -1.0550 O.2            1 S1                 0.0000
     11 ****         2.5292  -2.5586   0.3856 N.am           1 S1                 0.0000
     12 ****         2.8344  -3.6180  -0.5089 C.ar           1 S1                 0.0000
     13 ****         3.5011  -3.3549  -1.7330 C.ar           1 S1                 0.0000
     14 ****         3.8181  -4.4260  -2.5903 C.ar           1 S1                 0.0000
     15 ****         3.4725  -5.7321  -2.2011 C.ar           1 S1                 0.0000
     16 ****         2.8295  -5.9060  -0.9620 C.ar           1 S1                 0.0000
     17 ****         2.5259  -4.8817  -0.1364 N.ar           1 S1                 0.0000
     18 ****        -2.4665   2.2509  -0.6427 C.3            1 S1                 0.0000
     19 ****        -4.0025   2.1796  -0.7025 C.3            1 S1                 0.0000
     20 ****        -4.6542   3.2111   0.1007 N.am           1 S1                 0.0000
     21 ****        -2.0162   4.5902   0.8677 H              1 S1                 0.0000
     22 ****        -2.3804   3.7784   2.3805 H              1 S1                 0.0000
     23 ****        -0.0369   2.9495   0.1648 H              1 S1                 0.0000
     24 ****        -0.2761   2.8106   1.8907 H              1 S1                 0.0000
     25 ****        -0.6137   0.3396   1.6813 H              1 S1                 0.0000
     26 ****        -0.2863   0.4420  -0.0310 H              1 S1                 0.0000
     27 ****         2.0113   1.3747   0.4762 H              1 S1                 0.0000
     28 ****         1.6756   1.2149   2.1847 H              1 S1                 0.0000
     29 ****         2.0290  -1.0386   2.0877 H              1 S1                 0.0000
     30 ****         2.4977  -2.8136   1.3616 H              1 S1                 0.0000
     31 ****         3.7846  -2.3535  -2.0199 H              1 S1                 0.0000
     32 ****         4.3236  -4.2478  -3.5279 H              1 S1                 0.0000
     33 ****         3.7002  -6.5784  -2.8322 H              1 S1                 0.0000
     34 ****         2.5544  -6.8934  -0.6223 H              1 S1                 0.0000
     35 ****        -2.1033   3.0653  -1.2718 H              1 S1                 0.0000
     36 ****        -2.0507   1.3299  -1.0493 H              1 S1                 0.0000
     37 ****        -4.3463   2.2530  -1.7346 H              1 S1                 0.0000
     38 ****        -4.3383   1.2117  -0.3284 H              1 S1                 0.0000
     39 ****        -5.6390   3.3646  -0.0654 H              1 S1                 0.0000
     40 ****        -2.4307   1.7411   1.3074 H              1 S1                 0.0000
     41 ****        -5.6464   4.9485   1.5161 LP             1 S1                 0.0000
     42 ****        -4.1986   5.3469   2.3793 LP             1 S1                 0.0000
     43 ****         1.6853   0.0788  -1.1884 LP             1 S1                 0.0000
     44 ****         2.1953  -1.4399  -1.8465 LP             1 S1                 0.0000
     45 ****         2.0780  -5.0551   0.7407 LP             1 S1                 0.0000
@<TRIPOS>BOND
    1    1    2 2     
    2    2   20 am    
    3    2    3 1     
    4    3    4 1     
    5    3   21 1     
    6    3   22 1     
    7    4    5 1     
    8    4   18 1     
    9    4   40 1     
   10    5    6 1     
   11    5   23 1     
   12    5   24 1     
   13    6    7 1     
   14    6   25 1     
   15    6   26 1     
   16    7    8 1     
   17    7   27 1     
   18    7   28 1     
   19    8    9 am    
   20    8   29 1     
   21    9   10 2     
   22    9   11 am    
   23   11   12 1     
   24   11   30 1     
   25   12   17 ar    
   26   12   13 ar    
   27   13   14 ar    
   28   13   31 1     
   29   14   15 ar    
   30   14   32 1     
   31   15   16 ar    
   32   15   33 1     
   33   16   17 ar    
   34   16   34 1     
   35   18   19 1     
   36   18   35 1     
   37   18   36 1     
   38   19   20 1     
   39   19   37 1     
   40   19   38 1     
   41   20   39 1     
   42    1   41 1     
   43    1   42 1     
   44   10   43 1     
   45   10   44 1     
   46   17   45 1     
@<TRIPOS>SUBSTRUCTURE
      1 S1             1
@<TRIPOS>SET
LONE_PAIRS      STATIC     ATOMS    <user>   **** ""
5 41 42 43 44 45
DONOR_HYDROGENS      STATIC     ATOMS    <user>   **** ""
4 40 29 30 39
ATOM$BLUE        STATIC     ATOMS    COLORGROUP SYSTEM
5 41 42 43 44 45
ATOM$RED        STATIC     ATOMS    COLORGROUP SYSTEM
4 40 29 30 39
