AV-unprocessed.smi:1317|AV-procd|sdf|5456|dock3
  -GOLD-   22720 5 23D 1   1.00000     0.00000
 Structure written by MMmdl.
 31 32  0  0  0  0  0  0  0  0  1 V2000
  153.0666  143.0800  162.8852 C   0  0  0  0  0  0  0  0  0  0  0  0
  152.8822  142.6347  161.4750 C   0  0  0  0  0  0  0  0  0  0  0  0
  151.8015  142.9205  160.7443 N   0  0  0  0  0  0  0  0  0  0  0  0
  151.8658  142.3830  159.4547 C   0  0  0  0  0  0  0  0  0  0  0  0
  150.7352  142.5980  158.4947 C   0  0  0  0  0  0  0  0  0  0  0  0
  151.1871  142.4795  157.0296 C   0  0  0  0  0  0  0  0  0  0  0  0
  150.0518  142.4612  156.1144 N   0  0  0  0  0  0  0  0  0  0  0  0
  149.7959  141.4967  155.2183 C   0  0  0  0  0  0  0  0  0  0  0  0
  150.5125  140.5059  155.0705 O   0  0  0  0  0  0  0  0  0  0  0  0
  148.5366  141.6921  154.3635 C   0  0  0  0  0  0  0  0  0  0  0  0
  147.2459  141.9049  155.1732 C   0  0  0  0  0  0  0  0  0  0  0  0
  146.5366  140.9386  154.2200 C   0  0  0  0  0  0  0  0  0  0  0  0
  147.9118  140.3927  153.8246 C   0  0  0  0  0  0  0  0  0  0  0  0
  153.0219  141.6814  159.2185 C   0  0  0  0  0  0  0  0  0  0  0  0
  154.0712  141.6698  160.6089 S   0  0  0  0  0  0  0  0  0  0  0  0
  152.3443  143.8560  163.1407 H   0  0  0  0  0  0  0  0  0  0  0  0
  154.0713  143.4799  163.0224 H   0  0  0  0  0  0  0  0  0  0  0  0
  152.9291  142.2365  163.5619 H   0  0  0  0  0  0  0  0  0  0  0  0
  149.9400  141.8785  158.6948 H   0  0  0  0  0  0  0  0  0  0  0  0
  150.2943  143.5821  158.6585 H   0  0  0  0  0  0  0  0  0  0  0  0
  151.8138  143.3322  156.7663 H   0  0  0  0  0  0  0  0  0  0  0  0
  151.7998  141.5877  156.8866 H   0  0  0  0  0  0  0  0  0  0  0  0
  149.4112  143.2399  156.1675 H   0  0  0  0  0  0  0  0  0  0  0  0
  148.6546  142.4428  153.5795 H   0  0  0  0  0  0  0  0  0  0  0  0
  147.2914  141.5292  156.1970 H   0  0  0  0  0  0  0  0  0  0  0  0
  146.8586  142.9236  155.1412 H   0  0  0  0  0  0  0  0  0  0  0  0
  145.8832  140.2153  154.7083 H   0  0  0  0  0  0  0  0  0  0  0  0
  146.0336  141.4504  153.3980 H   0  0  0  0  0  0  0  0  0  0  0  0
  148.0373  140.2461  152.7514 H   0  0  0  0  0  0  0  0  0  0  0  0
  148.1835  139.4948  154.3820 H   0  0  0  0  0  0  0  0  0  0  0  0
  153.3183  141.1710  158.3141 H   0  0  0  0  0  0  0  0  0  0  0  0
  1  2  1  0  0  0  0
  1 16  1  0  0  0  0
  1 17  1  0  0  0  0
  1 18  1  0  0  0  0
  2 15  1  0  0  0  0
  2  3  2  0  0  0  0
  3  4  1  0  0  0  0
  4  5  1  0  0  0  0
  4 14  2  0  0  0  0
  5  6  1  0  0  0  0
  5 19  1  0  0  0  0
  5 20  1  0  0  0  0
  6  7  1  0  0  0  0
  6 21  1  0  0  0  0
  6 22  1  0  0  0  0
  7  8  1  0  0  0  0
  7 23  1  0  0  0  0
  8  9  2  0  0  0  0
  8 10  1  0  0  0  0
 10 13  1  0  0  0  0
 10 11  1  0  0  0  0
 10 24  1  0  0  0  0
 11 12  1  0  0  0  0
 11 25  1  0  0  0  0
 11 26  1  0  0  0  0
 12 13  1  0  0  0  0
 12 27  1  0  0  0  0
 12 28  1  0  0  0  0
 13 29  1  0  0  0  0
 13 30  1  0  0  0  0
 14 15  1  0  0  0  0
 14 31  1  0  0  0  0
M  END
> <s_m_source_file>
AV-unprocessed.smi

> <i_m_source_file_index>
1317

> <i_lp_mmshare_version>
43012

> <i_f3d_flags>
0

> <s_epik_input>
W0NIM11jMW5jKFtjSF1zMSlbQ0gyXVtDSDJdW05IXUMoPU8pW0NIXTJbQ0gyXVtDSDJdW0NIMl0y

> <s_epik_cmdline>
J2VwaWtfcHl0aG9uJywgJy1waCcsICc3LjAnLCAnLXRuJywgJzgnLCAnLW1hJywgJzIwMCcsICctbWV0YWxfYmluZGluZycsICctaW1hZScsICc8aW5maWxlLm1hZT4nLCAnLW9tYWUnLCAnPG91dGZpbGUubWFlPic=

> <r_epik_Ionization_Penalty>
0.00109666

> <r_epik_Ionization_Penalty_Charging>
0

> <r_epik_Ionization_Penalty_Neutral>
0.00109666

> <r_epik_State_Penalty>
0.000719322

> <r_epik_Charging_Adjusted_Penalty>
0.000719322

> <i_epik_Tot_Q>
0

> <i_epik_Tot_abs_Q>
0

> <r_epik_Metal_State_Penalty>
-0

> <b_epik_Metal_Only>
0

> <s_lp_Force_Field>
OPLS_2005

> <r_lp_Energy>
5.86325

> <b_lp_Chiralities_Consistent>
1

> <s_lp_Variant>
AV-unprocessed.smi:1317-1

> <Gold.Version>
5.8.1

> <Gold.Id.Protein>
6NUR|6NUR_protein|mol2

> <Gold.PLP.Fitness>
41.4875

> <Gold.PLP.PLP>
-36.5929

> <Gold.PLP.part.hbond>
-2.6921

> <Gold.PLP.part.metal>
0.0000

> <Gold.PLP.part.buried>
-3.4191

> <Gold.PLP.part.nonpolar>
-30.6406

> <Gold.PLP.part.repulsive>
0.2599

> <Gold.PLP.ligand.clash>
0.0000

> <Gold.PLP.ligand.torsion>
0.7539

> <Gold.PLP.Chemscore.Hbond>
2.0000

> <Gold.PLP.Chemscore.CHOScore>
0.0000

> <Gold.PLP.Chemscore.Metal>
0.0000

> <Gold.Chemscore.Hbonds>
donor molecule, donor type, donor heavy atom, donor atom, acceptor molecule, acceptor atom, score
      L1  H     7    23       P1  8028  1.00
      P1  H  7989  7998       L1     9  1.00

> <Gold.PLP.Chemscore.Internal.Correction>
0.4024

> <Gold.Rescore>
     Score         DG    S(hbond)    S(metal)    S(lipo)     H(rot)  DE(clash)    DE(int)     intcor
     17.20     -18.19       1.57        0.00      95.23       1.44       0.14       0.86       ----

> <Gold.Chemscore.Fitness>
17.1955

> <Gold.Chemscore.DG>
-18.1910

> <Gold.Chemscore.ZeroCoef>
-5.4800

> <Gold.Chemscore.Hbond>
1.5722

> <Gold.Chemscore.Metal>
0.0000

> <Gold.Chemscore.Lipo>
95.2293

> <Gold.Chemscore.Internal_Hbond>
0.0000

> <Gold.Chemscore.DEClash>
0.1375

> <Gold.Chemscore.DEInternal>
0.8580

> <Gold.Chemscore.Rot>
1.4383

> <Gold.Chemscore.Internal.Correction>
   9.000000E+99

> <Gold.Chemscore.Hbonds>
donor molecule, donor type, donor heavy atom, donor atom, acceptor molecule, acceptor atom, score
      L1  H     7    23       P1  8028  0.95
      P1  H  7989  7998       L1     9  0.51

> <Gold.Chemscore.Hbond.Weighted>
-5.2512

> <Gold.Chemscore.Metal.Weighted>
-0.0000

> <Gold.Chemscore.Lipo.Weighted>
-11.1418

> <Gold.Chemscore.Internal_Hbond.Weighted>
0.0000

> <Gold.Chemscore.DEClash.Weighted>
0.1375

> <Gold.Chemscore.DEInternal.Weighted>
0.8580

> <Gold.Chemscore.Rot.Weighted>
3.6820

> <Gold.Chemscore.Internal.Correction.Weighted>
   9.000000E+99

> <Gold.Protein.RotatedTorsions>
[ 6907 6896 6895 6894 ] final  -50.23 input  -60.11 | X-H torsion
[ 7974 7965 7964 7962 ] final -130.56 input  175.53 | X-H torsion
[ 8008 7997 7996 7995 ] final   -1.37 input   59.86 | X-H torsion
[ 10167 10162 10161 10158 ] final   -1.38 input  -65.29 | X-H torsion
[ 10718 10713 10712 10709 ] final  -28.60 input   66.30 | X-H torsion
[ 10763 10752 10751 10750 ] final  123.21 input  -60.55 | X-H torsion
[ 11005 11000 10999 10996 ] final  -68.03 input  -57.11 | X-H torsion

> <Gold.Protein.ActiveResidues>
 VAL166  LYS551  ARG553  GLY616  TRP617  ASP618  TYR619  PRO620  LYS621  CYS622 
 ASP623  PHE694  ASN695  SER759  ASP760  ASP761  ALA762  ILE779  LEU786  VAL792 
 PHE793  MET794  SER795  GLU796  ALA797  LYS798  CYS799  TRP800  GLU811  SER814 

> <Gold.Protein.RotatedAtoms>
  150.8727  134.8104  159.7166 H   0  0  0  0  0  0  0  0  0  0  0  0  # atno 6907 bound_to 6896
  152.4726  134.4921  159.9708 H   0  0  0  0  0  0  0  0  0  0  0  0  # atno 6908 bound_to 6896
  151.5007  133.3466  159.2904 H   0  0  0  0  0  0  0  0  0  0  0  0  # atno 6909 bound_to 6896
  144.9463  140.7295  143.4815 H   0  0  0  0  0  0  0  0  0  0  0  0  # atno 7974 bound_to 7965
  154.6476  140.2561  155.7250 H   0  0  0  0  0  0  0  0  0  0  0  0  # atno 8008 bound_to 7997
  156.2559  140.2874  156.0817 H   0  0  0  0  0  0  0  0  0  0  0  0  # atno 8009 bound_to 7997
  155.1500  140.0382  157.2809 H   0  0  0  0  0  0  0  0  0  0  0  0  # atno 8010 bound_to 7997
  140.6808  143.6782  150.8128 H   0  0  0  0  0  0  0  0  0  0  0  0  # atno 10167 bound_to 10162
  156.4232  130.4430  149.7169 H   0  0  0  0  0  0  0  0  0  0  0  0  # atno 10718 bound_to 10713
  153.6420  135.3378  155.3074 H   0  0  0  0  0  0  0  0  0  0  0  0  # atno 10763 bound_to 10752
  154.8557  135.4320  154.1995 H   0  0  0  0  0  0  0  0  0  0  0  0  # atno 10764 bound_to 10752
  153.2916  135.7017  153.7361 H   0  0  0  0  0  0  0  0  0  0  0  0  # atno 10765 bound_to 10752
  141.1522  133.6732  156.6383 H   0  0  0  0  0  0  0  0  0  0  0  0  # atno 11005 bound_to 11000
  145.2912  139.1883  143.4739 LP  0  0  0  0  0  0  0  0  0  0  0  0  # atno 17320 bound_to 7965
  146.3305  140.2889  142.8614 LP  0  0  0  0  0  0  0  0  0  0  0  0  # atno 17321 bound_to 7965
  140.0481  143.5277  152.2686 LP  0  0  0  0  0  0  0  0  0  0  0  0  # atno 17342 bound_to 10162
  139.6129  144.7613  151.2911 LP  0  0  0  0  0  0  0  0  0  0  0  0  # atno 17343 bound_to 10162
  156.4102  130.7718  151.2731 LP  0  0  0  0  0  0  0  0  0  0  0  0  # atno 17370 bound_to 10713
  157.7508  131.0214  150.3747 LP  0  0  0  0  0  0  0  0  0  0  0  0  # atno 17371 bound_to 10713
  140.3413  134.7846  157.4400 LP  0  0  0  0  0  0  0  0  0  0  0  0  # atno 17394 bound_to 11000
  140.0935  134.5568  155.8420 LP  0  0  0  0  0  0  0  0  0  0  0  0  # atno 17395 bound_to 11000

$$$$
