AV-unprocessed.smi:613|AV-procd|sdf|3065|dock2
  -GOLD-   2262023593D 1   1.00000     0.00000
 Structure written by MMmdl.
 38 39  0  0  0  0  0  0  0  0  1 V2000
  151.4822  140.3571  158.6158 C   0  0  0  0  0  0  0  0  0  0  0  0
  151.5921  141.6581  157.9660 N   0  0  0  0  0  0  0  0  0  0  0  0
  151.3011  141.7480  156.5326 C   0  0  0  0  0  0  0  0  0  0  0  0
  150.0115  141.0065  156.1280 C   0  0  1  0  0  0  0  0  0  0  0  0
  148.7231  141.6887  156.6370 C   0  0  0  0  0  0  0  0  0  0  0  0
  147.5121  141.0241  156.1477 N   0  0  0  0  0  0  0  0  0  0  0  0
  146.2641  141.6437  156.6143 C   0  0  0  0  0  0  0  0  0  0  0  0
  146.3713  142.3519  157.9702 C   0  0  0  0  0  0  0  0  0  0  0  0
  146.2116  143.6778  157.9764 N   0  0  0  0  0  0  0  0  0  0  0  0
  146.5963  141.7110  158.9943 O   0  0  0  0  0  0  0  0  0  0  0  0
  147.5560  140.9398  154.6913 C   0  0  0  0  0  0  0  0  0  0  0  0
  148.8437  140.2622  154.1953 C   0  0  0  0  0  0  0  0  0  0  0  0
  149.9748  140.9608  154.7039 O   0  0  0  0  0  0  0  0  0  0  0  0
  151.6887  142.8243  158.7634 C   0  0  0  0  0  0  0  0  0  0  0  0
  152.1099  144.0633  158.2203 C   0  0  0  0  0  0  0  0  0  0  0  0
  152.1911  145.1715  159.0809 C   0  0  0  0  0  0  0  0  0  0  0  0
  151.8452  144.9713  160.4276 C   0  0  0  0  0  0  0  0  0  0  0  0
  151.4435  143.7729  160.9019 N   0  0  0  0  0  0  0  0  0  0  0  0
  151.3655  142.7221  160.0793 N   0  0  0  0  0  0  0  0  0  0  0  0
  152.3734  140.1452  159.2070 H   0  0  0  0  0  0  0  0  0  0  0  0
  151.3771  139.5605  157.8789 H   0  0  0  0  0  0  0  0  0  0  0  0
  150.6092  140.3239  159.2683 H   0  0  0  0  0  0  0  0  0  0  0  0
  151.2734  142.7802  156.1836 H   0  0  0  0  0  0  0  0  0  0  0  0
  152.1419  141.2962  156.0051 H   0  0  0  0  0  0  0  0  0  0  0  0
  150.0543  139.9814  156.5004 H   0  0  0  0  0  0  0  0  0  0  0  0
  148.7414  141.6840  157.7261 H   0  0  0  0  0  0  0  0  0  0  0  0
  148.7187  142.7361  156.3297 H   0  0  0  0  0  0  0  0  0  0  0  0
  145.9056  142.3606  155.8732 H   0  0  0  0  0  0  0  0  0  0  0  0
  145.4861  140.8838  156.7022 H   0  0  0  0  0  0  0  0  0  0  0  0
  146.2775  144.1870  158.8456 H   0  0  0  0  0  0  0  0  0  0  0  0
  146.0294  144.1654  157.1114 H   0  0  0  0  0  0  0  0  0  0  0  0
  146.6943  140.3808  154.3242 H   0  0  0  0  0  0  0  0  0  0  0  0
  147.4864  141.9390  154.2577 H   0  0  0  0  0  0  0  0  0  0  0  0
  148.8787  139.2181  154.5101 H   0  0  0  0  0  0  0  0  0  0  0  0
  148.8809  140.2697  153.1058 H   0  0  0  0  0  0  0  0  0  0  0  0
  152.3705  144.1837  157.1800 H   0  0  0  0  0  0  0  0  0  0  0  0
  152.5081  146.1392  158.7216 H   0  0  0  0  0  0  0  0  0  0  0  0
  151.8887  145.7846  161.1367 H   0  0  0  0  0  0  0  0  0  0  0  0
  1  2  1  0  0  0  0
  1 20  1  0  0  0  0
  1 21  1  0  0  0  0
  1 22  1  0  0  0  0
  2  3  1  0  0  0  0
  2 14  1  0  0  0  0
  3  4  1  0  0  0  0
  3 23  1  0  0  0  0
  3 24  1  0  0  0  0
  4 13  1  0  0  0  0
  4  5  1  0  0  0  0
  4 25  1  0  0  0  0
  5  6  1  0  0  0  0
  5 26  1  0  0  0  0
  5 27  1  0  0  0  0
  6  7  1  0  0  0  0
  6 11  1  0  0  0  0
  7  8  1  0  0  0  0
  7 28  1  0  0  0  0
  7 29  1  0  0  0  0
  8  9  1  0  0  0  0
  8 10  2  0  0  0  0
  9 30  1  0  0  0  0
  9 31  1  0  0  0  0
 11 12  1  0  0  0  0
 11 32  1  0  0  0  0
 11 33  1  0  0  0  0
 12 13  1  0  0  0  0
 12 34  1  0  0  0  0
 12 35  1  0  0  0  0
 14 19  1  0  0  0  0
 14 15  2  0  0  0  0
 15 16  1  0  0  0  0
 15 36  1  0  0  0  0
 16 17  2  0  0  0  0
 16 37  1  0  0  0  0
 17 18  1  0  0  0  0
 17 38  1  0  0  0  0
 18 19  2  0  0  0  0
M  END
> <s_m_source_file>
AV-unprocessed.smi

> <i_m_source_file_index>
613

> <i_lp_mmshare_version>
43012

> <i_f3d_flags>
0

> <s_epik_input>
bjFuW2NIXVtjSF1bY0hdYzFOKFtDSDNdKVtDSDJdW0NAQEhdMltDSDJdTihbQ0gyXVtDSDJdTzIpW0NIMl1DKD1PKVtOSDJd

> <s_epik_cmdline>
J2VwaWtfcHl0aG9uJywgJy1waCcsICc3LjAnLCAnLXRuJywgJzgnLCAnLW1hJywgJzIwMCcsICctbWV0YWxfYmluZGluZycsICctaW1hZScsICc8aW5maWxlLm1hZT4nLCAnLW9tYWUnLCAnPG91dGZpbGUubWFlPic=

> <r_lp_tautomer_probability>
1

> <r_epik_Ionization_Penalty>
0.0398875

> <r_epik_Ionization_Penalty_Charging>
0

> <r_epik_Ionization_Penalty_Neutral>
0.0398875

> <r_epik_State_Penalty>
0.0543012

> <r_epik_Charging_Adjusted_Penalty>
0.0543012

> <i_epik_Tot_Q>
0

> <i_epik_Tot_abs_Q>
0

> <r_epik_Metal_State_Penalty>
0.0489294

> <b_epik_Metal_Only>
0

> <s_lp_Force_Field>
OPLS_2005

> <r_lp_Energy>
25.1321

> <b_lp_Chiralities_Consistent>
1

> <s_lp_Variant>
AV-unprocessed.smi:613-2

> <Gold.Version>
5.8.1

> <Gold.Id.Protein>
6NUR|6NUR_protein|mol2

> <Gold.PLP.Fitness>
38.3444

> <Gold.PLP.PLP>
-35.4750

> <Gold.PLP.part.hbond>
-4.0448

> <Gold.PLP.part.metal>
0.0000

> <Gold.PLP.part.buried>
-3.9744

> <Gold.PLP.part.nonpolar>
-26.4906

> <Gold.PLP.part.repulsive>
0.3436

> <Gold.PLP.ligand.clash>
0.0000

> <Gold.PLP.ligand.torsion>
0.7554

> <Gold.PLP.Chemscore.Hbond>
1.4021

> <Gold.PLP.Chemscore.CHOScore>
0.0000

> <Gold.PLP.Chemscore.Metal>
0.0000

> <Gold.Chemscore.Hbonds>
donor molecule, donor type, donor heavy atom, donor atom, acceptor molecule, acceptor atom, score
      P1  H  6934  6946       L1    10  0.72
      P1  H  7989  7998       L1    13  0.67

> <Gold.PLP.Chemscore.Internal.Correction>
0.1739

> <Gold.Rescore>
     Score         DG    S(hbond)    S(metal)    S(lipo)     H(rot)  DE(clash)    DE(int)     intcor
     12.69     -13.43       1.37        0.00      76.71       2.18       0.09       0.66       ----

> <Gold.Chemscore.Fitness>
12.6866

> <Gold.Chemscore.DG>
-13.4307

> <Gold.Chemscore.ZeroCoef>
-5.4800

> <Gold.Chemscore.Hbond>
1.3660

> <Gold.Chemscore.Metal>
0.0000

> <Gold.Chemscore.Lipo>
76.7094

> <Gold.Chemscore.Internal_Hbond>
0.0000

> <Gold.Chemscore.DEClash>
0.0887

> <Gold.Chemscore.DEInternal>
0.6554

> <Gold.Chemscore.Rot>
2.1823

> <Gold.Chemscore.Internal.Correction>
   9.000000E+99

> <Gold.Chemscore.Hbonds>
donor molecule, donor type, donor heavy atom, donor atom, acceptor molecule, acceptor atom, score
      P1  H  6934  6946       L1    10  0.71
      P1  H  7989  7998       L1    13  0.54

> <Gold.Chemscore.Hbond.Weighted>
-4.5624

> <Gold.Chemscore.Metal.Weighted>
-0.0000

> <Gold.Chemscore.Lipo.Weighted>
-8.9750

> <Gold.Chemscore.Internal_Hbond.Weighted>
0.0000

> <Gold.Chemscore.DEClash.Weighted>
0.0887

> <Gold.Chemscore.DEInternal.Weighted>
0.6554

> <Gold.Chemscore.Rot.Weighted>
5.5867

> <Gold.Chemscore.Internal.Correction.Weighted>
   9.000000E+99

> <Gold.Protein.RotatedTorsions>
[ 6907 6896 6895 6894 ] final -120.09 input  -60.11 | X-H torsion
[ 7974 7965 7964 7962 ] final -129.66 input  175.53 | X-H torsion
[ 8008 7997 7996 7995 ] final  143.45 input   59.86 | X-H torsion
[ 10167 10162 10161 10158 ] final  149.02 input  -65.29 | X-H torsion
[ 10718 10713 10712 10709 ] final  -75.92 input   66.30 | X-H torsion
[ 10763 10752 10751 10750 ] final    8.00 input  -60.55 | X-H torsion
[ 11005 11000 10999 10996 ] final   97.95 input  -57.11 | X-H torsion

> <Gold.Protein.ActiveResidues>
 VAL166  LYS551  ARG553  GLY616  TRP617  ASP618  TYR619  PRO620  LYS621  CYS622 
 ASP623  PHE694  ASN695  SER759  ASP760  ASP761  ALA762  ILE779  LEU786  VAL792 
 PHE793  MET794  SER795  GLU796  ALA797  LYS798  CYS799  TRP800  GLU811  SER814 

> <Gold.Protein.RotatedAtoms>
  150.8363  133.8009  159.3078 H   0  0  0  0  0  0  0  0  0  0  0  0  # atno 6907 bound_to 6896
  151.5724  135.1060  160.0007 H   0  0  0  0  0  0  0  0  0  0  0  0  # atno 6908 bound_to 6896
  152.4434  133.7449  159.6718 H   0  0  0  0  0  0  0  0  0  0  0  0  # atno 6909 bound_to 6896
  144.9550  140.7385  143.4764 H   0  0  0  0  0  0  0  0  0  0  0  0  # atno 7974 bound_to 7965
  156.2930  140.2262  156.4893 H   0  0  0  0  0  0  0  0  0  0  0  0  # atno 8008 bound_to 7997
  154.7785  140.0462  157.1129 H   0  0  0  0  0  0  0  0  0  0  0  0  # atno 8009 bound_to 7997
  154.9788  140.3076  155.4959 H   0  0  0  0  0  0  0  0  0  0  0  0  # atno 8010 bound_to 7997
  139.4867  144.5634  151.7189 H   0  0  0  0  0  0  0  0  0  0  0  0  # atno 10167 bound_to 10162
  156.0192  130.4452  150.3115 H   0  0  0  0  0  0  0  0  0  0  0  0  # atno 10718 bound_to 10713
  153.2300  135.6891  153.7901 H   0  0  0  0  0  0  0  0  0  0  0  0  # atno 10763 bound_to 10752
  153.7069  135.3288  155.3238 H   0  0  0  0  0  0  0  0  0  0  0  0  # atno 10764 bound_to 10752
  154.8309  135.4581  154.1181 H   0  0  0  0  0  0  0  0  0  0  0  0  # atno 10765 bound_to 10752
  139.8774  134.9026  156.4383 H   0  0  0  0  0  0  0  0  0  0  0  0  # atno 11005 bound_to 11000
  145.2786  139.1927  143.4803 LP  0  0  0  0  0  0  0  0  0  0  0  0  # atno 17320 bound_to 7965
  146.3334  140.2744  142.8607 LP  0  0  0  0  0  0  0  0  0  0  0  0  # atno 17321 bound_to 7965
  140.5208  144.0882  150.6022 LP  0  0  0  0  0  0  0  0  0  0  0  0  # atno 17342 bound_to 10162
  140.3839  143.2788  152.0138 LP  0  0  0  0  0  0  0  0  0  0  0  0  # atno 17343 bound_to 10162
  157.1217  131.0248  151.3006 LP  0  0  0  0  0  0  0  0  0  0  0  0  # atno 17370 bound_to 10713
  157.4623  130.7660  149.7247 LP  0  0  0  0  0  0  0  0  0  0  0  0  # atno 17371 bound_to 10713
  140.9017  133.7774  155.9688 LP  0  0  0  0  0  0  0  0  0  0  0  0  # atno 17394 bound_to 11000
  140.8643  134.2803  157.5220 LP  0  0  0  0  0  0  0  0  0  0  0  0  # atno 17395 bound_to 11000

$$$$
