AV-unprocessed.smi:170|AV-procd|sdf|1411|dock2
  -GOLD-   2262019173D 1   1.00000     0.00000
 Structure written by MMmdl.
 57 61  0  0  0  0  0  0  0  0  1 V2000
  147.2130  136.6893  162.8385 O   0  0  0  0  0  0  0  0  0  0  0  0
  146.3474  136.2853  161.7941 C   0  0  1  0  0  0  0  0  0  0  0  0
  147.1876  135.7258  160.6294 C   0  0  0  0  0  0  0  0  0  0  0  0
  147.4647  136.7258  159.6139 N   0  0  0  0  0  0  0  0  0  0  0  0
  146.5425  137.4625  158.9047 C   0  0  0  0  0  0  0  0  0  0  0  0
  147.0463  138.3086  158.0476 N   0  0  0  0  0  0  0  0  0  0  0  0
  148.4186  138.1386  158.1775 C   0  0  0  0  0  0  0  0  0  0  0  0
  149.5481  138.7378  157.5632 C   0  0  0  0  0  0  0  0  0  0  0  0
  149.4194  139.7157  156.6382 N   0  0  0  0  0  0  0  0  0  0  0  0
  148.9974  139.1831  155.3469 C   0  0  0  0  0  0  0  0  0  0  0  0
  148.6992  140.3301  154.3731 C   0  0  0  0  0  0  0  0  0  0  0  0
  149.8600  141.1408  154.2527 O   0  0  0  0  0  0  0  0  0  0  0  0
  150.2250  141.7351  155.4935 C   0  0  0  0  0  0  0  0  0  0  0  0
  150.5497  140.6490  156.5476 C   0  0  1  0  0  0  0  0  0  0  0  0
  150.9079  141.2776  157.9212 C   0  0  0  0  0  0  0  0  0  0  0  0
  152.1233  142.2023  157.8952 C   0  0  0  0  0  0  0  0  0  0  0  0
  152.6071  142.8695  159.1915 C   0  0  0  0  0  0  0  0  0  0  0  0
  152.9874  144.0990  158.3625 C   0  0  0  0  0  0  0  0  0  0  0  0
  151.9882  143.6153  157.3082 C   0  0  0  0  0  0  0  0  0  0  0  0
  150.7826  138.3211  157.9514 N   0  0  0  0  0  0  0  0  0  0  0  0
  150.9009  137.3715  158.8851 C   0  0  0  0  0  0  0  0  0  0  0  0
  149.9377  136.7257  159.5473 N   0  0  0  0  0  0  0  0  0  0  0  0
  148.7002  137.1473  159.1573 C   0  0  0  0  0  0  0  0  0  0  0  0
  145.3508  135.2484  162.3445 C   0  0  1  0  0  0  0  0  0  0  0  0
  144.1316  135.8507  163.0424 C   0  0  0  0  0  0  0  0  0  0  0  0
  143.1447  134.7079  162.9708 C   0  0  0  0  0  0  0  0  0  0  0  0
  143.4509  134.0986  161.6040 C   0  0  0  0  0  0  0  0  0  0  0  0
  144.7855  134.4849  161.2828 O   0  0  0  0  0  0  0  0  0  0  0  0
  148.1054  136.5585  162.5566 H   0  0  0  0  0  0  0  0  0  0  0  0
  145.7990  137.1644  161.4528 H   0  0  0  0  0  0  0  0  0  0  0  0
  148.1344  135.3278  160.9962 H   0  0  0  0  0  0  0  0  0  0  0  0
  146.6667  134.8961  160.1503 H   0  0  0  0  0  0  0  0  0  0  0  0
  145.4770  137.3516  159.0441 H   0  0  0  0  0  0  0  0  0  0  0  0
  149.7801  138.5447  154.9335 H   0  0  0  0  0  0  0  0  0  0  0  0
  148.1079  138.5642  155.4736 H   0  0  0  0  0  0  0  0  0  0  0  0
  148.4376  139.9342  153.3918 H   0  0  0  0  0  0  0  0  0  0  0  0
  147.8524  140.9270  154.7160 H   0  0  0  0  0  0  0  0  0  0  0  0
  151.0925  142.3681  155.3094 H   0  0  0  0  0  0  0  0  0  0  0  0
  149.4225  142.3880  155.8410 H   0  0  0  0  0  0  0  0  0  0  0  0
  151.4135  140.0853  156.1916 H   0  0  0  0  0  0  0  0  0  0  0  0
  150.0441  141.8234  158.3027 H   0  0  0  0  0  0  0  0  0  0  0  0
  151.0989  140.4891  158.6497 H   0  0  0  0  0  0  0  0  0  0  0  0
  152.9739  141.7170  157.4126 H   0  0  0  0  0  0  0  0  0  0  0  0
  151.7956  143.0701  159.8935 H   0  0  0  0  0  0  0  0  0  0  0  0
  153.4439  142.3670  159.6776 H   0  0  0  0  0  0  0  0  0  0  0  0
  152.7389  145.0557  158.8228 H   0  0  0  0  0  0  0  0  0  0  0  0
  154.0204  144.0715  158.0119 H   0  0  0  0  0  0  0  0  0  0  0  0
  152.3276  143.7157  156.2769 H   0  0  0  0  0  0  0  0  0  0  0  0
  150.9931  144.0416  157.4469 H   0  0  0  0  0  0  0  0  0  0  0  0
  151.9121  137.0908  159.1402 H   0  0  0  0  0  0  0  0  0  0  0  0
  145.8537  134.5589  163.0250 H   0  0  0  0  0  0  0  0  0  0  0  0
  144.3390  136.1714  164.0636 H   0  0  0  0  0  0  0  0  0  0  0  0
  143.7518  136.7076  162.4842 H   0  0  0  0  0  0  0  0  0  0  0  0
  143.3565  133.9845  163.7595 H   0  0  0  0  0  0  0  0  0  0  0  0
  142.1078  135.0291  163.0727 H   0  0  0  0  0  0  0  0  0  0  0  0
  143.3467  133.0133  161.6101 H   0  0  0  0  0  0  0  0  0  0  0  0
  142.7809  134.4986  160.8421 H   0  0  0  0  0  0  0  0  0  0  0  0
  1  2  1  0  0  0  0
  1 29  1  0  0  0  0
  2  3  1  0  0  0  0
  2 24  1  0  0  0  0
  2 30  1  0  0  0  0
  3  4  1  0  0  0  0
  3 31  1  0  0  0  0
  3 32  1  0  0  0  0
  4 23  1  0  0  0  0
  4  5  1  0  0  0  0
  5  6  2  0  0  0  0
  5 33  1  0  0  0  0
  6  7  1  0  0  0  0
  7 23  2  0  0  0  0
  7  8  1  0  0  0  0
  8  9  1  0  0  0  0
  8 20  2  0  0  0  0
  9 14  1  0  0  0  0
  9 10  1  0  0  0  0
 10 11  1  0  0  0  0
 10 34  1  0  0  0  0
 10 35  1  0  0  0  0
 11 12  1  0  0  0  0
 11 36  1  0  0  0  0
 11 37  1  0  0  0  0
 12 13  1  0  0  0  0
 13 14  1  0  0  0  0
 13 38  1  0  0  0  0
 13 39  1  0  0  0  0
 14 15  1  0  0  0  0
 14 40  1  0  0  0  0
 15 16  1  0  0  0  0
 15 41  1  0  0  0  0
 15 42  1  0  0  0  0
 16 19  1  0  0  0  0
 16 17  1  0  0  0  0
 16 43  1  0  0  0  0
 17 18  1  0  0  0  0
 17 44  1  0  0  0  0
 17 45  1  0  0  0  0
 18 19  1  0  0  0  0
 18 46  1  0  0  0  0
 18 47  1  0  0  0  0
 19 48  1  0  0  0  0
 19 49  1  0  0  0  0
 20 21  1  0  0  0  0
 21 22  2  0  0  0  0
 21 50  1  0  0  0  0
 22 23  1  0  0  0  0
 24 28  1  0  0  0  0
 24 25  1  0  0  0  0
 24 51  1  0  0  0  0
 25 26  1  0  0  0  0
 25 52  1  0  0  0  0
 25 53  1  0  0  0  0
 26 27  1  0  0  0  0
 26 54  1  0  0  0  0
 26 55  1  0  0  0  0
 27 28  1  0  0  0  0
 27 56  1  0  0  0  0
 27 57  1  0  0  0  0
M  END
> <s_m_source_file>
AV-unprocessed.smi

> <i_m_source_file_index>
170

> <i_lp_mmshare_version>
43012

> <i_f3d_flags>
0

> <s_epik_input>
TzFbQ0gyXVtDSDJdW0NIMl1bQ0BIXTFbQ0BIXShbT0hdKVtDSDJdbihbY0hdbjIpYyhjMjMpbltjSF1uYzNONFtDSDJdW0NIMl1PW0NIMl1bQ0BIXTRbQ0gyXVtDSF01W0NIMl1bQ0gyXVtDSDJdNQ==

> <s_epik_cmdline>
J2VwaWtfcHl0aG9uJywgJy1waCcsICc3LjAnLCAnLXRuJywgJzgnLCAnLW1hJywgJzIwMCcsICctbWV0YWxfYmluZGluZycsICctaW1hZScsICc8aW5maWxlLm1hZT4nLCAnLW9tYWUnLCAnPG91dGZpbGUubWFlPic=

> <r_lp_tautomer_probability>
1

> <r_epik_Ionization_Penalty>
4.98275e-05

> <r_epik_Ionization_Penalty_Charging>
0

> <r_epik_Ionization_Penalty_Neutral>
4.98275e-05

> <r_epik_State_Penalty>
-0

> <r_epik_Charging_Adjusted_Penalty>
0

> <i_epik_Tot_Q>
0

> <i_epik_Tot_abs_Q>
0

> <r_epik_Metal_State_Penalty>
-0

> <b_epik_Metal_Only>
0

> <s_lp_Force_Field>
OPLS_2005

> <r_lp_Energy>
51.0174

> <b_lp_Chiralities_Consistent>
1

> <s_lp_Variant>
AV-unprocessed.smi:170-6

> <Gold.Version>
5.8.1

> <Gold.Id.Protein>
6NUR|6NUR_protein|mol2

> <Gold.PLP.Fitness>
47.0312

> <Gold.PLP.PLP>
-44.8214

> <Gold.PLP.part.hbond>
-2.7711

> <Gold.PLP.part.metal>
0.0000

> <Gold.PLP.part.buried>
-5.2922

> <Gold.PLP.part.nonpolar>
-36.6091

> <Gold.PLP.part.repulsive>
0.1813

> <Gold.PLP.ligand.clash>
0.0000

> <Gold.PLP.ligand.torsion>
1.5615

> <Gold.PLP.Chemscore.Hbond>
1.6652

> <Gold.PLP.Chemscore.CHOScore>
0.0000

> <Gold.PLP.Chemscore.Metal>
0.0000

> <Gold.Chemscore.Hbonds>
donor molecule, donor type, donor heavy atom, donor atom, acceptor molecule, acceptor atom, score
      P1  H  6896  6908       L1    22  0.80
      P1  H  7989  7998       L1    12  0.46
      P1  H  8011  8017       L1    12  0.23

> <Gold.PLP.Chemscore.Internal.Correction>
0.3372

> <Gold.Rescore>
     Score         DG    S(hbond)    S(metal)    S(lipo)     H(rot)  DE(clash)    DE(int)     intcor
     14.47     -17.41       1.43        0.00     118.35       2.61       0.45       2.48       ----

> <Gold.Chemscore.Fitness>
14.4686

> <Gold.Chemscore.DG>
-17.4054

> <Gold.Chemscore.ZeroCoef>
-5.4800

> <Gold.Chemscore.Hbond>
1.4287

> <Gold.Chemscore.Metal>
0.0000

> <Gold.Chemscore.Lipo>
118.3451

> <Gold.Chemscore.Internal_Hbond>
0.0000

> <Gold.Chemscore.DEClash>
0.4546

> <Gold.Chemscore.DEInternal>
2.4822

> <Gold.Chemscore.Rot>
2.6144

> <Gold.Chemscore.Internal.Correction>
   9.000000E+99

> <Gold.Chemscore.Hbonds>
donor molecule, donor type, donor heavy atom, donor atom, acceptor molecule, acceptor atom, score
      P1  H  6896  6908       L1    22  0.11
      P1  H  7989  7998       L1    12  0.12
      P1  H  8011  8017       L1    12  0.19

> <Gold.Chemscore.Hbond.Weighted>
-4.7719

> <Gold.Chemscore.Metal.Weighted>
-0.0000

> <Gold.Chemscore.Lipo.Weighted>
-13.8464

> <Gold.Chemscore.Internal_Hbond.Weighted>
0.0000

> <Gold.Chemscore.DEClash.Weighted>
0.4546

> <Gold.Chemscore.DEInternal.Weighted>
2.4822

> <Gold.Chemscore.Rot.Weighted>
6.6929

> <Gold.Chemscore.Internal.Correction.Weighted>
   9.000000E+99

> <Gold.Protein.RotatedTorsions>
[ 6907 6896 6895 6894 ] final -158.57 input  -60.11 | X-H torsion
[ 7974 7965 7964 7962 ] final  -55.24 input  175.53 | X-H torsion
[ 8008 7997 7996 7995 ] final  110.37 input   59.86 | X-H torsion
[ 10167 10162 10161 10158 ] final -154.96 input  -65.29 | X-H torsion
[ 10718 10713 10712 10709 ] final   33.62 input   66.30 | X-H torsion
[ 10763 10752 10751 10750 ] final -127.86 input  -60.55 | X-H torsion
[ 11005 11000 10999 10996 ] final -158.66 input  -57.11 | X-H torsion

> <Gold.Protein.ActiveResidues>
 VAL166  LYS551  ARG553  GLY616  TRP617  ASP618  TYR619  PRO620  LYS621  CYS622 
 ASP623  PHE694  ASN695  SER759  ASP760  ASP761  ALA762  ILE779  LEU786  VAL792 
 PHE793  MET794  SER795  GLU796  ALA797  LYS798  CYS799  TRP800  GLU811  SER814 

> <Gold.Protein.RotatedAtoms>
  151.3202  133.4043  159.2653 H   0  0  0  0  0  0  0  0  0  0  0  0  # atno 6907 bound_to 6896
  151.0041  134.9346  159.7980 H   0  0  0  0  0  0  0  0  0  0  0  0  # atno 6908 bound_to 6896
  152.5283  134.3167  159.9186 H   0  0  0  0  0  0  0  0  0  0  0  0  # atno 6909 bound_to 6896
  145.8764  140.8177  142.9862 H   0  0  0  0  0  0  0  0  0  0  0  0  # atno 7974 bound_to 7965
  156.2047  140.3040  155.9602 H   0  0  0  0  0  0  0  0  0  0  0  0  # atno 8008 bound_to 7997
  155.2869  140.0440  157.3037 H   0  0  0  0  0  0  0  0  0  0  0  0  # atno 8009 bound_to 7997
  154.5618  140.2322  155.8333 H   0  0  0  0  0  0  0  0  0  0  0  0  # atno 8010 bound_to 7997
  139.6970  143.9326  152.2411 H   0  0  0  0  0  0  0  0  0  0  0  0  # atno 10167 bound_to 10162
  157.3001  130.7346  149.6662 H   0  0  0  0  0  0  0  0  0  0  0  0  # atno 10718 bound_to 10713
  154.8754  135.3948  154.3662 H   0  0  0  0  0  0  0  0  0  0  0  0  # atno 10763 bound_to 10752
  153.4428  135.7027  153.6163 H   0  0  0  0  0  0  0  0  0  0  0  0  # atno 10764 bound_to 10752
  153.4737  135.3784  155.2374 H   0  0  0  0  0  0  0  0  0  0  0  0  # atno 10765 bound_to 10752
  140.6511  134.4449  157.5235 H   0  0  0  0  0  0  0  0  0  0  0  0  # atno 11005 bound_to 11000
  144.6726  140.1317  143.7443 LP  0  0  0  0  0  0  0  0  0  0  0  0  # atno 17320 bound_to 7965
  145.9075  139.2467  143.1457 LP  0  0  0  0  0  0  0  0  0  0  0  0  # atno 17321 bound_to 7965
  139.9158  144.6829  150.8514 LP  0  0  0  0  0  0  0  0  0  0  0  0  # atno 17342 bound_to 10162
  140.7699  143.3410  151.2207 LP  0  0  0  0  0  0  0  0  0  0  0  0  # atno 17343 bound_to 10162
  155.9671  130.4282  150.4780 LP  0  0  0  0  0  0  0  0  0  0  0  0  # atno 17370 bound_to 10713
  157.2759  131.0597  151.2229 LP  0  0  0  0  0  0  0  0  0  0  0  0  # atno 17371 bound_to 10713
  139.9045  134.8479  156.1759 LP  0  0  0  0  0  0  0  0  0  0  0  0  # atno 17394 bound_to 11000
  141.0536  133.6876  156.1818 LP  0  0  0  0  0  0  0  0  0  0  0  0  # atno 17395 bound_to 11000

$$$$
