#       Name:                AV-unprocessed.smi:3209
#       Creating user name   scv26
#       Creation time:       Fri Mar 27 18:10:32 2020


#       File generated by GOLD software.
#

@<TRIPOS>MOLECULE
AV-unprocessed.smi:3209
    38    40     1
SMALL
NO_CHARGES


@<TRIPOS>ATOM
      1 ****        -3.6495   4.6665  -2.3366 C.3            1 S1                 0.0000
      2 ****        -3.4694   3.7182  -1.2008 C.2            1 S1                 0.0000
      3 ****        -2.9242   2.5056  -1.3295 N.2            1 S1                 0.0000
      4 ****        -2.8701   1.8076  -0.1192 C.2            1 S1                 0.0000
      5 ****        -2.2891   0.4268  -0.0817 C.3            1 S1                 0.0000
      6 ****        -0.7546   0.4423  -0.0832 C.3            1 S1                 0.0000
      7 ****        -0.2101  -0.9306  -0.0645 N.4            1 S1                 1.0000
      8 ****         1.2673  -1.0062  -0.0657 C.3            1 S1                 0.0000
      9 ****         1.8807  -0.6487   1.3084 C.3            1 S1                 0.0000
     10 ****         2.7014  -1.9040   1.6561 C.3            1 S1                 0.0000
     11 ****         3.9123  -2.0098   0.7105 C.3            1 S1                 0.0000
     12 ****         3.2641  -2.4177  -0.6263 C.3            1 S1                 0.0000
     13 ****         1.7634  -2.4531  -0.2798 C.3            1 S1                 0.0000
     14 ****         1.7961  -3.0148   1.1388 C.3            1 S1                 0.0000
     15 ****        -3.3806   2.5182   0.9388 C.2            1 S1                 0.0000
     16 ****        -3.9523   4.0899   0.4496 S.3            1 S1                 0.0000
     17 ****        -3.4555   4.1691  -3.2874 H              1 S1                 0.0000
     18 ****        -2.9616   5.5056  -2.2331 H              1 S1                 0.0000
     19 ****        -4.6704   5.0484  -2.3457 H              1 S1                 0.0000
     20 ****        -2.6469  -0.1015   0.8030 H              1 S1                 0.0000
     21 ****        -2.6475  -0.1470  -0.9376 H              1 S1                 0.0000
     22 ****        -0.3871   0.9586  -0.9711 H              1 S1                 0.0000
     23 ****        -0.3896   0.9936   0.7842 H              1 S1                 0.0000
     24 ****        -0.5580  -1.4159   0.7500 H              1 S1                 0.0000
     25 ****         1.6506  -0.3565  -0.8542 H              1 S1                 0.0000
     26 ****         2.4974   0.2498   1.2653 H              1 S1                 0.0000
     27 ****         1.1112  -0.4850   2.0646 H              1 S1                 0.0000
     28 ****         2.9634  -1.9764   2.7120 H              1 S1                 0.0000
     29 ****         4.4623  -1.0706   0.6378 H              1 S1                 0.0000
     30 ****         4.6068  -2.7794   1.0501 H              1 S1                 0.0000
     31 ****         3.4921  -1.7185  -1.4317 H              1 S1                 0.0000
     32 ****         3.6126  -3.4044  -0.9344 H              1 S1                 0.0000
     33 ****         1.1710  -3.0271  -0.9934 H              1 S1                 0.0000
     34 ****         2.2491  -4.0060   1.2021 H              1 S1                 0.0000
     35 ****         0.8177  -3.0377   1.6219 H              1 S1                 0.0000
     36 ****        -3.4565   2.2154   1.9728 H              1 S1                 0.0000
     37 ****        -0.5472  -1.4051  -0.8900 H              1 S1                 0.0000
     38 ****        -2.5909   2.1370  -2.1973 LP             1 S1                 0.0000
@<TRIPOS>BOND
    1    1    2 1     
    2    1   17 1     
    3    1   18 1     
    4    1   19 1     
    5    2   16 1     
    6    2    3 2     
    7    3    4 1     
    8    4    5 1     
    9    4   15 2     
   10    5    6 1     
   11    5   20 1     
   12    5   21 1     
   13    6    7 1     
   14    6   22 1     
   15    6   23 1     
   16    7    8 1     
   17    7   24 1     
   18    7   37 1     
   19    8   13 1     
   20    8    9 1     
   21    8   25 1     
   22    9   10 1     
   23    9   26 1     
   24    9   27 1     
   25   10   14 1     
   26   10   11 1     
   27   10   28 1     
   28   11   12 1     
   29   11   29 1     
   30   11   30 1     
   31   12   13 1     
   32   12   31 1     
   33   12   32 1     
   34   13   14 1     
   35   13   33 1     
   36   14   34 1     
   37   14   35 1     
   38   15   16 1     
   39   15   36 1     
   40    3   38 1     
@<TRIPOS>SUBSTRUCTURE
      1 S1             1
@<TRIPOS>SET
LONE_PAIRS      STATIC     ATOMS    <user>   **** ""
1 38
DONOR_HYDROGENS      STATIC     ATOMS    <user>   **** ""
2 24 37
ATOM$BLUE        STATIC     ATOMS    COLORGROUP SYSTEM
1 38
ATOM$RED        STATIC     ATOMS    COLORGROUP SYSTEM
2 24 37
