AV-unprocessed.smi:2195|AV-procd|sdf|8907|dock10
  -GOLD-   2272012123D 1   1.00000     0.00000
 Structure written by MMmdl.
 40 42  0  0  0  0  0  0  0  0  2 V2000
  146.4254  132.6178  162.8056 C   0  0  0  0  0  0  0  0  0  0  0  0
  147.2105  133.7529  162.1811 C   0  0  0  0  0  0  0  0  0  0  0  0
  147.5072  134.9087  162.9299 C   0  0  0  0  0  0  0  0  0  0  0  0
  148.2389  135.9603  162.3453 C   0  0  0  0  0  0  0  0  0  0  0  0
  148.6877  135.8748  161.0114 C   0  0  0  0  0  0  0  0  0  0  0  0
  149.3984  136.9491  160.5200 O   0  0  0  0  0  0  0  0  0  0  0  0
  149.9250  136.8616  159.2025 C   0  0  0  0  0  0  0  0  0  0  0  0
  149.7580  138.2201  158.5051 C   0  0  1  0  0  0  0  0  0  0  0  0
  148.4845  138.7376  158.8364 O   0  0  0  0  0  0  0  0  0  0  0  0
  150.8595  139.2238  158.9011 C   0  0  0  0  0  0  0  0  0  0  0  0
  150.6537  140.5571  158.3168 N   0  0  0  0  0  0  0  0  0  0  0  0
  149.8462  140.9386  157.2903 C   0  0  0  0  0  0  0  0  0  0  0  0
  150.0035  142.2804  157.1189 N   0  3  0  0  0  0  0  0  0  0  0  0
  150.9248  142.7645  158.0500 C   0  0  0  0  0  0  0  0  0  0  0  0
  151.4080  144.0512  158.2683 C   0  0  0  0  0  0  0  0  0  0  0  0
  152.3471  144.2064  159.3091 C   0  0  0  0  0  0  0  0  0  0  0  0
  152.7694  143.1089  160.0870 C   0  0  0  0  0  0  0  0  0  0  0  0
  152.2734  141.8088  159.8562 C   0  0  0  0  0  0  0  0  0  0  0  0
  151.3471  141.6627  158.8241 C   0  0  0  0  0  0  0  0  0  0  0  0
  148.3885  134.7073  160.2646 C   0  0  0  0  0  0  0  0  0  0  0  0
  147.6548  133.6557  160.8477 C   0  0  0  0  0  0  0  0  0  0  0  0
  145.8108  132.9743  163.6328 H   0  0  0  0  0  0  0  0  0  0  0  0
  147.1058  131.8560  163.1869 H   0  0  0  0  0  0  0  0  0  0  0  0
  145.7662  132.1540  162.0712 H   0  0  0  0  0  0  0  0  0  0  0  0
  147.1752  134.9937  163.9544 H   0  0  0  0  0  0  0  0  0  0  0  0
  148.4585  136.8426  162.9282 H   0  0  0  0  0  0  0  0  0  0  0  0
  150.9845  136.6045  159.2544 H   0  0  0  0  0  0  0  0  0  0  0  0
  149.4150  136.0830  158.6325 H   0  0  0  0  0  0  0  0  0  0  0  0
  149.7763  138.0693  157.4248 H   0  0  0  0  0  0  0  0  0  0  0  0
  148.5978  139.4304  159.4695 H   0  0  0  0  0  0  0  0  0  0  0  0
  150.9458  139.3134  159.9841 H   0  0  0  0  0  0  0  0  0  0  0  0
  151.8288  138.8695  158.5486 H   0  0  0  0  0  0  0  0  0  0  0  0
  149.1979  140.2931  156.7153 H   0  0  0  0  0  0  0  0  0  0  0  0
  151.0845  144.8942  157.6755 H   0  0  0  0  0  0  0  0  0  0  0  0
  152.7506  145.1869  159.5162 H   0  0  0  0  0  0  0  0  0  0  0  0
  153.4877  143.2669  160.8784 H   0  0  0  0  0  0  0  0  0  0  0  0
  152.5992  140.9764  160.4622 H   0  0  0  0  0  0  0  0  0  0  0  0
  148.7112  134.5919  159.2411 H   0  0  0  0  0  0  0  0  0  0  0  0
  147.4347  132.7725  160.2662 H   0  0  0  0  0  0  0  0  0  0  0  0
  149.5160  142.8235  156.4178 H   0  0  0  0  0  0  0  0  0  0  0  0
  1  2  1  0  0  0  0
  1 22  1  0  0  0  0
  1 23  1  0  0  0  0
  1 24  1  0  0  0  0
  2 21  1  0  0  0  0
  2  3  2  0  0  0  0
  3  4  1  0  0  0  0
  3 25  1  0  0  0  0
  4  5  2  0  0  0  0
  4 26  1  0  0  0  0
  5  6  1  0  0  0  0
  5 20  1  0  0  0  0
  6  7  1  0  0  0  0
  7  8  1  0  0  0  0
  7 27  1  0  0  0  0
  7 28  1  0  0  0  0
  8  9  1  0  0  0  0
  8 10  1  0  0  0  0
  8 29  1  0  0  0  0
  9 30  1  0  0  0  0
 10 11  1  0  0  0  0
 10 31  1  0  0  0  0
 10 32  1  0  0  0  0
 11 19  1  0  0  0  0
 11 12  1  0  0  0  0
 12 13  2  0  0  0  0
 12 33  1  0  0  0  0
 13 14  1  0  0  0  0
 13 40  1  0  0  0  0
 14 19  2  0  0  0  0
 14 15  1  0  0  0  0
 15 16  2  0  0  0  0
 15 34  1  0  0  0  0
 16 17  1  0  0  0  0
 16 35  1  0  0  0  0
 17 18  2  0  0  0  0
 17 36  1  0  0  0  0
 18 19  1  0  0  0  0
 18 37  1  0  0  0  0
 20 21  2  0  0  0  0
 20 38  1  0  0  0  0
 21 39  1  0  0  0  0
M  CHG  1  13   1
M  END
> <s_m_source_file>
AV-unprocessed.smi

> <i_m_source_file_index>
2195

> <i_lp_mmshare_version>
43012

> <i_f3d_flags>
0

> <s_epik_input>
W0NIM11jMVtjSF1bY0hdYyhbY0hdW2NIXTEpT1tDSDJdW0NASF0oW09IXSlbQ0gyXW4oW2NIXW4yKWMoYzIzKVtjSF1bY0hdW2NIXVtjSF0z

> <s_epik_cmdline>
J2VwaWtfcHl0aG9uJywgJy1waCcsICc3LjAnLCAnLXRuJywgJzgnLCAnLW1hJywgJzIwMCcsICctbWV0YWxfYmluZGluZycsICctaW1hZScsICc8aW5maWxlLm1hZT4nLCAnLW9tYWUnLCAnPG91dGZpbGUubWFlPic=

> <r_lp_tautomer_probability>
1

> <r_epik_Ionization_Penalty>
1.3774

> <r_epik_Ionization_Penalty_Charging>
1.37739

> <r_epik_Ionization_Penalty_Neutral>
2.3993e-06

> <r_epik_State_Penalty>
1.45762

> <r_epik_Charging_Adjusted_Penalty>
2.83501

> <i_epik_Tot_Q>
1

> <i_epik_Tot_abs_Q>
1

> <r_epik_Metal_State_Penalty>
5.49752

> <b_epik_Metal_Only>
0

> <s_lp_Force_Field>
OPLS_2005

> <r_lp_Energy>
19.9339

> <b_lp_Chiralities_Consistent>
1

> <s_lp_Variant>
AV-unprocessed.smi:2195-4

> <Gold.Version>
5.8.1

> <Gold.Id.Protein>
6NUR|6NUR_protein|mol2

> <Gold.PLP.Fitness>
54.1082

> <Gold.PLP.PLP>
-48.2195

> <Gold.PLP.part.hbond>
-3.1723

> <Gold.PLP.part.metal>
0.0000

> <Gold.PLP.part.buried>
-5.5591

> <Gold.PLP.part.nonpolar>
-40.9512

> <Gold.PLP.part.repulsive>
0.0326

> <Gold.PLP.ligand.clash>
0.0000

> <Gold.PLP.ligand.torsion>
0.6955

> <Gold.PLP.Chemscore.Hbond>
2.4096

> <Gold.PLP.Chemscore.CHOScore>
0.0000

> <Gold.PLP.Chemscore.Metal>
0.0000

> <Gold.Chemscore.Hbonds>
donor molecule, donor type, donor heavy atom, donor atom, acceptor molecule, acceptor atom, score
      L1  H    13    40       P1  8028  1.45
      P1  H  6931  6943       L1     6  0.59

> <Gold.PLP.Chemscore.Internal.Correction>
0.0510

> <Gold.Rescore>
     Score         DG    S(hbond)    S(metal)    S(lipo)     H(rot)  DE(clash)    DE(int)     intcor
     16.55     -17.27       1.08        0.00     119.59       2.27       0.02       0.70       ----

> <Gold.Chemscore.Fitness>
16.5513

> <Gold.Chemscore.DG>
-17.2657

> <Gold.Chemscore.ZeroCoef>
-5.4800

> <Gold.Chemscore.Hbond>
1.0810

> <Gold.Chemscore.Metal>
0.0000

> <Gold.Chemscore.Lipo>
119.5899

> <Gold.Chemscore.Internal_Hbond>
0.0000

> <Gold.Chemscore.DEClash>
0.0164

> <Gold.Chemscore.DEInternal>
0.6980

> <Gold.Chemscore.Rot>
2.2723

> <Gold.Chemscore.Internal.Correction>
   9.000000E+99

> <Gold.Chemscore.Hbonds>
donor molecule, donor type, donor heavy atom, donor atom, acceptor molecule, acceptor atom, score
      L1  H    13    40       P1  8028  0.69
      P1  H  6931  6943       L1     6  0.17

> <Gold.Chemscore.Hbond.Weighted>
-3.6107

> <Gold.Chemscore.Metal.Weighted>
-0.0000

> <Gold.Chemscore.Lipo.Weighted>
-13.9920

> <Gold.Chemscore.Internal_Hbond.Weighted>
0.0000

> <Gold.Chemscore.DEClash.Weighted>
0.0164

> <Gold.Chemscore.DEInternal.Weighted>
0.6980

> <Gold.Chemscore.Rot.Weighted>
5.8170

> <Gold.Chemscore.Internal.Correction.Weighted>
   9.000000E+99

> <Gold.Protein.RotatedTorsions>
[ 6907 6896 6895 6894 ] final -127.88 input  -60.11 | X-H torsion
[ 7974 7965 7964 7962 ] final  -73.39 input  175.53 | X-H torsion
[ 8008 7997 7996 7995 ] final  -11.66 input   59.86 | X-H torsion
[ 10167 10162 10161 10158 ] final   77.72 input  -65.29 | X-H torsion
[ 10718 10713 10712 10709 ] final  -53.76 input   66.30 | X-H torsion
[ 10763 10752 10751 10750 ] final -178.71 input  -60.55 | X-H torsion
[ 11005 11000 10999 10996 ] final -140.91 input  -57.11 | X-H torsion

> <Gold.Protein.ActiveResidues>
 VAL166  LYS551  ARG553  GLY616  TRP617  ASP618  TYR619  PRO620  LYS621  CYS622 
 ASP623  PHE694  ASN695  SER759  ASP760  ASP761  ALA762  ILE779  LEU786  VAL792 
 PHE793  MET794  SER795  GLU796  ALA797  LYS798  CYS799  TRP800  GLU811  SER814 

> <Gold.Protein.RotatedAtoms>
  150.9120  133.6986  159.2852 H   0  0  0  0  0  0  0  0  0  0  0  0  # atno 6907 bound_to 6896
  151.4470  135.1025  159.9696 H   0  0  0  0  0  0  0  0  0  0  0  0  # atno 6908 bound_to 6896
  152.4934  133.8515  159.7259 H   0  0  0  0  0  0  0  0  0  0  0  0  # atno 6909 bound_to 6896
  145.6527  140.9277  143.0976 H   0  0  0  0  0  0  0  0  0  0  0  0  # atno 7974 bound_to 7965
  154.5445  140.2296  155.8586 H   0  0  0  0  0  0  0  0  0  0  0  0  # atno 8008 bound_to 7997
  156.1890  140.3082  155.9256 H   0  0  0  0  0  0  0  0  0  0  0  0  # atno 8009 bound_to 7997
  155.3192  140.0439  157.3029 H   0  0  0  0  0  0  0  0  0  0  0  0  # atno 8010 bound_to 7997
  139.9786  144.5843  150.7921 H   0  0  0  0  0  0  0  0  0  0  0  0  # atno 10167 bound_to 10162
  156.1508  130.4151  149.9948 H   0  0  0  0  0  0  0  0  0  0  0  0  # atno 10718 bound_to 10713
  154.5443  135.2808  155.1067 H   0  0  0  0  0  0  0  0  0  0  0  0  # atno 10763 bound_to 10752
  154.2538  135.6334  153.5253 H   0  0  0  0  0  0  0  0  0  0  0  0  # atno 10764 bound_to 10752
  152.9986  135.5589  154.5991 H   0  0  0  0  0  0  0  0  0  0  0  0  # atno 10765 bound_to 10752
  140.8376  134.2441  157.4826 H   0  0  0  0  0  0  0  0  0  0  0  0  # atno 11005 bound_to 11000
  144.7117  139.8348  143.7412 LP  0  0  0  0  0  0  0  0  0  0  0  0  # atno 17320 bound_to 7965
  146.1190  139.4205  143.0240 LP  0  0  0  0  0  0  0  0  0  0  0  0  # atno 17321 bound_to 7965
  140.7497  143.2943  151.3246 LP  0  0  0  0  0  0  0  0  0  0  0  0  # atno 17342 bound_to 10162
  139.6427  144.0509  152.2567 LP  0  0  0  0  0  0  0  0  0  0  0  0  # atno 17343 bound_to 10162
  156.7807  130.9220  151.3646 LP  0  0  0  0  0  0  0  0  0  0  0  0  # atno 17370 bound_to 10713
  157.6655  130.9004  149.9923 LP  0  0  0  0  0  0  0  0  0  0  0  0  # atno 17371 bound_to 10713
  139.8704  134.9619  156.4410 LP  0  0  0  0  0  0  0  0  0  0  0  0  # atno 17394 bound_to 11000
  140.8930  133.7834  155.9593 LP  0  0  0  0  0  0  0  0  0  0  0  0  # atno 17395 bound_to 11000

$$$$
