AV-unprocessed.smi:2931|AV-procd|sdf|11245|dock8
  -GOLD-   2272016143D 1   1.00000     0.00000
 Structure written by MMmdl.
 42 43  0  0  0  0  0  0  0  0  2 V2000
  145.7970  132.1765  149.4331 C   0  0  0  0  0  0  0  0  0  0  0  0
  146.4771  131.8272  150.6989 N   0  3  2  0  0  0  0  0  0  0  0  0
  145.6539  130.9396  151.5575 C   0  0  0  0  0  0  0  0  0  0  0  0
  146.4411  130.4914  152.8001 C   0  0  0  0  0  0  0  0  0  0  0  0
  146.9589  131.7007  153.5912 C   0  0  0  0  0  0  0  0  0  0  0  0
  147.7780  132.6239  152.6714 C   0  0  2  0  0  0  0  0  0  0  0  0
  148.2073  133.8203  153.3890 N   0  0  0  0  0  0  0  0  0  0  0  0
  148.7026  133.8320  154.6343 C   0  0  0  0  0  0  0  0  0  0  0  0
  148.8320  132.8260  155.3317 O   0  0  0  0  0  0  0  0  0  0  0  0
  149.0569  135.0673  155.0178 N   0  0  0  0  0  0  0  0  0  0  0  0
  149.6984  135.4068  156.2862 C   0  0  0  0  0  0  0  0  0  0  0  0
  151.1040  136.0061  156.0855 C   0  0  0  0  0  0  0  0  0  0  0  0
  151.0904  137.4510  155.6156 C   0  0  0  0  0  0  0  0  0  0  0  0
  150.1759  137.8766  154.6305 C   0  0  0  0  0  0  0  0  0  0  0  0
  150.1834  139.2325  154.2471 C   0  0  0  0  0  0  0  0  0  0  0  0
  151.0269  140.1472  154.7725 N   0  0  0  0  0  0  0  0  0  0  0  0
  151.9047  139.7308  155.7103 C   0  0  0  0  0  0  0  0  0  0  0  0
  151.9772  138.3995  156.1667 C   0  0  0  0  0  0  0  0  0  0  0  0
  146.9536  133.0256  151.4338 C   0  0  0  0  0  0  0  0  0  0  0  0
  144.8912  132.7544  149.6215 H   0  0  0  0  0  0  0  0  0  0  0  0
  145.5211  131.2764  148.8831 H   0  0  0  0  0  0  0  0  0  0  0  0
  146.4537  132.7677  148.7940 H   0  0  0  0  0  0  0  0  0  0  0  0
  144.7437  131.4616  151.8573 H   0  0  0  0  0  0  0  0  0  0  0  0
  145.3441  130.0628  150.9873 H   0  0  0  0  0  0  0  0  0  0  0  0
  145.8112  129.8711  153.4381 H   0  0  0  0  0  0  0  0  0  0  0  0
  147.2819  129.8666  152.4950 H   0  0  0  0  0  0  0  0  0  0  0  0
  146.1158  132.2480  154.0151 H   0  0  0  0  0  0  0  0  0  0  0  0
  147.5661  131.3621  154.4316 H   0  0  0  0  0  0  0  0  0  0  0  0
  148.6594  132.0810  152.3229 H   0  0  0  0  0  0  0  0  0  0  0  0
  148.1392  134.6994  152.8971 H   0  0  0  0  0  0  0  0  0  0  0  0
  148.9042  135.8276  154.3714 H   0  0  0  0  0  0  0  0  0  0  0  0
  149.0660  136.1271  156.8052 H   0  0  0  0  0  0  0  0  0  0  0  0
  149.7551  134.5322  156.9366 H   0  0  0  0  0  0  0  0  0  0  0  0
  151.6664  135.9390  157.0177 H   0  0  0  0  0  0  0  0  0  0  0  0
  151.6551  135.4095  155.3578 H   0  0  0  0  0  0  0  0  0  0  0  0
  149.4761  137.1842  154.1863 H   0  0  0  0  0  0  0  0  0  0  0  0
  149.4916  139.5926  153.5000 H   0  0  0  0  0  0  0  0  0  0  0  0
  152.5675  140.4825  156.1128 H   0  0  0  0  0  0  0  0  0  0  0  0
  152.6929  138.1190  156.9253 H   0  0  0  0  0  0  0  0  0  0  0  0
  147.5672  133.6355  150.7688 H   0  0  0  0  0  0  0  0  0  0  0  0
  146.0979  133.6368  151.7265 H   0  0  0  0  0  0  0  0  0  0  0  0
  147.3002  131.2994  150.4454 H   0  0  0  0  0  0  0  0  0  0  0  0
  1  2  1  0  0  0  0
  1 20  1  0  0  0  0
  1 21  1  0  0  0  0
  1 22  1  0  0  0  0
  2 19  1  0  0  0  0
  2  3  1  0  0  0  0
  2 42  1  0  0  0  0
  3  4  1  0  0  0  0
  3 23  1  0  0  0  0
  3 24  1  0  0  0  0
  4  5  1  0  0  0  0
  4 25  1  0  0  0  0
  4 26  1  0  0  0  0
  5  6  1  0  0  0  0
  5 27  1  0  0  0  0
  5 28  1  0  0  0  0
  6  7  1  0  0  0  0
  6 19  1  0  0  0  0
  6 29  1  0  0  0  0
  7  8  1  0  0  0  0
  7 30  1  0  0  0  0
  8  9  2  0  0  0  0
  8 10  1  0  0  0  0
 10 11  1  0  0  0  0
 10 31  1  0  0  0  0
 11 12  1  0  0  0  0
 11 32  1  0  0  0  0
 11 33  1  0  0  0  0
 12 13  1  0  0  0  0
 12 34  1  0  0  0  0
 12 35  1  0  0  0  0
 13 18  1  0  0  0  0
 13 14  2  0  0  0  0
 14 15  1  0  0  0  0
 14 36  1  0  0  0  0
 15 16  2  0  0  0  0
 15 37  1  0  0  0  0
 16 17  1  0  0  0  0
 17 18  2  0  0  0  0
 17 38  1  0  0  0  0
 18 39  1  0  0  0  0
 19 40  1  0  0  0  0
 19 41  1  0  0  0  0
M  CHG  1   2   1
M  END
> <s_m_source_file>
AV-unprocessed.smi

> <i_m_source_file_index>
2931

> <i_lp_mmshare_version>
43012

> <i_f3d_flags>
0

> <s_epik_input>
W0NIM11OMVtDSDJdW0NIMl1bQ0gyXVtDQEhdKFtDSDJdMSlbTkhdQyg9TylbTkhdW0NIMl1bQ0gyXWMyW2NIXVtjSF1uW2NIXVtjSF0y

> <s_epik_cmdline>
J2VwaWtfcHl0aG9uJywgJy1waCcsICc3LjAnLCAnLXRuJywgJzgnLCAnLW1hJywgJzIwMCcsICctbWV0YWxfYmluZGluZycsICctaW1hZScsICc8aW5maWxlLm1hZT4nLCAnLW9tYWUnLCAnPG91dGZpbGUubWFlPic=

> <r_epik_Ionization_Penalty>
0.0573876

> <r_epik_Ionization_Penalty_Charging>
0.00229982

> <r_epik_Ionization_Penalty_Neutral>
0.0550878

> <r_epik_State_Penalty>
0.0473925

> <r_epik_Charging_Adjusted_Penalty>
0.0496923

> <i_epik_Tot_Q>
1

> <i_epik_Tot_abs_Q>
1

> <r_epik_Metal_State_Penalty>
0.0433388

> <b_epik_Metal_Only>
0

> <s_lp_Force_Field>
OPLS_2005

> <r_lp_Energy>
13.2125

> <b_lp_Chiralities_Consistent>
1

> <s_lp_Variant>
AV-unprocessed.smi:2931-4

> <Gold.Version>
5.8.1

> <Gold.Id.Protein>
6NUR|6NUR_protein|mol2

> <Gold.PLP.Fitness>
43.6172

> <Gold.PLP.PLP>
-32.6316

> <Gold.PLP.part.hbond>
-2.9780

> <Gold.PLP.part.metal>
0.0000

> <Gold.PLP.part.buried>
-2.2755

> <Gold.PLP.part.nonpolar>
-27.4837

> <Gold.PLP.part.repulsive>
0.1563

> <Gold.PLP.ligand.clash>
0.0000

> <Gold.PLP.ligand.torsion>
0.5001

> <Gold.PLP.Chemscore.Hbond>
2.9920

> <Gold.PLP.Chemscore.CHOScore>
1.0000

> <Gold.PLP.Chemscore.Metal>
0.0000

> <Gold.Chemscore.Hbonds>
donor molecule, donor type, donor heavy atom, donor atom, acceptor molecule, acceptor atom, score
      L1  H     2    42       P1 10747  1.00
      L1  H     7    30       P1  7948  1.00
      P1  H  7989  7998       L1    16  1.00
      L1  C    15    37       P1  7957  1.00

> <Gold.PLP.Chemscore.Internal.Correction>
0.0097

> <Gold.Rescore>
     Score         DG    S(hbond)    S(metal)    S(lipo)     H(rot)  DE(clash)    DE(int)     intcor
     16.36     -19.49       2.28        0.00      88.87       1.56       0.26       2.86       ----

> <Gold.Chemscore.Fitness>
16.3633

> <Gold.Chemscore.DG>
-19.4876

> <Gold.Chemscore.ZeroCoef>
-5.4800

> <Gold.Chemscore.Hbond>
2.2760

> <Gold.Chemscore.Metal>
0.0000

> <Gold.Chemscore.Lipo>
88.8653

> <Gold.Chemscore.Internal_Hbond>
0.0000

> <Gold.Chemscore.DEClash>
0.2628

> <Gold.Chemscore.DEInternal>
2.8615

> <Gold.Chemscore.Rot>
1.5592

> <Gold.Chemscore.Internal.Correction>
   9.000000E+99

> <Gold.Chemscore.Hbonds>
donor molecule, donor type, donor heavy atom, donor atom, acceptor molecule, acceptor atom, score
      L1  H     2    42       P1 10747  1.00
      L1  H     7    30       P1  7948  0.65
      L1  H    10    31       P1  7948  0.01
      P1  H  7989  7998       L1    16  0.41

> <Gold.Chemscore.Hbond.Weighted>
-7.6019

> <Gold.Chemscore.Metal.Weighted>
-0.0000

> <Gold.Chemscore.Lipo.Weighted>
-10.3972

> <Gold.Chemscore.Internal_Hbond.Weighted>
0.0000

> <Gold.Chemscore.DEClash.Weighted>
0.2628

> <Gold.Chemscore.DEInternal.Weighted>
2.8615

> <Gold.Chemscore.Rot.Weighted>
3.9915

> <Gold.Chemscore.Internal.Correction.Weighted>
   9.000000E+99

> <Gold.Protein.RotatedTorsions>
[ 6907 6896 6895 6894 ] final   75.49 input  -60.11 | X-H torsion
[ 7974 7965 7964 7962 ] final  -72.38 input  175.53 | X-H torsion
[ 8008 7997 7996 7995 ] final  -49.22 input   59.86 | X-H torsion
[ 10167 10162 10161 10158 ] final   37.49 input  -65.29 | X-H torsion
[ 10718 10713 10712 10709 ] final  -54.07 input   66.30 | X-H torsion
[ 10763 10752 10751 10750 ] final -171.99 input  -60.55 | X-H torsion
[ 11005 11000 10999 10996 ] final  -78.07 input  -57.11 | X-H torsion

> <Gold.Protein.ActiveResidues>
 VAL166  LYS551  ARG553  GLY616  TRP617  ASP618  TYR619  PRO620  LYS621  CYS622 
 ASP623  PHE694  ASN695  SER759  ASP760  ASP761  ALA762  ILE779  LEU786  VAL792 
 PHE793  MET794  SER795  GLU796  ALA797  LYS798  CYS799  TRP800  GLU811  SER814 

> <Gold.Protein.RotatedAtoms>
  152.5028  134.4113  159.9449 H   0  0  0  0  0  0  0  0  0  0  0  0  # atno 6907 bound_to 6896
  151.4081  133.3730  159.2748 H   0  0  0  0  0  0  0  0  0  0  0  0  # atno 6908 bound_to 6896
  150.9312  134.8748  159.7611 H   0  0  0  0  0  0  0  0  0  0  0  0  # atno 6909 bound_to 6896
  145.6659  140.9237  143.0909 H   0  0  0  0  0  0  0  0  0  0  0  0  # atno 7974 bound_to 7965
  154.4040  140.1302  156.4466 H   0  0  0  0  0  0  0  0  0  0  0  0  # atno 8008 bound_to 7997
  155.7407  140.3490  155.5083 H   0  0  0  0  0  0  0  0  0  0  0  0  # atno 8009 bound_to 7997
  155.9042  140.1024  157.1318 H   0  0  0  0  0  0  0  0  0  0  0  0  # atno 8010 bound_to 7997
  140.4027  144.1701  150.6134 H   0  0  0  0  0  0  0  0  0  0  0  0  # atno 10167 bound_to 10162
  156.1481  130.4152  149.9990 H   0  0  0  0  0  0  0  0  0  0  0  0  # atno 10718 bound_to 10713
  154.6244  135.2879  155.0289 H   0  0  0  0  0  0  0  0  0  0  0  0  # atno 10763 bound_to 10752
  154.1473  135.6509  153.4959 H   0  0  0  0  0  0  0  0  0  0  0  0  # atno 10764 bound_to 10752
  153.0250  135.5347  154.7046 H   0  0  0  0  0  0  0  0  0  0  0  0  # atno 10765 bound_to 10752
  141.1663  133.7048  156.7916 H   0  0  0  0  0  0  0  0  0  0  0  0  # atno 11005 bound_to 11000
  144.7073  139.8510  143.7426 LP  0  0  0  0  0  0  0  0  0  0  0  0  # atno 17320 bound_to 7965
  146.1086  139.4088  143.0302 LP  0  0  0  0  0  0  0  0  0  0  0  0  # atno 17321 bound_to 7965
  140.4722  143.2409  151.9073 LP  0  0  0  0  0  0  0  0  0  0  0  0  # atno 17342 bound_to 10162
  139.4784  144.5358  151.8601 LP  0  0  0  0  0  0  0  0  0  0  0  0  # atno 17343 bound_to 10162
  156.7855  130.9237  151.3646 LP  0  0  0  0  0  0  0  0  0  0  0  0  # atno 17370 bound_to 10713
  157.6634  130.8986  149.9879 LP  0  0  0  0  0  0  0  0  0  0  0  0  # atno 17371 bound_to 10713
  140.2321  134.8678  157.3487 LP  0  0  0  0  0  0  0  0  0  0  0  0  # atno 17394 bound_to 11000
  140.1881  134.4406  155.7732 LP  0  0  0  0  0  0  0  0  0  0  0  0  # atno 17395 bound_to 11000

$$$$
