AV-unprocessed.smi:1752|AV-procd|sdf|7061|dock3
  -GOLD-   22720 8273D 1   1.00000     0.00000
 Structure written by MMmdl.
 43 44  0  0  0  0  0  0  0  0  2 V2000
  152.5525  138.9756  159.5095 C   0  0  0  0  0  0  0  0  0  0  0  0
  151.9366  140.3483  159.1929 C   0  0  1  0  0  0  0  0  0  0  0  0
  152.9382  141.5147  159.3424 C   0  0  0  0  0  0  0  0  0  0  0  0
  152.3134  142.8151  159.1804 N   0  0  0  0  0  0  0  0  0  0  0  0
  152.6650  144.0109  159.7702 C   0  0  0  0  0  0  0  0  0  0  0  0
  151.7923  144.9587  159.3179 C   0  0  0  0  0  0  0  0  0  0  0  0
  150.9299  144.2359  158.4469 C   0  0  0  0  0  0  0  0  0  0  0  0
  151.2429  142.9526  158.3681 N   0  0  0  0  0  0  0  0  0  0  0  0
  151.3905  140.3239  157.8389 N   0  0  0  0  0  0  0  0  0  0  0  0
  152.0251  139.8629  156.7466 C   0  0  0  0  0  0  0  0  0  0  0  0
  153.1760  139.4257  156.7874 O   0  0  0  0  0  0  0  0  0  0  0  0
  151.3180  139.9775  155.5942 N   0  0  0  0  0  0  0  0  0  0  0  0
  150.0995  140.8058  155.4514 C   0  0  0  0  0  0  0  0  0  0  0  0
  149.0641  140.2416  154.4496 C   0  0  0  0  0  0  0  0  0  0  0  0
  148.5619  138.8139  154.7579 C   0  0  0  0  0  0  0  0  0  0  0  0
  149.6162  137.8514  155.1777 N   0  3  1  0  0  0  0  0  0  0  0  0
  149.0688  136.4916  155.3787 C   0  0  0  0  0  0  0  0  0  0  0  0
  150.8472  137.8449  154.3422 C   0  0  0  0  0  0  0  0  0  0  0  0
  151.6677  139.1545  154.4237 C   0  0  0  0  0  0  0  0  0  0  0  0
  152.8920  138.9180  160.5440 H   0  0  0  0  0  0  0  0  0  0  0  0
  153.4085  138.7675  158.8668 H   0  0  0  0  0  0  0  0  0  0  0  0
  151.8250  138.1763  159.3650 H   0  0  0  0  0  0  0  0  0  0  0  0
  151.1143  140.5040  159.8939 H   0  0  0  0  0  0  0  0  0  0  0  0
  153.4228  141.4740  160.3197 H   0  0  0  0  0  0  0  0  0  0  0  0
  153.7331  141.4328  158.6000 H   0  0  0  0  0  0  0  0  0  0  0  0
  153.4991  144.0863  160.4526 H   0  0  0  0  0  0  0  0  0  0  0  0
  151.7727  146.0083  159.5708 H   0  0  0  0  0  0  0  0  0  0  0  0
  150.0913  144.6035  157.8736 H   0  0  0  0  0  0  0  0  0  0  0  0
  150.4583  140.6934  157.7215 H   0  0  0  0  0  0  0  0  0  0  0  0
  149.5883  140.9143  156.4094 H   0  0  0  0  0  0  0  0  0  0  0  0
  150.3977  141.8088  155.1439 H   0  0  0  0  0  0  0  0  0  0  0  0
  148.2019  140.9090  154.4317 H   0  0  0  0  0  0  0  0  0  0  0  0
  149.4499  140.2828  153.4314 H   0  0  0  0  0  0  0  0  0  0  0  0
  147.8254  138.8673  155.5605 H   0  0  0  0  0  0  0  0  0  0  0  0
  148.0380  138.4241  153.8840 H   0  0  0  0  0  0  0  0  0  0  0  0
  148.7376  136.0605  154.4331 H   0  0  0  0  0  0  0  0  0  0  0  0
  148.2187  136.5146  156.0611 H   0  0  0  0  0  0  0  0  0  0  0  0
  149.8201  135.8307  155.8120 H   0  0  0  0  0  0  0  0  0  0  0  0
  151.4870  137.0345  154.6948 H   0  0  0  0  0  0  0  0  0  0  0  0
  150.5996  137.6095  153.3062 H   0  0  0  0  0  0  0  0  0  0  0  0
  151.5367  139.7434  153.5163 H   0  0  0  0  0  0  0  0  0  0  0  0
  152.7329  138.9160  154.4112 H   0  0  0  0  0  0  0  0  0  0  0  0
  149.9198  138.1602  156.0904 H   0  0  0  0  0  0  0  0  0  0  0  0
  1  2  1  0  0  0  0
  1 20  1  0  0  0  0
  1 21  1  0  0  0  0
  1 22  1  0  0  0  0
  2  3  1  0  0  0  0
  2  9  1  0  0  0  0
  2 23  1  0  0  0  0
  3  4  1  0  0  0  0
  3 24  1  0  0  0  0
  3 25  1  0  0  0  0
  4  8  1  0  0  0  0
  4  5  1  0  0  0  0
  5  6  2  0  0  0  0
  5 26  1  0  0  0  0
  6  7  1  0  0  0  0
  6 27  1  0  0  0  0
  7  8  2  0  0  0  0
  7 28  1  0  0  0  0
  9 10  1  0  0  0  0
  9 29  1  0  0  0  0
 10 11  2  0  0  0  0
 10 12  1  0  0  0  0
 12 19  1  0  0  0  0
 12 13  1  0  0  0  0
 13 14  1  0  0  0  0
 13 30  1  0  0  0  0
 13 31  1  0  0  0  0
 14 15  1  0  0  0  0
 14 32  1  0  0  0  0
 14 33  1  0  0  0  0
 15 16  1  0  0  0  0
 15 34  1  0  0  0  0
 15 35  1  0  0  0  0
 16 17  1  0  0  0  0
 16 18  1  0  0  0  0
 16 43  1  0  0  0  0
 17 36  1  0  0  0  0
 17 37  1  0  0  0  0
 17 38  1  0  0  0  0
 18 19  1  0  0  0  0
 18 39  1  0  0  0  0
 18 40  1  0  0  0  0
 19 41  1  0  0  0  0
 19 42  1  0  0  0  0
M  CHG  1  16   1
M  END
> <s_m_source_file>
AV-unprocessed.smi

> <i_m_source_file_index>
1752

> <i_lp_mmshare_version>
43012

> <i_f3d_flags>
0

> <s_epik_input>
bjFbY0hdW2NIXVtjSF1uMVtDSDJdW0NAQEhdKFtDSDNdKVtOSF1DKD1PKU4yW0NIMl1bQ0gyXVtDSDJdTihbQ0gzXSlbQ0gyXVtDSDJdMg==

> <s_epik_cmdline>
J2VwaWtfcHl0aG9uJywgJy1waCcsICc3LjAnLCAnLXRuJywgJzgnLCAnLW1hJywgJzIwMCcsICctbWV0YWxfYmluZGluZycsICctaW1hZScsICc8aW5maWxlLm1hZT4nLCAnLW9tYWUnLCAnPG91dGZpbGUubWFlPic=

> <r_lp_tautomer_probability>
1

> <r_epik_Ionization_Penalty>
0.00208423

> <r_epik_Ionization_Penalty_Charging>
0.00203643

> <r_epik_Ionization_Penalty_Neutral>
4.77939e-05

> <r_epik_State_Penalty>
0.00139278

> <r_epik_Charging_Adjusted_Penalty>
0.00342922

> <i_epik_Tot_Q>
1

> <i_epik_Tot_abs_Q>
1

> <r_epik_Metal_State_Penalty>
-0

> <b_epik_Metal_Only>
0

> <s_lp_Force_Field>
OPLS_2005

> <r_lp_Energy>
45.7643

> <b_lp_Chiralities_Consistent>
1

> <s_lp_Variant>
AV-unprocessed.smi:1752-4

> <Gold.Version>
5.8.1

> <Gold.Id.Protein>
6NUR|6NUR_protein|mol2

> <Gold.PLP.Fitness>
42.9202

> <Gold.PLP.PLP>
-38.1164

> <Gold.PLP.part.hbond>
-0.9230

> <Gold.PLP.part.metal>
0.0000

> <Gold.PLP.part.buried>
-3.3884

> <Gold.PLP.part.nonpolar>
-34.9307

> <Gold.PLP.part.repulsive>
0.1418

> <Gold.PLP.ligand.clash>
0.0000

> <Gold.PLP.ligand.torsion>
0.7201

> <Gold.PLP.Chemscore.Hbond>
0.9913

> <Gold.PLP.Chemscore.CHOScore>
1.0669

> <Gold.PLP.Chemscore.Metal>
0.0000

> <Gold.Chemscore.Hbonds>
donor molecule, donor type, donor heavy atom, donor atom, acceptor molecule, acceptor atom, score
      P1  H  7997  8010       L1    11  0.63
      L1  C     7    28       P1  8028  0.75
      L1  C     7    28       P1  8029  0.33

> <Gold.PLP.Chemscore.Internal.Correction>
0.0695

> <Gold.Rescore>
     Score         DG    S(hbond)    S(metal)    S(lipo)     H(rot)  DE(clash)    DE(int)     intcor
     14.33     -16.61       1.00        0.00      97.59       1.41       0.33       1.95       ----

> <Gold.Chemscore.Fitness>
14.3317

> <Gold.Chemscore.DG>
-16.6125

> <Gold.Chemscore.ZeroCoef>
-5.4800

> <Gold.Chemscore.Hbond>
0.9972

> <Gold.Chemscore.Metal>
0.0000

> <Gold.Chemscore.Lipo>
97.5870

> <Gold.Chemscore.Internal_Hbond>
0.0000

> <Gold.Chemscore.DEClash>
0.3279

> <Gold.Chemscore.DEInternal>
1.9528

> <Gold.Chemscore.Rot>
1.4125

> <Gold.Chemscore.Internal.Correction>
   9.000000E+99

> <Gold.Chemscore.Hbonds>
donor molecule, donor type, donor heavy atom, donor atom, acceptor molecule, acceptor atom, score
      P1  H  7997  8010       L1    11  0.63

> <Gold.Chemscore.Hbond.Weighted>
-3.3307

> <Gold.Chemscore.Metal.Weighted>
-0.0000

> <Gold.Chemscore.Lipo.Weighted>
-11.4177

> <Gold.Chemscore.Internal_Hbond.Weighted>
0.0000

> <Gold.Chemscore.DEClash.Weighted>
0.3279

> <Gold.Chemscore.DEInternal.Weighted>
1.9528

> <Gold.Chemscore.Rot.Weighted>
3.6160

> <Gold.Chemscore.Internal.Correction.Weighted>
   9.000000E+99

> <Gold.Protein.RotatedTorsions>
[ 6907 6896 6895 6894 ] final  -20.06 input  -60.11 | X-H torsion
[ 7974 7965 7964 7962 ] final  -97.29 input  175.53 | X-H torsion
[ 8008 7997 7996 7995 ] final   70.26 input   59.86 | X-H torsion
[ 10167 10162 10161 10158 ] final  164.81 input  -65.29 | X-H torsion
[ 10718 10713 10712 10709 ] final  128.26 input   66.30 | X-H torsion
[ 10763 10752 10751 10750 ] final  155.45 input  -60.55 | X-H torsion
[ 11005 11000 10999 10996 ] final   -5.13 input  -57.11 | X-H torsion

> <Gold.Protein.ActiveResidues>
 VAL166  LYS551  ARG553  GLY616  TRP617  ASP618  TYR619  PRO620  LYS621  CYS622 
 ASP623  PHE694  ASN695  SER759  ASP760  ASP761  ALA762  ILE779  LEU786  VAL792 
 PHE793  MET794  SER795  GLU796  ALA797  LYS798  CYS799  TRP800  GLU811  SER814 

> <Gold.Protein.RotatedAtoms>
  151.2538  135.0631  159.9071 H   0  0  0  0  0  0  0  0  0  0  0  0  # atno 6907 bound_to 6896
  152.5376  134.0304  159.8032 H   0  0  0  0  0  0  0  0  0  0  0  0  # atno 6908 bound_to 6896
  151.0516  133.5570  159.2673 H   0  0  0  0  0  0  0  0  0  0  0  0  # atno 6909 bound_to 6896
  145.3357  140.9450  143.2636 H   0  0  0  0  0  0  0  0  0  0  0  0  # atno 7974 bound_to 7965
  155.7361  140.3491  155.5082 H   0  0  0  0  0  0  0  0  0  0  0  0  # atno 8008 bound_to 7997
  155.9137  140.1055  157.1281 H   0  0  0  0  0  0  0  0  0  0  0  0  # atno 8009 bound_to 7997
  154.4059  140.1263  156.4577 H   0  0  0  0  0  0  0  0  0  0  0  0  # atno 8010 bound_to 7997
  139.4895  144.4197  151.9201 H   0  0  0  0  0  0  0  0  0  0  0  0  # atno 10167 bound_to 10162
  157.5261  131.1098  150.9081 H   0  0  0  0  0  0  0  0  0  0  0  0  # atno 10718 bound_to 10713
  154.1685  135.2806  155.3088 H   0  0  0  0  0  0  0  0  0  0  0  0  # atno 10763 bound_to 10752
  154.6093  135.5504  153.7460 H   0  0  0  0  0  0  0  0  0  0  0  0  # atno 10764 bound_to 10752
  153.0171  135.6411  154.1825 H   0  0  0  0  0  0  0  0  0  0  0  0  # atno 10765 bound_to 10752
  140.6878  133.9098  155.8597 H   0  0  0  0  0  0  0  0  0  0  0  0  # atno 11005 bound_to 11000
  144.8829  139.4879  143.6714 LP  0  0  0  0  0  0  0  0  0  0  0  0  # atno 17320 bound_to 7965
  146.3028  139.7480  142.9079 LP  0  0  0  0  0  0  0  0  0  0  0  0  # atno 17321 bound_to 7965
  140.3641  144.2936  150.5929 LP  0  0  0  0  0  0  0  0  0  0  0  0  # atno 17342 bound_to 10162
  140.5377  143.2230  151.8136 LP  0  0  0  0  0  0  0  0  0  0  0  0  # atno 17343 bound_to 10162
  156.9677  130.5479  149.5289 LP  0  0  0  0  0  0  0  0  0  0  0  0  # atno 17370 bound_to 10713
  156.0388  130.5472  150.8719 LP  0  0  0  0  0  0  0  0  0  0  0  0  # atno 17371 bound_to 10713
  141.0266  134.0815  157.4061 LP  0  0  0  0  0  0  0  0  0  0  0  0  # atno 17394 bound_to 11000
  139.8932  135.0129  156.6888 LP  0  0  0  0  0  0  0  0  0  0  0  0  # atno 17395 bound_to 11000

$$$$
