AV-unprocessed.smi:2417|AV-procd|sdf|9549|dock9
  -GOLD-   2272013183D 1   1.00000     0.00000
 Structure written by MMmdl.
 38 39  0  0  0  0  0  0  0  0  1 V2000
  152.9010  136.8585  161.3038 C   0  0  0  0  0  0  0  0  0  0  0  0
  152.5717  137.1360  159.8476 C   0  0  0  0  0  0  0  0  0  0  0  0
  151.2440  136.9074  159.4745 N   0  0  0  0  0  0  0  0  0  0  0  0
  150.8728  137.1141  158.2533 C   0  0  0  0  0  0  0  0  0  0  0  0
  151.7715  137.5736  157.2771 N   0  0  0  0  0  0  0  0  0  0  0  0
  151.2228  137.7671  155.9249 C   0  0  0  0  0  0  0  0  0  0  0  0
  151.3553  139.2313  155.4481 C   0  0  1  0  0  0  0  0  0  0  0  0
  150.7045  139.4059  154.2058 O   0  0  0  0  0  0  0  0  0  0  0  0
  150.7547  140.2443  156.4366 C   0  0  0  0  0  0  0  0  0  0  0  0
  151.5866  140.3514  157.5860 O   0  0  0  0  0  0  0  0  0  0  0  0
  151.6967  141.5799  158.2008 C   0  0  0  0  0  0  0  0  0  0  0  0
  152.4442  141.6320  159.3956 C   0  0  0  0  0  0  0  0  0  0  0  0
  152.6113  142.8461  160.0891 C   0  0  0  0  0  0  0  0  0  0  0  0
  152.0279  144.0260  159.5919 C   0  0  0  0  0  0  0  0  0  0  0  0
  152.1872  145.1947  160.2566 F   0  0  0  0  0  0  0  0  0  0  0  0
  151.2780  143.9884  158.4019 C   0  0  0  0  0  0  0  0  0  0  0  0
  151.1115  142.7739  157.7080 C   0  0  0  0  0  0  0  0  0  0  0  0
  153.0860  137.8126  157.5537 C   0  0  0  0  0  0  0  0  0  0  0  0
  153.8696  138.1986  156.6839 O   0  0  0  0  0  0  0  0  0  0  0  0
  153.4938  137.5743  158.9476 C   0  0  0  0  0  0  0  0  0  0  0  0
  154.9542  137.8357  159.2948 C   0  0  0  0  0  0  0  0  0  0  0  0
  153.2667  137.7618  161.7928 H   0  0  0  0  0  0  0  0  0  0  0  0
  153.6660  136.0855  161.3809 H   0  0  0  0  0  0  0  0  0  0  0  0
  152.0229  136.5143  161.8516 H   0  0  0  0  0  0  0  0  0  0  0  0
  149.8512  136.9436  157.9090 H   0  0  0  0  0  0  0  0  0  0  0  0
  151.6694  137.0853  155.1979 H   0  0  0  0  0  0  0  0  0  0  0  0
  150.1680  137.4860  155.9395 H   0  0  0  0  0  0  0  0  0  0  0  0
  152.4050  139.4903  155.3044 H   0  0  0  0  0  0  0  0  0  0  0  0
  150.5235  138.5530  153.8411 H   0  0  0  0  0  0  0  0  0  0  0  0
  150.7000  141.2171  155.9452 H   0  0  0  0  0  0  0  0  0  0  0  0
  149.7388  139.9542  156.7107 H   0  0  0  0  0  0  0  0  0  0  0  0
  152.8954  140.7311  159.7848 H   0  0  0  0  0  0  0  0  0  0  0  0
  153.1877  142.8712  161.0021 H   0  0  0  0  0  0  0  0  0  0  0  0
  150.8292  144.8932  158.0193 H   0  0  0  0  0  0  0  0  0  0  0  0
  150.5295  142.7857  156.7992 H   0  0  0  0  0  0  0  0  0  0  0  0
  155.6022  137.1923  158.6986 H   0  0  0  0  0  0  0  0  0  0  0  0
  155.1861  137.6533  160.3429 H   0  0  0  0  0  0  0  0  0  0  0  0
  155.2134  138.8723  159.0770 H   0  0  0  0  0  0  0  0  0  0  0  0
  1  2  1  0  0  0  0
  1 22  1  0  0  0  0
  1 23  1  0  0  0  0
  1 24  1  0  0  0  0
  2 20  2  0  0  0  0
  2  3  1  0  0  0  0
  3  4  2  0  0  0  0
  4  5  1  0  0  0  0
  4 25  1  0  0  0  0
  5  6  1  0  0  0  0
  5 18  1  0  0  0  0
  6  7  1  0  0  0  0
  6 26  1  0  0  0  0
  6 27  1  0  0  0  0
  7  8  1  0  0  0  0
  7  9  1  0  0  0  0
  7 28  1  0  0  0  0
  8 29  1  0  0  0  0
  9 10  1  0  0  0  0
  9 30  1  0  0  0  0
  9 31  1  0  0  0  0
 10 11  1  0  0  0  0
 11 17  1  0  0  0  0
 11 12  2  0  0  0  0
 12 13  1  0  0  0  0
 12 32  1  0  0  0  0
 13 14  2  0  0  0  0
 13 33  1  0  0  0  0
 14 15  1  0  0  0  0
 14 16  1  0  0  0  0
 16 17  2  0  0  0  0
 16 34  1  0  0  0  0
 17 35  1  0  0  0  0
 18 19  2  0  0  0  0
 18 20  1  0  0  0  0
 20 21  1  0  0  0  0
 21 36  1  0  0  0  0
 21 37  1  0  0  0  0
 21 38  1  0  0  0  0
M  END
> <s_m_source_file>
AV-unprocessed.smi

> <i_m_source_file_index>
2417

> <i_lp_mmshare_version>
43012

> <i_f3d_flags>
0

> <s_epik_input>
W0NIM11jMW5bY0hdbihjKD1PKWMxW0NIM10pW0NIMl1bQ0BIXShbT0hdKVtDSDJdT2MyW2NIXVtjSF1jKEYpW2NIXVtjSF0y

> <s_epik_cmdline>
J2VwaWtfcHl0aG9uJywgJy1waCcsICc3LjAnLCAnLXRuJywgJzgnLCAnLW1hJywgJzIwMCcsICctbWV0YWxfYmluZGluZycsICctaW1hZScsICc8aW5maWxlLm1hZT4nLCAnLW9tYWUnLCAnPG91dGZpbGUubWFlPic=

> <r_lp_tautomer_probability>
1

> <r_epik_Ionization_Penalty>
3.65384e-05

> <r_epik_Ionization_Penalty_Charging>
8.23007e-08

> <r_epik_Ionization_Penalty_Neutral>
3.64561e-05

> <r_epik_State_Penalty>
-0

> <r_epik_Charging_Adjusted_Penalty>
8.23007e-08

> <i_epik_Tot_Q>
0

> <i_epik_Tot_abs_Q>
0

> <r_epik_Metal_State_Penalty>
-0

> <b_epik_Metal_Only>
0

> <s_lp_Force_Field>
OPLS_2005

> <r_lp_Energy>
22.9041

> <b_lp_Chiralities_Consistent>
1

> <s_lp_Variant>
AV-unprocessed.smi:2417-2

> <Gold.Version>
5.8.1

> <Gold.Id.Protein>
6NUR|6NUR_protein|mol2

> <Gold.PLP.Fitness>
45.9484

> <Gold.PLP.PLP>
-39.4235

> <Gold.PLP.part.hbond>
-2.4141

> <Gold.PLP.part.metal>
0.0000

> <Gold.PLP.part.buried>
-5.4254

> <Gold.PLP.part.nonpolar>
-32.2786

> <Gold.PLP.part.repulsive>
0.0000

> <Gold.PLP.ligand.clash>
0.0000

> <Gold.PLP.ligand.torsion>
0.3661

> <Gold.PLP.Chemscore.Hbond>
2.4013

> <Gold.PLP.Chemscore.CHOScore>
0.0000

> <Gold.PLP.Chemscore.Metal>
0.0000

> <Gold.Chemscore.Hbonds>
donor molecule, donor type, donor heavy atom, donor atom, acceptor molecule, acceptor atom, score
      P1  H  6896  6907       L1     3  0.60
      P1  H  7989  7998       L1     8  1.00
      P1  H  7997  8008       L1    19  0.62

> <Gold.PLP.Chemscore.Internal.Correction>
0.0533

> <Gold.Rescore>
     Score         DG    S(hbond)    S(metal)    S(lipo)     H(rot)  DE(clash)    DE(int)     intcor
     13.19     -14.97       1.25        0.00     100.81       2.54       0.00       1.77       ----

> <Gold.Chemscore.Fitness>
13.1946

> <Gold.Chemscore.DG>
-14.9691

> <Gold.Chemscore.ZeroCoef>
-5.4800

> <Gold.Chemscore.Hbond>
1.2531

> <Gold.Chemscore.Metal>
0.0000

> <Gold.Chemscore.Lipo>
100.8075

> <Gold.Chemscore.Internal_Hbond>
0.0000

> <Gold.Chemscore.DEClash>
0.0000

> <Gold.Chemscore.DEInternal>
1.7745

> <Gold.Chemscore.Rot>
2.5355

> <Gold.Chemscore.Internal.Correction>
   9.000000E+99

> <Gold.Chemscore.Hbonds>
donor molecule, donor type, donor heavy atom, donor atom, acceptor molecule, acceptor atom, score
      P1  H  6896  6907       L1     3  0.04
      P1  H  7989  7998       L1     8  0.35
      P1  H  7997  8008       L1    19  0.60

> <Gold.Chemscore.Hbond.Weighted>
-4.1854

> <Gold.Chemscore.Metal.Weighted>
-0.0000

> <Gold.Chemscore.Lipo.Weighted>
-11.7945

> <Gold.Chemscore.Internal_Hbond.Weighted>
0.0000

> <Gold.Chemscore.DEClash.Weighted>
0.0000

> <Gold.Chemscore.DEInternal.Weighted>
1.7745

> <Gold.Chemscore.Rot.Weighted>
6.4908

> <Gold.Chemscore.Internal.Correction.Weighted>
   9.000000E+99

> <Gold.Protein.RotatedTorsions>
[ 6907 6896 6895 6894 ] final  -12.67 input  -60.11 | X-H torsion
[ 7974 7965 7964 7962 ] final   -3.52 input  175.53 | X-H torsion
[ 8008 7997 7996 7995 ] final  -62.27 input   59.86 | X-H torsion
[ 10167 10162 10161 10158 ] final   23.67 input  -65.29 | X-H torsion
[ 10718 10713 10712 10709 ] final  -44.27 input   66.30 | X-H torsion
[ 10763 10752 10751 10750 ] final -141.51 input  -60.55 | X-H torsion
[ 11005 11000 10999 10996 ] final   29.83 input  -57.11 | X-H torsion

> <Gold.Protein.ActiveResidues>
 VAL166  LYS551  ARG553  GLY616  TRP617  ASP618  TYR619  PRO620  LYS621  CYS622 
 ASP623  PHE694  ASN695  SER759  ASP760  ASP761  ALA762  ILE779  LEU786  VAL792 
 PHE793  MET794  SER795  GLU796  ALA797  LYS798  CYS799  TRP800  GLU811  SER814 

> <Gold.Protein.RotatedAtoms>
  151.3669  135.0915  159.9452 H   0  0  0  0  0  0  0  0  0  0  0  0  # atno 6907 bound_to 6896
  152.5146  133.9203  159.7541 H   0  0  0  0  0  0  0  0  0  0  0  0  # atno 6908 bound_to 6896
  150.9609  133.6392  159.2784 H   0  0  0  0  0  0  0  0  0  0  0  0  # atno 6909 bound_to 6896
  146.2388  140.1734  142.8332 H   0  0  0  0  0  0  0  0  0  0  0  0  # atno 7974 bound_to 7965
  154.4491  140.0999  156.6561 H   0  0  0  0  0  0  0  0  0  0  0  0  # atno 8008 bound_to 7997
  155.5344  140.3482  155.4414 H   0  0  0  0  0  0  0  0  0  0  0  0  # atno 8009 bound_to 7997
  156.0641  140.1333  156.9895 H   0  0  0  0  0  0  0  0  0  0  0  0  # atno 8010 bound_to 7997
  140.5250  143.9938  150.6436 H   0  0  0  0  0  0  0  0  0  0  0  0  # atno 10167 bound_to 10162
  156.2403  130.4179  149.8769 H   0  0  0  0  0  0  0  0  0  0  0  0  # atno 10718 bound_to 10713
  154.8542  135.3522  154.5880 H   0  0  0  0  0  0  0  0  0  0  0  0  # atno 10763 bound_to 10752
  153.6490  135.6995  153.5220 H   0  0  0  0  0  0  0  0  0  0  0  0  # atno 10764 bound_to 10752
  153.2909  135.4235  155.1124 H   0  0  0  0  0  0  0  0  0  0  0  0  # atno 10765 bound_to 10752
  140.3008  134.2759  155.7754 H   0  0  0  0  0  0  0  0  0  0  0  0  # atno 11005 bound_to 11000
  144.9993  140.8618  143.5291 LP  0  0  0  0  0  0  0  0  0  0  0  0  # atno 17320 bound_to 7965
  145.1751  139.2383  143.5322 LP  0  0  0  0  0  0  0  0  0  0  0  0  # atno 17321 bound_to 7965
  140.3297  143.3085  152.0700 LP  0  0  0  0  0  0  0  0  0  0  0  0  # atno 17342 bound_to 10162
  139.4935  144.6517  151.6660 LP  0  0  0  0  0  0  0  0  0  0  0  0  # atno 17343 bound_to 10162
  156.6353  130.8682  151.3503 LP  0  0  0  0  0  0  0  0  0  0  0  0  # atno 17370 bound_to 10713
  157.7172  130.9512  150.1300 LP  0  0  0  0  0  0  0  0  0  0  0  0  # atno 17371 bound_to 10713
  141.2128  133.7645  156.9764 LP  0  0  0  0  0  0  0  0  0  0  0  0  # atno 17394 bound_to 11000
  140.1111  134.9476  157.2066 LP  0  0  0  0  0  0  0  0  0  0  0  0  # atno 17395 bound_to 11000

$$$$
