AV-unprocessed.smi:1843|AV-procd|sdf|7500|dock1
  -GOLD-   22720 9203D 1   1.00000     0.00000
 Structure written by MMmdl.
 37 39  0  0  0  0  0  0  0  0  1 V2000
  146.2610  136.7846  153.3647 O   0  0  0  0  0  0  0  0  0  0  0  0
  145.5530  137.7570  153.1011 C   0  0  0  0  0  0  0  0  0  0  0  0
  145.7757  139.0165  153.5153 N   0  0  0  0  0  0  0  0  0  0  0  0
  146.8470  139.5055  154.3087 C   0  0  0  0  0  0  0  0  0  0  0  0
  147.1652  139.0148  155.5144 N   0  0  0  0  0  0  0  0  0  0  0  0
  148.2557  139.6702  156.0689 N   0  0  0  0  0  0  0  0  0  0  0  0
  148.7288  140.6348  155.2707 C   0  0  0  0  0  0  0  0  0  0  0  0
  149.9028  141.4754  155.6485 C   0  0  0  0  0  0  0  0  0  0  0  0
  151.2566  140.8488  155.8895 C   0  0  0  0  0  0  0  0  0  0  0  0
  150.4885  141.4416  157.0432 C   0  0  0  0  0  0  0  0  0  0  0  0
  147.8610  140.8249  153.7506 S   0  0  0  0  0  0  0  0  0  0  0  0
  144.4473  137.6834  152.3465 N   0  0  0  0  0  0  0  0  0  0  0  0
  143.9228  136.4637  151.7358 C   0  0  2  0  0  0  0  0  0  0  0  0
  143.3261  135.5654  152.8423 C   0  0  0  0  0  0  0  0  0  0  0  0
  142.8903  134.1939  152.3065 C   0  0  0  0  0  0  0  0  0  0  0  0
  144.0551  133.4818  151.6067 C   0  0  0  0  0  0  0  0  0  0  0  0
  144.6173  134.3496  150.4729 C   0  0  0  0  0  0  0  0  0  0  0  0
  145.0595  135.7351  150.9814 C   0  0  1  0  0  0  0  0  0  0  0  0
  145.4480  136.4979  149.8563 O   0  0  0  0  0  0  0  0  0  0  0  0
  145.1071  139.7106  153.2159 H   0  0  0  0  0  0  0  0  0  0  0  0
  149.8697  142.4339  155.1340 H   0  0  0  0  0  0  0  0  0  0  0  0
  151.3283  139.7641  155.8391 H   0  0  0  0  0  0  0  0  0  0  0  0
  152.1301  141.3911  155.5334 H   0  0  0  0  0  0  0  0  0  0  0  0
  150.8496  142.3806  157.4576 H   0  0  0  0  0  0  0  0  0  0  0  0
  150.0636  140.7471  157.7653 H   0  0  0  0  0  0  0  0  0  0  0  0
  143.9220  138.5303  152.1862 H   0  0  0  0  0  0  0  0  0  0  0  0
  143.1332  136.7128  151.0234 H   0  0  0  0  0  0  0  0  0  0  0  0
  144.0638  135.4182  153.6327 H   0  0  0  0  0  0  0  0  0  0  0  0
  142.4736  136.0609  153.3084 H   0  0  0  0  0  0  0  0  0  0  0  0
  142.5155  133.5779  153.1244 H   0  0  0  0  0  0  0  0  0  0  0  0
  142.0620  134.3190  151.6078 H   0  0  0  0  0  0  0  0  0  0  0  0
  144.8426  133.2626  152.3290 H   0  0  0  0  0  0  0  0  0  0  0  0
  143.7206  132.5228  151.2103 H   0  0  0  0  0  0  0  0  0  0  0  0
  145.4573  133.8382  150.0009 H   0  0  0  0  0  0  0  0  0  0  0  0
  143.8536  134.4645  149.7020 H   0  0  0  0  0  0  0  0  0  0  0  0
  145.9239  135.6155  151.6364 H   0  0  0  0  0  0  0  0  0  0  0  0
  144.8230  137.1968  149.7377 H   0  0  0  0  0  0  0  0  0  0  0  0
  1  2  2  0  0  0  0
  2  3  1  0  0  0  0
  2 12  1  0  0  0  0
  3  4  1  0  0  0  0
  3 20  1  0  0  0  0
  4 11  1  0  0  0  0
  4  5  2  0  0  0  0
  5  6  1  0  0  0  0
  6  7  2  0  0  0  0
  7  8  1  0  0  0  0
  7 11  1  0  0  0  0
  8 10  1  0  0  0  0
  8  9  1  0  0  0  0
  8 21  1  0  0  0  0
  9 10  1  0  0  0  0
  9 22  1  0  0  0  0
  9 23  1  0  0  0  0
 10 24  1  0  0  0  0
 10 25  1  0  0  0  0
 12 13  1  0  0  0  0
 12 26  1  0  0  0  0
 13 18  1  0  0  0  0
 13 14  1  0  0  0  0
 13 27  1  0  0  0  0
 14 15  1  0  0  0  0
 14 28  1  0  0  0  0
 14 29  1  0  0  0  0
 15 16  1  0  0  0  0
 15 30  1  0  0  0  0
 15 31  1  0  0  0  0
 16 17  1  0  0  0  0
 16 32  1  0  0  0  0
 16 33  1  0  0  0  0
 17 18  1  0  0  0  0
 17 34  1  0  0  0  0
 17 35  1  0  0  0  0
 18 19  1  0  0  0  0
 18 36  1  0  0  0  0
 19 37  1  0  0  0  0
M  END
> <s_m_source_file>
AV-unprocessed.smi

> <i_m_source_file_index>
1843

> <i_lp_mmshare_version>
43012

> <i_f3d_flags>
0

> <s_epik_input>
W09IXVtDQEBIXTFbQ0gyXVtDSDJdW0NIMl1bQ0gyXVtDQEhdMVtOSF1DKD1PKVtOSF1jMm5uYyhzMilbQ0hdM1tDSDJdW0NIMl0z

> <s_epik_cmdline>
J2VwaWtfcHl0aG9uJywgJy1waCcsICc3LjAnLCAnLXRuJywgJzgnLCAnLW1hJywgJzIwMCcsICctbWV0YWxfYmluZGluZycsICctaW1hZScsICc8aW5maWxlLm1hZT4nLCAnLW9tYWUnLCAnPG91dGZpbGUubWFlPic=

> <r_lp_tautomer_probability>
1

> <r_epik_Ionization_Penalty>
0.000257313

> <r_epik_Ionization_Penalty_Charging>
0

> <r_epik_Ionization_Penalty_Neutral>
0.000257313

> <r_epik_State_Penalty>
-0

> <r_epik_Charging_Adjusted_Penalty>
0

> <i_epik_Tot_Q>
0

> <i_epik_Tot_abs_Q>
0

> <r_epik_Metal_State_Penalty>
0.147479

> <b_epik_Metal_Only>
0

> <s_lp_Force_Field>
OPLS_2005

> <r_lp_Energy>
7.85459

> <b_lp_Chiralities_Consistent>
1

> <s_lp_Variant>
AV-unprocessed.smi:1843-1

> <Gold.Version>
5.8.1

> <Gold.Id.Protein>
6NUR|6NUR_protein|mol2

> <Gold.PLP.Fitness>
39.2014

> <Gold.PLP.PLP>
-31.4954

> <Gold.PLP.part.hbond>
-5.0000

> <Gold.PLP.part.metal>
0.0000

> <Gold.PLP.part.buried>
-2.2686

> <Gold.PLP.part.nonpolar>
-24.5303

> <Gold.PLP.part.repulsive>
0.2680

> <Gold.PLP.ligand.clash>
0.0000

> <Gold.PLP.ligand.torsion>
0.7160

> <Gold.PLP.Chemscore.Hbond>
3.0000

> <Gold.PLP.Chemscore.CHOScore>
0.0000

> <Gold.PLP.Chemscore.Metal>
0.0000

> <Gold.Chemscore.Hbonds>
donor molecule, donor type, donor heavy atom, donor atom, acceptor molecule, acceptor atom, score
      L1  H     3    20       P1 10175  1.00
      L1  H    12    26       P1 10175  1.00
      L1  H    19    37       P1 10171  1.00

> <Gold.PLP.Chemscore.Internal.Correction>
0.1379

> <Gold.Rescore>
     Score         DG    S(hbond)    S(metal)    S(lipo)     H(rot)  DE(clash)    DE(int)     intcor
     16.39     -18.36       2.97        0.00      63.32       1.74       0.19       1.78       ----

> <Gold.Chemscore.Fitness>
16.3919

> <Gold.Chemscore.DG>
-18.3575

> <Gold.Chemscore.ZeroCoef>
-5.4800

> <Gold.Chemscore.Hbond>
2.9714

> <Gold.Chemscore.Metal>
0.0000

> <Gold.Chemscore.Lipo>
63.3215

> <Gold.Chemscore.Internal_Hbond>
0.0000

> <Gold.Chemscore.DEClash>
0.1889

> <Gold.Chemscore.DEInternal>
1.7767

> <Gold.Chemscore.Rot>
1.7404

> <Gold.Chemscore.Internal.Correction>
   9.000000E+99

> <Gold.Chemscore.Hbonds>
donor molecule, donor type, donor heavy atom, donor atom, acceptor molecule, acceptor atom, score
      L1  H     3    20       P1 10175  1.00
      L1  H    12    26       P1 10175  0.95
      L1  H    19    37       P1 10171  1.00

> <Gold.Chemscore.Hbond.Weighted>
-9.9244

> <Gold.Chemscore.Metal.Weighted>
-0.0000

> <Gold.Chemscore.Lipo.Weighted>
-7.4086

> <Gold.Chemscore.Internal_Hbond.Weighted>
0.0000

> <Gold.Chemscore.DEClash.Weighted>
0.1889

> <Gold.Chemscore.DEInternal.Weighted>
1.7767

> <Gold.Chemscore.Rot.Weighted>
4.4555

> <Gold.Chemscore.Internal.Correction.Weighted>
   9.000000E+99

> <Gold.Protein.RotatedTorsions>
[ 6907 6896 6895 6894 ] final  -54.62 input  -60.11 | X-H torsion
[ 7974 7965 7964 7962 ] final   44.15 input  175.53 | X-H torsion
[ 8008 7997 7996 7995 ] final  -38.57 input   59.86 | X-H torsion
[ 10167 10162 10161 10158 ] final  104.42 input  -65.29 | X-H torsion
[ 10718 10713 10712 10709 ] final  177.58 input   66.30 | X-H torsion
[ 10763 10752 10751 10750 ] final  134.22 input  -60.55 | X-H torsion
[ 11005 11000 10999 10996 ] final  154.48 input  -57.11 | X-H torsion

> <Gold.Protein.ActiveResidues>
 VAL166  LYS551  ARG553  GLY616  TRP617  ASP618  TYR619  PRO620  LYS621  CYS622 
 ASP623  PHE694  ASN695  SER759  ASP760  ASP761  ALA762  ILE779  LEU786  VAL792 
 PHE793  MET794  SER795  GLU796  ALA797  LYS798  CYS799  TRP800  GLU811  SER814 

> <Gold.Protein.RotatedAtoms>
  150.8322  134.7581  159.6863 H   0  0  0  0  0  0  0  0  0  0  0  0  # atno 6907 bound_to 6896
  152.4425  134.5559  159.9890 H   0  0  0  0  0  0  0  0  0  0  0  0  # atno 6908 bound_to 6896
  151.5717  133.3351  159.3026 H   0  0  0  0  0  0  0  0  0  0  0  0  # atno 6909 bound_to 6896
  146.0593  139.5106  142.9668 H   0  0  0  0  0  0  0  0  0  0  0  0  # atno 7974 bound_to 7965
  154.4035  140.1574  156.2721 H   0  0  0  0  0  0  0  0  0  0  0  0  # atno 8008 bound_to 7997
  155.8944  140.3437  155.5958 H   0  0  0  0  0  0  0  0  0  0  0  0  # atno 8009 bound_to 7997
  155.7521  140.0806  157.2187 H   0  0  0  0  0  0  0  0  0  0  0  0  # atno 8010 bound_to 7997
  139.7179  144.7064  151.0920 H   0  0  0  0  0  0  0  0  0  0  0  0  # atno 10167 bound_to 10162
  156.9033  130.9886  151.3032 H   0  0  0  0  0  0  0  0  0  0  0  0  # atno 10718 bound_to 10713
  153.8200  135.3117  155.3409 H   0  0  0  0  0  0  0  0  0  0  0  0  # atno 10763 bound_to 10752
  154.8016  135.4723  154.0293 H   0  0  0  0  0  0  0  0  0  0  0  0  # atno 10764 bound_to 10752
  153.1699  135.6876  153.8712 H   0  0  0  0  0  0  0  0  0  0  0  0  # atno 10765 bound_to 10752
  140.1493  134.8685  157.2434 H   0  0  0  0  0  0  0  0  0  0  0  0  # atno 11005 bound_to 11000
  145.6588  141.0245  143.1720 LP  0  0  0  0  0  0  0  0  0  0  0  0  # atno 17320 bound_to 7965
  144.7166  139.8176  143.7396 LP  0  0  0  0  0  0  0  0  0  0  0  0  # atno 17321 bound_to 7965
  140.7747  143.5205  150.9542 LP  0  0  0  0  0  0  0  0  0  0  0  0  # atno 17342 bound_to 10162
  139.8892  143.6975  152.3147 LP  0  0  0  0  0  0  0  0  0  0  0  0  # atno 17343 bound_to 10162
  157.6013  130.8514  149.8806 LP  0  0  0  0  0  0  0  0  0  0  0  0  # atno 17370 bound_to 10713
  156.0571  130.3706  150.1066 LP  0  0  0  0  0  0  0  0  0  0  0  0  # atno 17371 bound_to 10713
  140.2624  134.3555  155.7402 LP  0  0  0  0  0  0  0  0  0  0  0  0  # atno 17394 bound_to 11000
  141.2197  133.7377  156.9100 LP  0  0  0  0  0  0  0  0  0  0  0  0  # atno 17395 bound_to 11000

$$$$
