AV-unprocessed.smi:1044|AV-procd|sdf|4543|dock1
  -GOLD-   22720 2573D 1   1.00000     0.00000
 Structure written by MMmdl.
 45 46  0  0  0  0  0  0  0  0  1 V2000
  144.3997  133.2499  150.9863 C   0  0  0  0  0  0  0  0  0  0  0  0
  145.7718  133.7052  150.4832 C   0  0  0  0  0  0  0  0  0  0  0  0
  146.6421  133.8503  151.6013 O   0  0  0  0  0  0  0  0  0  0  0  0
  147.0345  132.7180  152.2896 C   0  0  0  0  0  0  0  0  0  0  0  0
  146.4946  131.5259  151.9321 N   0  0  0  0  0  0  0  0  0  0  0  0
  146.8808  130.4191  152.5988 C   0  0  0  0  0  0  0  0  0  0  0  0
  147.8219  130.4393  153.6441 C   0  0  0  0  0  0  0  0  0  0  0  0
  148.3828  131.6749  154.0179 C   0  0  0  0  0  0  0  0  0  0  0  0
  147.9772  132.8481  153.3362 C   0  0  0  0  0  0  0  0  0  0  0  0
  148.4922  134.1448  153.6151 N   0  0  0  0  0  0  0  0  0  0  0  0
  148.9346  134.6442  154.7816 C   0  0  0  0  0  0  0  0  0  0  0  0
  148.9416  134.0469  155.8578 O   0  0  0  0  0  0  0  0  0  0  0  0
  149.3601  135.9069  154.6344 N   0  0  0  0  0  0  0  0  0  0  0  0
  149.9008  136.7425  155.7018 C   0  0  1  0  0  0  0  0  0  0  0  0
  148.7543  137.3064  156.5526 C   0  0  0  0  0  0  0  0  0  0  0  0
  149.3271  138.1603  157.6891 C   0  0  0  0  0  0  0  0  0  0  0  0
  150.3215  137.3560  158.5441 C   0  0  0  0  0  0  0  0  0  0  0  0
  151.3787  136.7372  157.7178 N   0  0  0  0  0  0  0  0  0  0  0  0
  152.9623  137.4552  157.6462 S   0  0  0  0  0  0  0  0  0  0  0  0
  153.2897  137.9930  159.3741 C   0  0  0  0  0  0  0  0  0  0  0  0
  153.9227  136.3950  157.3043 O   0  0  0  0  0  0  0  0  0  0  0  0
  152.8726  138.6567  156.8025 O   0  0  0  0  0  0  0  0  0  0  0  0
  150.8839  135.9372  156.5791 C   0  0  0  0  0  0  0  0  0  0  0  0
  143.7025  133.1273  150.1572 H   0  0  0  0  0  0  0  0  0  0  0  0
  143.9738  133.9786  151.6765 H   0  0  0  0  0  0  0  0  0  0  0  0
  144.4711  132.2948  151.5074 H   0  0  0  0  0  0  0  0  0  0  0  0
  146.1679  132.9666  149.7843 H   0  0  0  0  0  0  0  0  0  0  0  0
  145.6711  134.6538  149.9533 H   0  0  0  0  0  0  0  0  0  0  0  0
  146.4308  129.4888  152.2854 H   0  0  0  0  0  0  0  0  0  0  0  0
  148.1108  129.5274  154.1453 H   0  0  0  0  0  0  0  0  0  0  0  0
  149.1200  131.6927  154.8054 H   0  0  0  0  0  0  0  0  0  0  0  0
  148.4715  134.7888  152.8378 H   0  0  0  0  0  0  0  0  0  0  0  0
  149.3099  136.3208  153.7150 H   0  0  0  0  0  0  0  0  0  0  0  0
  150.4241  137.5844  155.2481 H   0  0  0  0  0  0  0  0  0  0  0  0
  148.0841  137.9078  155.9374 H   0  0  0  0  0  0  0  0  0  0  0  0
  148.1568  136.4934  156.9676 H   0  0  0  0  0  0  0  0  0  0  0  0
  149.8151  139.0421  157.2760 H   0  0  0  0  0  0  0  0  0  0  0  0
  148.5160  138.5286  158.3178 H   0  0  0  0  0  0  0  0  0  0  0  0
  150.7607  137.9912  159.3129 H   0  0  0  0  0  0  0  0  0  0  0  0
  149.7894  136.5626  159.0700 H   0  0  0  0  0  0  0  0  0  0  0  0
  154.2847  138.4336  159.4262 H   0  0  0  0  0  0  0  0  0  0  0  0
  153.2459  137.1372  160.0453 H   0  0  0  0  0  0  0  0  0  0  0  0
  152.5578  138.7418  159.6738 H   0  0  0  0  0  0  0  0  0  0  0  0
  150.3858  135.0512  156.9751 H   0  0  0  0  0  0  0  0  0  0  0  0
  151.7230  135.5760  155.9843 H   0  0  0  0  0  0  0  0  0  0  0  0
  1  2  1  0  0  0  0
  1 24  1  0  0  0  0
  1 25  1  0  0  0  0
  1 26  1  0  0  0  0
  2  3  1  0  0  0  0
  2 27  1  0  0  0  0
  2 28  1  0  0  0  0
  3  4  1  0  0  0  0
  4  9  1  0  0  0  0
  4  5  2  0  0  0  0
  5  6  1  0  0  0  0
  6  7  2  0  0  0  0
  6 29  1  0  0  0  0
  7  8  1  0  0  0  0
  7 30  1  0  0  0  0
  8  9  2  0  0  0  0
  8 31  1  0  0  0  0
  9 10  1  0  0  0  0
 10 11  1  0  0  0  0
 10 32  1  0  0  0  0
 11 12  2  0  0  0  0
 11 13  1  0  0  0  0
 13 14  1  0  0  0  0
 13 33  1  0  0  0  0
 14 23  1  0  0  0  0
 14 15  1  0  0  0  0
 14 34  1  0  0  0  0
 15 16  1  0  0  0  0
 15 35  1  0  0  0  0
 15 36  1  0  0  0  0
 16 17  1  0  0  0  0
 16 37  1  0  0  0  0
 16 38  1  0  0  0  0
 17 18  1  0  0  0  0
 17 39  1  0  0  0  0
 17 40  1  0  0  0  0
 18 19  1  0  0  0  0
 18 23  1  0  0  0  0
 19 20  1  0  0  0  0
 19 21  2  0  0  0  0
 19 22  2  0  0  0  0
 20 41  1  0  0  0  0
 20 42  1  0  0  0  0
 20 43  1  0  0  0  0
 23 44  1  0  0  0  0
 23 45  1  0  0  0  0
M  END
> <s_m_source_file>
AV-unprocessed.smi

> <i_m_source_file_index>
1044

> <i_lp_mmshare_version>
43012

> <i_f3d_flags>
0

> <s_epik_input>
W0NIM11bQ0gyXU9jMW5bY0hdW2NIXVtjSF1jMVtOSF1DKD1PKVtOSF1bQ0BASF0yW0NIMl1bQ0gyXVtDSDJdTihbQ0gyXTIpUyg9TykoPU8pW0NIM10=

> <s_epik_cmdline>
J2VwaWtfcHl0aG9uJywgJy1waCcsICc3LjAnLCAnLXRuJywgJzgnLCAnLW1hJywgJzIwMCcsICctbWV0YWxfYmluZGluZycsICctaW1hZScsICc8aW5maWxlLm1hZT4nLCAnLW9tYWUnLCAnPG91dGZpbGUubWFlPic=

> <r_lp_tautomer_probability>
1

> <r_epik_Ionization_Penalty>
0.000106941

> <r_epik_Ionization_Penalty_Charging>
0

> <r_epik_Ionization_Penalty_Neutral>
0.000106941

> <r_epik_State_Penalty>
-0

> <r_epik_Charging_Adjusted_Penalty>
0

> <i_epik_Tot_Q>
0

> <i_epik_Tot_abs_Q>
0

> <r_epik_Metal_State_Penalty>
-0

> <b_epik_Metal_Only>
0

> <s_lp_Force_Field>
OPLS_2005

> <r_lp_Energy>
2.58549

> <b_lp_Chiralities_Consistent>
1

> <s_lp_Variant>
AV-unprocessed.smi:1044-2

> <Gold.Version>
5.8.1

> <Gold.Id.Protein>
6NUR|6NUR_protein|mol2

> <Gold.PLP.Fitness>
39.3168

> <Gold.PLP.PLP>
-28.5049

> <Gold.PLP.part.hbond>
-4.0000

> <Gold.PLP.part.metal>
0.0000

> <Gold.PLP.part.buried>
-4.0493

> <Gold.PLP.part.nonpolar>
-20.2667

> <Gold.PLP.part.repulsive>
0.4687

> <Gold.PLP.ligand.clash>
0.0000

> <Gold.PLP.ligand.torsion>
1.6521

> <Gold.PLP.Chemscore.Hbond>
4.0000

> <Gold.PLP.Chemscore.CHOScore>
0.0000

> <Gold.PLP.Chemscore.Metal>
0.0000

> <Gold.Chemscore.Hbonds>
donor molecule, donor type, donor heavy atom, donor atom, acceptor molecule, acceptor atom, score
      L1  H    10    32       P1  7948  1.00
      L1  H    13    33       P1  7948  1.00
      P1  H  7997  8009       L1    22  0.91
      P1  H 10752 10764       L1    21  0.65

> <Gold.PLP.Chemscore.Internal.Correction>
2.1159

> <Gold.Rescore>
     Score         DG    S(hbond)    S(metal)    S(lipo)     H(rot)  DE(clash)    DE(int)     intcor
     15.14     -19.22       3.45        0.00      50.82       1.45       0.03       4.04       ----

> <Gold.Chemscore.Fitness>
15.1443

> <Gold.Chemscore.DG>
-19.2159

> <Gold.Chemscore.ZeroCoef>
-5.4800

> <Gold.Chemscore.Hbond>
3.4473

> <Gold.Chemscore.Metal>
0.0000

> <Gold.Chemscore.Lipo>
50.8244

> <Gold.Chemscore.Internal_Hbond>
0.0000

> <Gold.Chemscore.DEClash>
0.0324

> <Gold.Chemscore.DEInternal>
4.0392

> <Gold.Chemscore.Rot>
1.4549

> <Gold.Chemscore.Internal.Correction>
   9.000000E+99

> <Gold.Chemscore.Hbonds>
donor molecule, donor type, donor heavy atom, donor atom, acceptor molecule, acceptor atom, score
      L1  H    10    32       P1  7948  0.39
      L1  H    13    33       P1  7948  0.85
      P1  H  7997  8009       L1    22  0.86
      P1  H 10752 10764       L1    21  0.64

> <Gold.Chemscore.Hbond.Weighted>
-11.5138

> <Gold.Chemscore.Metal.Weighted>
-0.0000

> <Gold.Chemscore.Lipo.Weighted>
-5.9465

> <Gold.Chemscore.Internal_Hbond.Weighted>
0.0000

> <Gold.Chemscore.DEClash.Weighted>
0.0324

> <Gold.Chemscore.DEInternal.Weighted>
4.0392

> <Gold.Chemscore.Rot.Weighted>
3.7244

> <Gold.Chemscore.Internal.Correction.Weighted>
   9.000000E+99

> <Gold.Protein.RotatedTorsions>
[ 6907 6896 6895 6894 ] final   33.72 input  -60.11 | X-H torsion
[ 7974 7965 7964 7962 ] final   85.26 input  175.53 | X-H torsion
[ 8008 7997 7996 7995 ] final -178.55 input   59.86 | X-H torsion
[ 10167 10162 10161 10158 ] final   -1.49 input  -65.29 | X-H torsion
[ 10718 10713 10712 10709 ] final   49.85 input   66.30 | X-H torsion
[ 10763 10752 10751 10750 ] final   15.77 input  -60.55 | X-H torsion
[ 11005 11000 10999 10996 ] final -154.27 input  -57.11 | X-H torsion

> <Gold.Protein.ActiveResidues>
 VAL166  LYS551  ARG553  GLY616  TRP617  ASP618  TYR619  PRO620  LYS621  CYS622 
 ASP623  PHE694  ASN695  SER759  ASP760  ASP761  ALA762  ILE779  LEU786  VAL792 
 PHE793  MET794  SER795  GLU796  ALA797  LYS798  CYS799  TRP800  GLU811  SER814 

> <Gold.Protein.RotatedAtoms>
  152.0924  134.9398  160.0571 H   0  0  0  0  0  0  0  0  0  0  0  0  # atno 6907 bound_to 6896
  152.0644  133.4072  159.4440 H   0  0  0  0  0  0  0  0  0  0  0  0  # atno 6908 bound_to 6896
  150.6837  134.3083  159.4779 H   0  0  0  0  0  0  0  0  0  0  0  0  # atno 6909 bound_to 6896
  145.5878  139.2334  143.2316 H   0  0  0  0  0  0  0  0  0  0  0  0  # atno 7974 bound_to 7965
  156.0201  140.1259  157.0366 H   0  0  0  0  0  0  0  0  0  0  0  0  # atno 8008 bound_to 7997
  154.4308  140.1070  156.6022 H   0  0  0  0  0  0  0  0  0  0  0  0  # atno 8009 bound_to 7997
  155.5956  140.3470  155.4581 H   0  0  0  0  0  0  0  0  0  0  0  0  # atno 8010 bound_to 7997
  140.6812  143.6769  150.8138 H   0  0  0  0  0  0  0  0  0  0  0  0  # atno 10167 bound_to 10162
  157.4827  130.8325  149.8112 H   0  0  0  0  0  0  0  0  0  0  0  0  # atno 10718 bound_to 10713
  153.1494  135.6775  153.8905 H   0  0  0  0  0  0  0  0  0  0  0  0  # atno 10763 bound_to 10752
  153.8336  135.3114  155.3422 H   0  0  0  0  0  0  0  0  0  0  0  0  # atno 10764 bound_to 10752
  154.7850  135.4867  154.0013 H   0  0  0  0  0  0  0  0  0  0  0  0  # atno 10765 bound_to 10752
  140.6991  134.3957  157.5211 H   0  0  0  0  0  0  0  0  0  0  0  0  # atno 11005 bound_to 11000
  146.1669  140.6705  142.9251 LP  0  0  0  0  0  0  0  0  0  0  0  0  # atno 17320 bound_to 7965
  144.7365  140.4822  143.6900 LP  0  0  0  0  0  0  0  0  0  0  0  0  # atno 17321 bound_to 7965
  140.0470  143.5288  152.2691 LP  0  0  0  0  0  0  0  0  0  0  0  0  # atno 17342 bound_to 10162
  139.6136  144.7614  151.2896 LP  0  0  0  0  0  0  0  0  0  0  0  0  # atno 17343 bound_to 10162
  156.0130  130.3825  150.2202 LP  0  0  0  0  0  0  0  0  0  0  0  0  # atno 17370 bound_to 10713
  157.0388  131.0029  151.3290 LP  0  0  0  0  0  0  0  0  0  0  0  0  # atno 17371 bound_to 10713
  139.8902  134.8812  156.2384 LP  0  0  0  0  0  0  0  0  0  0  0  0  # atno 17394 bound_to 11000
  141.0178  133.7058  156.1218 LP  0  0  0  0  0  0  0  0  0  0  0  0  # atno 17395 bound_to 11000

$$$$
