AV-unprocessed.smi:2775|AV-procd|sdf|10700|dock9
  -GOLD-   2272015143D 1   1.00000     0.00000
 Structure written by MMmdl.
 43 46  0  0  0  0  0  0  0  0  2 V2000
  144.4941  132.1059  150.1123 C   0  0  0  0  0  0  0  0  0  0  0  0
  145.4809  131.9633  151.2552 C   0  0  0  0  0  0  0  0  0  0  0  0
  145.6089  130.7455  151.8276 N   0  3  0  0  0  0  0  0  0  0  0  0
  146.4493  130.4994  152.8544 C   0  0  0  0  0  0  0  0  0  0  0  0
  147.2472  131.5375  153.3735 C   0  0  0  0  0  0  0  0  0  0  0  0
  147.1641  132.8308  152.7994 C   0  0  0  0  0  0  0  0  0  0  0  0
  147.9192  133.9371  153.2729 N   0  0  0  0  0  0  0  0  0  0  0  0
  148.7573  133.9915  154.3257 C   0  0  0  0  0  0  0  0  0  0  0  0
  148.9530  133.0684  155.1131 O   0  0  0  0  0  0  0  0  0  0  0  0
  149.4254  135.1537  154.4252 N   0  0  0  0  0  0  0  0  0  0  0  0
  150.4058  135.5301  155.4498 C   0  0  2  0  0  0  0  0  0  0  0  0
  149.8317  135.5837  156.8909 C   0  0  2  0  0  0  0  0  0  0  0  0
  148.4665  135.0587  157.2697 C   0  0  0  0  0  0  0  0  0  0  0  0
  147.6079  136.3257  157.2958 C   0  0  0  0  0  0  0  0  0  0  0  0
  148.3157  137.2605  156.4856 O   0  0  0  0  0  0  0  0  0  0  0  0
  149.7059  137.0956  156.7459 C   0  0  2  0  0  0  0  0  0  0  0  0
  150.6074  137.0539  155.5051 C   0  0  0  0  0  0  0  0  0  0  0  0
  150.3633  137.9903  154.3095 C   0  0  0  0  0  0  0  0  0  0  0  0
  151.5050  138.8681  154.8291 C   0  0  0  0  0  0  0  0  0  0  0  0
  152.0222  137.6463  155.5940 C   0  0  0  0  0  0  0  0  0  0  0  0
  146.2563  133.0458  151.7333 C   0  0  0  0  0  0  0  0  0  0  0  0
  146.1029  134.6137  151.0125 Cl  0  0  0  0  0  0  0  0  0  0  0  0
  144.9991  132.4702  149.2173 H   0  0  0  0  0  0  0  0  0  0  0  0
  143.7077  132.8134  150.3767 H   0  0  0  0  0  0  0  0  0  0  0  0
  144.0238  131.1520  149.8700 H   0  0  0  0  0  0  0  0  0  0  0  0
  146.4536  129.4870  153.2319 H   0  0  0  0  0  0  0  0  0  0  0  0
  147.8992  131.3279  154.2080 H   0  0  0  0  0  0  0  0  0  0  0  0
  147.9268  134.7455  152.6677 H   0  0  0  0  0  0  0  0  0  0  0  0
  149.2928  135.8212  153.6788 H   0  0  0  0  0  0  0  0  0  0  0  0
  151.3530  134.9922  155.3829 H   0  0  0  0  0  0  0  0  0  0  0  0
  150.6074  135.3319  157.6157 H   0  0  0  0  0  0  0  0  0  0  0  0
  148.0789  134.3404  156.5498 H   0  0  0  0  0  0  0  0  0  0  0  0
  148.4701  134.5675  158.2430 H   0  0  0  0  0  0  0  0  0  0  0  0
  146.5977  136.1570  156.9224 H   0  0  0  0  0  0  0  0  0  0  0  0
  147.5367  136.7191  158.3109 H   0  0  0  0  0  0  0  0  0  0  0  0
  150.0747  137.6624  157.6020 H   0  0  0  0  0  0  0  0  0  0  0  0
  150.5984  137.5264  153.3503 H   0  0  0  0  0  0  0  0  0  0  0  0
  149.3870  138.4755  154.2937 H   0  0  0  0  0  0  0  0  0  0  0  0
  152.1785  139.2451  154.0590 H   0  0  0  0  0  0  0  0  0  0  0  0
  151.1581  139.6638  155.4903 H   0  0  0  0  0  0  0  0  0  0  0  0
  152.3735  137.8559  156.6047 H   0  0  0  0  0  0  0  0  0  0  0  0
  152.7563  137.0753  155.0233 H   0  0  0  0  0  0  0  0  0  0  0  0
  145.0399  129.9777  151.4700 H   0  0  0  0  0  0  0  0  0  0  0  0
  1  2  1  0  0  0  0
  1 23  1  0  0  0  0
  1 24  1  0  0  0  0
  1 25  1  0  0  0  0
  2 21  1  0  0  0  0
  2  3  2  0  0  0  0
  3  4  1  0  0  0  0
  3 43  1  0  0  0  0
  4  5  2  0  0  0  0
  4 26  1  0  0  0  0
  5  6  1  0  0  0  0
  5 27  1  0  0  0  0
  6  7  1  0  0  0  0
  6 21  2  0  0  0  0
  7  8  1  0  0  0  0
  7 28  1  0  0  0  0
  8  9  2  0  0  0  0
  8 10  1  0  0  0  0
 10 11  1  0  0  0  0
 10 29  1  0  0  0  0
 11 17  1  0  0  0  0
 11 12  1  0  0  0  0
 11 30  1  0  0  0  0
 12 16  1  0  0  0  0
 12 13  1  0  0  0  0
 12 31  1  0  0  0  0
 13 14  1  0  0  0  0
 13 32  1  0  0  0  0
 13 33  1  0  0  0  0
 14 15  1  0  0  0  0
 14 34  1  0  0  0  0
 14 35  1  0  0  0  0
 15 16  1  0  0  0  0
 16 17  1  0  0  0  0
 16 36  1  0  0  0  0
 17 20  1  0  0  0  0
 17 18  1  0  0  0  0
 18 19  1  0  0  0  0
 18 37  1  0  0  0  0
 18 38  1  0  0  0  0
 19 20  1  0  0  0  0
 19 39  1  0  0  0  0
 19 40  1  0  0  0  0
 20 41  1  0  0  0  0
 20 42  1  0  0  0  0
 21 22  1  0  0  0  0
M  CHG  1   3   1
M  END
> <s_m_source_file>
AV-unprocessed.smi

> <i_m_source_file_index>
2775

> <i_lp_mmshare_version>
43012

> <i_f3d_flags>
0

> <s_epik_input>
W0NIM11jMW5bY0hdW2NIXWMoYzFDbClbTkhdQyg9TylbTkhdW0NAQEhdMltDQEhdKFtDSDJdW0NIMl1PMylbQ0BASF0zQzI0W0NIMl1bQ0gyXVtDSDJdNA==

> <s_epik_cmdline>
J2VwaWtfcHl0aG9uJywgJy1waCcsICc3LjAnLCAnLXRuJywgJzgnLCAnLW1hJywgJzIwMCcsICctbWV0YWxfYmluZGluZycsICctaW1hZScsICc8aW5maWxlLm1hZT4nLCAnLW9tYWUnLCAnPG91dGZpbGUubWFlPic=

> <r_epik_Ionization_Penalty>
2.4104

> <r_epik_Ionization_Penalty_Charging>
2.41038

> <r_epik_Ionization_Penalty_Neutral>
1.9872e-05

> <r_epik_State_Penalty>
2.56896

> <r_epik_Charging_Adjusted_Penalty>
4.97934

> <i_epik_Tot_Q>
1

> <i_epik_Tot_abs_Q>
1

> <r_epik_Metal_State_Penalty>
2.57906

> <b_epik_Metal_Only>
0

> <s_lp_Force_Field>
OPLS_2005

> <r_lp_Energy>
62.9708

> <b_lp_Chiralities_Consistent>
1

> <s_lp_Variant>
AV-unprocessed.smi:2775-13

> <Gold.Version>
5.8.1

> <Gold.Id.Protein>
6NUR|6NUR_protein|mol2

> <Gold.PLP.Fitness>
38.5057

> <Gold.PLP.PLP>
-33.0499

> <Gold.PLP.part.hbond>
-2.0000

> <Gold.PLP.part.metal>
0.0000

> <Gold.PLP.part.buried>
-5.8800

> <Gold.PLP.part.nonpolar>
-26.3754

> <Gold.PLP.part.repulsive>
0.1020

> <Gold.PLP.ligand.clash>
0.0000

> <Gold.PLP.ligand.torsion>
0.1355

> <Gold.PLP.Chemscore.Hbond>
1.8400

> <Gold.PLP.Chemscore.CHOScore>
0.0000

> <Gold.PLP.Chemscore.Metal>
0.0000

> <Gold.Chemscore.Hbonds>
donor molecule, donor type, donor heavy atom, donor atom, acceptor molecule, acceptor atom, score
      L1  H     7    28       P1  7948  0.96
      L1  H    10    29       P1  7948  1.00

> <Gold.PLP.Chemscore.Internal.Correction>
0.2068

> <Gold.Rescore>
     Score         DG    S(hbond)    S(metal)    S(lipo)     H(rot)  DE(clash)    DE(int)     intcor
     15.94     -18.16       1.50        0.00      87.30       1.00       0.03       2.19       ----

> <Gold.Chemscore.Fitness>
15.9410

> <Gold.Chemscore.DG>
-18.1574

> <Gold.Chemscore.ZeroCoef>
-5.4800

> <Gold.Chemscore.Hbond>
1.5041

> <Gold.Chemscore.Metal>
0.0000

> <Gold.Chemscore.Lipo>
87.2961

> <Gold.Chemscore.Internal_Hbond>
0.0000

> <Gold.Chemscore.DEClash>
0.0256

> <Gold.Chemscore.DEInternal>
2.1908

> <Gold.Chemscore.Rot>
1.0000

> <Gold.Chemscore.Internal.Correction>
   9.000000E+99

> <Gold.Chemscore.Hbonds>
donor molecule, donor type, donor heavy atom, donor atom, acceptor molecule, acceptor atom, score
      L1  H     7    28       P1  7948  0.75
      L1  H    10    29       P1  7948  0.62

> <Gold.Chemscore.Hbond.Weighted>
-5.0238

> <Gold.Chemscore.Metal.Weighted>
-0.0000

> <Gold.Chemscore.Lipo.Weighted>
-10.2136

> <Gold.Chemscore.Internal_Hbond.Weighted>
0.0000

> <Gold.Chemscore.DEClash.Weighted>
0.0256

> <Gold.Chemscore.DEInternal.Weighted>
2.1908

> <Gold.Chemscore.Rot.Weighted>
2.5600

> <Gold.Chemscore.Internal.Correction.Weighted>
   9.000000E+99

> <Gold.Protein.RotatedTorsions>
[ 6907 6896 6895 6894 ] final   98.89 input  -60.11 | X-H torsion
[ 7974 7965 7964 7962 ] final -121.18 input  175.53 | X-H torsion
[ 8008 7997 7996 7995 ] final  155.06 input   59.86 | X-H torsion
[ 10167 10162 10161 10158 ] final  -78.03 input  -65.29 | X-H torsion
[ 10718 10713 10712 10709 ] final  -84.53 input   66.30 | X-H torsion
[ 10763 10752 10751 10750 ] final    8.31 input  -60.55 | X-H torsion
[ 11005 11000 10999 10996 ] final  121.39 input  -57.11 | X-H torsion

> <Gold.Protein.ActiveResidues>
 VAL166  LYS551  ARG553  GLY616  TRP617  ASP618  TYR619  PRO620  LYS621  CYS622 
 ASP623  PHE694  ASN695  SER759  ASP760  ASP761  ALA762  ILE779  LEU786  VAL792 
 PHE793  MET794  SER795  GLU796  ALA797  LYS798  CYS799  TRP800  GLU811  SER814 

> <Gold.Protein.RotatedAtoms>
  152.5401  134.0512  159.8110 H   0  0  0  0  0  0  0  0  0  0  0  0  # atno 6907 bound_to 6896
  151.0653  133.5503  159.2638 H   0  0  0  0  0  0  0  0  0  0  0  0  # atno 6908 bound_to 6896
  151.2386  135.0589  159.9070 H   0  0  0  0  0  0  0  0  0  0  0  0  # atno 6909 bound_to 6896
  145.0431  140.8160  143.4254 H   0  0  0  0  0  0  0  0  0  0  0  0  # atno 7974 bound_to 7965
  156.2498  140.1950  156.6742 H   0  0  0  0  0  0  0  0  0  0  0  0  # atno 8008 bound_to 7997
  154.6370  140.0588  156.9826 H   0  0  0  0  0  0  0  0  0  0  0  0  # atno 8009 bound_to 7997
  155.1622  140.3261  155.4412 H   0  0  0  0  0  0  0  0  0  0  0  0  # atno 8010 bound_to 7997
  140.4718  143.2424  151.8193 H   0  0  0  0  0  0  0  0  0  0  0  0  # atno 10167 bound_to 10162
  156.0005  130.4701  150.4424 H   0  0  0  0  0  0  0  0  0  0  0  0  # atno 10718 bound_to 10713
  153.2265  135.6887  153.7939 H   0  0  0  0  0  0  0  0  0  0  0  0  # atno 10763 bound_to 10752
  153.7119  135.3281  155.3249 H   0  0  0  0  0  0  0  0  0  0  0  0  # atno 10764 bound_to 10752
  154.8294  135.4592  154.1133 H   0  0  0  0  0  0  0  0  0  0  0  0  # atno 10765 bound_to 10752
  139.9224  134.9638  156.7951 H   0  0  0  0  0  0  0  0  0  0  0  0  # atno 11005 bound_to 11000
  145.1622  139.2452  143.5385 LP  0  0  0  0  0  0  0  0  0  0  0  0  # atno 17320 bound_to 7965
  146.3511  140.1352  142.8596 LP  0  0  0  0  0  0  0  0  0  0  0  0  # atno 17321 bound_to 7965
  139.4819  144.4882  151.9220 LP  0  0  0  0  0  0  0  0  0  0  0  0  # atno 17342 bound_to 10162
  140.3967  144.2546  150.5895 LP  0  0  0  0  0  0  0  0  0  0  0  0  # atno 17343 bound_to 10162
  157.2464  131.0537  151.2405 LP  0  0  0  0  0  0  0  0  0  0  0  0  # atno 17370 bound_to 10713
  157.3570  130.7112  149.6477 LP  0  0  0  0  0  0  0  0  0  0  0  0  # atno 17371 bound_to 10713
  140.6435  133.9796  155.7719 LP  0  0  0  0  0  0  0  0  0  0  0  0  # atno 17394 bound_to 11000
  141.0755  134.0141  157.3464 LP  0  0  0  0  0  0  0  0  0  0  0  0  # atno 17395 bound_to 11000

$$$$
