#       Name:                AV-unprocessed.smi:942
#       Creating user name   scv26
#       Creation time:       Fri Mar 27 02:13:29 2020


#       File generated by GOLD software.
#

@<TRIPOS>MOLECULE
AV-unprocessed.smi:942
    45    47     1
SMALL
NO_CHARGES


@<TRIPOS>ATOM
      1 ****         0.3205   2.2791  -0.8915 O.2            1 S1                 0.0000
      2 ****        -0.0588   1.1456  -0.5958 C.2            1 S1                 0.0000
      3 ****         0.7810   0.1372  -0.3204 N.am           1 S1                 0.0000
      4 ****         2.2395   0.2389  -0.2617 C.3            1 S1                 0.0000
      5 ****         2.8605  -0.0048  -1.6542 C.3            1 S1                 0.0000
      6 ****         3.6791  -1.2997  -1.5534 C.3            1 S1                 0.0000
      7 ****         3.1697  -2.0033  -0.2969 C.3            1 S1                 0.0000
      8 ****         2.8520  -0.8444   0.6532 C.3            1 S1                 0.0000
      9 ****         2.0429  -1.1916   1.8186 N.pl3          1 S1                 0.0000
     10 ****         1.5341  -2.4345   2.1846 C.2            1 S1                 0.0000
     11 ****         0.8476  -2.2502   3.3632 C.2            1 S1                 0.0000
     12 ****         0.9317  -0.9162   3.7513 N.2            1 S1                 0.0000
     13 ****         1.6604  -0.3557   2.7955 C.2            1 S1                 0.0000
     14 ****        -1.5563   0.8237  -0.5118 C.3            1 S1                 0.0000
     15 ****        -2.2636   1.0938  -1.8568 C.3            1 S1                 0.0000
     16 ****        -3.7672   0.7842  -1.7679 C.3            1 S1                 0.0000
     17 ****        -4.4338   1.5763  -0.6319 C.3            1 S1                 0.0000
     18 ****        -3.7308   1.3219   0.7108 C.3            1 S1                 0.0000
     19 ****        -2.2277   1.6314   0.6191 C.3            1 S1                 0.0000
     20 ****         0.3801  -0.7608  -0.0909 H              1 S1                 0.0000
     21 ****         2.5171   1.2249   0.1159 H              1 S1                 0.0000
     22 ****         2.0911  -0.1056  -2.4213 H              1 S1                 0.0000
     23 ****         3.4964   0.8287  -1.9541 H              1 S1                 0.0000
     24 ****         3.5875  -1.9214  -2.4445 H              1 S1                 0.0000
     25 ****         4.7348  -1.0547  -1.4300 H              1 S1                 0.0000
     26 ****         2.2649  -2.5611  -0.5419 H              1 S1                 0.0000
     27 ****         3.8983  -2.7018   0.1158 H              1 S1                 0.0000
     28 ****         3.8021  -0.4640   1.0327 H              1 S1                 0.0000
     29 ****         1.6893  -3.3274   1.5977 H              1 S1                 0.0000
     30 ****         0.3087  -2.9711   3.9603 H              1 S1                 0.0000
     31 ****         1.9153   0.6940   2.8000 H              1 S1                 0.0000
     32 ****        -1.6658  -0.2376  -0.2801 H              1 S1                 0.0000
     33 ****        -2.1292   2.1360  -2.1510 H              1 S1                 0.0000
     34 ****        -1.8137   0.4900  -2.6460 H              1 S1                 0.0000
     35 ****        -4.2515   1.0162  -2.7168 H              1 S1                 0.0000
     36 ****        -3.9106  -0.2840  -1.6007 H              1 S1                 0.0000
     37 ****        -4.4036   2.6419  -0.8630 H              1 S1                 0.0000
     38 ****        -5.4873   1.3053  -0.5576 H              1 S1                 0.0000
     39 ****        -4.1886   1.9310   1.4908 H              1 S1                 0.0000
     40 ****        -3.8727   0.2822   1.0081 H              1 S1                 0.0000
     41 ****        -1.7510   1.4080   1.5747 H              1 S1                 0.0000
     42 ****        -2.0919   2.7008   0.4494 H              1 S1                 0.0000
     43 ****         1.2984   2.4836  -0.9354 LP             1 S1                 0.0000
     44 ****        -0.3494   2.9951  -1.0879 LP             1 S1                 0.0000
     45 ****         0.5357  -0.4824   4.5606 LP             1 S1                 0.0000
@<TRIPOS>BOND
    1    1    2 2     
    2    2    3 am    
    3    2   14 1     
    4    3    4 1     
    5    3   20 1     
    6    4    8 1     
    7    4    5 1     
    8    4   21 1     
    9    5    6 1     
   10    5   22 1     
   11    5   23 1     
   12    6    7 1     
   13    6   24 1     
   14    6   25 1     
   15    7    8 1     
   16    7   26 1     
   17    7   27 1     
   18    8    9 1     
   19    8   28 1     
   20    9   13 1     
   21    9   10 1     
   22   10   11 2     
   23   10   29 1     
   24   11   12 1     
   25   11   30 1     
   26   12   13 2     
   27   13   31 1     
   28   14   19 1     
   29   14   15 1     
   30   14   32 1     
   31   15   16 1     
   32   15   33 1     
   33   15   34 1     
   34   16   17 1     
   35   16   35 1     
   36   16   36 1     
   37   17   18 1     
   38   17   37 1     
   39   17   38 1     
   40   18   19 1     
   41   18   39 1     
   42   18   40 1     
   43   19   41 1     
   44   19   42 1     
   45    1   43 1     
   46    1   44 1     
   47   12   45 1     
@<TRIPOS>SUBSTRUCTURE
      1 S1             1
@<TRIPOS>SET
LONE_PAIRS      STATIC     ATOMS    <user>   **** ""
3 43 44 45
DONOR_HYDROGENS      STATIC     ATOMS    <user>   **** ""
1 20
ATOM$BLUE        STATIC     ATOMS    COLORGROUP SYSTEM
3 43 44 45
ATOM$RED        STATIC     ATOMS    COLORGROUP SYSTEM
1 20
