#       Name:                AV-unprocessed.smi:228
#       Creating user name   scv26
#       Creation time:       Thu Mar 26 20:26:09 2020


#       File generated by GOLD software.
#

@<TRIPOS>MOLECULE
AV-unprocessed.smi:228
    71    74     1
SMALL
NO_CHARGES


@<TRIPOS>ATOM
      1 ****        -3.5707  -0.9330   2.1849 C.3            1 S1                 0.0000
      2 ****        -2.7283   0.2265   2.4496 N.pl3          1 S1                 0.0000
      3 ****        -3.3580   1.5499   2.4495 C.3            1 S1                 0.0000
      4 ****        -3.7083   2.0468   1.0322 C.3            1 S1                 0.0000
      5 ****        -4.5181   3.1945   1.1824 O.3            1 S1                 0.0000
      6 ****        -2.4647   2.4420   0.2043 C.3            1 S1                 0.0000
      7 ****        -2.7104   2.7552  -1.2038 N.3            1 S1                 0.0000
      8 ****        -3.1013   1.5799  -1.9816 C.3            1 S1                 0.0000
      9 ****        -3.3108   1.9169  -3.4685 C.3            1 S1                 0.0000
     10 ****        -2.1286   2.5066  -3.9988 O.3            1 S1                 0.0000
     11 ****        -1.7435   3.6844  -3.2981 C.3            1 S1                 0.0000
     12 ****        -1.5245   3.3488  -1.8132 C.3            1 S1                 0.0000
     13 ****        -1.3725   0.1151   2.3640 C.ar           1 S1                 0.0000
     14 ****        -0.6134   1.0958   2.9218 N.ar           1 S1                 0.0000
     15 ****         0.7196   1.0467   2.8668 C.ar           1 S1                 0.0000
     16 ****         1.4954   0.1220   2.3026 N.ar           1 S1                 0.0000
     17 ****         0.7495  -0.8651   1.7305 C.ar           1 S1                 0.0000
     18 ****        -0.6738  -0.9532   1.7201 C.ar           1 S1                 0.0000
     19 ****        -1.0563  -2.1078   1.0434 N.2            1 S1                 0.0000
     20 ****         0.0666  -2.6711   0.6928 C.2            1 S1                 0.0000
     21 ****         1.2012  -1.9758   1.0395 N.pl3          1 S1                 0.0000
     22 ****         2.5603  -2.3733   0.8140 C.3            1 S1                 0.0000
     23 ****         3.5903  -1.3785   0.2717 C.3            1 S1                 0.0000
     24 ****         4.2676  -2.5040  -0.5411 C.3            1 S1                 0.0000
     25 ****         4.5986  -2.1496  -1.9993 C.3            1 S1                 0.0000
     26 ****         5.5648  -1.1208  -2.0751 O.3            1 S1                 0.0000
     27 ****         5.5342  -3.1465   0.0680 C.3            1 S1                 0.0000
     28 ****         5.3532  -3.5973   1.3951 O.3            1 S1                 0.0000
     29 ****         2.9451  -3.2826  -0.3581 C.3            1 S1                 0.0000
     30 ****        -3.2040  -1.8115   2.7167 H              1 S1                 0.0000
     31 ****        -3.6007  -1.1517   1.1172 H              1 S1                 0.0000
     32 ****        -4.5929  -0.7510   2.5177 H              1 S1                 0.0000
     33 ****        -4.2760   1.4670   3.0326 H              1 S1                 0.0000
     34 ****        -2.7575   2.2936   2.9734 H              1 S1                 0.0000
     35 ****        -4.2990   1.2827   0.5291 H              1 S1                 0.0000
     36 ****        -4.0085   3.8673   1.6074 H              1 S1                 0.0000
     37 ****        -1.9947   3.2985   0.6899 H              1 S1                 0.0000
     38 ****        -1.7265   1.6418   0.2482 H              1 S1                 0.0000
     39 ****        -2.3377   0.8056  -1.8925 H              1 S1                 0.0000
     40 ****        -4.0249   1.1537  -1.5932 H              1 S1                 0.0000
     41 ****        -3.5430   1.0137  -4.0331 H              1 S1                 0.0000
     42 ****        -4.1529   2.5992  -3.5944 H              1 S1                 0.0000
     43 ****        -0.8264   4.0771  -3.7375 H              1 S1                 0.0000
     44 ****        -2.5096   4.4528  -3.4125 H              1 S1                 0.0000
     45 ****        -1.2491   4.2580  -1.2777 H              1 S1                 0.0000
     46 ****        -0.6792   2.6650  -1.7205 H              1 S1                 0.0000
     47 ****         1.2384   1.8668   3.3410 H              1 S1                 0.0000
     48 ****         0.0942  -3.6116   0.1618 H              1 S1                 0.0000
     49 ****         2.9003  -2.7995   1.7584 H              1 S1                 0.0000
     50 ****         3.1342  -0.6149  -0.3609 H              1 S1                 0.0000
     51 ****         4.2206  -0.9232   1.0362 H              1 S1                 0.0000
     52 ****         4.9664  -3.0202  -2.5437 H              1 S1                 0.0000
     53 ****         3.7088  -1.8085  -2.5294 H              1 S1                 0.0000
     54 ****         5.7301  -0.9296  -2.9857 H              1 S1                 0.0000
     55 ****         5.8597  -3.9994  -0.5284 H              1 S1                 0.0000
     56 ****         6.3636  -2.4388   0.0776 H              1 S1                 0.0000
     57 ****         6.1728  -3.9496   1.7069 H              1 S1                 0.0000
     58 ****         3.0633  -4.3331  -0.0906 H              1 S1                 0.0000
     59 ****         2.2691  -3.1732  -1.2077 H              1 S1                 0.0000
     60 ****        -5.3172   2.9728   1.7413 LP             1 S1                 0.0000
     61 ****        -4.8184   3.5155   0.2841 LP             1 S1                 0.0000
     62 ****        -3.4698   3.4057  -1.2176 LP             1 S1                 0.0000
     63 ****        -2.2902   2.7423  -4.9571 LP             1 S1                 0.0000
     64 ****        -1.3845   1.8411  -3.9402 LP             1 S1                 0.0000
     65 ****        -1.0600   1.8646   3.3796 LP             1 S1                 0.0000
     66 ****         2.4950   0.1487   2.2993 LP             1 S1                 0.0000
     67 ****        -1.9851  -2.4330   0.8656 LP             1 S1                 0.0000
     68 ****         6.4111  -1.4202  -1.6346 LP             1 S1                 0.0000
     69 ****         5.2215  -0.3016  -1.6157 LP             1 S1                 0.0000
     70 ****         4.6504  -4.3084   1.4168 LP             1 S1                 0.0000
     71 ****         5.0720  -2.8330   1.9755 LP             1 S1                 0.0000
@<TRIPOS>BOND
    1    1    2 1     
    2    1   30 1     
    3    1   31 1     
    4    1   32 1     
    5    2    3 1     
    6    2   13 1     
    7    3    4 1     
    8    3   33 1     
    9    3   34 1     
   10    4    5 1     
   11    4    6 1     
   12    4   35 1     
   13    5   36 1     
   14    6    7 1     
   15    6   37 1     
   16    6   38 1     
   17    7   12 1     
   18    7    8 1     
   19    8    9 1     
   20    8   39 1     
   21    8   40 1     
   22    9   10 1     
   23    9   41 1     
   24    9   42 1     
   25   10   11 1     
   26   11   12 1     
   27   11   43 1     
   28   11   44 1     
   29   12   45 1     
   30   12   46 1     
   31   13   18 ar    
   32   13   14 ar    
   33   14   15 ar    
   34   15   16 ar    
   35   15   47 1     
   36   16   17 ar    
   37   17   21 1     
   38   17   18 ar    
   39   18   19 1     
   40   19   20 2     
   41   20   21 1     
   42   20   48 1     
   43   21   22 1     
   44   22   29 1     
   45   22   23 1     
   46   22   49 1     
   47   23   24 1     
   48   23   50 1     
   49   23   51 1     
   50   24   25 1     
   51   24   27 1     
   52   24   29 1     
   53   25   26 1     
   54   25   52 1     
   55   25   53 1     
   56   26   54 1     
   57   27   28 1     
   58   27   55 1     
   59   27   56 1     
   60   28   57 1     
   61   29   58 1     
   62   29   59 1     
   63    5   60 1     
   64    5   61 1     
   65    7   62 1     
   66   10   63 1     
   67   10   64 1     
   68   14   65 1     
   69   16   66 1     
   70   19   67 1     
   71   26   68 1     
   72   26   69 1     
   73   28   70 1     
   74   28   71 1     
@<TRIPOS>SUBSTRUCTURE
      1 S1             1
@<TRIPOS>SET
LONE_PAIRS      STATIC     ATOMS    <user>   **** ""
12 60 61 62 63 64 65 66 67 68 69 70 71
DONOR_HYDROGENS      STATIC     ATOMS    <user>   **** ""
3 36 54 57
ATOM$BLUE        STATIC     ATOMS    COLORGROUP SYSTEM
12 60 61 62 63 64 65 66 67 68 69 70 71
ATOM$RED        STATIC     ATOMS    COLORGROUP SYSTEM
3 36 54 57
