AV-unprocessed.smi:26|AV-procd|sdf|185|dock1
  -GOLD-   2262015453D 1   1.00000     0.00000
 Structure written by MMmdl.
 58 61  0  0  0  0  0  0  0  0  1 V2000
  151.2133  133.5270  155.6938 C   0  0  0  0  0  0  0  0  0  0  0  0
  150.4816  134.8320  155.6526 C   0  0  0  0  0  0  0  0  0  0  0  0
  150.9982  136.0856  155.7896 C   0  0  0  0  0  0  0  0  0  0  0  0
  149.9442  137.0309  155.6744 C   0  0  0  0  0  0  0  0  0  0  0  0
  150.0306  138.5096  155.7889 C   0  0  0  0  0  0  0  0  0  0  0  0
  149.0461  139.2371  155.9257 O   0  0  0  0  0  0  0  0  0  0  0  0
  151.4523  139.1009  155.7447 C   0  0  0  0  0  0  0  0  0  0  0  0
  151.7607  139.9342  156.9005 N   0  0  0  0  0  0  0  0  0  0  0  0
  152.6317  139.4022  157.8839 C   0  0  0  0  0  0  0  0  0  0  0  0
  153.1250  138.2775  157.7823 O   0  0  0  0  0  0  0  0  0  0  0  0
  152.8971  140.2961  159.0056 C   0  0  0  0  0  0  0  0  0  0  0  0
  153.6997  139.8890  160.0036 F   0  0  0  0  0  0  0  0  0  0  0  0
  152.3482  141.5290  159.0615 C   0  0  0  0  0  0  0  0  0  0  0  0
  151.5127  142.0299  158.0761 N   0  0  0  0  0  0  0  0  0  0  0  0
  150.9142  143.4180  158.1583 C   0  0  2  0  0  0  0  0  0  0  0  0
  152.0211  144.4882  158.1327 C   0  0  0  0  0  0  0  0  0  0  0  0
  151.6706  145.3578  159.3234 C   0  0  0  0  0  0  0  0  0  0  0  0
  151.0019  144.3591  160.2558 C   0  0  0  0  0  0  0  0  0  0  0  0
  150.2241  143.5682  159.3665 O   0  0  0  0  0  0  0  0  0  0  0  0
  151.1965  141.2314  156.9553 C   0  0  0  0  0  0  0  0  0  0  0  0
  150.4655  141.6632  156.0605 O   0  0  0  0  0  0  0  0  0  0  0  0
  148.7861  136.3235  155.4417 C   0  0  0  0  0  0  0  0  0  0  0  0
  147.3783  136.7896  155.1862 C   0  0  0  0  0  0  0  0  0  0  0  0
  149.1027  134.9600  155.4730 N   0  0  0  0  0  0  0  0  0  0  0  0
  148.1359  133.8638  155.2986 C   0  0  1  0  0  0  0  0  0  0  0  0
  147.1333  133.8211  156.4678 C   0  0  0  0  0  0  0  0  0  0  0  0
  147.5248  133.8366  153.8953 C   0  0  0  0  0  0  0  0  0  0  0  0
  146.2606  134.4338  153.6924 C   0  0  0  0  0  0  0  0  0  0  0  0
  145.6616  134.4308  152.4184 C   0  0  0  0  0  0  0  0  0  0  0  0
  146.3250  133.8339  151.3305 C   0  0  0  0  0  0  0  0  0  0  0  0
  147.5875  133.2418  151.5191 C   0  0  0  0  0  0  0  0  0  0  0  0
  148.1866  133.2438  152.7936 C   0  0  0  0  0  0  0  0  0  0  0  0
  152.2863  133.6850  155.5838 H   0  0  0  0  0  0  0  0  0  0  0  0
  150.9013  132.8617  154.8908 H   0  0  0  0  0  0  0  0  0  0  0  0
  151.0557  133.0200  156.6456 H   0  0  0  0  0  0  0  0  0  0  0  0
  152.0427  136.2999  155.9629 H   0  0  0  0  0  0  0  0  0  0  0  0
  152.2013  138.3100  155.6846 H   0  0  0  0  0  0  0  0  0  0  0  0
  151.5979  139.7051  154.8477 H   0  0  0  0  0  0  0  0  0  0  0  0
  152.5859  142.1349  159.9221 H   0  0  0  0  0  0  0  0  0  0  0  0
  150.2067  143.4865  157.3301 H   0  0  0  0  0  0  0  0  0  0  0  0
  152.9985  144.0243  158.2752 H   0  0  0  0  0  0  0  0  0  0  0  0
  152.0206  145.0310  157.1872 H   0  0  0  0  0  0  0  0  0  0  0  0
  152.5387  145.8435  159.7689 H   0  0  0  0  0  0  0  0  0  0  0  0
  150.9578  146.1290  159.0289 H   0  0  0  0  0  0  0  0  0  0  0  0
  151.7460  143.7401  160.7588 H   0  0  0  0  0  0  0  0  0  0  0  0
  150.3821  144.8383  161.0139 H   0  0  0  0  0  0  0  0  0  0  0  0
  147.3442  137.8110  154.8126 H   0  0  0  0  0  0  0  0  0  0  0  0
  146.7827  136.7426  156.0978 H   0  0  0  0  0  0  0  0  0  0  0  0
  146.8878  136.1849  154.4242 H   0  0  0  0  0  0  0  0  0  0  0  0
  148.6822  132.9229  155.3353 H   0  0  0  0  0  0  0  0  0  0  0  0
  146.4914  132.9423  156.4035 H   0  0  0  0  0  0  0  0  0  0  0  0
  146.4941  134.7024  156.4984 H   0  0  0  0  0  0  0  0  0  0  0  0
  147.6563  133.7684  157.4231 H   0  0  0  0  0  0  0  0  0  0  0  0
  145.7428  134.8940  154.5213 H   0  0  0  0  0  0  0  0  0  0  0  0
  144.6929  134.8867  152.2764 H   0  0  0  0  0  0  0  0  0  0  0  0
  145.8667  133.8312  150.3525 H   0  0  0  0  0  0  0  0  0  0  0  0
  148.0979  132.7844  150.6844 H   0  0  0  0  0  0  0  0  0  0  0  0
  149.1535  132.7784  152.9068 H   0  0  0  0  0  0  0  0  0  0  0  0
  1  2  1  0  0  0  0
  1 33  1  0  0  0  0
  1 34  1  0  0  0  0
  1 35  1  0  0  0  0
  2 24  1  0  0  0  0
  2  3  2  0  0  0  0
  3  4  1  0  0  0  0
  3 36  1  0  0  0  0
  4  5  1  0  0  0  0
  4 22  2  0  0  0  0
  5  6  2  0  0  0  0
  5  7  1  0  0  0  0
  7  8  1  0  0  0  0
  7 37  1  0  0  0  0
  7 38  1  0  0  0  0
  8 20  1  0  0  0  0
  8  9  1  0  0  0  0
  9 10  2  0  0  0  0
  9 11  1  0  0  0  0
 11 12  1  0  0  0  0
 11 13  2  0  0  0  0
 13 14  1  0  0  0  0
 13 39  1  0  0  0  0
 14 15  1  0  0  0  0
 14 20  1  0  0  0  0
 15 19  1  0  0  0  0
 15 16  1  0  0  0  0
 15 40  1  0  0  0  0
 16 17  1  0  0  0  0
 16 41  1  0  0  0  0
 16 42  1  0  0  0  0
 17 18  1  0  0  0  0
 17 43  1  0  0  0  0
 17 44  1  0  0  0  0
 18 19  1  0  0  0  0
 18 45  1  0  0  0  0
 18 46  1  0  0  0  0
 20 21  2  0  0  0  0
 22 23  1  0  0  0  0
 22 24  1  0  0  0  0
 23 47  1  0  0  0  0
 23 48  1  0  0  0  0
 23 49  1  0  0  0  0
 24 25  1  0  0  0  0
 25 26  1  0  0  0  0
 25 27  1  0  0  0  0
 25 50  1  0  0  0  0
 26 51  1  0  0  0  0
 26 52  1  0  0  0  0
 26 53  1  0  0  0  0
 27 32  1  0  0  0  0
 27 28  2  0  0  0  0
 28 29  1  0  0  0  0
 28 54  1  0  0  0  0
 29 30  2  0  0  0  0
 29 55  1  0  0  0  0
 30 31  1  0  0  0  0
 30 56  1  0  0  0  0
 31 32  2  0  0  0  0
 31 57  1  0  0  0  0
 32 58  1  0  0  0  0
M  END
> <s_m_source_file>
AV-unprocessed.smi

> <i_m_source_file_index>
26

> <i_lp_mmshare_version>
43012

> <i_f3d_flags>
0

> <s_epik_input>
W2NIXTFbY0hdW2NIXVtjSF1bY0hdYzFbQ0BASF0oW0NIM10pbjJjKFtDSDNdKWMoW2NIXWMyW0NIM10pQyg9TylbQ0gyXW4zYyg9TyljKEYpW2NIXW4oYzM9TylbQ0BASF00W0NIMl1bQ0gyXVtDSDJdTzQ=

> <s_epik_cmdline>
J2VwaWtfcHl0aG9uJywgJy1waCcsICc3LjAnLCAnLXRuJywgJzgnLCAnLW1hJywgJzIwMCcsICctbWV0YWxfYmluZGluZycsICctaW1hZScsICc8aW5maWxlLm1hZT4nLCAnLW9tYWUnLCAnPG91dGZpbGUubWFlPic=

> <r_lp_tautomer_probability>
1

> <r_epik_Ionization_Penalty>
5.02402e-09

> <r_epik_Ionization_Penalty_Charging>
5.01743e-09

> <r_epik_Ionization_Penalty_Neutral>
6.58831e-12

> <r_epik_State_Penalty>
-0

> <r_epik_Charging_Adjusted_Penalty>
5.01743e-09

> <i_epik_Tot_Q>
0

> <i_epik_Tot_abs_Q>
0

> <r_epik_Metal_State_Penalty>
-0

> <b_epik_Metal_Only>
0

> <s_epik_Chemistry_Notes>
This compound contains an acetal/aminal-like group ( X-CH(R)-Y where X, Y are N, S, or O) that may be acid/base labile, releasing an aldehyde.

> <s_lp_Force_Field>
OPLS_2005

> <r_lp_Energy>
50.3932

> <b_lp_Chiralities_Consistent>
1

> <s_lp_Variant>
AV-unprocessed.smi:26-3

> <Gold.Version>
5.8.1

> <Gold.Id.Protein>
6NUR|6NUR_protein|mol2

> <Gold.PLP.Fitness>
45.5013

> <Gold.PLP.PLP>
-47.4100

> <Gold.PLP.part.hbond>
0.0000

> <Gold.PLP.part.metal>
0.0000

> <Gold.PLP.part.buried>
-6.5978

> <Gold.PLP.part.nonpolar>
-40.3791

> <Gold.PLP.part.repulsive>
0.1868

> <Gold.PLP.ligand.clash>
0.0000

> <Gold.PLP.ligand.torsion>
1.0905

> <Gold.PLP.Chemscore.Hbond>
0.0000

> <Gold.PLP.Chemscore.CHOScore>
0.0000

> <Gold.PLP.Chemscore.Metal>
0.0000

> <Gold.PLP.Chemscore.Internal.Correction>
0.2724

> <Gold.Rescore>
     Score         DG    S(hbond)    S(metal)    S(lipo)     H(rot)  DE(clash)    DE(int)     intcor
     10.65     -13.75       0.00        0.00     110.86       1.84       0.15       2.95       ----

> <Gold.Chemscore.Fitness>
10.6477

> <Gold.Chemscore.DG>
-13.7506

> <Gold.Chemscore.ZeroCoef>
-5.4800

> <Gold.Chemscore.Hbond>
0.0000

> <Gold.Chemscore.Metal>
0.0000

> <Gold.Chemscore.Lipo>
110.8595

> <Gold.Chemscore.Internal_Hbond>
0.0000

> <Gold.Chemscore.DEClash>
0.1531

> <Gold.Chemscore.DEInternal>
2.9498

> <Gold.Chemscore.Rot>
1.8359

> <Gold.Chemscore.Internal.Correction>
   9.000000E+99

> <Gold.Chemscore.Hbond.Weighted>
-0.0000

> <Gold.Chemscore.Metal.Weighted>
-0.0000

> <Gold.Chemscore.Lipo.Weighted>
-12.9706

> <Gold.Chemscore.Internal_Hbond.Weighted>
0.0000

> <Gold.Chemscore.DEClash.Weighted>
0.1531

> <Gold.Chemscore.DEInternal.Weighted>
2.9498

> <Gold.Chemscore.Rot.Weighted>
4.7000

> <Gold.Chemscore.Internal.Correction.Weighted>
   9.000000E+99

> <Gold.Protein.RotatedTorsions>
[ 6907 6896 6895 6894 ] final  -53.44 input  -60.11 | X-H torsion
[ 7974 7965 7964 7962 ] final  159.79 input  175.53 | X-H torsion
[ 8008 7997 7996 7995 ] final   39.71 input   59.86 | X-H torsion
[ 10167 10162 10161 10158 ] final  122.59 input  -65.29 | X-H torsion
[ 10718 10713 10712 10709 ] final  -69.43 input   66.30 | X-H torsion
[ 10763 10752 10751 10750 ] final  163.68 input  -60.55 | X-H torsion
[ 11005 11000 10999 10996 ] final -175.20 input  -57.11 | X-H torsion

> <Gold.Protein.ActiveResidues>
 VAL166  LYS551  ARG553  GLY616  TRP617  ASP618  TYR619  PRO620  LYS621  CYS622 
 ASP623  PHE694  ASN695  SER759  ASP760  ASP761  ALA762  ILE779  LEU786  VAL792 
 PHE793  MET794  SER795  GLU796  ALA797  LYS798  CYS799  TRP800  GLU811  SER814 

> <Gold.Protein.RotatedAtoms>
  150.8426  134.7724  159.6944 H   0  0  0  0  0  0  0  0  0  0  0  0  # atno 6907 bound_to 6896
  152.4510  134.5390  159.9843 H   0  0  0  0  0  0  0  0  0  0  0  0  # atno 6908 bound_to 6896
  151.5526  133.3377  159.2992 H   0  0  0  0  0  0  0  0  0  0  0  0  # atno 6909 bound_to 6896
  144.7771  139.7666  143.6274 H   0  0  0  0  0  0  0  0  0  0  0  0  # atno 7974 bound_to 7965
  155.2411  140.3345  155.4292 H   0  0  0  0  0  0  0  0  0  0  0  0  # atno 8008 bound_to 7997
  156.2255  140.1827  156.7418 H   0  0  0  0  0  0  0  0  0  0  0  0  # atno 8009 bound_to 7997
  154.5892  140.0641  156.9200 H   0  0  0  0  0  0  0  0  0  0  0  0  # atno 8010 bound_to 7997
  139.5850  144.7002  151.3433 H   0  0  0  0  0  0  0  0  0  0  0  0  # atno 10167 bound_to 10162
  156.0456  130.4312  150.2146 H   0  0  0  0  0  0  0  0  0  0  0  0  # atno 10718 bound_to 10713
  154.2973  135.2759  155.2627 H   0  0  0  0  0  0  0  0  0  0  0  0  # atno 10763 bound_to 10752
  154.5079  135.5790  153.6585 H   0  0  0  0  0  0  0  0  0  0  0  0  # atno 10764 bound_to 10752
  152.9905  135.6174  154.3142 H   0  0  0  0  0  0  0  0  0  0  0  0  # atno 10765 bound_to 10752
  140.4659  134.6211  157.4862 H   0  0  0  0  0  0  0  0  0  0  0  0  # atno 11005 bound_to 11000
  146.1958  139.5223  142.9776 LP  0  0  0  0  0  0  0  0  0  0  0  0  # atno 17320 bound_to 7965
  145.6154  141.0332  143.1944 LP  0  0  0  0  0  0  0  0  0  0  0  0  # atno 17321 bound_to 7965
  140.7123  143.7359  150.7589 LP  0  0  0  0  0  0  0  0  0  0  0  0  # atno 17342 bound_to 10162
  140.0901  143.4886  152.2483 LP  0  0  0  0  0  0  0  0  0  0  0  0  # atno 17343 bound_to 10162
  157.0236  130.9986  151.3332 LP  0  0  0  0  0  0  0  0  0  0  0  0  # atno 17370 bound_to 10713
  157.5327  130.8069  149.7935 LP  0  0  0  0  0  0  0  0  0  0  0  0  # atno 17371 bound_to 10713
  139.9916  134.6977  155.9681 LP  0  0  0  0  0  0  0  0  0  0  0  0  # atno 17394 bound_to 11000
  141.1599  133.6539  156.4286 LP  0  0  0  0  0  0  0  0  0  0  0  0  # atno 17395 bound_to 11000

$$$$
