AV-unprocessed.smi:41|AV-procd|sdf|386|dock5
  -GOLD-   2262016243D 1   1.00000     0.00000
 Structure written by MMmdl.
 26 27  0  0  0  0  0  0  0  0  1 V2000
  150.2013  139.3246  153.7629 N   0  0  0  0  0  0  0  0  0  0  0  0
  150.4574  139.9683  154.9110 C   0  0  0  0  0  0  0  0  0  0  0  0
  151.4092  139.5131  155.7023 N   0  0  0  0  0  0  0  0  0  0  0  0
  151.7423  140.1014  156.8945 C   0  0  0  0  0  0  0  0  0  0  0  0
  152.6255  139.6173  157.6010 O   0  0  0  0  0  0  0  0  0  0  0  0
  151.0374  141.2744  157.2665 N   0  0  0  0  0  0  0  0  0  0  0  0
  151.2847  141.9168  158.5548 C   0  0  1  0  0  0  0  0  0  0  0  0
  152.7775  142.1727  158.8603 C   0  0  0  0  0  0  0  0  0  0  0  0
  152.8361  143.5504  160.0195 S   0  0  0  0  0  0  0  0  0  0  0  0
  151.0680  143.8232  159.7559 C   0  0  1  0  0  0  0  0  0  0  0  0
  150.6804  145.3077  159.6552 C   0  0  0  0  0  0  0  0  0  0  0  0
  149.2920  145.4965  159.8414 O   0  0  0  0  0  0  0  0  0  0  0  0
  150.6217  143.1395  158.5974 O   0  0  0  0  0  0  0  0  0  0  0  0
  150.0117  141.7399  156.4527 C   0  0  0  0  0  0  0  0  0  0  0  0
  149.6980  141.1390  155.2851 C   0  0  0  0  0  0  0  0  0  0  0  0
  148.7086  141.6105  154.5068 F   0  0  0  0  0  0  0  0  0  0  0  0
  150.8670  141.3102  159.3603 H   0  0  0  0  0  0  0  0  0  0  0  0
  150.5450  143.3828  160.6064 H   0  0  0  0  0  0  0  0  0  0  0  0
  149.4705  139.6594  153.1515 H   0  0  0  0  0  0  0  0  0  0  0  0
  150.7380  138.5067  153.5131 H   0  0  0  0  0  0  0  0  0  0  0  0
  153.2370  141.2754  159.2748 H   0  0  0  0  0  0  0  0  0  0  0  0
  153.3334  142.4622  157.9711 H   0  0  0  0  0  0  0  0  0  0  0  0
  151.2337  145.9018  160.3832 H   0  0  0  0  0  0  0  0  0  0  0  0
  150.9393  145.6901  158.6675 H   0  0  0  0  0  0  0  0  0  0  0  0
  148.8977  145.6759  159.0017 H   0  0  0  0  0  0  0  0  0  0  0  0
  149.4252  142.5974  156.7477 H   0  0  0  0  0  0  0  0  0  0  0  0
  1  2  1  0  0  0  0
  1 19  1  0  0  0  0
  1 20  1  0  0  0  0
  2 15  1  0  0  0  0
  2  3  2  0  0  0  0
  3  4  1  0  0  0  0
  4  5  2  0  0  0  0
  4  6  1  0  0  0  0
  6  7  1  0  0  0  0
  6 14  1  0  0  0  0
  7 17  1  0  0  0  0
  7 13  1  0  0  0  0
  7  8  1  0  0  0  0
  8  9  1  0  0  0  0
  8 21  1  0  0  0  0
  8 22  1  0  0  0  0
  9 10  1  0  0  0  0
 10 18  1  0  0  0  0
 10 11  1  0  0  0  0
 10 13  1  0  0  0  0
 11 12  1  0  0  0  0
 11 23  1  0  0  0  0
 11 24  1  0  0  0  0
 12 25  1  0  0  0  0
 14 15  2  0  0  0  0
 14 26  1  0  0  0  0
 15 16  1  0  0  0  0
M  END
> <s_m_source_file>
AV-unprocessed.smi

> <i_m_source_file_index>
41

> <i_lp_mmshare_version>
43012

> <i_f3d_flags>
0

> <s_epik_input>
W05IMl1jMW5jKD1PKW4oW2NIXWMxRilbQ0BASF0yW0NIMl1TW0NAQEhdKE8yKVtDSDJdW09IXQ==

> <s_epik_cmdline>
J2VwaWtfcHl0aG9uJywgJy1waCcsICc3LjAnLCAnLXRuJywgJzgnLCAnLW1hJywgJzIwMCcsICctbWV0YWxfYmluZGluZycsICctaW1hZScsICc8aW5maWxlLm1hZT4nLCAnLW9tYWUnLCAnPG91dGZpbGUubWFlPic=

> <r_lp_tautomer_probability>
1

> <r_epik_Ionization_Penalty>
0.000101883

> <r_epik_Ionization_Penalty_Charging>
1.48607e-08

> <r_epik_Ionization_Penalty_Neutral>
0.000101868

> <r_epik_State_Penalty>
-0

> <r_epik_Charging_Adjusted_Penalty>
1.48607e-08

> <i_epik_Tot_Q>
0

> <i_epik_Tot_abs_Q>
0

> <r_epik_Metal_State_Penalty>
-0

> <b_epik_Metal_Only>
0

> <s_epik_Chemistry_Notes>
This compound contains an acetal/aminal-like group ( X-CH(R)-Y where X, Y are N, S, or O) that may be acid/base labile, releasing an aldehyde.

> <s_lp_Force_Field>
OPLS_2005

> <r_lp_Energy>
14.0891

> <b_lp_Chiralities_Consistent>
1

> <s_lp_Variant>
AV-unprocessed.smi:41-4

> <Gold.Version>
5.8.1

> <Gold.Id.Protein>
6NUR|6NUR_protein|mol2

> <Gold.PLP.Fitness>
42.2942

> <Gold.PLP.PLP>
-32.1138

> <Gold.PLP.part.hbond>
-4.0000

> <Gold.PLP.part.metal>
0.0000

> <Gold.PLP.part.buried>
-2.0004

> <Gold.PLP.part.nonpolar>
-25.8847

> <Gold.PLP.part.repulsive>
1.0803

> <Gold.PLP.ligand.clash>
0.0000

> <Gold.PLP.ligand.torsion>
0.3830

> <Gold.PLP.Chemscore.Hbond>
2.6334

> <Gold.PLP.Chemscore.CHOScore>
1.0000

> <Gold.PLP.Chemscore.Metal>
0.0000

> <Gold.Chemscore.Hbonds>
donor molecule, donor type, donor heavy atom, donor atom, acceptor molecule, acceptor atom, score
      L1  H     1    19       P1  7957  0.54
      L1  H    12    25       P1  8029  1.00
      P1  H  7997  8009       L1     5  1.00
      L1  C    14    26       P1  8028  1.00

> <Gold.PLP.Chemscore.Internal.Correction>
0.0464

> <Gold.Rescore>
     Score         DG    S(hbond)    S(metal)    S(lipo)     H(rot)  DE(clash)    DE(int)     intcor
     11.96     -13.82       2.39        0.00      51.12       2.19       0.01       1.85       ----

> <Gold.Chemscore.Fitness>
11.9614

> <Gold.Chemscore.DG>
-13.8216

> <Gold.Chemscore.ZeroCoef>
-5.4800

> <Gold.Chemscore.Hbond>
2.3877

> <Gold.Chemscore.Metal>
0.0000

> <Gold.Chemscore.Lipo>
51.1150

> <Gold.Chemscore.Internal_Hbond>
0.0000

> <Gold.Chemscore.DEClash>
0.0136

> <Gold.Chemscore.DEInternal>
1.8466

> <Gold.Chemscore.Rot>
2.1929

> <Gold.Chemscore.Internal.Correction>
   9.000000E+99

> <Gold.Chemscore.Hbonds>
donor molecule, donor type, donor heavy atom, donor atom, acceptor molecule, acceptor atom, score
      L1  H     1    19       P1  7957  0.50
      L1  H    12    25       P1  8029  0.95
      P1  H  7997  8009       L1     5  0.61

> <Gold.Chemscore.Hbond.Weighted>
-7.9749

> <Gold.Chemscore.Metal.Weighted>
-0.0000

> <Gold.Chemscore.Lipo.Weighted>
-5.9805

> <Gold.Chemscore.Internal_Hbond.Weighted>
0.0000

> <Gold.Chemscore.DEClash.Weighted>
0.0136

> <Gold.Chemscore.DEInternal.Weighted>
1.8466

> <Gold.Chemscore.Rot.Weighted>
5.6137

> <Gold.Chemscore.Internal.Correction.Weighted>
   9.000000E+99

> <Gold.Protein.RotatedTorsions>
[ 6907 6896 6895 6894 ] final  -15.55 input  -60.11 | X-H torsion
[ 7974 7965 7964 7962 ] final  169.96 input  175.53 | X-H torsion
[ 8008 7997 7996 7995 ] final  172.44 input   59.86 | X-H torsion
[ 10167 10162 10161 10158 ] final    8.73 input  -65.29 | X-H torsion
[ 10718 10713 10712 10709 ] final  -92.13 input   66.30 | X-H torsion
[ 10763 10752 10751 10750 ] final   44.81 input  -60.55 | X-H torsion
[ 11005 11000 10999 10996 ] final -169.01 input  -57.11 | X-H torsion

> <Gold.Protein.ActiveResidues>
 VAL166  LYS551  ARG553  GLY616  TRP617  ASP618  TYR619  PRO620  LYS621  CYS622 
 ASP623  PHE694  ASN695  SER759  ASP760  ASP761  ALA762  ILE779  LEU786  VAL792 
 PHE793  MET794  SER795  GLU796  ALA797  LYS798  CYS799  TRP800  GLU811  SER814 

> <Gold.Protein.RotatedAtoms>
  151.3223  135.0821  159.9309 H   0  0  0  0  0  0  0  0  0  0  0  0  # atno 6907 bound_to 6896
  152.5254  133.9627  159.7735 H   0  0  0  0  0  0  0  0  0  0  0  0  # atno 6908 bound_to 6896
  150.9950  133.6060  159.2733 H   0  0  0  0  0  0  0  0  0  0  0  0  # atno 6909 bound_to 6896
  144.7338  139.9132  143.6416 H   0  0  0  0  0  0  0  0  0  0  0  0  # atno 7974 bound_to 7965
  156.1174  140.1486  156.9253 H   0  0  0  0  0  0  0  0  0  0  0  0  # atno 8008 bound_to 7997
  154.4810  140.0879  156.7420 H   0  0  0  0  0  0  0  0  0  0  0  0  # atno 8009 bound_to 7997
  155.4489  140.3434  155.4301 H   0  0  0  0  0  0  0  0  0  0  0  0  # atno 8010 bound_to 7997
  140.6297  143.8022  150.7279 H   0  0  0  0  0  0  0  0  0  0  0  0  # atno 10167 bound_to 10162
  155.9999  130.4975  150.5579 H   0  0  0  0  0  0  0  0  0  0  0  0  # atno 10718 bound_to 10713
  152.9835  135.6059  154.3334 H   0  0  0  0  0  0  0  0  0  0  0  0  # atno 10763 bound_to 10752
  154.3036  135.2772  155.2601 H   0  0  0  0  0  0  0  0  0  0  0  0  # atno 10764 bound_to 10752
  154.4842  135.5909  153.6468 H   0  0  0  0  0  0  0  0  0  0  0  0  # atno 10765 bound_to 10752
  140.5356  134.5573  157.5086 H   0  0  0  0  0  0  0  0  0  0  0  0  # atno 11005 bound_to 11000
  146.0985  139.3979  143.0361 LP  0  0  0  0  0  0  0  0  0  0  0  0  # atno 17320 bound_to 7965
  145.7611  140.9934  143.1199 LP  0  0  0  0  0  0  0  0  0  0  0  0  # atno 17321 bound_to 7965
  140.1630  143.4259  152.2054 LP  0  0  0  0  0  0  0  0  0  0  0  0  # atno 17342 bound_to 10162
  139.5512  144.7339  151.4428 LP  0  0  0  0  0  0  0  0  0  0  0  0  # atno 17343 bound_to 10162
  157.3492  131.0730  151.1726 LP  0  0  0  0  0  0  0  0  0  0  0  0  # atno 17370 bound_to 10713
  157.2548  130.6631  149.5948 LP  0  0  0  0  0  0  0  0  0  0  0  0  # atno 17371 bound_to 10713
  139.9531  134.7582  156.0403 LP  0  0  0  0  0  0  0  0  0  0  0  0  # atno 17394 bound_to 11000
  141.1257  133.6600  156.3329 LP  0  0  0  0  0  0  0  0  0  0  0  0  # atno 17395 bound_to 11000

$$$$
