#       Name:                AV-unprocessed.smi:3348
#       Creating user name   scv26
#       Creation time:       Fri Mar 27 19:34:41 2020


#       File generated by GOLD software.
#

@<TRIPOS>MOLECULE
AV-unprocessed.smi:3348
    50    51     1
SMALL
NO_CHARGES


@<TRIPOS>ATOM
      1 ****        -3.3069   1.1474   3.1241 C.3            1 S1                 0.0000
      2 ****        -2.0441   1.4679   2.3122 C.3            1 S1                 0.0000
      3 ****        -2.4372   1.9757   0.9003 C.3            1 S1                 0.0000
      4 ****        -1.3889   2.6933   0.1935 N.pl3          1 S1                 0.0000
      5 ****        -0.9439   2.4956  -1.0975 C.2            1 S1                 0.0000
      6 ****         0.0333   3.4177  -1.3387 C.2            1 S1                 0.0000
      7 ****         0.1014   4.1612  -0.1277 C.2            1 S1                 0.0000
      8 ****        -0.7591   3.7340   0.7823 N.2            1 S1                 0.0000
      9 ****        -1.1959   0.2699   2.2758 N.3            1 S1                 0.0000
     10 ****         0.1867   0.4757   1.8481 C.3            1 S1                 0.0000
     11 ****         0.9972  -0.8274   1.9466 C.3            1 S1                 0.0000
     12 ****         0.6125  -1.7791   0.9604 O.3            1 S1                 0.0000
     13 ****         0.9530  -1.4417  -0.3805 C.3            1 S1                 0.0000
     14 ****        -0.3615  -1.3186  -1.1729 C.3            1 S1                 0.0000
     15 ****        -0.0941  -1.0445  -2.6590 C.3            1 S1                 0.0000
     16 ****         0.8046  -2.1346  -3.2617 C.3            1 S1                 0.0000
     17 ****         2.1154  -2.2759  -2.4713 C.3            1 S1                 0.0000
     18 ****         1.8590  -2.5436  -0.9736 C.3            1 S1                 0.0000
     19 ****         3.1865  -2.6664  -0.2082 C.3            1 S1                 0.0000
     20 ****        -3.9428   2.0273   3.2260 H              1 S1                 0.0000
     21 ****        -3.0536   0.8120   4.1304 H              1 S1                 0.0000
     22 ****        -3.8980   0.3633   2.6491 H              1 S1                 0.0000
     23 ****        -1.5237   2.2606   2.8511 H              1 S1                 0.0000
     24 ****        -2.7753   1.1441   0.2805 H              1 S1                 0.0000
     25 ****        -3.2838   2.6590   0.9779 H              1 S1                 0.0000
     26 ****        -1.3515   1.7197  -1.7285 H              1 S1                 0.0000
     27 ****         0.6071   3.5457  -2.2445 H              1 S1                 0.0000
     28 ****         0.7425   4.9960   0.1141 H              1 S1                 0.0000
     29 ****        -1.2015  -0.1771   3.1870 H              1 S1                 0.0000
     30 ****         0.2371   0.8696   0.8370 H              1 S1                 0.0000
     31 ****         0.6527   1.2233   2.4908 H              1 S1                 0.0000
     32 ****         2.0632  -0.6170   1.8495 H              1 S1                 0.0000
     33 ****         0.8641  -1.2753   2.9318 H              1 S1                 0.0000
     34 ****         1.4881  -0.4914  -0.4333 H              1 S1                 0.0000
     35 ****        -0.9381  -2.2391  -1.0721 H              1 S1                 0.0000
     36 ****        -0.9799  -0.5249  -0.7545 H              1 S1                 0.0000
     37 ****        -1.0371  -0.9946  -3.2037 H              1 S1                 0.0000
     38 ****         0.3818  -0.0696  -2.7718 H              1 S1                 0.0000
     39 ****         0.2738  -3.0874  -3.2613 H              1 S1                 0.0000
     40 ****         1.0222  -1.9021  -4.3045 H              1 S1                 0.0000
     41 ****         2.7117  -3.0833  -2.8980 H              1 S1                 0.0000
     42 ****         2.7053  -1.3654  -2.5860 H              1 S1                 0.0000
     43 ****         1.3365  -3.4975  -0.8874 H              1 S1                 0.0000
     44 ****         3.7497  -1.7331  -0.2384 H              1 S1                 0.0000
     45 ****         3.8150  -3.4488  -0.6344 H              1 S1                 0.0000
     46 ****         3.0183  -2.9192   0.8389 H              1 S1                 0.0000
     47 ****        -0.9098   4.0996   1.7008 LP             1 S1                 0.0000
     48 ****        -1.6027  -0.3092   1.5693 LP             1 S1                 0.0000
     49 ****        -0.3804  -1.8887   1.0083 LP             1 S1                 0.0000
     50 ****         1.0547  -2.6483   1.1816 LP             1 S1                 0.0000
@<TRIPOS>BOND
    1    1    2 1     
    2    1   20 1     
    3    1   21 1     
    4    1   22 1     
    5    2    3 1     
    6    2    9 1     
    7    2   23 1     
    8    3    4 1     
    9    3   24 1     
   10    3   25 1     
   11    4    8 1     
   12    4    5 1     
   13    5    6 2     
   14    5   26 1     
   15    6    7 1     
   16    6   27 1     
   17    7    8 2     
   18    7   28 1     
   19    9   10 1     
   20    9   29 1     
   21   10   11 1     
   22   10   30 1     
   23   10   31 1     
   24   11   12 1     
   25   11   32 1     
   26   11   33 1     
   27   12   13 1     
   28   13   18 1     
   29   13   14 1     
   30   13   34 1     
   31   14   15 1     
   32   14   35 1     
   33   14   36 1     
   34   15   16 1     
   35   15   37 1     
   36   15   38 1     
   37   16   17 1     
   38   16   39 1     
   39   16   40 1     
   40   17   18 1     
   41   17   41 1     
   42   17   42 1     
   43   18   19 1     
   44   18   43 1     
   45   19   44 1     
   46   19   45 1     
   47   19   46 1     
   48    8   47 1     
   49    9   48 1     
   50   12   49 1     
   51   12   50 1     
@<TRIPOS>SUBSTRUCTURE
      1 S1             1
@<TRIPOS>SET
LONE_PAIRS      STATIC     ATOMS    <user>   **** ""
4 47 48 49 50
DONOR_HYDROGENS      STATIC     ATOMS    <user>   **** ""
1 29
ATOM$BLUE        STATIC     ATOMS    COLORGROUP SYSTEM
4 47 48 49 50
ATOM$RED        STATIC     ATOMS    COLORGROUP SYSTEM
1 29
