AV-unprocessed.smi:1019|AV-procd|sdf|4446|dock4
  -GOLD-   22720 2413D 1   1.00000     0.00000
 Structure written by MMmdl.
 44 46  0  0  0  0  0  0  0  0  2 V2000
  146.1724  135.6438  153.5767 C   0  0  0  0  0  0  0  0  0  0  0  0
  145.3233  136.3451  152.5871 N   0  3  2  0  0  0  0  0  0  0  0  0
  145.5581  135.8606  151.2047 C   0  0  0  0  0  0  0  0  0  0  0  0
  145.1976  134.3918  151.0585 C   0  0  0  0  0  0  0  0  0  0  0  0
  146.2029  133.4463  150.7638 C   0  0  0  0  0  0  0  0  0  0  0  0
  145.8778  132.0812  150.6435 C   0  0  0  0  0  0  0  0  0  0  0  0
  144.5457  131.6567  150.8125 C   0  0  0  0  0  0  0  0  0  0  0  0
  143.5383  132.5977  151.1000 C   0  0  0  0  0  0  0  0  0  0  0  0
  143.8630  133.9628  151.2221 C   0  0  0  0  0  0  0  0  0  0  0  0
  145.3895  137.8240  152.7240 C   0  0  0  0  0  0  0  0  0  0  0  0
  146.8452  138.3237  152.7690 C   0  0  1  0  0  0  0  0  0  0  0  0
  147.3019  138.4808  151.4404 O   0  0  0  0  0  0  0  0  0  0  0  0
  146.9858  139.6615  153.5250 C   0  0  0  0  0  0  0  0  0  0  0  0
  148.3009  139.8318  154.1150 N   0  0  0  0  0  0  0  0  0  0  0  0
  149.4543  139.2814  153.6900 C   0  0  0  0  0  0  0  0  0  0  0  0
  150.5560  139.5663  154.3773 N   0  0  0  0  0  0  0  0  0  0  0  0
  150.0608  140.3990  155.3661 C   0  0  0  0  0  0  0  0  0  0  0  0
  150.7223  141.0523  156.4303 C   0  0  0  0  0  0  0  0  0  0  0  0
  150.0000  141.8640  157.3295 C   0  0  0  0  0  0  0  0  0  0  0  0
  148.6084  142.0348  157.1789 C   0  0  0  0  0  0  0  0  0  0  0  0
  147.9270  141.3944  156.1259 C   0  0  0  0  0  0  0  0  0  0  0  0
  148.6514  140.5848  155.2310 C   0  0  0  0  0  0  0  0  0  0  0  0
  147.2300  135.8284  153.3844 H   0  0  0  0  0  0  0  0  0  0  0  0
  146.0012  134.5675  153.5365 H   0  0  0  0  0  0  0  0  0  0  0  0
  145.9468  135.9742  154.5909 H   0  0  0  0  0  0  0  0  0  0  0  0
  145.0004  136.4714  150.4928 H   0  0  0  0  0  0  0  0  0  0  0  0
  146.6132  135.9665  150.9485 H   0  0  0  0  0  0  0  0  0  0  0  0
  147.2273  133.7639  150.6347 H   0  0  0  0  0  0  0  0  0  0  0  0
  146.6499  131.3591  150.4216 H   0  0  0  0  0  0  0  0  0  0  0  0
  144.2961  130.6097  150.7204 H   0  0  0  0  0  0  0  0  0  0  0  0
  142.5164  132.2717  151.2275 H   0  0  0  0  0  0  0  0  0  0  0  0
  143.0842  134.6774  151.4454 H   0  0  0  0  0  0  0  0  0  0  0  0
  144.8472  138.2869  151.8974 H   0  0  0  0  0  0  0  0  0  0  0  0
  144.8819  138.1578  153.6289 H   0  0  0  0  0  0  0  0  0  0  0  0
  147.4790  137.5702  153.2377 H   0  0  0  0  0  0  0  0  0  0  0  0
  147.0634  139.3431  151.1351 H   0  0  0  0  0  0  0  0  0  0  0  0
  146.7870  140.5028  152.8595 H   0  0  0  0  0  0  0  0  0  0  0  0
  146.2496  139.7239  154.3271 H   0  0  0  0  0  0  0  0  0  0  0  0
  149.4874  138.6355  152.8248 H   0  0  0  0  0  0  0  0  0  0  0  0
  151.7880  140.9287  156.5550 H   0  0  0  0  0  0  0  0  0  0  0  0
  150.5169  142.3582  158.1390 H   0  0  0  0  0  0  0  0  0  0  0  0
  148.0644  142.6588  157.8729 H   0  0  0  0  0  0  0  0  0  0  0  0
  146.8617  141.5253  156.0090 H   0  0  0  0  0  0  0  0  0  0  0  0
  144.3706  136.0857  152.7997 H   0  0  0  0  0  0  0  0  0  0  0  0
  1  2  1  0  0  0  0
  1 23  1  0  0  0  0
  1 24  1  0  0  0  0
  1 25  1  0  0  0  0
  2  3  1  0  0  0  0
  2 10  1  0  0  0  0
  2 44  1  0  0  0  0
  3  4  1  0  0  0  0
  3 26  1  0  0  0  0
  3 27  1  0  0  0  0
  4  9  1  0  0  0  0
  4  5  2  0  0  0  0
  5  6  1  0  0  0  0
  5 28  1  0  0  0  0
  6  7  2  0  0  0  0
  6 29  1  0  0  0  0
  7  8  1  0  0  0  0
  7 30  1  0  0  0  0
  8  9  2  0  0  0  0
  8 31  1  0  0  0  0
  9 32  1  0  0  0  0
 10 11  1  0  0  0  0
 10 33  1  0  0  0  0
 10 34  1  0  0  0  0
 11 12  1  0  0  0  0
 11 13  1  0  0  0  0
 11 35  1  0  0  0  0
 12 36  1  0  0  0  0
 13 14  1  0  0  0  0
 13 37  1  0  0  0  0
 13 38  1  0  0  0  0
 14 22  1  0  0  0  0
 14 15  1  0  0  0  0
 15 16  2  0  0  0  0
 15 39  1  0  0  0  0
 16 17  1  0  0  0  0
 17 22  2  0  0  0  0
 17 18  1  0  0  0  0
 18 19  2  0  0  0  0
 18 40  1  0  0  0  0
 19 20  1  0  0  0  0
 19 41  1  0  0  0  0
 20 21  2  0  0  0  0
 20 42  1  0  0  0  0
 21 22  1  0  0  0  0
 21 43  1  0  0  0  0
M  CHG  1   2   1
M  END
> <s_m_source_file>
AV-unprocessed.smi

> <i_m_source_file_index>
1019

> <i_lp_mmshare_version>
43012

> <i_f3d_flags>
0

> <s_epik_input>
W2NIXTFbY0hdW2NIXVtjSF1bY0hdYzFbQ0gyXU4oW0NIM10pW0NIMl1bQ0BIXShbT0hdKVtDSDJdbihbY0hdbjIpYyhjMjMpW2NIXVtjSF1bY0hdW2NIXTM=

> <s_epik_cmdline>
J2VwaWtfcHl0aG9uJywgJy1waCcsICc3LjAnLCAnLXRuJywgJzgnLCAnLW1hJywgJzIwMCcsICctbWV0YWxfYmluZGluZycsICctaW1hZScsICc8aW5maWxlLm1hZT4nLCAnLW9tYWUnLCAnPG91dGZpbGUubWFlPic=

> <r_epik_Ionization_Penalty>
0.0996557

> <r_epik_Ionization_Penalty_Charging>
0.0475377

> <r_epik_Ionization_Penalty_Neutral>
0.0521179

> <r_epik_State_Penalty>
0.0851777

> <r_epik_Charging_Adjusted_Penalty>
0.132715

> <i_epik_Tot_Q>
1

> <i_epik_Tot_abs_Q>
1

> <r_epik_Metal_State_Penalty>
0.0423478

> <b_epik_Metal_Only>
0

> <s_lp_Force_Field>
OPLS_2005

> <r_lp_Energy>
16.6774

> <b_lp_Chiralities_Consistent>
1

> <s_lp_Variant>
AV-unprocessed.smi:1019-4

> <Gold.Version>
5.8.1

> <Gold.Id.Protein>
6NUR|6NUR_protein|mol2

> <Gold.PLP.Fitness>
47.7478

> <Gold.PLP.PLP>
-39.8324

> <Gold.PLP.part.hbond>
-4.0000

> <Gold.PLP.part.metal>
0.0000

> <Gold.PLP.part.buried>
-0.0448

> <Gold.PLP.part.nonpolar>
-36.8742

> <Gold.PLP.part.repulsive>
0.1455

> <Gold.PLP.ligand.clash>
0.0000

> <Gold.PLP.ligand.torsion>
1.1317

> <Gold.PLP.Chemscore.Hbond>
1.9000

> <Gold.PLP.Chemscore.CHOScore>
1.2906

> <Gold.PLP.Chemscore.Metal>
0.0000

> <Gold.Chemscore.Hbonds>
donor molecule, donor type, donor heavy atom, donor atom, acceptor molecule, acceptor atom, score
      P1  H  7954  7966       L1    12  0.90
      P1  H  7989  7998       L1    16  0.85
      L1  C    15    39       P1  7948  0.83
      L1  C    15    39       P1  7957  0.49

> <Gold.PLP.Chemscore.Internal.Correction>
0.6069

> <Gold.Rescore>
     Score         DG    S(hbond)    S(metal)    S(lipo)     H(rot)  DE(clash)    DE(int)     intcor
     13.42     -16.60       1.56        0.00     102.02       2.36       2.00       1.18       ----

> <Gold.Chemscore.Fitness>
13.4156

> <Gold.Chemscore.DG>
-16.5951

> <Gold.Chemscore.ZeroCoef>
-5.4800

> <Gold.Chemscore.Hbond>
1.5643

> <Gold.Chemscore.Metal>
0.0000

> <Gold.Chemscore.Lipo>
102.0174

> <Gold.Chemscore.Internal_Hbond>
0.0000

> <Gold.Chemscore.DEClash>
1.9976

> <Gold.Chemscore.DEInternal>
1.1819

> <Gold.Chemscore.Rot>
2.3616

> <Gold.Chemscore.Internal.Correction>
   9.000000E+99

> <Gold.Chemscore.Hbonds>
donor molecule, donor type, donor heavy atom, donor atom, acceptor molecule, acceptor atom, score
      P1  H  7954  7966       L1    12  0.18
      P1  H  7989  7998       L1    16  0.12

> <Gold.Chemscore.Hbond.Weighted>
-5.2248

> <Gold.Chemscore.Metal.Weighted>
-0.0000

> <Gold.Chemscore.Lipo.Weighted>
-11.9360

> <Gold.Chemscore.Internal_Hbond.Weighted>
0.0000

> <Gold.Chemscore.DEClash.Weighted>
1.9976

> <Gold.Chemscore.DEInternal.Weighted>
1.1819

> <Gold.Chemscore.Rot.Weighted>
6.0457

> <Gold.Chemscore.Internal.Correction.Weighted>
   9.000000E+99

> <Gold.Protein.RotatedTorsions>
[ 6907 6896 6895 6894 ] final  -53.88 input  -60.11 | X-H torsion
[ 7974 7965 7964 7962 ] final   41.08 input  175.53 | X-H torsion
[ 8008 7997 7996 7995 ] final  -77.08 input   59.86 | X-H torsion
[ 10167 10162 10161 10158 ] final   25.22 input  -65.29 | X-H torsion
[ 10718 10713 10712 10709 ] final  -60.51 input   66.30 | X-H torsion
[ 10763 10752 10751 10750 ] final  174.07 input  -60.55 | X-H torsion
[ 11005 11000 10999 10996 ] final  -16.33 input  -57.11 | X-H torsion

> <Gold.Protein.ActiveResidues>
 VAL166  LYS551  ARG553  GLY616  TRP617  ASP618  TYR619  PRO620  LYS621  CYS622 
 ASP623  PHE694  ASN695  SER759  ASP760  ASP761  ALA762  ILE779  LEU786  VAL792 
 PHE793  MET794  SER795  GLU796  ALA797  LYS798  CYS799  TRP800  GLU811  SER814 

> <Gold.Protein.RotatedAtoms>
  150.8387  134.7670  159.6913 H   0  0  0  0  0  0  0  0  0  0  0  0  # atno 6907 bound_to 6896
  152.4478  134.5453  159.9861 H   0  0  0  0  0  0  0  0  0  0  0  0  # atno 6908 bound_to 6896
  151.5598  133.3367  159.3005 H   0  0  0  0  0  0  0  0  0  0  0  0  # atno 6909 bound_to 6896
  146.0853  139.5458  142.9511 H   0  0  0  0  0  0  0  0  0  0  0  0  # atno 7974 bound_to 7965
  154.5564  140.0716  156.8749 H   0  0  0  0  0  0  0  0  0  0  0  0  # atno 8008 bound_to 7997
  155.2895  140.3377  155.4235 H   0  0  0  0  0  0  0  0  0  0  0  0  # atno 8009 bound_to 7997
  156.2005  140.1720  156.7895 H   0  0  0  0  0  0  0  0  0  0  0  0  # atno 8010 bound_to 7997
  140.5124  144.0138  150.6378 H   0  0  0  0  0  0  0  0  0  0  0  0  # atno 10167 bound_to 10162
  156.0985  130.4189  150.0864 H   0  0  0  0  0  0  0  0  0  0  0  0  # atno 10718 bound_to 10713
  154.4488  135.2764  155.1795 H   0  0  0  0  0  0  0  0  0  0  0  0  # atno 10763 bound_to 10752
  154.3631  135.6125  153.5704 H   0  0  0  0  0  0  0  0  0  0  0  0  # atno 10764 bound_to 10752
  152.9845  135.5839  154.4829 H   0  0  0  0  0  0  0  0  0  0  0  0  # atno 10765 bound_to 10752
  140.8057  133.8179  155.9514 H   0  0  0  0  0  0  0  0  0  0  0  0  # atno 11005 bound_to 11000
  145.6142  141.0334  143.1950 LP  0  0  0  0  0  0  0  0  0  0  0  0  # atno 17320 bound_to 7965
  144.7321  139.7694  143.7343 LP  0  0  0  0  0  0  0  0  0  0  0  0  # atno 17321 bound_to 7965
  140.3464  143.2989  152.0533 LP  0  0  0  0  0  0  0  0  0  0  0  0  # atno 17342 bound_to 10162
  139.4900  144.6405  151.6886 LP  0  0  0  0  0  0  0  0  0  0  0  0  # atno 17343 bound_to 10162
  156.8857  130.9572  151.3594 LP  0  0  0  0  0  0  0  0  0  0  0  0  # atno 17370 bound_to 10713
  157.6151  130.8612  149.9015 LP  0  0  0  0  0  0  0  0  0  0  0  0  # atno 17371 bound_to 10713
  140.9249  134.2095  157.4902 LP  0  0  0  0  0  0  0  0  0  0  0  0  # atno 17394 bound_to 11000
  139.8718  134.9808  156.5091 LP  0  0  0  0  0  0  0  0  0  0  0  0  # atno 17395 bound_to 11000

$$$$
