#       Name:                AV-unprocessed.smi:1005
#       Creating user name   scv26
#       Creation time:       Fri Mar 27 02:30:17 2020


#       File generated by GOLD software.
#

@<TRIPOS>MOLECULE
AV-unprocessed.smi:1005
    62    64     1
SMALL
NO_CHARGES


@<TRIPOS>ATOM
      1 ****        -6.3656   1.4951  -4.4481 C.3            1 S1                 0.0000
      2 ****        -5.4360   1.3684  -3.2532 C.ar           1 S1                 0.0000
      3 ****        -6.0010   1.1153  -1.9833 C.ar           1 S1                 0.0000
      4 ****        -5.1254   1.0040  -0.9099 C.ar           1 S1                 0.0000
      5 ****        -5.3667   0.7606   0.4434 N.pl3          1 S1                 1.0000
      6 ****        -4.1848   0.7361   1.1188 C.2            1 S1                 0.0000
      7 ****        -3.1905   0.9611   0.2170 N.pl3          1 S1                 0.0000
      8 ****        -1.7367   1.0351   0.4250 C.3            1 S1                 0.0000
      9 ****        -1.0608  -0.3507   0.4288 C.3            1 S1                 0.0000
     10 ****        -1.2780  -0.9895  -0.8148 O.3            1 S1                 0.0000
     11 ****         0.4581  -0.2493   0.6734 C.3            1 S1                 0.0000
     12 ****         1.0963  -1.5859   0.8193 N.4            1 S1                 1.0000
     13 ****         0.9175  -2.2177   2.1513 C.3            1 S1                 0.0000
     14 ****         1.8939  -1.6343   3.1905 C.3            1 S1                 0.0000
     15 ****         3.2293  -1.7400   2.7115 O.3            1 S1                 0.0000
     16 ****         3.4367  -1.0151   1.5035 C.3            1 S1                 0.0000
     17 ****         4.9256  -1.1343   1.1247 C.3            1 S1                 0.0000
     18 ****         5.8340  -0.5304   2.1340 N.4            1 S1                 1.0000
     19 ****         5.8221   0.9510   2.1305 C.3            1 S1                 0.0000
     20 ****         7.2120  -1.0592   2.0253 C.3            1 S1                 0.0000
     21 ****         2.5236  -1.6185   0.4143 C.3            1 S1                 0.0000
     22 ****        -3.7313   1.1359  -1.0636 C.ar           1 S1                 0.0000
     23 ****        -3.1587   1.3862  -2.3090 C.ar           1 S1                 0.0000
     24 ****        -4.0326   1.5021  -3.4138 C.ar           1 S1                 0.0000
     25 ****        -3.4360   1.7737  -4.7843 C.3            1 S1                 0.0000
     26 ****        -7.4092   1.3723  -4.1563 H              1 S1                 0.0000
     27 ****        -6.1370   0.7336  -5.1940 H              1 S1                 0.0000
     28 ****        -6.2630   2.4768  -4.9111 H              1 S1                 0.0000
     29 ****        -7.0686   1.0118  -1.8537 H              1 S1                 0.0000
     30 ****        -4.0606   0.5680   2.1790 H              1 S1                 0.0000
     31 ****        -1.2965   1.6920  -0.3254 H              1 S1                 0.0000
     32 ****        -1.5788   1.5251   1.3866 H              1 S1                 0.0000
     33 ****        -1.5279  -0.9585   1.2035 H              1 S1                 0.0000
     34 ****        -0.9372  -0.4396  -1.5038 H              1 S1                 0.0000
     35 ****         0.9056   0.2856  -0.1658 H              1 S1                 0.0000
     36 ****         0.6604   0.3575   1.5561 H              1 S1                 0.0000
     37 ****        -0.1111  -2.1252   2.4981 H              1 S1                 0.0000
     38 ****         1.1076  -3.2867   2.0459 H              1 S1                 0.0000
     39 ****         1.6590  -0.5947   3.4216 H              1 S1                 0.0000
     40 ****         1.8139  -2.1873   4.1265 H              1 S1                 0.0000
     41 ****         3.1732   0.0324   1.6517 H              1 S1                 0.0000
     42 ****         5.1653  -2.1930   1.0129 H              1 S1                 0.0000
     43 ****         5.1108  -0.6743   0.1529 H              1 S1                 0.0000
     44 ****         6.1440   1.3429   1.1647 H              1 S1                 0.0000
     45 ****         6.4963   1.3405   2.8942 H              1 S1                 0.0000
     46 ****         4.8308   1.3464   2.3481 H              1 S1                 0.0000
     47 ****         7.6549  -0.8033   1.0617 H              1 S1                 0.0000
     48 ****         7.2212  -2.1447   2.1289 H              1 S1                 0.0000
     49 ****         7.8467  -0.6499   2.8122 H              1 S1                 0.0000
     50 ****         2.8013  -2.6595   0.2422 H              1 S1                 0.0000
     51 ****         2.6608  -1.1072  -0.5393 H              1 S1                 0.0000
     52 ****        -2.0916   1.4863  -2.4365 H              1 S1                 0.0000
     53 ****        -2.3484   1.8378  -4.7409 H              1 S1                 0.0000
     54 ****        -3.8097   2.7165  -5.1845 H              1 S1                 0.0000
     55 ****        -3.6939   0.9751  -5.4802 H              1 S1                 0.0000
     56 ****         5.4966  -0.8251   3.0396 H              1 S1                 0.0000
     57 ****         0.6106  -2.1731   0.1552 H              1 S1                 0.0000
     58 ****        -6.2710   0.6213   0.8762 H              1 S1                 0.0000
     59 ****        -2.2581  -1.1321  -0.9525 LP             1 S1                 0.0000
     60 ****        -0.8079  -1.8721  -0.8257 LP             1 S1                 0.0000
     61 ****         3.4346  -2.7045   2.5456 LP             1 S1                 0.0000
     62 ****         3.8493  -1.3826   3.4100 LP             1 S1                 0.0000
@<TRIPOS>BOND
    1    1    2 1     
    2    1   26 1     
    3    1   27 1     
    4    1   28 1     
    5    2   24 ar    
    6    2    3 ar    
    7    3    4 ar    
    8    3   29 1     
    9    4   22 ar    
   10    4    5 1     
   11    5    6 2     
   12    5   58 1     
   13    6    7 1     
   14    6   30 1     
   15    7    8 1     
   16    7   22 1     
   17    8    9 1     
   18    8   31 1     
   19    8   32 1     
   20    9   10 1     
   21    9   11 1     
   22    9   33 1     
   23   10   34 1     
   24   11   12 1     
   25   11   35 1     
   26   11   36 1     
   27   12   21 1     
   28   12   13 1     
   29   12   57 1     
   30   13   14 1     
   31   13   37 1     
   32   13   38 1     
   33   14   15 1     
   34   14   39 1     
   35   14   40 1     
   36   15   16 1     
   37   16   17 1     
   38   16   21 1     
   39   16   41 1     
   40   17   18 1     
   41   17   42 1     
   42   17   43 1     
   43   18   19 1     
   44   18   20 1     
   45   18   56 1     
   46   19   44 1     
   47   19   45 1     
   48   19   46 1     
   49   20   47 1     
   50   20   48 1     
   51   20   49 1     
   52   21   50 1     
   53   21   51 1     
   54   22   23 ar    
   55   23   24 ar    
   56   23   52 1     
   57   24   25 1     
   58   25   53 1     
   59   25   54 1     
   60   25   55 1     
   61   10   59 1     
   62   10   60 1     
   63   15   61 1     
   64   15   62 1     
@<TRIPOS>SUBSTRUCTURE
      1 S1             1
@<TRIPOS>SET
LONE_PAIRS      STATIC     ATOMS    <user>   **** ""
4 59 60 61 62
DONOR_HYDROGENS      STATIC     ATOMS    <user>   **** ""
4 58 34 57 56
ATOM$BLUE        STATIC     ATOMS    COLORGROUP SYSTEM
4 59 60 61 62
ATOM$RED        STATIC     ATOMS    COLORGROUP SYSTEM
4 58 34 57 56
