AV-unprocessed.smi:1676|AV-procd|sdf|6719|dock3
  -GOLD-   22720 7463D 1   1.00000     0.00000
 Structure written by MMmdl.
 42 43  0  0  0  0  0  0  0  0  2 V2000
  148.1348  135.8209  161.3975 C   0  0  0  0  0  0  0  0  0  0  0  0
  147.6626  136.6792  160.2593 C   0  0  0  0  0  0  0  0  0  0  0  0
  146.4864  137.2775  160.3464 N   0  0  0  0  0  0  0  0  0  0  0  0
  146.3377  138.0050  159.1617 O   0  0  0  0  0  0  0  0  0  0  0  0
  147.4442  137.8147  158.3992 C   0  0  0  0  0  0  0  0  0  0  0  0
  147.4814  138.5230  157.0877 C   0  0  0  0  0  0  0  0  0  0  0  0
  148.3225  136.9788  159.0322 C   0  0  0  0  0  0  0  0  0  0  0  0
  149.6714  136.4974  158.5535 C   0  0  0  0  0  0  0  0  0  0  0  0
  150.7560  137.5708  158.7139 C   0  0  0  0  0  0  0  0  0  0  0  0
  151.5796  137.4966  159.6261 O   0  0  0  0  0  0  0  0  0  0  0  0
  150.7036  138.5568  157.7986 N   0  0  0  0  0  0  0  0  0  0  0  0
  151.5273  139.7590  157.5682 C   0  0  0  0  0  0  0  0  0  0  0  0
  151.8380  139.7295  156.0467 C   0  0  0  0  0  0  0  0  0  0  0  0
  150.9127  139.9604  155.2362 O   0  0  0  0  0  0  0  0  0  0  0  0
  153.0074  139.4361  155.7069 O   0  5  0  0  0  0  0  0  0  0  0  0
  150.8207  141.0985  157.9653 C   0  0  0  0  0  0  0  0  0  0  0  0
  151.7132  142.3547  157.9655 C   0  0  0  0  0  0  0  0  0  0  0  0
  152.3370  142.6286  159.3438 C   0  0  0  0  0  0  0  0  0  0  0  0
  153.4070  141.6149  159.7765 C   0  0  0  0  0  0  0  0  0  0  0  0
  152.9532  140.1431  159.7621 C   0  0  0  0  0  0  0  0  0  0  0  0
  152.8686  139.5517  158.3416 C   0  0  0  0  0  0  0  0  0  0  0  0
  148.9619  135.1783  161.0971 H   0  0  0  0  0  0  0  0  0  0  0  0
  147.3356  135.1769  161.7655 H   0  0  0  0  0  0  0  0  0  0  0  0
  148.4796  136.4345  162.2298 H   0  0  0  0  0  0  0  0  0  0  0  0
  148.5086  138.6712  156.7538 H   0  0  0  0  0  0  0  0  0  0  0  0
  147.0084  139.5025  157.1610 H   0  0  0  0  0  0  0  0  0  0  0  0
  146.9564  137.9487  156.3248 H   0  0  0  0  0  0  0  0  0  0  0  0
  149.9855  135.6060  159.0972 H   0  0  0  0  0  0  0  0  0  0  0  0
  149.6295  136.2071  157.5030 H   0  0  0  0  0  0  0  0  0  0  0  0
  149.9442  138.4720  157.1386 H   0  0  0  0  0  0  0  0  0  0  0  0
  149.9722  141.2795  157.3035 H   0  0  0  0  0  0  0  0  0  0  0  0
  150.3745  141.0130  158.9555 H   0  0  0  0  0  0  0  0  0  0  0  0
  152.4806  142.3035  157.1928 H   0  0  0  0  0  0  0  0  0  0  0  0
  151.0908  143.2122  157.7079 H   0  0  0  0  0  0  0  0  0  0  0  0
  152.7884  143.6211  159.3329 H   0  0  0  0  0  0  0  0  0  0  0  0
  151.5509  142.6721  160.0986 H   0  0  0  0  0  0  0  0  0  0  0  0
  154.2950  141.7320  159.1540 H   0  0  0  0  0  0  0  0  0  0  0  0
  153.7241  141.8707  160.7879 H   0  0  0  0  0  0  0  0  0  0  0  0
  153.7003  139.5699  160.3124 H   0  0  0  0  0  0  0  0  0  0  0  0
  152.0197  140.0046  160.3081 H   0  0  0  0  0  0  0  0  0  0  0  0
  153.0772  138.4825  158.4114 H   0  0  0  0  0  0  0  0  0  0  0  0
  153.7100  139.9498  157.7711 H   0  0  0  0  0  0  0  0  0  0  0  0
  1  2  1  0  0  0  0
  1 22  1  0  0  0  0
  1 23  1  0  0  0  0
  1 24  1  0  0  0  0
  2  7  1  0  0  0  0
  2  3  2  0  0  0  0
  3  4  1  0  0  0  0
  4  5  1  0  0  0  0
  5  6  1  0  0  0  0
  5  7  2  0  0  0  0
  6 25  1  0  0  0  0
  6 26  1  0  0  0  0
  6 27  1  0  0  0  0
  7  8  1  0  0  0  0
  8  9  1  0  0  0  0
  8 28  1  0  0  0  0
  8 29  1  0  0  0  0
  9 10  2  0  0  0  0
  9 11  1  0  0  0  0
 11 12  1  0  0  0  0
 11 30  1  0  0  0  0
 12 21  1  0  0  0  0
 12 13  1  0  0  0  0
 12 16  1  0  0  0  0
 13 14  2  0  0  0  0
 13 15  1  0  0  0  0
 16 17  1  0  0  0  0
 16 31  1  0  0  0  0
 16 32  1  0  0  0  0
 17 18  1  0  0  0  0
 17 33  1  0  0  0  0
 17 34  1  0  0  0  0
 18 19  1  0  0  0  0
 18 35  1  0  0  0  0
 18 36  1  0  0  0  0
 19 20  1  0  0  0  0
 19 37  1  0  0  0  0
 19 38  1  0  0  0  0
 20 21  1  0  0  0  0
 20 39  1  0  0  0  0
 20 40  1  0  0  0  0
 21 41  1  0  0  0  0
 21 42  1  0  0  0  0
M  CHG  1  15  -1
M  END
> <s_m_source_file>
AV-unprocessed.smi

> <i_m_source_file_index>
1676

> <i_lp_mmshare_version>
43012

> <i_f3d_flags>
0

> <s_epik_input>
W0NIM11jMW5vYyhbQ0gzXSljMVtDSDJdQyg9TylbTkhdQzIoQyg9TylbT0hdKVtDSDJdW0NIMl1bQ0gyXVtDSDJdW0NIMl1bQ0gyXTI=

> <s_epik_cmdline>
J2VwaWtfcHl0aG9uJywgJy1waCcsICc3LjAnLCAnLXRuJywgJzgnLCAnLW1hJywgJzIwMCcsICctbWV0YWxfYmluZGluZycsICctaW1hZScsICc8aW5maWxlLm1hZT4nLCAnLW9tYWUnLCAnPG91dGZpbGUubWFlPic=

> <r_epik_Ionization_Penalty>
0.000392727

> <r_epik_Ionization_Penalty_Charging>
0.000392708

> <r_epik_Ionization_Penalty_Neutral>
1.90763e-08

> <r_epik_State_Penalty>
0.000240388

> <r_epik_Charging_Adjusted_Penalty>
0.000633096

> <i_epik_Tot_Q>
-1

> <i_epik_Tot_abs_Q>
1

> <r_epik_Metal_State_Penalty>
-0

> <b_epik_Metal_Only>
0

> <s_lp_Force_Field>
OPLS_2005

> <r_lp_Energy>
9.66029

> <b_lp_Chiralities_Consistent>
1

> <s_lp_Variant>
AV-unprocessed.smi:1676-1

> <Gold.Version>
5.8.1

> <Gold.Id.Protein>
6NUR|6NUR_protein|mol2

> <Gold.PLP.Fitness>
39.9188

> <Gold.PLP.PLP>
-31.9238

> <Gold.PLP.part.hbond>
-4.0000

> <Gold.PLP.part.metal>
0.0000

> <Gold.PLP.part.buried>
-5.0644

> <Gold.PLP.part.nonpolar>
-22.9950

> <Gold.PLP.part.repulsive>
0.0778

> <Gold.PLP.ligand.clash>
0.1803

> <Gold.PLP.ligand.torsion>
0.9239

> <Gold.PLP.Chemscore.Hbond>
3.3175

> <Gold.PLP.Chemscore.CHOScore>
0.0000

> <Gold.PLP.Chemscore.Metal>
0.0000

> <Gold.Chemscore.Hbonds>
donor molecule, donor type, donor heavy atom, donor atom, acceptor molecule, acceptor atom, score
      P1  H  6896  6909       L1    10  0.17
      P1  H  7989  7998       L1    14  0.86
      P1  H  7997  8010       L1    15  2.00

> <Gold.PLP.Chemscore.Internal.Correction>
0.0706

> <Gold.Rescore>
     Score         DG    S(hbond)    S(metal)    S(lipo)     H(rot)  DE(clash)    DE(int)     intcor
     15.84     -18.58       3.02        0.00      67.13       1.89       0.00       2.74       ----

> <Gold.Chemscore.Fitness>
15.8375

> <Gold.Chemscore.DG>
-18.5836

> <Gold.Chemscore.ZeroCoef>
-5.4800

> <Gold.Chemscore.Hbond>
3.0220

> <Gold.Chemscore.Metal>
0.0000

> <Gold.Chemscore.Lipo>
67.1326

> <Gold.Chemscore.Internal_Hbond>
0.0000

> <Gold.Chemscore.DEClash>
0.0048

> <Gold.Chemscore.DEInternal>
2.7413

> <Gold.Chemscore.Rot>
1.8924

> <Gold.Chemscore.Internal.Correction>
   9.000000E+99

> <Gold.Chemscore.Hbonds>
donor molecule, donor type, donor heavy atom, donor atom, acceptor molecule, acceptor atom, score
      P1  H  6896  6909       L1    10  0.03
      P1  H  7989  7998       L1    14  0.66
      P1  H  7997  8010       L1    15  0.98

> <Gold.Chemscore.Hbond.Weighted>
-10.0935

> <Gold.Chemscore.Metal.Weighted>
-0.0000

> <Gold.Chemscore.Lipo.Weighted>
-7.8545

> <Gold.Chemscore.Internal_Hbond.Weighted>
0.0000

> <Gold.Chemscore.DEClash.Weighted>
0.0048

> <Gold.Chemscore.DEInternal.Weighted>
2.7413

> <Gold.Chemscore.Rot.Weighted>
4.8445

> <Gold.Chemscore.Internal.Correction.Weighted>
   9.000000E+99

> <Gold.Protein.RotatedTorsions>
[ 6907 6896 6895 6894 ] final  112.30 input  -60.11 | X-H torsion
[ 7974 7965 7964 7962 ] final  139.43 input  175.53 | X-H torsion
[ 8008 7997 7996 7995 ] final   94.86 input   59.86 | X-H torsion
[ 10167 10162 10161 10158 ] final  152.02 input  -65.29 | X-H torsion
[ 10718 10713 10712 10709 ] final  -22.25 input   66.30 | X-H torsion
[ 10763 10752 10751 10750 ] final  108.91 input  -60.55 | X-H torsion
[ 11005 11000 10999 10996 ] final   54.65 input  -57.11 | X-H torsion

> <Gold.Protein.ActiveResidues>
 VAL166  LYS551  ARG553  GLY616  TRP617  ASP618  TYR619  PRO620  LYS621  CYS622 
 ASP623  PHE694  ASN695  SER759  ASP760  ASP761  ALA762  ILE779  LEU786  VAL792 
 PHE793  MET794  SER795  GLU796  ALA797  LYS798  CYS799  TRP800  GLU811  SER814 

> <Gold.Protein.RotatedAtoms>
  152.4924  133.8536  159.7213 H   0  0  0  0  0  0  0  0  0  0  0  0  # atno 6907 bound_to 6896
  150.9066  133.7041  159.2872 H   0  0  0  0  0  0  0  0  0  0  0  0  # atno 6908 bound_to 6896
  151.4464  135.1029  159.9737 H   0  0  0  0  0  0  0  0  0  0  0  0  # atno 6909 bound_to 6896
  144.9280  139.5083  143.5631 H   0  0  0  0  0  0  0  0  0  0  0  0  # atno 7974 bound_to 7965
  156.0626  140.3294  155.7480 H   0  0  0  0  0  0  0  0  0  0  0  0  # atno 8008 bound_to 7997
  155.5431  140.0603  157.2883 H   0  0  0  0  0  0  0  0  0  0  0  0  # atno 8009 bound_to 7997
  154.4489  140.1907  156.0599 H   0  0  0  0  0  0  0  0  0  0  0  0  # atno 8010 bound_to 7997
  139.4836  144.5392  151.7593 H   0  0  0  0  0  0  0  0  0  0  0  0  # atno 10167 bound_to 10162
  156.5071  130.4601  149.6668 H   0  0  0  0  0  0  0  0  0  0  0  0  # atno 10718 bound_to 10713
  153.4274  135.3797  155.2149 H   0  0  0  0  0  0  0  0  0  0  0  0  # atno 10763 bound_to 10752
  154.8748  135.3831  154.4310 H   0  0  0  0  0  0  0  0  0  0  0  0  # atno 10764 bound_to 10752
  153.4838  135.7088  153.5986 H   0  0  0  0  0  0  0  0  0  0  0  0  # atno 10765 bound_to 10752
  140.0670  134.5523  155.9088 H   0  0  0  0  0  0  0  0  0  0  0  0  # atno 11005 bound_to 11000
  146.3234  139.8209  142.8927 LP  0  0  0  0  0  0  0  0  0  0  0  0  # atno 17320 bound_to 7965
  145.3188  141.0238  143.3512 LP  0  0  0  0  0  0  0  0  0  0  0  0  # atno 17321 bound_to 7965
  140.4929  144.1283  150.5954 LP  0  0  0  0  0  0  0  0  0  0  0  0  # atno 17342 bound_to 10162
  140.4150  143.2638  151.9786 LP  0  0  0  0  0  0  0  0  0  0  0  0  # atno 17343 bound_to 10162
  156.3276  130.7314  151.2238 LP  0  0  0  0  0  0  0  0  0  0  0  0  # atno 17370 bound_to 10713
  157.7455  131.0438  150.4764 LP  0  0  0  0  0  0  0  0  0  0  0  0  # atno 17371 bound_to 10713
  141.1996  133.6608  156.5855 LP  0  0  0  0  0  0  0  0  0  0  0  0  # atno 17394 bound_to 11000
  140.3684  134.7627  157.4582 LP  0  0  0  0  0  0  0  0  0  0  0  0  # atno 17395 bound_to 11000

$$$$
