AV-unprocessed.smi:1261|AV-procd|sdf|5301|dock2
  -GOLD-   22720 4423D 1   1.00000     0.00000
 Structure written by MMmdl.
 49 50  0  0  0  0  0  0  0  0  3 V2000
  148.0285  133.2867  152.7487 C   0  0  0  0  0  0  0  0  0  0  0  0
  146.5653  133.5008  153.1740 C   0  0  2  0  0  0  0  0  0  0  0  0
  145.5573  133.1088  152.0776 C   0  0  0  0  0  0  0  0  0  0  0  0
  145.5222  134.1441  150.9393 C   0  0  1  0  0  0  0  0  0  0  0  0
  144.4676  133.7795  149.8844 C   0  0  0  0  0  0  0  0  0  0  0  0
  145.2829  135.5553  151.5096 C   0  0  0  0  0  0  0  0  0  0  0  0
  146.3028  135.9098  152.5304 N   0  3  1  0  0  0  0  0  0  0  0  0
  146.1872  137.3230  152.9718 C   0  0  0  0  0  0  0  0  0  0  0  0
  146.7627  138.3107  151.9427 C   0  0  0  0  0  0  0  0  0  0  0  0
  146.4817  139.7737  152.3221 C   0  0  0  0  0  0  0  0  0  0  0  0
  147.6623  140.4207  152.8806 N   0  0  0  0  0  0  0  0  0  0  0  0
  147.7925  140.8259  154.1529 C   0  0  0  0  0  0  0  0  0  0  0  0
  146.9184  140.6722  155.0065 O   0  0  0  0  0  0  0  0  0  0  0  0
  149.1225  141.4930  154.5183 C   0  0  0  0  0  0  0  0  0  0  0  0
  149.8843  140.6980  155.4893 N   0  0  0  0  0  0  0  0  0  0  0  0
  151.1468  140.1847  154.9631 N   0  5  0  0  0  0  0  0  0  0  0  0
  151.9554  139.4544  155.7760 C   0  0  0  0  0  0  0  0  0  0  0  0
  153.0369  139.0020  155.4077 O   0  0  0  0  0  0  0  0  0  0  0  0
  151.5108  139.2034  157.1369 C   0  0  0  0  0  0  0  0  0  0  0  0
  150.3359  139.6808  157.5926 C   0  0  0  0  0  0  0  0  0  0  0  0
  149.4421  140.4771  156.7602 C   0  0  0  0  0  0  0  0  0  0  0  0
  148.3697  140.9191  157.1725 O   0  0  0  0  0  0  0  0  0  0  0  0
  146.3050  134.9406  153.6594 C   0  0  0  0  0  0  0  0  0  0  0  0
  148.3155  133.9407  151.9254 H   0  0  0  0  0  0  0  0  0  0  0  0
  148.1974  132.2578  152.4299 H   0  0  0  0  0  0  0  0  0  0  0  0
  148.7078  133.4866  153.5778 H   0  0  0  0  0  0  0  0  0  0  0  0
  146.3940  132.8352  154.0212 H   0  0  0  0  0  0  0  0  0  0  0  0
  145.7931  132.1190  151.6849 H   0  0  0  0  0  0  0  0  0  0  0  0
  144.5637  133.0298  152.5214 H   0  0  0  0  0  0  0  0  0  0  0  0
  146.4916  134.1404  150.4395 H   0  0  0  0  0  0  0  0  0  0  0  0
  143.4644  133.7692  150.3119 H   0  0  0  0  0  0  0  0  0  0  0  0
  144.6590  132.7925  149.4623 H   0  0  0  0  0  0  0  0  0  0  0  0
  144.4711  134.4947  149.0613 H   0  0  0  0  0  0  0  0  0  0  0  0
  145.3175  136.2787  150.6938 H   0  0  0  0  0  0  0  0  0  0  0  0
  144.2874  135.6246  151.9519 H   0  0  0  0  0  0  0  0  0  0  0  0
  145.1338  137.5678  153.1148 H   0  0  0  0  0  0  0  0  0  0  0  0
  146.6671  137.4503  153.9435 H   0  0  0  0  0  0  0  0  0  0  0  0
  147.8388  138.1691  151.8459 H   0  0  0  0  0  0  0  0  0  0  0  0
  146.3342  138.1040  150.9610 H   0  0  0  0  0  0  0  0  0  0  0  0
  146.1764  140.3363  151.4396 H   0  0  0  0  0  0  0  0  0  0  0  0
  145.6541  139.8351  153.0309 H   0  0  0  0  0  0  0  0  0  0  0  0
  148.4295  140.6061  152.2499 H   0  0  0  0  0  0  0  0  0  0  0  0
  149.7075  141.6479  153.6100 H   0  0  0  0  0  0  0  0  0  0  0  0
  148.9288  142.4936  154.9101 H   0  0  0  0  0  0  0  0  0  0  0  0
  152.1359  138.6195  157.7965 H   0  0  0  0  0  0  0  0  0  0  0  0
  150.0454  139.4686  158.6108 H   0  0  0  0  0  0  0  0  0  0  0  0
  145.3420  134.9888  154.1701 H   0  0  0  0  0  0  0  0  0  0  0  0
  147.0589  135.2096  154.3984 H   0  0  0  0  0  0  0  0  0  0  0  0
  147.1987  135.8281  152.0709 H   0  0  0  0  0  0  0  0  0  0  0  0
  1  2  1  0  0  0  0
  1 24  1  0  0  0  0
  1 25  1  0  0  0  0
  1 26  1  0  0  0  0
  2 23  1  0  0  0  0
  2  3  1  0  0  0  0
  2 27  1  0  0  0  0
  3  4  1  0  0  0  0
  3 28  1  0  0  0  0
  3 29  1  0  0  0  0
  4  5  1  0  0  0  0
  4  6  1  0  0  0  0
  4 30  1  0  0  0  0
  5 31  1  0  0  0  0
  5 32  1  0  0  0  0
  5 33  1  0  0  0  0
  6  7  1  0  0  0  0
  6 34  1  0  0  0  0
  6 35  1  0  0  0  0
  7  8  1  0  0  0  0
  7 23  1  0  0  0  0
  7 49  1  0  0  0  0
  8  9  1  0  0  0  0
  8 36  1  0  0  0  0
  8 37  1  0  0  0  0
  9 10  1  0  0  0  0
  9 38  1  0  0  0  0
  9 39  1  0  0  0  0
 10 11  1  0  0  0  0
 10 40  1  0  0  0  0
 10 41  1  0  0  0  0
 11 12  1  0  0  0  0
 11 42  1  0  0  0  0
 12 13  2  0  0  0  0
 12 14  1  0  0  0  0
 14 43  1  0  0  0  0
 14 44  1  0  0  0  0
 14 15  1  0  0  0  0
 15 16  1  0  0  0  0
 15 21  1  0  0  0  0
 16 17  1  0  0  0  0
 17 18  2  0  0  0  0
 17 19  1  0  0  0  0
 19 45  1  0  0  0  0
 19 20  2  0  0  0  0
 20 46  1  0  0  0  0
 20 21  1  0  0  0  0
 21 22  2  0  0  0  0
 23 47  1  0  0  0  0
 23 48  1  0  0  0  0
M  CHG  1   7   1
M  CHG  1  16  -1
M  END
> <s_m_source_file>
AV-unprocessed.smi

> <i_m_source_file_index>
1261

> <i_lp_mmshare_version>
43012

> <i_f3d_flags>
0

> <s_epik_input>
W0NIM11bQ0BASF0xW0NIMl1bQ0BASF0oW0NIM10pW0NIMl1OKFtDSDJdMSlbQ0gyXVtDSDJdW0NIMl1bTkhdQyg9TylbQ0gyXW4yW25IXWMoPU8pW2NIXVtjSF1jMj1P

> <s_epik_cmdline>
J2VwaWtfcHl0aG9uJywgJy1waCcsICc3LjAnLCAnLXRuJywgJzgnLCAnLW1hJywgJzIwMCcsICctbWV0YWxfYmluZGluZycsICctaW1hZScsICc8aW5maWxlLm1hZT4nLCAnLW9tYWUnLCAnPG91dGZpbGUubWFlPic=

> <r_lp_tautomer_probability>
1

> <r_epik_Ionization_Penalty>
0.0955723

> <r_epik_Ionization_Penalty_Charging>
0.0955723

> <r_epik_Ionization_Penalty_Neutral>
2.68632e-08

> <r_epik_State_Penalty>
0.0334406

> <r_epik_Charging_Adjusted_Penalty>
0.129013

> <i_epik_Tot_Q>
0

> <i_epik_Tot_abs_Q>
2

> <r_epik_Metal_State_Penalty>
0.0334406

> <b_epik_Metal_Only>
0

> <s_lp_Force_Field>
OPLS_2005

> <r_lp_Energy>
33.9758

> <b_lp_Chiralities_Consistent>
1

> <s_lp_Variant>
AV-unprocessed.smi:1261-1

> <Gold.Version>
5.8.1

> <Gold.Id.Protein>
6NUR|6NUR_protein|mol2

> <Gold.PLP.Fitness>
50.7214

> <Gold.PLP.PLP>
-36.7480

> <Gold.PLP.part.hbond>
-3.9410

> <Gold.PLP.part.metal>
0.0000

> <Gold.PLP.part.buried>
2.8905

> <Gold.PLP.part.nonpolar>
-34.5061

> <Gold.PLP.part.repulsive>
0.3309

> <Gold.PLP.ligand.clash>
0.0000

> <Gold.PLP.ligand.torsion>
0.5904

> <Gold.PLP.Chemscore.Hbond>
5.0000

> <Gold.PLP.Chemscore.CHOScore>
0.0000

> <Gold.PLP.Chemscore.Metal>
0.0000

> <Gold.Chemscore.Hbonds>
donor molecule, donor type, donor heavy atom, donor atom, acceptor molecule, acceptor atom, score
      L1  H     7    49       P1  7948  2.00
      L1  H    11    42       P1  7957  1.00
      P1  H  7989  7998       L1    16  1.00
      P1  H  7997  8010       L1    18  1.00

> <Gold.PLP.Chemscore.Internal.Correction>
0.1542

> <Gold.Rescore>
     Score         DG    S(hbond)    S(metal)    S(lipo)     H(rot)  DE(clash)    DE(int)     intcor
     15.95     -20.26       3.76        0.00      73.50       2.49       1.43       2.87       ----

> <Gold.Chemscore.Fitness>
15.9524

> <Gold.Chemscore.DG>
-20.2562

> <Gold.Chemscore.ZeroCoef>
-5.4800

> <Gold.Chemscore.Hbond>
3.7607

> <Gold.Chemscore.Metal>
0.0000

> <Gold.Chemscore.Lipo>
73.4993

> <Gold.Chemscore.Internal_Hbond>
0.0000

> <Gold.Chemscore.DEClash>
1.4329

> <Gold.Chemscore.DEInternal>
2.8709

> <Gold.Chemscore.Rot>
2.4938

> <Gold.Chemscore.Internal.Correction>
   9.000000E+99

> <Gold.Chemscore.Hbonds>
donor molecule, donor type, donor heavy atom, donor atom, acceptor molecule, acceptor atom, score
      L1  H     7    49       P1  7948  0.98
      L1  H    11    42       P1  7957  0.94
      P1  H  7989  7998       L1    16  0.90
      P1  H  7997  8010       L1    18  0.77

> <Gold.Chemscore.Hbond.Weighted>
-12.5608

> <Gold.Chemscore.Metal.Weighted>
-0.0000

> <Gold.Chemscore.Lipo.Weighted>
-8.5994

> <Gold.Chemscore.Internal_Hbond.Weighted>
0.0000

> <Gold.Chemscore.DEClash.Weighted>
1.4329

> <Gold.Chemscore.DEInternal.Weighted>
2.8709

> <Gold.Chemscore.Rot.Weighted>
6.3840

> <Gold.Chemscore.Internal.Correction.Weighted>
   9.000000E+99

> <Gold.Protein.RotatedTorsions>
[ 6907 6896 6895 6894 ] final -130.89 input  -60.11 | X-H torsion
[ 7974 7965 7964 7962 ] final -111.42 input  175.53 | X-H torsion
[ 8008 7997 7996 7995 ] final  105.49 input   59.86 | X-H torsion
[ 10167 10162 10161 10158 ] final   85.47 input  -65.29 | X-H torsion
[ 10718 10713 10712 10709 ] final   -2.62 input   66.30 | X-H torsion
[ 10763 10752 10751 10750 ] final -154.53 input  -60.55 | X-H torsion
[ 11005 11000 10999 10996 ] final  139.56 input  -57.11 | X-H torsion

> <Gold.Protein.ActiveResidues>
 VAL166  LYS551  ARG553  GLY616  TRP617  ASP618  TYR619  PRO620  LYS621  CYS622 
 ASP623  PHE694  ASN695  SER759  ASP760  ASP761  ALA762  ILE779  LEU786  VAL792 
 PHE793  MET794  SER795  GLU796  ALA797  LYS798  CYS799  TRP800  GLU811  SER814 

> <Gold.Protein.RotatedAtoms>
  150.9448  133.6616  159.2783 H   0  0  0  0  0  0  0  0  0  0  0  0  # atno 6907 bound_to 6896
  151.3993  135.0967  159.9560 H   0  0  0  0  0  0  0  0  0  0  0  0  # atno 6908 bound_to 6896
  152.5085  133.8945  159.7465 H   0  0  0  0  0  0  0  0  0  0  0  0  # atno 6909 bound_to 6896
  145.1563  140.8855  143.3617 H   0  0  0  0  0  0  0  0  0  0  0  0  # atno 7974 bound_to 7965
  156.1663  140.3129  155.8895 H   0  0  0  0  0  0  0  0  0  0  0  0  # atno 8008 bound_to 7997
  155.3678  140.0480  157.3063 H   0  0  0  0  0  0  0  0  0  0  0  0  # atno 8009 bound_to 7997
  154.5196  140.2193  155.9011 H   0  0  0  0  0  0  0  0  0  0  0  0  # atno 8010 bound_to 7997
  139.8974  144.6349  150.8673 H   0  0  0  0  0  0  0  0  0  0  0  0  # atno 10167 bound_to 10162
  156.7881  130.5353  149.5740 H   0  0  0  0  0  0  0  0  0  0  0  0  # atno 10718 bound_to 10713
  154.7852  135.3188  154.7902 H   0  0  0  0  0  0  0  0  0  0  0  0  # atno 10763 bound_to 10752
  153.8604  135.6854  153.4787 H   0  0  0  0  0  0  0  0  0  0  0  0  # atno 10764 bound_to 10752
  153.1501  135.4703  154.9563 H   0  0  0  0  0  0  0  0  0  0  0  0  # atno 10765 bound_to 10752
  140.0263  134.9373  157.0576 H   0  0  0  0  0  0  0  0  0  0  0  0  # atno 11005 bound_to 11000
  145.0378  139.3286  143.5992 LP  0  0  0  0  0  0  0  0  0  0  0  0  # atno 17320 bound_to 7965
  146.3488  139.9740  142.8703 LP  0  0  0  0  0  0  0  0  0  0  0  0  # atno 17321 bound_to 7965
  140.7714  143.3462  151.2105 LP  0  0  0  0  0  0  0  0  0  0  0  0  # atno 17342 bound_to 10162
  139.7055  143.9462  152.2925 LP  0  0  0  0  0  0  0  0  0  0  0  0  # atno 17343 bound_to 10162
  156.1176  130.6086  151.0144 LP  0  0  0  0  0  0  0  0  0  0  0  0  # atno 17370 bound_to 10713
  157.6614  131.0880  150.7830 LP  0  0  0  0  0  0  0  0  0  0  0  0  # atno 17371 bound_to 10713
  140.4300  134.1790  155.7168 LP  0  0  0  0  0  0  0  0  0  0  0  0  # atno 17394 bound_to 11000
  141.1805  133.8424  157.1275 LP  0  0  0  0  0  0  0  0  0  0  0  0  # atno 17395 bound_to 11000

$$$$
