AV-unprocessed.smi:2897|AV-procd|sdf|11140|dock3
  -GOLD-   2272016 13D 1   1.00000     0.00000
 Structure written by MMmdl.
 37 39  0  0  0  0  0  0  0  0  1 V2000
  146.2483  137.2341  155.2663 O   0  0  0  0  0  0  0  0  0  0  0  0
  147.0156  136.9311  154.3537 C   0  0  0  0  0  0  0  0  0  0  0  0
  146.7694  135.9471  153.4779 N   0  0  0  0  0  0  0  0  0  0  0  0
  145.5821  135.0979  153.4820 C   0  0  0  0  0  0  0  0  0  0  0  0
  144.5532  135.3608  152.3855 C   0  0  0  0  0  0  0  0  0  0  0  0
  143.7911  136.6612  152.6492 C   0  0  0  0  0  0  0  0  0  0  0  0
  144.5692  137.8230  152.4398 O   0  0  0  0  0  0  0  0  0  0  0  0
  144.9182  134.9637  150.9674 C   0  0  0  0  0  0  0  0  0  0  0  0
  143.8631  134.1878  151.7182 C   0  0  0  0  0  0  0  0  0  0  0  0
  148.1872  137.5338  154.0880 N   0  0  0  0  0  0  0  0  0  0  0  0
  148.8290  138.5853  154.7972 C   0  0  0  0  0  0  0  0  0  0  0  0
  149.8634  139.3014  154.1587 C   0  0  0  0  0  0  0  0  0  0  0  0
  150.5278  140.3036  154.7728 N   0  0  0  0  0  0  0  0  0  0  0  0
  150.1719  140.5807  156.0300 C   0  0  0  0  0  0  0  0  0  0  0  0
  150.8805  141.7196  156.6955 C   0  0  0  0  0  0  0  0  0  0  0  0
  151.7435  141.4888  157.9193 C   0  0  0  0  0  0  0  0  0  0  0  0
  150.4363  142.2187  158.0553 C   0  0  0  0  0  0  0  0  0  0  0  0
  149.2116  139.9781  156.7361 N   0  0  0  0  0  0  0  0  0  0  0  0
  148.5399  138.9756  156.1288 C   0  0  0  0  0  0  0  0  0  0  0  0
  147.4541  135.7682  152.7579 H   0  0  0  0  0  0  0  0  0  0  0  0
  145.9204  134.0657  153.3880 H   0  0  0  0  0  0  0  0  0  0  0  0
  145.0971  135.1606  154.4579 H   0  0  0  0  0  0  0  0  0  0  0  0
  142.9197  136.7133  151.9963 H   0  0  0  0  0  0  0  0  0  0  0  0
  143.4302  136.6673  153.6781 H   0  0  0  0  0  0  0  0  0  0  0  0
  144.3415  138.1905  151.5995 H   0  0  0  0  0  0  0  0  0  0  0  0
  144.5858  135.5951  150.1462 H   0  0  0  0  0  0  0  0  0  0  0  0
  145.8770  134.4741  150.8090 H   0  0  0  0  0  0  0  0  0  0  0  0
  144.1245  133.1862  152.0529 H   0  0  0  0  0  0  0  0  0  0  0  0
  142.8288  134.3129  151.4042 H   0  0  0  0  0  0  0  0  0  0  0  0
  148.6731  137.2120  153.2638 H   0  0  0  0  0  0  0  0  0  0  0  0
  150.1602  139.0720  153.1457 H   0  0  0  0  0  0  0  0  0  0  0  0
  151.2151  142.4568  155.9681 H   0  0  0  0  0  0  0  0  0  0  0  0
  151.7964  140.4791  158.3216 H   0  0  0  0  0  0  0  0  0  0  0  0
  152.6576  142.0728  158.0045 H   0  0  0  0  0  0  0  0  0  0  0  0
  150.4749  143.2914  158.2325 H   0  0  0  0  0  0  0  0  0  0  0  0
  149.6197  141.6939  158.5476 H   0  0  0  0  0  0  0  0  0  0  0  0
  147.7882  138.4934  156.7329 H   0  0  0  0  0  0  0  0  0  0  0  0
  1  2  2  0  0  0  0
  2  3  1  0  0  0  0
  2 10  1  0  0  0  0
  3  4  1  0  0  0  0
  3 20  1  0  0  0  0
  4  5  1  0  0  0  0
  4 21  1  0  0  0  0
  4 22  1  0  0  0  0
  5  9  1  0  0  0  0
  5  6  1  0  0  0  0
  5  8  1  0  0  0  0
  6  7  1  0  0  0  0
  6 23  1  0  0  0  0
  6 24  1  0  0  0  0
  7 25  1  0  0  0  0
  8  9  1  0  0  0  0
  8 26  1  0  0  0  0
  8 27  1  0  0  0  0
  9 28  1  0  0  0  0
  9 29  1  0  0  0  0
 10 11  1  0  0  0  0
 10 30  1  0  0  0  0
 11 19  1  0  0  0  0
 11 12  2  0  0  0  0
 12 13  1  0  0  0  0
 12 31  1  0  0  0  0
 13 14  2  0  0  0  0
 14 15  1  0  0  0  0
 14 18  1  0  0  0  0
 15 17  1  0  0  0  0
 15 16  1  0  0  0  0
 15 32  1  0  0  0  0
 16 17  1  0  0  0  0
 16 33  1  0  0  0  0
 16 34  1  0  0  0  0
 17 35  1  0  0  0  0
 17 36  1  0  0  0  0
 18 19  2  0  0  0  0
 19 37  1  0  0  0  0
M  END
> <s_m_source_file>
AV-unprocessed.smi

> <i_m_source_file_index>
2897

> <i_lp_mmshare_version>
43012

> <i_f3d_flags>
0

> <s_epik_input>
W09IXVtDSDJdQzEoW0NIMl1bQ0gyXTEpW0NIMl1bTkhdQyg9TylbTkhdYzJbY0hdbmMobltjSF0yKVtDSF0zW0NIMl1bQ0gyXTM=

> <s_epik_cmdline>
J2VwaWtfcHl0aG9uJywgJy1waCcsICc3LjAnLCAnLXRuJywgJzgnLCAnLW1hJywgJzIwMCcsICctbWV0YWxfYmluZGluZycsICctaW1hZScsICc8aW5maWxlLm1hZT4nLCAnLW9tYWUnLCAnPG91dGZpbGUubWFlPic=

> <r_lp_tautomer_probability>
1

> <r_epik_Ionization_Penalty>
2.67616e-05

> <r_epik_Ionization_Penalty_Charging>
0

> <r_epik_Ionization_Penalty_Neutral>
2.67616e-05

> <r_epik_State_Penalty>
-0

> <r_epik_Charging_Adjusted_Penalty>
0

> <i_epik_Tot_Q>
0

> <i_epik_Tot_abs_Q>
0

> <r_epik_Metal_State_Penalty>
-0

> <b_epik_Metal_Only>
0

> <s_lp_Force_Field>
OPLS_2005

> <r_lp_Energy>
23.6069

> <b_lp_Chiralities_Consistent>
1

> <s_lp_Variant>
AV-unprocessed.smi:2897-1

> <Gold.Version>
5.8.1

> <Gold.Id.Protein>
6NUR|6NUR_protein|mol2

> <Gold.PLP.Fitness>
41.9657

> <Gold.PLP.PLP>
-27.4918

> <Gold.PLP.part.hbond>
-5.0000

> <Gold.PLP.part.metal>
0.0000

> <Gold.PLP.part.buried>
-4.3435

> <Gold.PLP.part.nonpolar>
-18.5461

> <Gold.PLP.part.repulsive>
0.0965

> <Gold.PLP.ligand.clash>
0.0000

> <Gold.PLP.ligand.torsion>
0.8873

> <Gold.PLP.Chemscore.Hbond>
4.0000

> <Gold.PLP.Chemscore.CHOScore>
1.0000

> <Gold.PLP.Chemscore.Metal>
0.0000

> <Gold.Chemscore.Hbonds>
donor molecule, donor type, donor heavy atom, donor atom, acceptor molecule, acceptor atom, score
      L1  H     3    20       P1  7948  1.00
      L1  H     7    25       P1 10171  1.00
      L1  H    10    30       P1  7948  1.00
      P1  H  7989  7998       L1    13  1.00
      L1  C    12    31       P1  7957  1.00

> <Gold.PLP.Chemscore.Internal.Correction>
1.2486

> <Gold.Rescore>
     Score         DG    S(hbond)    S(metal)    S(lipo)     H(rot)  DE(clash)    DE(int)     intcor
     15.77     -17.85       3.63        0.00      53.50       2.35       0.06       2.02       ----

> <Gold.Chemscore.Fitness>
15.7689

> <Gold.Chemscore.DG>
-17.8487

> <Gold.Chemscore.ZeroCoef>
-5.4800

> <Gold.Chemscore.Hbond>
3.6339

> <Gold.Chemscore.Metal>
0.0000

> <Gold.Chemscore.Lipo>
53.4990

> <Gold.Chemscore.Internal_Hbond>
0.0000

> <Gold.Chemscore.DEClash>
0.0585

> <Gold.Chemscore.DEInternal>
2.0212

> <Gold.Chemscore.Rot>
2.3547

> <Gold.Chemscore.Internal.Correction>
   9.000000E+99

> <Gold.Chemscore.Hbonds>
donor molecule, donor type, donor heavy atom, donor atom, acceptor molecule, acceptor atom, score
      L1  H     3    20       P1  7948  0.96
      L1  H     7    25       P1 10171  1.00
      L1  H    10    30       P1  7948  0.99
      P1  H  7989  7998       L1    13  0.39

> <Gold.Chemscore.Hbond.Weighted>
-12.1374

> <Gold.Chemscore.Metal.Weighted>
-0.0000

> <Gold.Chemscore.Lipo.Weighted>
-6.2594

> <Gold.Chemscore.Internal_Hbond.Weighted>
0.0000

> <Gold.Chemscore.DEClash.Weighted>
0.0585

> <Gold.Chemscore.DEInternal.Weighted>
2.0212

> <Gold.Chemscore.Rot.Weighted>
6.0281

> <Gold.Chemscore.Internal.Correction.Weighted>
   9.000000E+99

> <Gold.Protein.RotatedTorsions>
[ 6907 6896 6895 6894 ] final  150.35 input  -60.11 | X-H torsion
[ 7974 7965 7964 7962 ] final  -13.52 input  175.53 | X-H torsion
[ 8008 7997 7996 7995 ] final  112.35 input   59.86 | X-H torsion
[ 10167 10162 10161 10158 ] final  114.28 input  -65.29 | X-H torsion
[ 10718 10713 10712 10709 ] final  151.09 input   66.30 | X-H torsion
[ 10763 10752 10751 10750 ] final   85.32 input  -60.55 | X-H torsion
[ 11005 11000 10999 10996 ] final   96.65 input  -57.11 | X-H torsion

> <Gold.Protein.ActiveResidues>
 VAL166  LYS551  ARG553  GLY616  TRP617  ASP618  TYR619  PRO620  LYS621  CYS622 
 ASP623  PHE694  ASN695  SER759  ASP760  ASP761  ALA762  ILE779  LEU786  VAL792 
 PHE793  MET794  SER795  GLU796  ALA797  LYS798  CYS799  TRP800  GLU811  SER814 

> <Gold.Protein.RotatedAtoms>
  152.1156  133.4325  159.4651 H   0  0  0  0  0  0  0  0  0  0  0  0  # atno 6907 bound_to 6896
  150.6869  134.2596  159.4553 H   0  0  0  0  0  0  0  0  0  0  0  0  # atno 6908 bound_to 6896
  152.0468  134.9677  160.0625 H   0  0  0  0  0  0  0  0  0  0  0  0  # atno 6909 bound_to 6896
  146.2111  140.3215  142.8391 H   0  0  0  0  0  0  0  0  0  0  0  0  # atno 7974 bound_to 7965
  156.2186  140.3001  155.9898 H   0  0  0  0  0  0  0  0  0  0  0  0  # atno 8008 bound_to 7997
  155.2541  140.0427  157.3007 H   0  0  0  0  0  0  0  0  0  0  0  0  # atno 8009 bound_to 7997
  154.5806  140.2374  155.8068 H   0  0  0  0  0  0  0  0  0  0  0  0  # atno 8010 bound_to 7997
  139.6400  144.7123  151.2257 H   0  0  0  0  0  0  0  0  0  0  0  0  # atno 10167 bound_to 10162
  157.2752  131.0824  151.1571 H   0  0  0  0  0  0  0  0  0  0  0  0  # atno 10718 bound_to 10713
  153.1463  135.4622  154.9571 H   0  0  0  0  0  0  0  0  0  0  0  0  # atno 10763 bound_to 10752
  154.7789  135.3182  154.8035 H   0  0  0  0  0  0  0  0  0  0  0  0  # atno 10764 bound_to 10752
  153.8548  135.6918  153.4843 H   0  0  0  0  0  0  0  0  0  0  0  0  # atno 10765 bound_to 10752
  139.8780  134.8962  156.4191 H   0  0  0  0  0  0  0  0  0  0  0  0  # atno 11005 bound_to 11000
  144.8917  140.7532  143.5922 LP  0  0  0  0  0  0  0  0  0  0  0  0  # atno 17320 bound_to 7965
  145.3137  139.1810  143.4625 LP  0  0  0  0  0  0  0  0  0  0  0  0  # atno 17321 bound_to 7965
  140.7485  143.6329  150.8406 LP  0  0  0  0  0  0  0  0  0  0  0  0  # atno 17342 bound_to 10162
  139.9965  143.5790  152.2891 LP  0  0  0  0  0  0  0  0  0  0  0  0  # atno 17343 bound_to 10162
  157.3027  130.6851  149.6173 LP  0  0  0  0  0  0  0  0  0  0  0  0  # atno 17370 bound_to 10713
  155.9663  130.4387  150.5228 LP  0  0  0  0  0  0  0  0  0  0  0  0  # atno 17371 bound_to 10713
  140.9146  133.7687  155.9833 LP  0  0  0  0  0  0  0  0  0  0  0  0  # atno 17394 bound_to 11000
  140.8507  134.2957  157.5276 LP  0  0  0  0  0  0  0  0  0  0  0  0  # atno 17395 bound_to 11000

$$$$
