AV-unprocessed.smi:1840|AV-procd|sdf|7490|dock2
  -GOLD-   22720 9193D 1   1.00000     0.00000
 Structure written by MMmdl.
 43 44  0  0  0  0  0  0  0  0  1 V2000
  144.2472  135.3989  153.2070 C   0  0  0  0  0  0  0  0  0  0  0  0
  144.3907  136.3215  151.9891 C   0  0  2  0  0  0  0  0  0  0  0  0
  145.3912  135.7477  150.9628 C   0  0  0  0  0  0  0  0  0  0  0  0
  145.2518  134.3130  150.7843 N   0  0  0  0  0  0  0  0  0  0  0  0
  144.1047  133.5862  150.5425 C   0  0  0  0  0  0  0  0  0  0  0  0
  144.4648  132.2713  150.4719 C   0  0  0  0  0  0  0  0  0  0  0  0
  145.8722  132.2950  150.6813 C   0  0  0  0  0  0  0  0  0  0  0  0
  146.3409  133.5187  150.8641 N   0  0  0  0  0  0  0  0  0  0  0  0
  144.8185  137.6442  152.4428 N   0  0  0  0  0  0  0  0  0  0  0  0
  145.8782  137.8958  153.2248 C   0  0  0  0  0  0  0  0  0  0  0  0
  146.6680  137.0380  153.6195 O   0  0  0  0  0  0  0  0  0  0  0  0
  145.9536  139.1938  153.5467 N   0  0  0  0  0  0  0  0  0  0  0  0
  146.9447  139.7951  154.4400 C   0  0  1  0  0  0  0  0  0  0  0  0
  147.7111  140.9201  153.7150 C   0  0  0  0  0  0  0  0  0  0  0  0
  146.8255  142.1510  153.4556 C   0  0  0  0  0  0  0  0  0  0  0  0
  146.1898  142.6617  154.7574 C   0  0  0  0  0  0  0  0  0  0  0  0
  145.4016  141.5504  155.4693 C   0  0  0  0  0  0  0  0  0  0  0  0
  146.2824  140.3130  155.7406 C   0  0  1  0  0  0  0  0  0  0  0  0
  145.5045  139.2165  156.4896 C   0  0  0  0  0  0  0  0  0  0  0  0
  143.8976  134.4099  152.9091 H   0  0  0  0  0  0  0  0  0  0  0  0
  143.5272  135.8002  153.9210 H   0  0  0  0  0  0  0  0  0  0  0  0
  145.1981  135.2731  153.7258 H   0  0  0  0  0  0  0  0  0  0  0  0
  143.4074  136.3895  151.5196 H   0  0  0  0  0  0  0  0  0  0  0  0
  145.2678  136.2334  149.9938 H   0  0  0  0  0  0  0  0  0  0  0  0
  146.4144  135.9502  151.2827 H   0  0  0  0  0  0  0  0  0  0  0  0
  143.1378  134.0592  150.4521 H   0  0  0  0  0  0  0  0  0  0  0  0
  143.8212  131.4215  150.2998 H   0  0  0  0  0  0  0  0  0  0  0  0
  146.5626  131.4647  150.7059 H   0  0  0  0  0  0  0  0  0  0  0  0
  144.2374  138.4237  152.1719 H   0  0  0  0  0  0  0  0  0  0  0  0
  145.2558  139.8161  153.1668 H   0  0  0  0  0  0  0  0  0  0  0  0
  147.6684  139.0300  154.7274 H   0  0  0  0  0  0  0  0  0  0  0  0
  148.5650  141.2195  154.3241 H   0  0  0  0  0  0  0  0  0  0  0  0
  148.1252  140.5520  152.7755 H   0  0  0  0  0  0  0  0  0  0  0  0
  147.4175  142.9431  152.9963 H   0  0  0  0  0  0  0  0  0  0  0  0
  146.0425  141.8992  152.7394 H   0  0  0  0  0  0  0  0  0  0  0  0
  146.9694  143.0384  155.4206 H   0  0  0  0  0  0  0  0  0  0  0  0
  145.5325  143.5050  154.5435 H   0  0  0  0  0  0  0  0  0  0  0  0
  145.0019  141.9346  156.4085 H   0  0  0  0  0  0  0  0  0  0  0  0
  144.5396  141.2692  154.8629 H   0  0  0  0  0  0  0  0  0  0  0  0
  147.0887  140.6320  156.4031 H   0  0  0  0  0  0  0  0  0  0  0  0
  144.6389  138.8736  155.9224 H   0  0  0  0  0  0  0  0  0  0  0  0
  145.1428  139.5825  157.4507 H   0  0  0  0  0  0  0  0  0  0  0  0
  146.1377  138.3505  156.6847 H   0  0  0  0  0  0  0  0  0  0  0  0
  1  2  1  0  0  0  0
  1 20  1  0  0  0  0
  1 21  1  0  0  0  0
  1 22  1  0  0  0  0
  2  3  1  0  0  0  0
  2  9  1  0  0  0  0
  2 23  1  0  0  0  0
  3  4  1  0  0  0  0
  3 24  1  0  0  0  0
  3 25  1  0  0  0  0
  4  8  1  0  0  0  0
  4  5  1  0  0  0  0
  5  6  2  0  0  0  0
  5 26  1  0  0  0  0
  6  7  1  0  0  0  0
  6 27  1  0  0  0  0
  7  8  2  0  0  0  0
  7 28  1  0  0  0  0
  9 10  1  0  0  0  0
  9 29  1  0  0  0  0
 10 11  2  0  0  0  0
 10 12  1  0  0  0  0
 12 13  1  0  0  0  0
 12 30  1  0  0  0  0
 13 18  1  0  0  0  0
 13 14  1  0  0  0  0
 13 31  1  0  0  0  0
 14 15  1  0  0  0  0
 14 32  1  0  0  0  0
 14 33  1  0  0  0  0
 15 16  1  0  0  0  0
 15 34  1  0  0  0  0
 15 35  1  0  0  0  0
 16 17  1  0  0  0  0
 16 36  1  0  0  0  0
 16 37  1  0  0  0  0
 17 18  1  0  0  0  0
 17 38  1  0  0  0  0
 17 39  1  0  0  0  0
 18 19  1  0  0  0  0
 18 40  1  0  0  0  0
 19 41  1  0  0  0  0
 19 42  1  0  0  0  0
 19 43  1  0  0  0  0
M  END
> <s_m_source_file>
AV-unprocessed.smi

> <i_m_source_file_index>
1840

> <i_lp_mmshare_version>
43012

> <i_f3d_flags>
0

> <s_epik_input>
bjFbY0hdW2NIXVtjSF1uMVtDSDJdW0NAQEhdKFtDSDNdKVtOSF1DKD1PKVtOSF1bQ0BASF0yW0NIMl1bQ0gyXVtDSDJdW0NIMl1bQ0BIXTJbQ0gzXQ==

> <s_epik_cmdline>
J2VwaWtfcHl0aG9uJywgJy1waCcsICc3LjAnLCAnLXRuJywgJzgnLCAnLW1hJywgJzIwMCcsICctbWV0YWxfYmluZGluZycsICctaW1hZScsICc8aW5maWxlLm1hZT4nLCAnLW9tYWUnLCAnPG91dGZpbGUubWFlPic=

> <r_lp_tautomer_probability>
1

> <r_epik_Ionization_Penalty>
7.38659e-05

> <r_epik_Ionization_Penalty_Charging>
0

> <r_epik_Ionization_Penalty_Neutral>
7.38659e-05

> <r_epik_State_Penalty>
-0

> <r_epik_Charging_Adjusted_Penalty>
0

> <i_epik_Tot_Q>
0

> <i_epik_Tot_abs_Q>
0

> <r_epik_Metal_State_Penalty>
-0

> <b_epik_Metal_Only>
0

> <s_lp_Force_Field>
OPLS_2005

> <r_lp_Energy>
7.22709

> <b_lp_Chiralities_Consistent>
1

> <s_lp_Variant>
AV-unprocessed.smi:1840-3

> <Gold.Version>
5.8.1

> <Gold.Id.Protein>
6NUR|6NUR_protein|mol2

> <Gold.PLP.Fitness>
41.9984

> <Gold.PLP.PLP>
-30.8826

> <Gold.PLP.part.hbond>
-3.0000

> <Gold.PLP.part.metal>
0.0000

> <Gold.PLP.part.buried>
-6.4542

> <Gold.PLP.part.nonpolar>
-22.8913

> <Gold.PLP.part.repulsive>
0.3305

> <Gold.PLP.ligand.clash>
0.0000

> <Gold.PLP.ligand.torsion>
0.3543

> <Gold.PLP.Chemscore.Hbond>
1.9357

> <Gold.PLP.Chemscore.CHOScore>
2.0000

> <Gold.PLP.Chemscore.Metal>
0.0000

> <Gold.Chemscore.Hbonds>
donor molecule, donor type, donor heavy atom, donor atom, acceptor molecule, acceptor atom, score
      L1  H     9    29       P1 10175  0.79
      L1  H    12    30       P1 10175  1.00
      L1  C     5    26       P1 10186  1.00
      L1  C     7    28       P1 10747  1.00

> <Gold.PLP.Chemscore.Internal.Correction>
0.0172

> <Gold.Rescore>
     Score         DG    S(hbond)    S(metal)    S(lipo)     H(rot)  DE(clash)    DE(int)     intcor
     13.52     -16.06       1.92        0.00      69.70       1.56       1.51       1.03       ----

> <Gold.Chemscore.Fitness>
13.5244

> <Gold.Chemscore.DG>
-16.0617

> <Gold.Chemscore.ZeroCoef>
-5.4800

> <Gold.Chemscore.Hbond>
1.9205

> <Gold.Chemscore.Metal>
0.0000

> <Gold.Chemscore.Lipo>
69.6979

> <Gold.Chemscore.Internal_Hbond>
0.0000

> <Gold.Chemscore.DEClash>
1.5077

> <Gold.Chemscore.DEInternal>
1.0296

> <Gold.Chemscore.Rot>
1.5576

> <Gold.Chemscore.Internal.Correction>
   9.000000E+99

> <Gold.Chemscore.Hbonds>
donor molecule, donor type, donor heavy atom, donor atom, acceptor molecule, acceptor atom, score
      L1  H     9    29       P1 10175  0.74
      L1  H    12    30       P1 10175  1.00

> <Gold.Chemscore.Hbond.Weighted>
-6.4145

> <Gold.Chemscore.Metal.Weighted>
-0.0000

> <Gold.Chemscore.Lipo.Weighted>
-8.1547

> <Gold.Chemscore.Internal_Hbond.Weighted>
0.0000

> <Gold.Chemscore.DEClash.Weighted>
1.5077

> <Gold.Chemscore.DEInternal.Weighted>
1.0296

> <Gold.Chemscore.Rot.Weighted>
3.9875

> <Gold.Chemscore.Internal.Correction.Weighted>
   9.000000E+99

> <Gold.Protein.RotatedTorsions>
[ 6907 6896 6895 6894 ] final  -36.23 input  -60.11 | X-H torsion
[ 7974 7965 7964 7962 ] final -147.97 input  175.53 | X-H torsion
[ 8008 7997 7996 7995 ] final -131.08 input   59.86 | X-H torsion
[ 10167 10162 10161 10158 ] final   88.91 input  -65.29 | X-H torsion
[ 10718 10713 10712 10709 ] final  -94.32 input   66.30 | X-H torsion
[ 10763 10752 10751 10750 ] final -112.88 input  -60.55 | X-H torsion
[ 11005 11000 10999 10996 ] final -170.39 input  -57.11 | X-H torsion

> <Gold.Protein.ActiveResidues>
 VAL166  LYS551  ARG553  GLY616  TRP617  ASP618  TYR619  PRO620  LYS621  CYS622 
 ASP623  PHE694  ASN695  SER759  ASP760  ASP761  ALA762  ILE779  LEU786  VAL792 
 PHE793  MET794  SER795  GLU796  ALA797  LYS798  CYS799  TRP800  GLU811  SER814 

> <Gold.Protein.RotatedAtoms>
  151.0298  134.9530  159.8104 H   0  0  0  0  0  0  0  0  0  0  0  0  # atno 6907 bound_to 6896
  152.5343  134.2795  159.9012 H   0  0  0  0  0  0  0  0  0  0  0  0  # atno 6908 bound_to 6896
  151.2805  133.4170  159.2660 H   0  0  0  0  0  0  0  0  0  0  0  0  # atno 6909 bound_to 6896
  144.8059  140.5257  143.5675 H   0  0  0  0  0  0  0  0  0  0  0  0  # atno 7974 bound_to 7965
  155.3064  140.0455  157.3032 H   0  0  0  0  0  0  0  0  0  0  0  0  # atno 8008 bound_to 7997
  154.5458  140.2302  155.8533 H   0  0  0  0  0  0  0  0  0  0  0  0  # atno 8009 bound_to 7997
  156.1922  140.3047  155.9362 H   0  0  0  0  0  0  0  0  0  0  0  0  # atno 8010 bound_to 7997
  139.8625  144.6536  150.9042 H   0  0  0  0  0  0  0  0  0  0  0  0  # atno 10167 bound_to 10162
  156.0025  130.5063  150.5909 H   0  0  0  0  0  0  0  0  0  0  0  0  # atno 10718 bound_to 10713
  154.8370  135.4474  154.1262 H   0  0  0  0  0  0  0  0  0  0  0  0  # atno 10763 bound_to 10752
  153.2485  135.6924  153.7711 H   0  0  0  0  0  0  0  0  0  0  0  0  # atno 10764 bound_to 10752
  153.7032  135.3368  155.3205 H   0  0  0  0  0  0  0  0  0  0  0  0  # atno 10765 bound_to 10752
  140.5201  134.5718  157.5045 H   0  0  0  0  0  0  0  0  0  0  0  0  # atno 11005 bound_to 11000
  145.5440  139.1475  143.3431 LP  0  0  0  0  0  0  0  0  0  0  0  0  # atno 17320 bound_to 7965
  146.2350  140.5579  142.8959 LP  0  0  0  0  0  0  0  0  0  0  0  0  # atno 17321 bound_to 7965
  140.7773  143.3732  151.1611 LP  0  0  0  0  0  0  0  0  0  0  0  0  # atno 17342 bound_to 10162
  139.7360  143.8998  152.3035 LP  0  0  0  0  0  0  0  0  0  0  0  0  # atno 17343 bound_to 10162
  157.3774  131.0775  151.1506 LP  0  0  0  0  0  0  0  0  0  0  0  0  # atno 17370 bound_to 10713
  157.2240  130.6494  149.5822 LP  0  0  0  0  0  0  0  0  0  0  0  0  # atno 17371 bound_to 10713
  139.9611  134.7451  156.0236 LP  0  0  0  0  0  0  0  0  0  0  0  0  # atno 17394 bound_to 11000
  141.1339  133.6580  156.3540 LP  0  0  0  0  0  0  0  0  0  0  0  0  # atno 17395 bound_to 11000

$$$$
