AV-unprocessed.smi:244|AV-procd|sdf|1867|dock10
  -GOLD-   2262020503D 1   1.00000     0.00000
 Structure written by MMmdl.
 57 61  0  0  0  0  0  0  0  0  2 V2000
  148.3528  132.1274  154.7250 C   0  0  0  0  0  0  0  0  0  0  0  0
  147.2331  132.3017  153.7756 N   0  3  2  0  0  0  0  0  0  0  0  0
  146.7176  131.0085  153.2624 C   0  0  0  0  0  0  0  0  0  0  0  0
  145.4564  131.2248  152.4123 C   0  0  0  0  0  0  0  0  0  0  0  0
  145.7236  132.2244  151.2656 C   0  0  1  0  0  0  0  0  0  0  0  0
  144.5609  132.4787  150.4743 O   0  0  0  0  0  0  0  0  0  0  0  0
  143.5445  133.2336  151.1313 C   0  0  0  0  0  0  0  0  0  0  0  0
  144.1202  134.5626  151.6407 C   0  0  0  0  0  0  0  0  0  0  0  0
  145.2855  134.3191  152.4828 N   0  0  0  0  0  0  0  0  0  0  0  0
  145.7070  135.4353  153.1152 C   0  0  0  0  0  0  0  0  0  0  0  0
  145.7574  135.3905  154.4688 N   0  0  0  0  0  0  0  0  0  0  0  0
  146.1828  136.4558  155.1545 C   0  0  0  0  0  0  0  0  0  0  0  0
  146.5993  137.6357  154.6899 N   0  0  0  0  0  0  0  0  0  0  0  0
  146.5553  137.6786  153.3272 C   0  0  0  0  0  0  0  0  0  0  0  0
  146.1244  136.6312  152.4664 C   0  0  0  0  0  0  0  0  0  0  0  0
  146.2206  137.0351  151.1406 N   0  0  0  0  0  0  0  0  0  0  0  0
  146.6725  138.2574  151.2136 C   0  0  0  0  0  0  0  0  0  0  0  0
  146.9135  138.7191  152.4883 N   0  0  0  0  0  0  0  0  0  0  0  0
  147.4243  140.0298  152.8599 C   0  0  0  0  0  0  0  0  0  0  0  0
  148.4427  140.0026  154.0272 C   0  0  0  0  0  0  0  0  0  0  0  0
  147.7208  139.8077  155.2311 O   0  0  0  0  0  0  0  0  0  0  0  0
  149.4744  138.8614  153.8889 C   0  0  0  0  0  0  0  0  0  0  0  0
  150.6054  138.9731  154.9269 C   0  0  0  0  0  0  0  0  0  0  0  0
  151.2246  140.2506  154.8423 O   0  0  0  0  0  0  0  0  0  0  0  0
  150.3314  141.3148  155.1465 C   0  0  0  0  0  0  0  0  0  0  0  0
  149.1870  141.3500  154.1181 C   0  0  0  0  0  0  0  0  0  0  0  0
  146.3252  133.5469  151.7957 C   0  0  1  0  0  0  0  0  0  0  0  0
  147.5655  133.2375  152.6725 C   0  0  0  0  0  0  0  0  0  0  0  0
  149.2147  131.6727  154.2349 H   0  0  0  0  0  0  0  0  0  0  0  0
  148.0555  131.4894  155.5579 H   0  0  0  0  0  0  0  0  0  0  0  0
  148.6596  133.0889  155.1381 H   0  0  0  0  0  0  0  0  0  0  0  0
  147.4907  130.5114  152.6743 H   0  0  0  0  0  0  0  0  0  0  0  0
  146.4824  130.3491  154.0989 H   0  0  0  0  0  0  0  0  0  0  0  0
  145.1135  130.2736  152.0046 H   0  0  0  0  0  0  0  0  0  0  0  0
  144.6632  131.5833  153.0676 H   0  0  0  0  0  0  0  0  0  0  0  0
  146.4523  131.7663  150.5957 H   0  0  0  0  0  0  0  0  0  0  0  0
  142.7401  133.4262  150.4213 H   0  0  0  0  0  0  0  0  0  0  0  0
  143.1015  132.6624  151.9467 H   0  0  0  0  0  0  0  0  0  0  0  0
  144.4002  135.1858  150.7906 H   0  0  0  0  0  0  0  0  0  0  0  0
  143.3590  135.1071  152.2012 H   0  0  0  0  0  0  0  0  0  0  0  0
  146.1944  136.3478  156.2293 H   0  0  0  0  0  0  0  0  0  0  0  0
  146.8537  138.8571  150.3332 H   0  0  0  0  0  0  0  0  0  0  0  0
  147.8831  140.4729  151.9750 H   0  0  0  0  0  0  0  0  0  0  0  0
  146.5767  140.6689  153.1119 H   0  0  0  0  0  0  0  0  0  0  0  0
  147.2621  138.9832  155.1766 H   0  0  0  0  0  0  0  0  0  0  0  0
  148.9928  137.8872  153.9795 H   0  0  0  0  0  0  0  0  0  0  0  0
  149.9143  138.8944  152.8912 H   0  0  0  0  0  0  0  0  0  0  0  0
  150.2299  138.8046  155.9373 H   0  0  0  0  0  0  0  0  0  0  0  0
  151.3577  138.2067  154.7400 H   0  0  0  0  0  0  0  0  0  0  0  0
  149.9471  141.2051  156.1618 H   0  0  0  0  0  0  0  0  0  0  0  0
  150.8845  142.2538  155.1194 H   0  0  0  0  0  0  0  0  0  0  0  0
  149.6107  141.5933  153.1429 H   0  0  0  0  0  0  0  0  0  0  0  0
  148.4924  142.1562  154.3580 H   0  0  0  0  0  0  0  0  0  0  0  0
  146.6550  134.1365  150.9390 H   0  0  0  0  0  0  0  0  0  0  0  0
  147.9992  134.1535  153.0754 H   0  0  0  0  0  0  0  0  0  0  0  0
  148.3447  132.7887  152.0541 H   0  0  0  0  0  0  0  0  0  0  0  0
  146.4810  132.7289  154.2982 H   0  0  0  0  0  0  0  0  0  0  0  0
  1  2  1  0  0  0  0
  1 29  1  0  0  0  0
  1 30  1  0  0  0  0
  1 31  1  0  0  0  0
  2 28  1  0  0  0  0
  2  3  1  0  0  0  0
  2 57  1  0  0  0  0
  3  4  1  0  0  0  0
  3 32  1  0  0  0  0
  3 33  1  0  0  0  0
  4  5  1  0  0  0  0
  4 34  1  0  0  0  0
  4 35  1  0  0  0  0
  5 27  1  0  0  0  0
  5  6  1  0  0  0  0
  5 36  1  0  0  0  0
  6  7  1  0  0  0  0
  7  8  1  0  0  0  0
  7 37  1  0  0  0  0
  7 38  1  0  0  0  0
  8  9  1  0  0  0  0
  8 39  1  0  0  0  0
  8 40  1  0  0  0  0
  9 10  1  0  0  0  0
  9 27  1  0  0  0  0
 10 15  1  0  0  0  0
 10 11  2  0  0  0  0
 11 12  1  0  0  0  0
 12 13  2  0  0  0  0
 12 41  1  0  0  0  0
 13 14  1  0  0  0  0
 14 18  1  0  0  0  0
 14 15  2  0  0  0  0
 15 16  1  0  0  0  0
 16 17  2  0  0  0  0
 17 18  1  0  0  0  0
 17 42  1  0  0  0  0
 18 19  1  0  0  0  0
 19 20  1  0  0  0  0
 19 43  1  0  0  0  0
 19 44  1  0  0  0  0
 20 26  1  0  0  0  0
 20 21  1  0  0  0  0
 20 22  1  0  0  0  0
 21 45  1  0  0  0  0
 22 23  1  0  0  0  0
 22 46  1  0  0  0  0
 22 47  1  0  0  0  0
 23 24  1  0  0  0  0
 23 48  1  0  0  0  0
 23 49  1  0  0  0  0
 24 25  1  0  0  0  0
 25 26  1  0  0  0  0
 25 50  1  0  0  0  0
 25 51  1  0  0  0  0
 26 52  1  0  0  0  0
 26 53  1  0  0  0  0
 27 28  1  0  0  0  0
 27 54  1  0  0  0  0
 28 55  1  0  0  0  0
 28 56  1  0  0  0  0
M  CHG  1   2   1
M  END
> <s_m_source_file>
AV-unprocessed.smi

> <i_m_source_file_index>
244

> <i_lp_mmshare_version>
43012

> <i_f3d_flags>
0

> <s_epik_input>
W0NIMl0xW0NIMl1OKFtDSDNdKVtDSDJdW0NAQEhdKFtDQEhdMTIpTihbQ0gyXVtDSDJdTzIpYyhuW2NIXW4zKWMoYzM0KW5bY0hdbjRbQ0gyXUM1KFtPSF0pW0NIMl1bQ0gyXU9bQ0gyXVtDSDJdNQ==

> <s_epik_cmdline>
J2VwaWtfcHl0aG9uJywgJy1waCcsICc3LjAnLCAnLXRuJywgJzgnLCAnLW1hJywgJzIwMCcsICctbWV0YWxfYmluZGluZycsICctaW1hZScsICc8aW5maWxlLm1hZT4nLCAnLW9tYWUnLCAnPG91dGZpbGUubWFlPic=

> <r_lp_tautomer_probability>
1

> <r_epik_Ionization_Penalty>
0.0136215

> <r_epik_Ionization_Penalty_Charging>
0.0131385

> <r_epik_Ionization_Penalty_Neutral>
0.000483022

> <r_epik_State_Penalty>
0.0104001

> <r_epik_Charging_Adjusted_Penalty>
0.0235387

> <i_epik_Tot_Q>
1

> <i_epik_Tot_abs_Q>
1

> <r_epik_Metal_State_Penalty>
0.0104469

> <b_epik_Metal_Only>
0

> <s_lp_Force_Field>
OPLS_2005

> <r_lp_Energy>
48.7962

> <b_lp_Chiralities_Consistent>
1

> <s_lp_Variant>
AV-unprocessed.smi:244-4

> <Gold.Version>
5.8.1

> <Gold.Id.Protein>
6NUR|6NUR_protein|mol2

> <Gold.PLP.Fitness>
42.5205

> <Gold.PLP.PLP>
-39.8808

> <Gold.PLP.part.hbond>
-1.0000

> <Gold.PLP.part.metal>
0.0000

> <Gold.PLP.part.buried>
-3.4096

> <Gold.PLP.part.nonpolar>
-36.7643

> <Gold.PLP.part.repulsive>
1.1526

> <Gold.PLP.ligand.clash>
0.0000

> <Gold.PLP.ligand.torsion>
0.6070

> <Gold.PLP.Chemscore.Hbond>
1.0000

> <Gold.PLP.Chemscore.CHOScore>
0.2391

> <Gold.PLP.Chemscore.Metal>
0.0000

> <Gold.Chemscore.Hbonds>
donor molecule, donor type, donor heavy atom, donor atom, acceptor molecule, acceptor atom, score
      P1  H  7989  7998       L1    24  0.65

> <Gold.PLP.Chemscore.Internal.Correction>
0.1363

> <Gold.Rescore>
     Score         DG    S(hbond)    S(metal)    S(lipo)     H(rot)  DE(clash)    DE(int)     intcor
     11.93     -13.46       0.68        0.00      94.43       2.09       0.83       0.70       ----

> <Gold.Chemscore.Fitness>
11.9331

> <Gold.Chemscore.DG>
-13.4597

> <Gold.Chemscore.ZeroCoef>
-5.4800

> <Gold.Chemscore.Hbond>
0.6841

> <Gold.Chemscore.Metal>
0.0000

> <Gold.Chemscore.Lipo>
94.4260

> <Gold.Chemscore.Internal_Hbond>
0.0000

> <Gold.Chemscore.DEClash>
0.8312

> <Gold.Chemscore.DEInternal>
0.6954

> <Gold.Chemscore.Rot>
2.0911

> <Gold.Chemscore.Internal.Correction>
   9.000000E+99

> <Gold.Chemscore.Hbonds>
donor molecule, donor type, donor heavy atom, donor atom, acceptor molecule, acceptor atom, score
      P1  H  7989  7998       L1    24  0.05

> <Gold.Chemscore.Hbond.Weighted>
-2.2850

> <Gold.Chemscore.Metal.Weighted>
-0.0000

> <Gold.Chemscore.Lipo.Weighted>
-11.0478

> <Gold.Chemscore.Internal_Hbond.Weighted>
0.0000

> <Gold.Chemscore.DEClash.Weighted>
0.8312

> <Gold.Chemscore.DEInternal.Weighted>
0.6954

> <Gold.Chemscore.Rot.Weighted>
5.3531

> <Gold.Chemscore.Internal.Correction.Weighted>
   9.000000E+99

> <Gold.Protein.RotatedTorsions>
[ 6907 6896 6895 6894 ] final  154.97 input  -60.11 | X-H torsion
[ 7974 7965 7964 7962 ] final  133.41 input  175.53 | X-H torsion
[ 8008 7997 7996 7995 ] final  -80.80 input   59.86 | X-H torsion
[ 10167 10162 10161 10158 ] final  138.96 input  -65.29 | X-H torsion
[ 10718 10713 10712 10709 ] final  111.95 input   66.30 | X-H torsion
[ 10763 10752 10751 10750 ] final -160.18 input  -60.55 | X-H torsion
[ 11005 11000 10999 10996 ] final -151.64 input  -57.11 | X-H torsion

> <Gold.Protein.ActiveResidues>
 VAL166  LYS551  ARG553  GLY616  TRP617  ASP618  TYR619  PRO620  LYS621  CYS622 
 ASP623  PHE694  ASN695  SER759  ASP760  ASP761  ALA762  ILE779  LEU786  VAL792 
 PHE793  MET794  SER795  GLU796  ALA797  LYS798  CYS799  TRP800  GLU811  SER814 

> <Gold.Protein.RotatedAtoms>
  152.0508  133.4018  159.4376 H   0  0  0  0  0  0  0  0  0  0  0  0  # atno 6907 bound_to 6896
  150.6870  134.3310  159.4836 H   0  0  0  0  0  0  0  0  0  0  0  0  # atno 6908 bound_to 6896
  152.1119  134.9267  160.0617 H   0  0  0  0  0  0  0  0  0  0  0  0  # atno 6909 bound_to 6896
  144.9868  139.4447  143.5359 H   0  0  0  0  0  0  0  0  0  0  0  0  # atno 7974 bound_to 7965
  154.5919  140.0657  156.9250 H   0  0  0  0  0  0  0  0  0  0  0  0  # atno 8008 bound_to 7997
  155.2280  140.3335  155.4288 H   0  0  0  0  0  0  0  0  0  0  0  0  # atno 8009 bound_to 7997
  156.2261  140.1820  156.7342 H   0  0  0  0  0  0  0  0  0  0  0  0  # atno 8010 bound_to 7997
  139.5094  144.6323  151.5786 H   0  0  0  0  0  0  0  0  0  0  0  0  # atno 10167 bound_to 10162
  157.6418  131.0959  150.6823 H   0  0  0  0  0  0  0  0  0  0  0  0  # atno 10718 bound_to 10713
  154.7412  135.3069  154.8724 H   0  0  0  0  0  0  0  0  0  0  0  0  # atno 10763 bound_to 10752
  153.9538  135.6761  153.4748 H   0  0  0  0  0  0  0  0  0  0  0  0  # atno 10764 bound_to 10752
  153.1011  135.4911  154.8793 H   0  0  0  0  0  0  0  0  0  0  0  0  # atno 10765 bound_to 10752
  140.7274  134.3659  157.5173 H   0  0  0  0  0  0  0  0  0  0  0  0  # atno 11005 bound_to 11000
  146.3422  139.9175  142.8771 LP  0  0  0  0  0  0  0  0  0  0  0  0  # atno 17320 bound_to 7965
  145.2342  140.9984  143.3973 LP  0  0  0  0  0  0  0  0  0  0  0  0  # atno 17321 bound_to 7965
  140.6060  143.9524  150.6419 LP  0  0  0  0  0  0  0  0  0  0  0  0  # atno 17342 bound_to 10162
  140.2751  143.3429  152.1203 LP  0  0  0  0  0  0  0  0  0  0  0  0  # atno 17343 bound_to 10162
  156.7146  130.4662  149.5538 LP  0  0  0  0  0  0  0  0  0  0  0  0  # atno 17370 bound_to 10713
  156.1707  130.6435  151.0833 LP  0  0  0  0  0  0  0  0  0  0  0  0  # atno 17371 bound_to 10713
  139.8834  134.8995  156.2769 LP  0  0  0  0  0  0  0  0  0  0  0  0  # atno 17394 bound_to 11000
  140.9951  133.7185  156.0873 LP  0  0  0  0  0  0  0  0  0  0  0  0  # atno 17395 bound_to 11000

$$$$
