#       Name:                AV-unprocessed.smi:2722
#       Creating user name   scv26
#       Creation time:       Fri Mar 27 14:54:49 2020


#       File generated by GOLD software.
#

@<TRIPOS>MOLECULE
AV-unprocessed.smi:2722
    35    35     1
SMALL
NO_CHARGES


@<TRIPOS>ATOM
      1 ****        -2.5442   0.7461  -1.6259 C.3            1 S1                 0.0000
      2 ****        -1.3720  -0.2462  -1.7953 C.3            1 S1                 0.0000
      3 ****        -1.4052  -0.6629  -3.1480 O.3            1 S1                 0.0000
      4 ****         0.0178   0.4279  -1.5689 C.3            1 S1                 0.0000
      5 ****         0.4225   0.6131  -0.1601 N.am           1 S1                 0.0000
      6 ****         1.2121  -0.3991   0.4235 C.2            1 S1                 0.0000
      7 ****         1.6497  -0.3504   1.6952 C.2            1 S1                 0.0000
      8 ****         2.4763  -1.4816   2.2850 C.3            1 S1                 0.0000
      9 ****         3.6589  -1.5508   1.6744 F              1 S1                 0.0000
     10 ****         2.6886  -1.3057   3.5896 F              1 S1                 0.0000
     11 ****         1.8563  -2.6492   2.1146 F              1 S1                 0.0000
     12 ****         1.2652   0.8154   2.4661 C.2            1 S1                 0.0000
     13 ****         0.5299   1.8026   1.9188 C.2            1 S1                 0.0000
     14 ****         0.0828   1.7459   0.5248 C.2            1 S1                 0.0000
     15 ****        -0.5520   2.6655   0.0082 O.2            1 S1                 0.0000
     16 ****        -1.5666  -1.4900  -0.8964 C.2            1 S1                 0.0000
     17 ****        -0.8864  -2.5026  -1.1774 O.co2          1 S1                 0.0000
     18 ****        -2.3592  -1.4126   0.0689 O.co2          1 S1                -1.0000
     19 ****        -2.6226   1.1187  -0.6048 H              1 S1                 0.0000
     20 ****        -3.4993   0.2812  -1.8746 H              1 S1                 0.0000
     21 ****        -2.4252   1.6113  -2.2786 H              1 S1                 0.0000
     22 ****        -0.7309  -1.3144  -3.2673 H              1 S1                 0.0000
     23 ****         0.7853  -0.1710  -2.0630 H              1 S1                 0.0000
     24 ****         0.0545   1.3805  -2.1006 H              1 S1                 0.0000
     25 ****         1.4331  -1.2317  -0.2288 H              1 S1                 0.0000
     26 ****         1.5694   0.9024   3.4984 H              1 S1                 0.0000
     27 ****         0.2611   2.6577   2.5214 H              1 S1                 0.0000
     28 ****        -1.2334   0.1180  -3.7485 LP             1 S1                 0.0000
     29 ****        -2.2996  -1.0565  -3.3606 LP             1 S1                 0.0000
     30 ****        -0.8389   2.5999  -0.9475 LP             1 S1                 0.0000
     31 ****        -0.7807   3.4781   0.5443 LP             1 S1                 0.0000
     32 ****        -0.9566  -3.3247  -0.6123 LP             1 S1                 0.0000
     33 ****        -0.2728  -2.4895  -1.9669 LP             1 S1                 0.0000
     34 ****        -2.4823  -2.1955   0.6788 LP             1 S1                 0.0000
     35 ****        -2.8694  -0.5679   0.2304 LP             1 S1                 0.0000
@<TRIPOS>BOND
    1    1    2 1     
    2    1   19 1     
    3    1   20 1     
    4    1   21 1     
    5    2    3 1     
    6    2    4 1     
    7    2   16 1     
    8    3   22 1     
    9    4    5 1     
   10    4   23 1     
   11    4   24 1     
   12    5   14 am    
   13    5    6 1     
   14    6    7 2     
   15    6   25 1     
   16    7    8 1     
   17    7   12 1     
   18    8    9 1     
   19    8   10 1     
   20    8   11 1     
   21   12   13 2     
   22   12   26 1     
   23   13   14 1     
   24   13   27 1     
   25   14   15 2     
   26   16   17 ar    
   27   16   18 ar    
   28    3   28 1     
   29    3   29 1     
   30   15   30 1     
   31   15   31 1     
   32   17   32 1     
   33   17   33 1     
   34   18   34 1     
   35   18   35 1     
@<TRIPOS>SUBSTRUCTURE
      1 S1             1
@<TRIPOS>SET
LONE_PAIRS      STATIC     ATOMS    <user>   **** ""
8 28 29 30 31 32 33 34 35
DONOR_HYDROGENS      STATIC     ATOMS    <user>   **** ""
1 22
ATOM$BLUE        STATIC     ATOMS    COLORGROUP SYSTEM
8 28 29 30 31 32 33 34 35
ATOM$RED        STATIC     ATOMS    COLORGROUP SYSTEM
1 22
