#       Name:                AV-unprocessed.smi:2693
#       Creating user name   scv26
#       Creation time:       Fri Mar 27 14:43:37 2020


#       File generated by GOLD software.
#

@<TRIPOS>MOLECULE
AV-unprocessed.smi:2693
    51    53     1
SMALL
NO_CHARGES


@<TRIPOS>ATOM
      1 ****        -6.8204   1.7280   0.2200 C.3            1 S1                 0.0000
      2 ****        -6.0273   0.6600  -0.3817 N.pl3          1 S1                 0.0000
      3 ****        -6.7286  -0.3208  -1.2052 C.3            1 S1                 0.0000
      4 ****        -4.6481   0.5738  -0.1700 C.ar           1 S1                 0.0000
      5 ****        -4.0045  -0.4658  -0.7170 N.ar           1 S1                 0.0000
      6 ****        -2.6735  -0.5605  -0.5126 C.ar           1 S1                 0.0000
      7 ****        -1.9698   0.3980   0.2551 C.ar           1 S1                 0.0000
      8 ****        -0.5704   0.3821   0.4988 N.am           1 S1                 0.0000
      9 ****         0.2818  -0.6500   0.3832 C.2            1 S1                 0.0000
     10 ****        -0.0320  -1.8035   0.0909 O.2            1 S1                 0.0000
     11 ****         1.5403  -0.2705   0.6399 N.am           1 S1                 0.0000
     12 ****         2.7040  -1.1575   0.5901 C.3            1 S1                 0.0000
     13 ****         3.9478  -0.5580   1.2845 C.3            1 S1                 0.0000
     14 ****         3.8934   0.6853   2.1389 C.3            1 S1                 0.0000
     15 ****         4.3263   1.7853   1.1652 C.3            1 S1                 0.0000
     16 ****         4.0888   1.2392  -0.1305 O.3            1 S1                 0.0000
     17 ****         4.4403  -0.1422  -0.0920 C.3            1 S1                 0.0000
     18 ****         3.4569  -1.1196  -0.7685 C.3            1 S1                 0.0000
     19 ****         4.0832  -2.4578  -1.1716 C.3            1 S1                 0.0000
     20 ****         2.7295  -0.5946  -2.0140 C.3            1 S1                 0.0000
     21 ****        -2.7434   1.4571   0.7702 C.ar           1 S1                 0.0000
     22 ****        -4.0742   1.5387   0.5610 N.ar           1 S1                 0.0000
     23 ****        -6.5213   2.6952  -0.1845 H              1 S1                 0.0000
     24 ****        -6.6787   1.7476   1.3010 H              1 S1                 0.0000
     25 ****        -7.8859   1.6002   0.0296 H              1 S1                 0.0000
     26 ****        -6.2878  -0.3686  -2.2014 H              1 S1                 0.0000
     27 ****        -7.7838  -0.0741  -1.3233 H              1 S1                 0.0000
     28 ****        -6.6647  -1.3106  -0.7523 H              1 S1                 0.0000
     29 ****        -2.1896  -1.3985  -0.9891 H              1 S1                 0.0000
     30 ****        -0.1763   1.2517   0.8269 H              1 S1                 0.0000
     31 ****         1.7139   0.6970   0.8699 H              1 S1                 0.0000
     32 ****         2.4935  -2.1712   0.9364 H              1 S1                 0.0000
     33 ****         4.5760  -1.3474   1.7005 H              1 S1                 0.0000
     34 ****         2.8940   0.8722   2.5311 H              1 S1                 0.0000
     35 ****         4.5704   0.6288   2.9918 H              1 S1                 0.0000
     36 ****         3.7813   2.7177   1.3135 H              1 S1                 0.0000
     37 ****         5.3923   1.9922   1.2715 H              1 S1                 0.0000
     38 ****         5.5018  -0.3290  -0.2622 H              1 S1                 0.0000
     39 ****         4.7850  -2.3406  -1.9979 H              1 S1                 0.0000
     40 ****         3.3236  -3.1758  -1.4824 H              1 S1                 0.0000
     41 ****         4.6333  -2.9104  -0.3458 H              1 S1                 0.0000
     42 ****         3.4066  -0.5054  -2.8639 H              1 S1                 0.0000
     43 ****         2.2972   0.3933  -1.8538 H              1 S1                 0.0000
     44 ****         1.9162  -1.2580  -2.3101 H              1 S1                 0.0000
     45 ****        -2.2949   2.2448   1.3577 H              1 S1                 0.0000
     46 ****        -4.4938  -1.1491  -1.2588 LP             1 S1                 0.0000
     47 ****        -0.9899  -2.0324  -0.0824 LP             1 S1                 0.0000
     48 ****         0.6708  -2.5118   0.0268 LP             1 S1                 0.0000
     49 ****         4.6501   1.7144  -0.8081 LP             1 S1                 0.0000
     50 ****         3.1228   1.3380  -0.3695 LP             1 S1                 0.0000
     51 ****        -4.6126   2.2924   0.9381 LP             1 S1                 0.0000
@<TRIPOS>BOND
    1    1    2 1     
    2    1   23 1     
    3    1   24 1     
    4    1   25 1     
    5    2    3 1     
    6    2    4 1     
    7    3   26 1     
    8    3   27 1     
    9    3   28 1     
   10    4   22 ar    
   11    4    5 ar    
   12    5    6 ar    
   13    6    7 ar    
   14    6   29 1     
   15    7    8 1     
   16    7   21 ar    
   17    8    9 am    
   18    8   30 1     
   19    9   10 2     
   20    9   11 am    
   21   11   12 1     
   22   11   31 1     
   23   12   18 1     
   24   12   13 1     
   25   12   32 1     
   26   13   17 1     
   27   13   14 1     
   28   13   33 1     
   29   14   15 1     
   30   14   34 1     
   31   14   35 1     
   32   15   16 1     
   33   15   36 1     
   34   15   37 1     
   35   16   17 1     
   36   17   18 1     
   37   17   38 1     
   38   18   19 1     
   39   18   20 1     
   40   19   39 1     
   41   19   40 1     
   42   19   41 1     
   43   20   42 1     
   44   20   43 1     
   45   20   44 1     
   46   21   22 ar    
   47   21   45 1     
   48    5   46 1     
   49   10   47 1     
   50   10   48 1     
   51   16   49 1     
   52   16   50 1     
   53   22   51 1     
@<TRIPOS>SUBSTRUCTURE
      1 S1             1
@<TRIPOS>SET
LONE_PAIRS      STATIC     ATOMS    <user>   **** ""
6 46 47 48 49 50 51
DONOR_HYDROGENS      STATIC     ATOMS    <user>   **** ""
2 30 31
ATOM$BLUE        STATIC     ATOMS    COLORGROUP SYSTEM
6 46 47 48 49 50 51
ATOM$RED        STATIC     ATOMS    COLORGROUP SYSTEM
2 30 31
