AV-unprocessed.smi:1240|AV-procd|sdf|5208|dock6
  -GOLD-   22720 4303D 1   1.00000     0.00000
 Structure written by MMmdl.
 49 51  0  0  0  0  0  0  0  0  3 V2000
  149.6355  137.0450  156.5964 O   0  0  0  0  0  0  0  0  0  0  0  0
  149.4310  136.8808  155.3940 C   0  0  0  0  0  0  0  0  0  0  0  0
  149.2895  135.6734  154.8291 N   0  0  0  0  0  0  0  0  0  0  0  0
  149.3576  134.4025  155.5417 C   0  0  0  0  0  0  0  0  0  0  0  0
  149.4023  133.1551  154.6122 C   0  0  1  0  0  0  0  0  0  0  0  0
  149.8390  131.8451  155.3289 C   0  0  2  0  0  0  0  0  0  0  0  0
  151.2536  131.8303  155.8909 C   0  0  0  0  0  0  0  0  0  0  0  0
  151.5833  130.3413  155.9952 C   0  0  0  0  0  0  0  0  0  0  0  0
  150.6888  129.6718  155.1142 O   0  0  0  0  0  0  0  0  0  0  0  0
  149.9196  130.6285  154.4022 C   0  0  0  0  0  0  0  0  0  0  0  0
  148.0993  132.9415  153.9127 N   0  3  0  0  0  0  0  0  0  0  0  0
  146.8891  133.4313  154.6207 C   0  0  0  0  0  0  0  0  0  0  0  0
  145.6257  132.9750  153.8726 C   0  0  0  0  0  0  0  0  0  0  0  0
  145.6693  133.4524  152.5328 O   0  0  0  0  0  0  0  0  0  0  0  0
  146.7842  132.9357  151.8153 C   0  0  0  0  0  0  0  0  0  0  0  0
  148.0907  133.3795  152.4956 C   0  0  0  0  0  0  0  0  0  0  0  0
  149.3318  137.8612  154.4798 N   0  0  0  0  0  0  0  0  0  0  0  0
  149.3991  139.2669  154.6797 C   0  0  0  0  0  0  0  0  0  0  0  0
  148.4779  140.0730  153.9745 C   0  0  0  0  0  0  0  0  0  0  0  0
  148.4959  141.4709  154.1558 C   0  0  0  0  0  0  0  0  0  0  0  0
  149.3841  142.0269  155.0071 N   0  3  0  0  0  0  0  0  0  0  0  0
  150.2742  141.2972  155.7134 C   0  0  0  0  0  0  0  0  0  0  0  0
  150.3037  139.8946  155.5738 C   0  0  0  0  0  0  0  0  0  0  0  0
  149.1296  135.6271  153.8329 H   0  0  0  0  0  0  0  0  0  0  0  0
  150.2504  134.4395  156.1658 H   0  0  0  0  0  0  0  0  0  0  0  0
  148.5102  134.3504  156.2261 H   0  0  0  0  0  0  0  0  0  0  0  0
  150.1386  133.3406  153.8292 H   0  0  0  0  0  0  0  0  0  0  0  0
  149.1481  131.6161  156.1412 H   0  0  0  0  0  0  0  0  0  0  0  0
  151.9435  132.3101  155.1951 H   0  0  0  0  0  0  0  0  0  0  0  0
  151.3412  132.3310  156.8551 H   0  0  0  0  0  0  0  0  0  0  0  0
  152.6206  130.1381  155.7275 H   0  0  0  0  0  0  0  0  0  0  0  0
  151.4173  129.9734  157.0081 H   0  0  0  0  0  0  0  0  0  0  0  0
  148.9397  130.2251  154.1452 H   0  0  0  0  0  0  0  0  0  0  0  0
  150.4385  130.8789  153.4754 H   0  0  0  0  0  0  0  0  0  0  0  0
  146.8628  133.0531  155.6423 H   0  0  0  0  0  0  0  0  0  0  0  0
  146.8977  134.5202  154.6783 H   0  0  0  0  0  0  0  0  0  0  0  0
  145.5369  131.8874  153.8834 H   0  0  0  0  0  0  0  0  0  0  0  0
  144.7358  133.3726  154.3606 H   0  0  0  0  0  0  0  0  0  0  0  0
  146.7236  131.8474  151.7615 H   0  0  0  0  0  0  0  0  0  0  0  0
  146.7488  133.3073  150.7911 H   0  0  0  0  0  0  0  0  0  0  0  0
  148.1867  134.4637  152.4343 H   0  0  0  0  0  0  0  0  0  0  0  0
  148.9412  132.9507  151.9647 H   0  0  0  0  0  0  0  0  0  0  0  0
  149.2529  137.5643  153.5180 H   0  0  0  0  0  0  0  0  0  0  0  0
  147.7654  139.6286  153.2946 H   0  0  0  0  0  0  0  0  0  0  0  0
  147.8300  142.1555  153.6508 H   0  0  0  0  0  0  0  0  0  0  0  0
  150.9280  141.8524  156.3699 H   0  0  0  0  0  0  0  0  0  0  0  0
  151.0091  139.3292  156.1633 H   0  0  0  0  0  0  0  0  0  0  0  0
  147.9967  131.9376  153.8686 H   0  0  0  0  0  0  0  0  0  0  0  0
  149.3794  143.0404  155.1253 H   0  0  0  0  0  0  0  0  0  0  0  0
  1  2  2  0  0  0  0
  2  3  1  0  0  0  0
  2 17  1  0  0  0  0
  3  4  1  0  0  0  0
  3 24  1  0  0  0  0
  4  5  1  0  0  0  0
  4 25  1  0  0  0  0
  4 26  1  0  0  0  0
  5  6  1  0  0  0  0
  5 11  1  0  0  0  0
  5 27  1  0  0  0  0
  6 10  1  0  0  0  0
  6  7  1  0  0  0  0
  6 28  1  0  0  0  0
  7  8  1  0  0  0  0
  7 29  1  0  0  0  0
  7 30  1  0  0  0  0
  8  9  1  0  0  0  0
  8 31  1  0  0  0  0
  8 32  1  0  0  0  0
  9 10  1  0  0  0  0
 10 33  1  0  0  0  0
 10 34  1  0  0  0  0
 11 16  1  0  0  0  0
 11 12  1  0  0  0  0
 11 48  1  0  0  0  0
 12 13  1  0  0  0  0
 12 35  1  0  0  0  0
 12 36  1  0  0  0  0
 13 14  1  0  0  0  0
 13 37  1  0  0  0  0
 13 38  1  0  0  0  0
 14 15  1  0  0  0  0
 15 16  1  0  0  0  0
 15 39  1  0  0  0  0
 15 40  1  0  0  0  0
 16 41  1  0  0  0  0
 16 42  1  0  0  0  0
 17 18  1  0  0  0  0
 17 43  1  0  0  0  0
 18 23  1  0  0  0  0
 18 19  2  0  0  0  0
 19 20  1  0  0  0  0
 19 44  1  0  0  0  0
 20 21  2  0  0  0  0
 20 45  1  0  0  0  0
 21 22  1  0  0  0  0
 21 49  1  0  0  0  0
 22 23  2  0  0  0  0
 22 46  1  0  0  0  0
 23 47  1  0  0  0  0
M  CHG  1  11   1
M  CHG  1  21   1
M  END
> <s_m_source_file>
AV-unprocessed.smi

> <i_m_source_file_index>
1240

> <i_lp_mmshare_version>
43012

> <i_f3d_flags>
0

> <s_epik_input>
W2NIXTFbY0hdbltjSF1bY0hdYzFbTkhdQyg9TylbTkhdW0NIMl1bQ0BIXShbQ0BASF0yW0NIMl1bQ0gyXU9bQ0gyXTIpTjNbQ0gyXVtDSDJdT1tDSDJdW0NIMl0z

> <s_epik_cmdline>
J2VwaWtfcHl0aG9uJywgJy1waCcsICc3LjAnLCAnLXRuJywgJzgnLCAnLW1hJywgJzIwMCcsICctbWV0YWxfYmluZGluZycsICctaW1hZScsICc8aW5maWxlLm1hZT4nLCAnLW9tYWUnLCAnPG91dGZpbGUubWFlPic=

> <r_epik_Ionization_Penalty>
2.08105

> <r_epik_Ionization_Penalty_Charging>
2.08103

> <r_epik_Ionization_Penalty_Neutral>
2.04144e-05

> <r_epik_State_Penalty>
2.15598

> <r_epik_Charging_Adjusted_Penalty>
4.23701

> <i_epik_Tot_Q>
2

> <i_epik_Tot_abs_Q>
2

> <r_epik_Metal_State_Penalty>
2.25158

> <b_epik_Metal_Only>
0

> <s_lp_Force_Field>
OPLS_2005

> <r_lp_Energy>
49.9195

> <b_lp_Chiralities_Consistent>
1

> <s_lp_Variant>
AV-unprocessed.smi:1240-14

> <Gold.Version>
5.8.1

> <Gold.Id.Protein>
6NUR|6NUR_protein|mol2

> <Gold.PLP.Fitness>
43.1967

> <Gold.PLP.PLP>
-34.1468

> <Gold.PLP.part.hbond>
-3.0000

> <Gold.PLP.part.metal>
0.0000

> <Gold.PLP.part.buried>
-2.3084

> <Gold.PLP.part.nonpolar>
-26.7214

> <Gold.PLP.part.repulsive>
0.4177

> <Gold.PLP.ligand.clash>
0.0000

> <Gold.PLP.ligand.torsion>
1.6069

> <Gold.PLP.Chemscore.Hbond>
4.0000

> <Gold.PLP.Chemscore.CHOScore>
0.0000

> <Gold.PLP.Chemscore.Metal>
0.0000

> <Gold.Chemscore.Hbonds>
donor molecule, donor type, donor heavy atom, donor atom, acceptor molecule, acceptor atom, score
      L1  H     3    24       P1  7948  0.98
      L1  H    17    43       P1  7948  0.76
      L1  H    21    49       P1  8028  2.00

> <Gold.PLP.Chemscore.Internal.Correction>
0.2637

> <Gold.Rescore>
     Score         DG    S(hbond)    S(metal)    S(lipo)     H(rot)  DE(clash)    DE(int)     intcor
     17.92     -19.82       2.77        0.00      81.62       1.74       0.27       1.63       ----

> <Gold.Chemscore.Fitness>
17.9179

> <Gold.Chemscore.DG>
-19.8181

> <Gold.Chemscore.ZeroCoef>
-5.4800

> <Gold.Chemscore.Hbond>
2.7690

> <Gold.Chemscore.Metal>
0.0000

> <Gold.Chemscore.Lipo>
81.6193

> <Gold.Chemscore.Internal_Hbond>
0.0000

> <Gold.Chemscore.DEClash>
0.2718

> <Gold.Chemscore.DEInternal>
1.6283

> <Gold.Chemscore.Rot>
1.7421

> <Gold.Chemscore.Internal.Correction>
   9.000000E+99

> <Gold.Chemscore.Hbonds>
donor molecule, donor type, donor heavy atom, donor atom, acceptor molecule, acceptor atom, score
      L1  H     3    24       P1  7948  0.68
      L1  H    17    43       P1  7948  0.76
      L1  H    21    49       P1  8028  1.00

> <Gold.Chemscore.Hbond.Weighted>
-9.2483

> <Gold.Chemscore.Metal.Weighted>
-0.0000

> <Gold.Chemscore.Lipo.Weighted>
-9.5495

> <Gold.Chemscore.Internal_Hbond.Weighted>
0.0000

> <Gold.Chemscore.DEClash.Weighted>
0.2718

> <Gold.Chemscore.DEInternal.Weighted>
1.6283

> <Gold.Chemscore.Rot.Weighted>
4.4597

> <Gold.Chemscore.Internal.Correction.Weighted>
   9.000000E+99

> <Gold.Protein.RotatedTorsions>
[ 6907 6896 6895 6894 ] final  -50.48 input  -60.11 | X-H torsion
[ 7974 7965 7964 7962 ] final  118.00 input  175.53 | X-H torsion
[ 8008 7997 7996 7995 ] final  125.89 input   59.86 | X-H torsion
[ 10167 10162 10161 10158 ] final -173.09 input  -65.29 | X-H torsion
[ 10718 10713 10712 10709 ] final  119.14 input   66.30 | X-H torsion
[ 10763 10752 10751 10750 ] final  119.28 input  -60.55 | X-H torsion
[ 11005 11000 10999 10996 ] final   51.24 input  -57.11 | X-H torsion

> <Gold.Protein.ActiveResidues>
 VAL166  LYS551  ARG553  GLY616  TRP617  ASP618  TYR619  PRO620  LYS621  CYS622 
 ASP623  PHE694  ASN695  SER759  ASP760  ASP761  ALA762  ILE779  LEU786  VAL792 
 PHE793  MET794  SER795  GLU796  ALA797  LYS798  CYS799  TRP800  GLU811  SER814 

> <Gold.Protein.RotatedAtoms>
  150.8703  134.8075  159.7149 H   0  0  0  0  0  0  0  0  0  0  0  0  # atno 6907 bound_to 6896
  152.4710  134.4957  159.9719 H   0  0  0  0  0  0  0  0  0  0  0  0  # atno 6908 bound_to 6896
  151.5047  133.3458  159.2910 H   0  0  0  0  0  0  0  0  0  0  0  0  # atno 6909 bound_to 6896
  145.1605  139.3158  143.4520 H   0  0  0  0  0  0  0  0  0  0  0  0  # atno 7974 bound_to 7965
  156.2848  140.2705  156.2023 H   0  0  0  0  0  0  0  0  0  0  0  0  # atno 8008 bound_to 7997
  155.0349  140.0386  157.2506 H   0  0  0  0  0  0  0  0  0  0  0  0  # atno 8009 bound_to 7997
  154.7323  140.2709  155.6450 H   0  0  0  0  0  0  0  0  0  0  0  0  # atno 8010 bound_to 7997
  139.5708  144.1647  152.1380 H   0  0  0  0  0  0  0  0  0  0  0  0  # atno 10167 bound_to 10162
  157.5982  131.1055  150.7854 H   0  0  0  0  0  0  0  0  0  0  0  0  # atno 10718 bound_to 10713
  153.5806  135.3484  155.2873 H   0  0  0  0  0  0  0  0  0  0  0  0  # atno 10763 bound_to 10752
  154.8668  135.4181  154.2625 H   0  0  0  0  0  0  0  0  0  0  0  0  # atno 10764 bound_to 10752
  153.3410  135.7050  153.6937 H   0  0  0  0  0  0  0  0  0  0  0  0  # atno 10765 bound_to 10752
  140.0949  134.5159  155.8817 H   0  0  0  0  0  0  0  0  0  0  0  0  # atno 11005 bound_to 11000
  146.3483  140.1713  142.8589 LP  0  0  0  0  0  0  0  0  0  0  0  0  # atno 17320 bound_to 7965
  145.0336  140.8890  143.5095 LP  0  0  0  0  0  0  0  0  0  0  0  0  # atno 17321 bound_to 7965
  140.1179  144.5399  150.6882 LP  0  0  0  0  0  0  0  0  0  0  0  0  # atno 17342 bound_to 10162
  140.6992  143.2423  151.4913 LP  0  0  0  0  0  0  0  0  0  0  0  0  # atno 17343 bound_to 10162
  156.8260  130.5000  149.5337 LP  0  0  0  0  0  0  0  0  0  0  0  0  # atno 17370 bound_to 10713
  156.1049  130.5997  150.9955 LP  0  0  0  0  0  0  0  0  0  0  0  0  # atno 17371 bound_to 10713
  141.2089  133.6678  156.6402 LP  0  0  0  0  0  0  0  0  0  0  0  0  # atno 17394 bound_to 11000
  140.3300  134.7936  157.4319 LP  0  0  0  0  0  0  0  0  0  0  0  0  # atno 17395 bound_to 11000

$$$$
