AV-unprocessed.smi:1279|AV-procd|sdf|5356|dock9
  -GOLD-   22720 4493D 1   1.00000     0.00000
 Structure written by MMmdl.
 46 47  0  0  0  0  0  0  0  0  2 V2000
  150.7605  141.7849  156.0656 C   0  0  0  0  0  0  0  0  0  0  0  0
  151.0582  140.4308  155.4929 C   0  0  0  0  0  0  0  0  0  0  0  0
  150.1405  139.3793  155.2037 C   0  0  0  0  0  0  0  0  0  0  0  0
  150.9539  138.3979  154.7068 C   0  0  0  0  0  0  0  0  0  0  0  0
  150.6220  137.1586  154.2569 N   0  0  0  0  0  0  0  0  0  0  0  0
  150.0596  136.1422  154.9340 C   0  0  0  0  0  0  0  0  0  0  0  0
  149.7380  136.1640  156.1222 O   0  0  0  0  0  0  0  0  0  0  0  0
  149.8915  135.0692  154.1477 N   0  0  0  0  0  0  0  0  0  0  0  0
  149.3108  133.8021  154.5772 C   0  0  0  0  0  0  0  0  0  0  0  0
  148.6318  133.0650  153.4062 C   0  0  0  0  0  0  0  0  0  0  0  0
  147.5640  133.8749  152.7668 N   0  3  2  0  0  0  0  0  0  0  0  0
  146.5110  134.2752  153.7359 C   0  0  0  0  0  0  0  0  0  0  0  0
  145.4822  135.2202  153.0893 C   0  0  0  0  0  0  0  0  0  0  0  0
  144.8481  134.6133  151.8250 C   0  0  2  0  0  0  0  0  0  0  0  0
  143.8346  133.4998  152.1433 C   0  0  0  0  0  0  0  0  0  0  0  0
  145.9622  134.1510  150.8685 C   0  0  0  0  0  0  0  0  0  0  0  0
  146.9805  133.2277  151.5614 C   0  0  0  0  0  0  0  0  0  0  0  0
  152.2534  138.8541  154.7080 N   0  0  0  0  0  0  0  0  0  0  0  0
  153.4651  138.1855  154.2752 C   0  0  0  0  0  0  0  0  0  0  0  0
  152.3131  140.1122  155.1954 N   0  0  0  0  0  0  0  0  0  0  0  0
  149.6945  141.9057  156.2584 H   0  0  0  0  0  0  0  0  0  0  0  0
  151.0648  142.5765  155.3803 H   0  0  0  0  0  0  0  0  0  0  0  0
  151.2868  141.9370  157.0081 H   0  0  0  0  0  0  0  0  0  0  0  0
  149.0701  139.3699  155.3432 H   0  0  0  0  0  0  0  0  0  0  0  0
  150.8408  136.9823  153.2875 H   0  0  0  0  0  0  0  0  0  0  0  0
  150.1806  135.1357  153.1825 H   0  0  0  0  0  0  0  0  0  0  0  0
  150.0807  133.1744  155.0293 H   0  0  0  0  0  0  0  0  0  0  0  0
  148.5931  134.0285  155.3646 H   0  0  0  0  0  0  0  0  0  0  0  0
  149.3667  132.7639  152.6579 H   0  0  0  0  0  0  0  0  0  0  0  0
  148.1923  132.1438  153.7910 H   0  0  0  0  0  0  0  0  0  0  0  0
  146.0198  133.3857  154.1326 H   0  0  0  0  0  0  0  0  0  0  0  0
  146.9693  134.7840  154.5851 H   0  0  0  0  0  0  0  0  0  0  0  0
  144.7085  135.4826  153.8118 H   0  0  0  0  0  0  0  0  0  0  0  0
  145.9780  136.1556  152.8262 H   0  0  0  0  0  0  0  0  0  0  0  0
  144.2895  135.4046  151.3233 H   0  0  0  0  0  0  0  0  0  0  0  0
  144.2964  132.6540  152.6517 H   0  0  0  0  0  0  0  0  0  0  0  0
  143.3702  133.1222  151.2320 H   0  0  0  0  0  0  0  0  0  0  0  0
  143.0355  133.8722  152.7851 H   0  0  0  0  0  0  0  0  0  0  0  0
  145.5315  133.6497  150.0010 H   0  0  0  0  0  0  0  0  0  0  0  0
  146.4863  135.0260  150.4815 H   0  0  0  0  0  0  0  0  0  0  0  0
  147.7657  132.9811  150.8478 H   0  0  0  0  0  0  0  0  0  0  0  0
  146.5097  132.2849  151.8427 H   0  0  0  0  0  0  0  0  0  0  0  0
  153.5267  137.2000  154.7374 H   0  0  0  0  0  0  0  0  0  0  0  0
  154.3455  138.7633  154.5607 H   0  0  0  0  0  0  0  0  0  0  0  0
  153.4515  138.0715  153.1910 H   0  0  0  0  0  0  0  0  0  0  0  0
  148.0008  134.7324  152.4599 H   0  0  0  0  0  0  0  0  0  0  0  0
  1  2  1  0  0  0  0
  1 21  1  0  0  0  0
  1 22  1  0  0  0  0
  1 23  1  0  0  0  0
  2 20  2  0  0  0  0
  2  3  1  0  0  0  0
  3  4  2  0  0  0  0
  3 24  1  0  0  0  0
  4  5  1  0  0  0  0
  4 18  1  0  0  0  0
  5  6  1  0  0  0  0
  5 25  1  0  0  0  0
  6  7  2  0  0  0  0
  6  8  1  0  0  0  0
  8  9  1  0  0  0  0
  8 26  1  0  0  0  0
  9 10  1  0  0  0  0
  9 27  1  0  0  0  0
  9 28  1  0  0  0  0
 10 11  1  0  0  0  0
 10 29  1  0  0  0  0
 10 30  1  0  0  0  0
 11 17  1  0  0  0  0
 11 12  1  0  0  0  0
 11 46  1  0  0  0  0
 12 13  1  0  0  0  0
 12 31  1  0  0  0  0
 12 32  1  0  0  0  0
 13 14  1  0  0  0  0
 13 33  1  0  0  0  0
 13 34  1  0  0  0  0
 14 15  1  0  0  0  0
 14 16  1  0  0  0  0
 14 35  1  0  0  0  0
 15 36  1  0  0  0  0
 15 37  1  0  0  0  0
 15 38  1  0  0  0  0
 16 17  1  0  0  0  0
 16 39  1  0  0  0  0
 16 40  1  0  0  0  0
 17 41  1  0  0  0  0
 17 42  1  0  0  0  0
 18 19  1  0  0  0  0
 18 20  1  0  0  0  0
 19 43  1  0  0  0  0
 19 44  1  0  0  0  0
 19 45  1  0  0  0  0
M  CHG  1  11   1
M  END
> <s_m_source_file>
AV-unprocessed.smi

> <i_m_source_file_index>
1279

> <i_lp_mmshare_version>
43012

> <i_f3d_flags>
0

> <s_epik_input>
W0NIM11jMVtjSF1jKG4objEpW0NIM10pW05IXUMoPU8pW05IXVtDSDJdW0NIMl1OMltDSDJdW0NIMl1bQ0hdKFtDSDNdKVtDSDJdW0NIMl0y

> <s_epik_cmdline>
J2VwaWtfcHl0aG9uJywgJy1waCcsICc3LjAnLCAnLXRuJywgJzgnLCAnLW1hJywgJzIwMCcsICctbWV0YWxfYmluZGluZycsICctaW1hZScsICc8aW5maWxlLm1hZT4nLCAnLW9tYWUnLCAnPG91dGZpbGUubWFlPic=

> <r_lp_tautomer_probability>
1

> <r_epik_Ionization_Penalty>
0.00166091

> <r_epik_Ionization_Penalty_Charging>
0.0015841

> <r_epik_Ionization_Penalty_Neutral>
7.68112e-05

> <r_epik_State_Penalty>
0.00106518

> <r_epik_Charging_Adjusted_Penalty>
0.00264928

> <i_epik_Tot_Q>
1

> <i_epik_Tot_abs_Q>
1

> <r_epik_Metal_State_Penalty>
-0

> <b_epik_Metal_Only>
0

> <s_lp_Force_Field>
OPLS_2005

> <r_lp_Energy>
19.8524

> <b_lp_Chiralities_Consistent>
1

> <s_lp_Variant>
AV-unprocessed.smi:1279-2

> <Gold.Version>
5.8.1

> <Gold.Id.Protein>
6NUR|6NUR_protein|mol2

> <Gold.PLP.Fitness>
46.2514

> <Gold.PLP.PLP>
-36.0520

> <Gold.PLP.part.hbond>
-6.6369

> <Gold.PLP.part.metal>
0.0000

> <Gold.PLP.part.buried>
1.5936

> <Gold.PLP.part.nonpolar>
-30.5111

> <Gold.PLP.part.repulsive>
0.1834

> <Gold.PLP.ligand.clash>
0.0000

> <Gold.PLP.ligand.torsion>
0.7788

> <Gold.PLP.Chemscore.Hbond>
3.9100

> <Gold.PLP.Chemscore.CHOScore>
0.0000

> <Gold.PLP.Chemscore.Metal>
0.0000

> <Gold.Chemscore.Hbonds>
donor molecule, donor type, donor heavy atom, donor atom, acceptor molecule, acceptor atom, score
      L1  H     5    25       P1  7949  0.70
      L1  H    11    46       P1  7948  2.00
      P1  H  7997  8010       L1    20  0.46

> <Gold.PLP.Chemscore.Internal.Correction>
0.0270

> <Gold.Rescore>
     Score         DG    S(hbond)    S(metal)    S(lipo)     H(rot)  DE(clash)    DE(int)     intcor
     13.78     -16.17       2.00        0.00      66.73       1.48       1.63       0.76       ----

> <Gold.Chemscore.Fitness>
13.7845

> <Gold.Chemscore.DG>
-16.1742

> <Gold.Chemscore.ZeroCoef>
-5.4800

> <Gold.Chemscore.Hbond>
2.0016

> <Gold.Chemscore.Metal>
0.0000

> <Gold.Chemscore.Lipo>
66.7284

> <Gold.Chemscore.Internal_Hbond>
0.0000

> <Gold.Chemscore.DEClash>
1.6345

> <Gold.Chemscore.DEInternal>
0.7552

> <Gold.Chemscore.Rot>
1.4838

> <Gold.Chemscore.Internal.Correction>
   9.000000E+99

> <Gold.Chemscore.Hbonds>
donor molecule, donor type, donor heavy atom, donor atom, acceptor molecule, acceptor atom, score
      L1  H     5    25       P1  7949  0.10
      L1  H    11    46       P1  7948  0.60
      P1  H  7997  8010       L1    20  0.16

> <Gold.Chemscore.Hbond.Weighted>
-6.6855

> <Gold.Chemscore.Metal.Weighted>
-0.0000

> <Gold.Chemscore.Lipo.Weighted>
-7.8072

> <Gold.Chemscore.Internal_Hbond.Weighted>
0.0000

> <Gold.Chemscore.DEClash.Weighted>
1.6345

> <Gold.Chemscore.DEInternal.Weighted>
0.7552

> <Gold.Chemscore.Rot.Weighted>
3.7985

> <Gold.Chemscore.Internal.Correction.Weighted>
   9.000000E+99

> <Gold.Protein.RotatedTorsions>
[ 6907 6896 6895 6894 ] final -131.20 input  -60.11 | X-H torsion
[ 7974 7965 7964 7962 ] final  -95.45 input  175.53 | X-H torsion
[ 8008 7997 7996 7995 ] final   89.21 input   59.86 | X-H torsion
[ 10167 10162 10161 10158 ] final  -57.01 input  -65.29 | X-H torsion
[ 10718 10713 10712 10709 ] final -167.56 input   66.30 | X-H torsion
[ 10763 10752 10751 10750 ] final  104.26 input  -60.55 | X-H torsion
[ 11005 11000 10999 10996 ] final   52.46 input  -57.11 | X-H torsion

> <Gold.Protein.ActiveResidues>
 VAL166  LYS551  ARG553  GLY616  TRP617  ASP618  TYR619  PRO620  LYS621  CYS622 
 ASP623  PHE694  ASN695  SER759  ASP760  ASP761  ALA762  ILE779  LEU786  VAL792 
 PHE793  MET794  SER795  GLU796  ALA797  LYS798  CYS799  TRP800  GLU811  SER814 

> <Gold.Protein.RotatedAtoms>
  150.9482  133.6579  159.2776 H   0  0  0  0  0  0  0  0  0  0  0  0  # atno 6907 bound_to 6896
  151.3944  135.0960  159.9546 H   0  0  0  0  0  0  0  0  0  0  0  0  # atno 6908 bound_to 6896
  152.5099  133.8990  159.7486 H   0  0  0  0  0  0  0  0  0  0  0  0  # atno 6909 bound_to 6896
  145.3599  140.9490  143.2506 H   0  0  0  0  0  0  0  0  0  0  0  0  # atno 7974 bound_to 7965
  155.9972  140.3363  155.6810 H   0  0  0  0  0  0  0  0  0  0  0  0  # atno 8008 bound_to 7997
  155.6339  140.0688  157.2658 H   0  0  0  0  0  0  0  0  0  0  0  0  # atno 8009 bound_to 7997
  154.4238  140.1754  156.1489 H   0  0  0  0  0  0  0  0  0  0  0  0  # atno 8010 bound_to 7997
  140.6283  143.2448  151.5306 H   0  0  0  0  0  0  0  0  0  0  0  0  # atno 10167 bound_to 10162
  156.6842  130.9134  151.3061 H   0  0  0  0  0  0  0  0  0  0  0  0  # atno 10718 bound_to 10713
  153.3636  135.3949  155.1736 H   0  0  0  0  0  0  0  0  0  0  0  0  # atno 10763 bound_to 10752
  154.8683  135.3685  154.5068 H   0  0  0  0  0  0  0  0  0  0  0  0  # atno 10764 bound_to 10752
  153.5530  135.7082  153.5643 H   0  0  0  0  0  0  0  0  0  0  0  0  # atno 10765 bound_to 10752
  140.0847  134.5290  155.8911 H   0  0  0  0  0  0  0  0  0  0  0  0  # atno 11005 bound_to 11000
  144.8654  139.5116  143.6793 LP  0  0  0  0  0  0  0  0  0  0  0  0  # atno 17320 bound_to 7965
  146.2932  139.7199  142.9146 LP  0  0  0  0  0  0  0  0  0  0  0  0  # atno 17321 bound_to 7965
  139.5500  144.2419  152.1514 LP  0  0  0  0  0  0  0  0  0  0  0  0  # atno 17342 bound_to 10162
  140.1656  144.4984  150.6608 LP  0  0  0  0  0  0  0  0  0  0  0  0  # atno 17343 bound_to 10162
  157.7032  130.9356  150.0851 LP  0  0  0  0  0  0  0  0  0  0  0  0  # atno 17370 bound_to 10713
  156.1845  130.3651  149.8991 LP  0  0  0  0  0  0  0  0  0  0  0  0  # atno 17371 bound_to 10713
  141.2059  133.6650  156.6207 LP  0  0  0  0  0  0  0  0  0  0  0  0  # atno 17394 bound_to 11000
  140.3437  134.7827  157.4416 LP  0  0  0  0  0  0  0  0  0  0  0  0  # atno 17395 bound_to 11000

$$$$
