AV-unprocessed.smi:820|AV-procd|sdf|3837|dock1
  -GOLD-   22720 1283D 1   1.00000     0.00000
 Structure written by MMmdl.
 31 32  0  0  0  0  0  0  0  0  2 V2000
  153.2700  143.6021  163.4353 C   0  0  0  0  0  0  0  0  0  0  0  0
  153.1262  144.5190  162.2176 C   0  0  0  0  0  0  0  0  0  0  0  0
  151.9615  143.8353  161.0038 S   0  0  0  0  0  0  0  0  0  0  0  0
  152.5885  142.2610  160.4986 C   0  0  0  0  0  0  0  0  0  0  0  0
  153.7680  141.7496  161.0698 C   0  0  0  0  0  0  0  0  0  0  0  0
  154.2238  140.4921  160.6317 C   0  0  0  0  0  0  0  0  0  0  0  0
  153.4958  139.7853  159.6480 C   0  0  0  0  0  0  0  0  0  0  0  0
  153.9040  138.5874  159.2002 N   0  5  0  0  0  0  0  0  0  0  0  0
  153.0054  137.6731  158.7522 C   0  0  0  0  0  0  0  0  0  0  0  0
  152.5790  136.7343  159.4311 O   0  0  0  0  0  0  0  0  0  0  0  0
  152.5525  137.8571  157.3757 C   0  0  0  0  0  0  0  0  0  0  0  0
  151.8870  136.8630  156.7401 C   0  0  0  0  0  0  0  0  0  0  0  0
  151.4643  136.9390  155.4362 O   0  0  0  0  0  0  0  0  0  0  0  0
  151.9941  138.0378  154.7049 C   0  0  0  0  0  0  0  0  0  0  0  0
  152.0128  139.3000  155.5785 C   0  0  0  0  0  0  0  0  0  0  0  0
  152.7754  139.0681  156.7570 O   0  0  0  0  0  0  0  0  0  0  0  0
  152.3276  140.4072  159.1477 C   0  0  0  0  0  0  0  0  0  0  0  0
  151.8749  141.6125  159.5554 N   0  0  0  0  0  0  0  0  0  0  0  0
  153.9723  144.0215  164.1558 H   0  0  0  0  0  0  0  0  0  0  0  0
  153.6378  142.6177  163.1448 H   0  0  0  0  0  0  0  0  0  0  0  0
  152.3135  143.4681  163.9409 H   0  0  0  0  0  0  0  0  0  0  0  0
  152.7753  145.5022  162.5317 H   0  0  0  0  0  0  0  0  0  0  0  0
  154.0964  144.6583  161.7403 H   0  0  0  0  0  0  0  0  0  0  0  0
  154.3100  142.3027  161.8222 H   0  0  0  0  0  0  0  0  0  0  0  0
  155.1269  140.0725  161.0507 H   0  0  0  0  0  0  0  0  0  0  0  0
  151.6572  135.8998  157.1724 H   0  0  0  0  0  0  0  0  0  0  0  0
  153.0026  137.7928  154.3691 H   0  0  0  0  0  0  0  0  0  0  0  0
  151.3886  138.1991  153.8130 H   0  0  0  0  0  0  0  0  0  0  0  0
  152.4471  140.1367  155.0316 H   0  0  0  0  0  0  0  0  0  0  0  0
  150.9982  139.5884  155.8567 H   0  0  0  0  0  0  0  0  0  0  0  0
  151.7312  139.9179  158.3912 H   0  0  0  0  0  0  0  0  0  0  0  0
  1  2  1  0  0  0  0
  1 19  1  0  0  0  0
  1 20  1  0  0  0  0
  1 21  1  0  0  0  0
  2  3  1  0  0  0  0
  2 22  1  0  0  0  0
  2 23  1  0  0  0  0
  3  4  1  0  0  0  0
  4 18  1  0  0  0  0
  4  5  2  0  0  0  0
  5  6  1  0  0  0  0
  5 24  1  0  0  0  0
  6  7  2  0  0  0  0
  6 25  1  0  0  0  0
  7  8  1  0  0  0  0
  7 17  1  0  0  0  0
  8  9  1  0  0  0  0
  9 10  2  0  0  0  0
  9 11  1  0  0  0  0
 11 16  1  0  0  0  0
 11 12  2  0  0  0  0
 12 13  1  0  0  0  0
 12 26  1  0  0  0  0
 13 14  1  0  0  0  0
 14 15  1  0  0  0  0
 14 27  1  0  0  0  0
 14 28  1  0  0  0  0
 15 16  1  0  0  0  0
 15 29  1  0  0  0  0
 15 30  1  0  0  0  0
 17 18  2  0  0  0  0
 17 31  1  0  0  0  0
M  CHG  1   8  -1
M  END
> <s_m_source_file>
AV-unprocessed.smi

> <i_m_source_file_index>
820

> <i_lp_mmshare_version>
43012

> <i_f3d_flags>
0

> <s_epik_input>
W0NIM11bQ0gyXVNjMVtjSF1bY0hdYyhbY0hdbjEpW05IXUMoPU8pQzI9W0NIXU9bQ0gyXVtDSDJdTzI=

> <s_epik_cmdline>
J2VwaWtfcHl0aG9uJywgJy1waCcsICc3LjAnLCAnLXRuJywgJzgnLCAnLW1hJywgJzIwMCcsICctbWV0YWxfYmluZGluZycsICctaW1hZScsICc8aW5maWxlLm1hZT4nLCAnLW9tYWUnLCAnPG91dGZpbGUubWFlPic=

> <r_lp_tautomer_probability>
1

> <r_epik_Ionization_Penalty>
5.63505

> <r_epik_Ionization_Penalty_Charging>
5.63079

> <r_epik_Ionization_Penalty_Neutral>
0.00426194

> <r_epik_State_Penalty>
5.63074

> <r_epik_Charging_Adjusted_Penalty>
11.2615

> <i_epik_Tot_Q>
-1

> <i_epik_Tot_abs_Q>
1

> <r_epik_Metal_State_Penalty>
1.62037

> <b_epik_Metal_Only>
1

> <s_lp_Force_Field>
OPLS_2005

> <r_lp_Energy>
4.11082

> <b_lp_Chiralities_Consistent>
1

> <s_lp_Variant>
AV-unprocessed.smi:820-2

> <Gold.Version>
5.8.1

> <Gold.Id.Protein>
6NUR|6NUR_protein|mol2

> <Gold.PLP.Fitness>
38.9752

> <Gold.PLP.PLP>
-32.1052

> <Gold.PLP.part.hbond>
-3.0000

> <Gold.PLP.part.metal>
0.0000

> <Gold.PLP.part.buried>
-4.1465

> <Gold.PLP.part.nonpolar>
-24.6364

> <Gold.PLP.part.repulsive>
0.0929

> <Gold.PLP.ligand.clash>
0.0000

> <Gold.PLP.ligand.torsion>
1.0199

> <Gold.PLP.Chemscore.Hbond>
2.7495

> <Gold.PLP.Chemscore.CHOScore>
0.0000

> <Gold.PLP.Chemscore.Metal>
0.0000

> <Gold.Chemscore.Hbonds>
donor molecule, donor type, donor heavy atom, donor atom, acceptor molecule, acceptor atom, score
      P1  H  6896  6909       L1    10  1.00
      P1  H  7997  8009       L1    16  0.77
      P1  H 10752 10765       L1    13  0.21

> <Gold.PLP.Chemscore.Internal.Correction>
0.6613

> <Gold.Rescore>
     Score         DG    S(hbond)    S(metal)    S(lipo)     H(rot)  DE(clash)    DE(int)     intcor
     15.63     -19.31       1.39        0.00     103.12       1.13       1.48       2.19       ----

> <Gold.Chemscore.Fitness>
15.6332

> <Gold.Chemscore.DG>
-19.3054

> <Gold.Chemscore.ZeroCoef>
-5.4800

> <Gold.Chemscore.Hbond>
1.3916

> <Gold.Chemscore.Metal>
0.0000

> <Gold.Chemscore.Lipo>
103.1154

> <Gold.Chemscore.Internal_Hbond>
0.0000

> <Gold.Chemscore.DEClash>
1.4800

> <Gold.Chemscore.DEInternal>
2.1922

> <Gold.Chemscore.Rot>
1.1277

> <Gold.Chemscore.Internal.Correction>
   9.000000E+99

> <Gold.Chemscore.Hbonds>
donor molecule, donor type, donor heavy atom, donor atom, acceptor molecule, acceptor atom, score
      P1  H  6896  6909       L1    10  0.98
      P1  H  7997  8009       L1    16  0.11

> <Gold.Chemscore.Hbond.Weighted>
-4.6478

> <Gold.Chemscore.Metal.Weighted>
-0.0000

> <Gold.Chemscore.Lipo.Weighted>
-12.0645

> <Gold.Chemscore.Internal_Hbond.Weighted>
0.0000

> <Gold.Chemscore.DEClash.Weighted>
1.4800

> <Gold.Chemscore.DEInternal.Weighted>
2.1922

> <Gold.Chemscore.Rot.Weighted>
2.8870

> <Gold.Chemscore.Internal.Correction.Weighted>
   9.000000E+99

> <Gold.Protein.RotatedTorsions>
[ 6907 6896 6895 6894 ] final  138.92 input  -60.11 | X-H torsion
[ 7974 7965 7964 7962 ] final   47.59 input  175.53 | X-H torsion
[ 8008 7997 7996 7995 ] final -153.12 input   59.86 | X-H torsion
[ 10167 10162 10161 10158 ] final -108.50 input  -65.29 | X-H torsion
[ 10718 10713 10712 10709 ] final -136.67 input   66.30 | X-H torsion
[ 10763 10752 10751 10750 ] final  166.86 input  -60.55 | X-H torsion
[ 11005 11000 10999 10996 ] final  173.15 input  -57.11 | X-H torsion

> <Gold.Protein.ActiveResidues>
 VAL166  LYS551  ARG553  GLY616  TRP617  ASP618  TYR619  PRO620  LYS621  CYS622 
 ASP623  PHE694  ASN695  SER759  ASP760  ASP761  ALA762  ILE779  LEU786  VAL792 
 PHE793  MET794  SER795  GLU796  ALA797  LYS798  CYS799  TRP800  GLU811  SER814 

> <Gold.Protein.RotatedAtoms>
  152.2609  133.5297  159.5381 H   0  0  0  0  0  0  0  0  0  0  0  0  # atno 6907 bound_to 6896
  150.7125  134.0830  159.3914 H   0  0  0  0  0  0  0  0  0  0  0  0  # atno 6908 bound_to 6896
  151.8748  135.0476  160.0533 H   0  0  0  0  0  0  0  0  0  0  0  0  # atno 6909 bound_to 6896
  146.0283  139.4733  142.9854 H   0  0  0  0  0  0  0  0  0  0  0  0  # atno 7974 bound_to 7965
  155.6658  140.0728  157.2537 H   0  0  0  0  0  0  0  0  0  0  0  0  # atno 8008 bound_to 7997
  154.4133  140.1708  156.1877 H   0  0  0  0  0  0  0  0  0  0  0  0  # atno 8009 bound_to 7997
  155.9658  140.3366  155.6534 H   0  0  0  0  0  0  0  0  0  0  0  0  # atno 8010 bound_to 7997
  140.1655  143.4085  152.1394 H   0  0  0  0  0  0  0  0  0  0  0  0  # atno 10167 bound_to 10162
  156.2796  130.7313  151.1306 H   0  0  0  0  0  0  0  0  0  0  0  0  # atno 10718 bound_to 10713
  154.3452  135.2753  155.2401 H   0  0  0  0  0  0  0  0  0  0  0  0  # atno 10763 bound_to 10752
  154.4654  135.5896  153.6288 H   0  0  0  0  0  0  0  0  0  0  0  0  # atno 10764 bound_to 10752
  152.9854  135.6075  154.3657 H   0  0  0  0  0  0  0  0  0  0  0  0  # atno 10765 bound_to 10752
  140.3373  134.7306  157.4177 H   0  0  0  0  0  0  0  0  0  0  0  0  # atno 11005 bound_to 11000
  145.7082  141.0115  143.1468 LP  0  0  0  0  0  0  0  0  0  0  0  0  # atno 17320 bound_to 7965
  144.7019  139.8725  143.7441 LP  0  0  0  0  0  0  0  0  0  0  0  0  # atno 17321 bound_to 7965
  139.5361  144.7211  151.4887 LP  0  0  0  0  0  0  0  0  0  0  0  0  # atno 17342 bound_to 10162
  140.6616  143.8487  150.6894 LP  0  0  0  0  0  0  0  0  0  0  0  0  # atno 17343 bound_to 10162
  157.7310  131.0612  150.5699 LP  0  0  0  0  0  0  0  0  0  0  0  0  # atno 17370 bound_to 10713
  156.5803  130.4302  149.5980 LP  0  0  0  0  0  0  0  0  0  0  0  0  # atno 17371 bound_to 10713
  140.0810  134.5731  155.8541 LP  0  0  0  0  0  0  0  0  0  0  0  0  # atno 17394 bound_to 11000
  141.2048  133.6642  156.6141 LP  0  0  0  0  0  0  0  0  0  0  0  0  # atno 17395 bound_to 11000

$$$$
