#       Name:                AV-unprocessed.smi:1677
#       Creating user name   scv26
#       Creation time:       Fri Mar 27 07:47:00 2020


#       File generated by GOLD software.
#

@<TRIPOS>MOLECULE
AV-unprocessed.smi:1677
    39    40     1
SMALL
NO_CHARGES


@<TRIPOS>ATOM
      1 ****        -0.2005  -2.2511  -1.8537 C.3            1 S1                 0.0000
      2 ****         0.2200  -1.5745  -0.5386 C.3            1 S1                 0.0000
      3 ****         1.7446  -1.6112  -0.2959 C.3            1 S1                 0.0000
      4 ****         2.2808  -2.9591  -0.2988 N.pl3          1 S1                 0.0000
      5 ****         2.1521  -3.9110   0.7039 C.2            1 S1                 0.0000
      6 ****         2.8172  -5.0343   0.2669 C.2            1 S1                 0.0000
      7 ****         3.3646  -4.7955  -0.9915 N.2            1 S1                 0.0000
      8 ****         3.0087  -3.5458  -1.2593 C.2            1 S1                 0.0000
      9 ****        -0.2545  -0.1938  -0.5401 N.am           1 S1                 0.0000
     10 ****        -0.5508   0.5307   0.5505 C.2            1 S1                 0.0000
     11 ****        -0.4435   0.0977   1.6983 O.2            1 S1                 0.0000
     12 ****        -1.0449   1.9631   0.3065 C.3            1 S1                 0.0000
     13 ****        -0.0957   3.0027   0.9465 C.3            1 S1                 0.0000
     14 ****        -0.6894   4.4006   0.9399 C.2            1 S1                 0.0000
     15 ****        -1.9935   4.6490   0.7290 C.2            1 S1                 0.0000
     16 ****        -3.0216   3.5601   0.4783 C.3            1 S1                 0.0000
     17 ****        -2.4842   2.1583   0.8242 C.3            1 S1                 0.0000
     18 ****         0.0493  -3.3123  -1.8562 H              1 S1                 0.0000
     19 ****         0.2922  -1.7906  -2.7106 H              1 S1                 0.0000
     20 ****        -1.2773  -2.1739  -2.0071 H              1 S1                 0.0000
     21 ****        -0.2741  -2.1111   0.2739 H              1 S1                 0.0000
     22 ****         2.2634  -1.0297  -1.0596 H              1 S1                 0.0000
     23 ****         1.9898  -1.1544   0.6638 H              1 S1                 0.0000
     24 ****         1.6104  -3.7155   1.6178 H              1 S1                 0.0000
     25 ****         2.9442  -5.9878   0.7583 H              1 S1                 0.0000
     26 ****         3.2791  -3.0482  -2.1792 H              1 S1                 0.0000
     27 ****        -0.3726   0.2439  -1.4422 H              1 S1                 0.0000
     28 ****        -1.0568   2.1387  -0.7712 H              1 S1                 0.0000
     29 ****         0.1392   2.7444   1.9800 H              1 S1                 0.0000
     30 ****         0.8492   3.0240   0.4023 H              1 S1                 0.0000
     31 ****        -0.0109   5.2194   1.1296 H              1 S1                 0.0000
     32 ****        -2.3523   5.6678   0.7234 H              1 S1                 0.0000
     33 ****        -3.9175   3.7688   1.0634 H              1 S1                 0.0000
     34 ****        -3.3104   3.6041  -0.5722 H              1 S1                 0.0000
     35 ****        -3.1508   1.3996   0.4122 H              1 S1                 0.0000
     36 ****        -2.5026   2.0270   1.9074 H              1 S1                 0.0000
     37 ****         3.9004  -5.4198  -1.5600 LP             1 S1                 0.0000
     38 ****        -0.1219  -0.8366   1.8522 LP             1 S1                 0.0000
     39 ****        -0.6780   0.6804   2.4765 LP             1 S1                 0.0000
@<TRIPOS>BOND
    1    1    2 1     
    2    1   18 1     
    3    1   19 1     
    4    1   20 1     
    5    2    3 1     
    6    2    9 1     
    7    2   21 1     
    8    3    4 1     
    9    3   22 1     
   10    3   23 1     
   11    4    8 1     
   12    4    5 1     
   13    5    6 2     
   14    5   24 1     
   15    6    7 1     
   16    6   25 1     
   17    7    8 2     
   18    8   26 1     
   19    9   10 am    
   20    9   27 1     
   21   10   11 2     
   22   10   12 1     
   23   12   17 1     
   24   12   13 1     
   25   12   28 1     
   26   13   14 1     
   27   13   29 1     
   28   13   30 1     
   29   14   15 2     
   30   14   31 1     
   31   15   16 1     
   32   15   32 1     
   33   16   17 1     
   34   16   33 1     
   35   16   34 1     
   36   17   35 1     
   37   17   36 1     
   38    7   37 1     
   39   11   38 1     
   40   11   39 1     
@<TRIPOS>SUBSTRUCTURE
      1 S1             1
@<TRIPOS>SET
LONE_PAIRS      STATIC     ATOMS    <user>   **** ""
3 37 38 39
DONOR_HYDROGENS      STATIC     ATOMS    <user>   **** ""
1 27
ATOM$BLUE        STATIC     ATOMS    COLORGROUP SYSTEM
3 37 38 39
ATOM$RED        STATIC     ATOMS    COLORGROUP SYSTEM
1 27
