AV-unprocessed.smi:2119|AV-procd|sdf|8636|dock3
  -GOLD-   2272011383D 1   1.00000     0.00000
 Structure written by MMmdl.
 48 50  0  0  0  0  0  0  0  0  2 V2000
  144.6428  136.6107  152.1547 O   0  0  0  0  0  0  0  0  0  0  0  0
  145.8556  136.4209  152.0708 C   0  0  0  0  0  0  0  0  0  0  0  0
  146.7754  137.3306  152.4233 N   0  0  0  0  0  0  0  0  0  0  0  0
  146.4939  138.6670  152.9394 C   0  0  0  0  0  0  0  0  0  0  0  0
  146.6786  138.7684  154.4777 C   0  0  2  0  0  0  0  0  0  0  0  0
  145.5896  139.6176  155.1941 C   0  0  1  0  0  0  0  0  0  0  0  0
  144.2057  138.9950  155.2958 C   0  0  0  0  0  0  0  0  0  0  0  0
  143.5639  139.7632  156.4489 C   0  0  0  0  0  0  0  0  0  0  0  0
  144.6350  140.2336  157.2587 O   0  0  0  0  0  0  0  0  0  0  0  0
  145.8758  139.8540  156.6809 C   0  0  0  0  0  0  0  0  0  0  0  0
  148.0315  139.2905  154.8398 N   0  3  0  0  0  0  0  0  0  0  0  0
  149.1513  138.4064  154.4338 C   0  0  0  0  0  0  0  0  0  0  0  0
  150.4759  138.9280  155.0177 C   0  0  0  0  0  0  0  0  0  0  0  0
  150.6880  140.2729  154.6045 O   0  0  0  0  0  0  0  0  0  0  0  0
  149.6585  141.1427  155.0609 C   0  0  0  0  0  0  0  0  0  0  0  0
  148.3126  140.7000  154.4644 C   0  0  0  0  0  0  0  0  0  0  0  0
  146.4358  135.3010  151.6065 N   0  0  0  0  0  0  0  0  0  0  0  0
  145.8105  134.1053  151.1614 C   0  0  0  0  0  0  0  0  0  0  0  0
  144.4053  134.0961  151.0434 C   0  0  0  0  0  0  0  0  0  0  0  0
  143.7627  132.9302  150.5858 C   0  0  0  0  0  0  0  0  0  0  0  0
  144.5560  131.8155  150.2523 C   0  0  0  0  0  0  0  0  0  0  0  0
  145.9025  131.8120  150.3435 N   0  0  0  0  0  0  0  0  0  0  0  0
  146.5125  132.9328  150.7857 C   0  0  0  0  0  0  0  0  0  0  0  0
  147.7480  137.0841  152.3104 H   0  0  0  0  0  0  0  0  0  0  0  0
  147.1716  139.3494  152.4267 H   0  0  0  0  0  0  0  0  0  0  0  0
  145.4829  138.9757  152.6690 H   0  0  0  0  0  0  0  0  0  0  0  0
  146.6104  137.7596  154.8883 H   0  0  0  0  0  0  0  0  0  0  0  0
  145.4879  140.5857  154.7018 H   0  0  0  0  0  0  0  0  0  0  0  0
  143.6208  139.0867  154.3811 H   0  0  0  0  0  0  0  0  0  0  0  0
  144.2807  137.9369  155.5502 H   0  0  0  0  0  0  0  0  0  0  0  0
  143.0093  140.6247  156.0758 H   0  0  0  0  0  0  0  0  0  0  0  0
  142.8768  139.1414  157.0234 H   0  0  0  0  0  0  0  0  0  0  0  0
  146.2138  138.9340  157.1604 H   0  0  0  0  0  0  0  0  0  0  0  0
  146.6334  140.6201  156.8490 H   0  0  0  0  0  0  0  0  0  0  0  0
  148.9745  137.3903  154.7884 H   0  0  0  0  0  0  0  0  0  0  0  0
  149.2195  138.3605  153.3466 H   0  0  0  0  0  0  0  0  0  0  0  0
  150.4723  138.8672  156.1072 H   0  0  0  0  0  0  0  0  0  0  0  0
  151.3074  138.3159  154.6677 H   0  0  0  0  0  0  0  0  0  0  0  0
  149.6214  141.1446  156.1515 H   0  0  0  0  0  0  0  0  0  0  0  0
  149.8917  142.1605  154.7478 H   0  0  0  0  0  0  0  0  0  0  0  0
  148.3531  140.8035  153.3795 H   0  0  0  0  0  0  0  0  0  0  0  0
  147.5216  141.3580  154.8231 H   0  0  0  0  0  0  0  0  0  0  0  0
  147.4402  135.3259  151.5082 H   0  0  0  0  0  0  0  0  0  0  0  0
  143.8238  134.9684  151.3043 H   0  0  0  0  0  0  0  0  0  0  0  0
  142.6875  132.8911  150.4918 H   0  0  0  0  0  0  0  0  0  0  0  0
  144.0971  130.9048  149.8970 H   0  0  0  0  0  0  0  0  0  0  0  0
  147.5898  132.8793  150.8123 H   0  0  0  0  0  0  0  0  0  0  0  0
  148.0480  139.2734  155.8495 H   0  0  0  0  0  0  0  0  0  0  0  0
  1  2  2  0  0  0  0
  2  3  1  0  0  0  0
  2 17  1  0  0  0  0
  3  4  1  0  0  0  0
  3 24  1  0  0  0  0
  4  5  1  0  0  0  0
  4 25  1  0  0  0  0
  4 26  1  0  0  0  0
  5  6  1  0  0  0  0
  5 11  1  0  0  0  0
  5 27  1  0  0  0  0
  6 10  1  0  0  0  0
  6  7  1  0  0  0  0
  6 28  1  0  0  0  0
  7  8  1  0  0  0  0
  7 29  1  0  0  0  0
  7 30  1  0  0  0  0
  8  9  1  0  0  0  0
  8 31  1  0  0  0  0
  8 32  1  0  0  0  0
  9 10  1  0  0  0  0
 10 33  1  0  0  0  0
 10 34  1  0  0  0  0
 11 16  1  0  0  0  0
 11 12  1  0  0  0  0
 11 48  1  0  0  0  0
 12 13  1  0  0  0  0
 12 35  1  0  0  0  0
 12 36  1  0  0  0  0
 13 14  1  0  0  0  0
 13 37  1  0  0  0  0
 13 38  1  0  0  0  0
 14 15  1  0  0  0  0
 15 16  1  0  0  0  0
 15 39  1  0  0  0  0
 15 40  1  0  0  0  0
 16 41  1  0  0  0  0
 16 42  1  0  0  0  0
 17 18  1  0  0  0  0
 17 43  1  0  0  0  0
 18 23  1  0  0  0  0
 18 19  2  0  0  0  0
 19 20  1  0  0  0  0
 19 44  1  0  0  0  0
 20 21  2  0  0  0  0
 20 45  1  0  0  0  0
 21 22  1  0  0  0  0
 21 46  1  0  0  0  0
 22 23  2  0  0  0  0
 23 47  1  0  0  0  0
M  CHG  1  11   1
M  END
> <s_m_source_file>
AV-unprocessed.smi

> <i_m_source_file_index>
2119

> <i_lp_mmshare_version>
43012

> <i_f3d_flags>
0

> <s_epik_input>
W2NIXTFuW2NIXVtjSF1bY0hdYzFbTkhdQyg9TylbTkhdW0NIMl1bQ0BIXShbQ0BASF0yW0NIMl1bQ0gyXU9bQ0gyXTIpTjNbQ0gyXVtDSDJdT1tDSDJdW0NIMl0z

> <s_epik_cmdline>
J2VwaWtfcHl0aG9uJywgJy1waCcsICc3LjAnLCAnLXRuJywgJzgnLCAnLW1hJywgJzIwMCcsICctbWV0YWxfYmluZGluZycsICctaW1hZScsICc8aW5maWxlLm1hZT4nLCAnLW9tYWUnLCAnPG91dGZpbGUubWFlPic=

> <r_epik_Ionization_Penalty>
0.987463

> <r_epik_Ionization_Penalty_Charging>
0.98326

> <r_epik_Ionization_Penalty_Neutral>
0.00420251

> <r_epik_State_Penalty>
1.01721

> <r_epik_Charging_Adjusted_Penalty>
2.00047

> <i_epik_Tot_Q>
1

> <i_epik_Tot_abs_Q>
1

> <r_epik_Metal_State_Penalty>
1.01439

> <b_epik_Metal_Only>
0

> <s_lp_Force_Field>
OPLS_2005

> <r_lp_Energy>
42.3323

> <b_lp_Chiralities_Consistent>
1

> <s_lp_Variant>
AV-unprocessed.smi:2119-7

> <Gold.Version>
5.8.1

> <Gold.Id.Protein>
6NUR|6NUR_protein|mol2

> <Gold.PLP.Fitness>
41.9532

> <Gold.PLP.PLP>
-31.6752

> <Gold.PLP.part.hbond>
-2.7655

> <Gold.PLP.part.metal>
0.0000

> <Gold.PLP.part.buried>
-4.6670

> <Gold.PLP.part.nonpolar>
-25.4235

> <Gold.PLP.part.repulsive>
0.5546

> <Gold.PLP.ligand.clash>
0.0000

> <Gold.PLP.ligand.torsion>
0.8749

> <Gold.PLP.Chemscore.Hbond>
2.9513

> <Gold.PLP.Chemscore.CHOScore>
0.9377

> <Gold.PLP.Chemscore.Metal>
0.0000

> <Gold.Chemscore.Hbonds>
donor molecule, donor type, donor heavy atom, donor atom, acceptor molecule, acceptor atom, score
      L1  H     3    24       P1  7948  1.00
      L1  H    17    43       P1  7948  0.96
      P1  H  7989  7998       L1    14  1.00
      L1  C    23    47       P1 10747  0.93

> <Gold.PLP.Chemscore.Internal.Correction>
0.3608

> <Gold.Rescore>
     Score         DG    S(hbond)    S(metal)    S(lipo)     H(rot)  DE(clash)    DE(int)     intcor
     16.90     -19.24       2.79        0.00      75.23       1.70       0.07       2.27       ----

> <Gold.Chemscore.Fitness>
16.8989

> <Gold.Chemscore.DG>
-19.2410

> <Gold.Chemscore.ZeroCoef>
-5.4800

> <Gold.Chemscore.Hbond>
2.7895

> <Gold.Chemscore.Metal>
0.0000

> <Gold.Chemscore.Lipo>
75.2264

> <Gold.Chemscore.Internal_Hbond>
0.0000

> <Gold.Chemscore.DEClash>
0.0728

> <Gold.Chemscore.DEInternal>
2.2692

> <Gold.Chemscore.Rot>
1.7021

> <Gold.Chemscore.Internal.Correction>
   9.000000E+99

> <Gold.Chemscore.Hbonds>
donor molecule, donor type, donor heavy atom, donor atom, acceptor molecule, acceptor atom, score
      L1  H     3    24       P1  7948  0.92
      L1  H    17    43       P1  7948  0.79
      P1  H  7989  7998       L1    14  0.87

> <Gold.Chemscore.Hbond.Weighted>
-9.3170

> <Gold.Chemscore.Metal.Weighted>
-0.0000

> <Gold.Chemscore.Lipo.Weighted>
-8.8015

> <Gold.Chemscore.Internal_Hbond.Weighted>
0.0000

> <Gold.Chemscore.DEClash.Weighted>
0.0728

> <Gold.Chemscore.DEInternal.Weighted>
2.2692

> <Gold.Chemscore.Rot.Weighted>
4.3575

> <Gold.Chemscore.Internal.Correction.Weighted>
   9.000000E+99

> <Gold.Protein.RotatedTorsions>
[ 6907 6896 6895 6894 ] final  108.83 input  -60.11 | X-H torsion
[ 7974 7965 7964 7962 ] final   48.10 input  175.53 | X-H torsion
[ 8008 7997 7996 7995 ] final  -89.04 input   59.86 | X-H torsion
[ 10167 10162 10161 10158 ] final -164.45 input  -65.29 | X-H torsion
[ 10718 10713 10712 10709 ] final -161.08 input   66.30 | X-H torsion
[ 10763 10752 10751 10750 ] final   43.82 input  -60.55 | X-H torsion
[ 11005 11000 10999 10996 ] final -120.00 input  -57.11 | X-H torsion

> <Gold.Protein.ActiveResidues>
 VAL166  LYS551  ARG553  GLY616  TRP617  ASP618  TYR619  PRO620  LYS621  CYS622 
 ASP623  PHE694  ASN695  SER759  ASP760  ASP761  ALA762  ILE779  LEU786  VAL792 
 PHE793  MET794  SER795  GLU796  ALA797  LYS798  CYS799  TRP800  GLU811  SER814 

> <Gold.Protein.RotatedAtoms>
  152.5095  133.9032  159.7451 H   0  0  0  0  0  0  0  0  0  0  0  0  # atno 6907 bound_to 6896
  150.9443  133.6612  159.2791 H   0  0  0  0  0  0  0  0  0  0  0  0  # atno 6908 bound_to 6896
  151.3913  135.0961  159.9580 H   0  0  0  0  0  0  0  0  0  0  0  0  # atno 6909 bound_to 6896
  146.0235  139.4679  142.9882 H   0  0  0  0  0  0  0  0  0  0  0  0  # atno 7974 bound_to 7965
  154.6819  140.0546  157.0275 H   0  0  0  0  0  0  0  0  0  0  0  0  # atno 8008 bound_to 7997
  155.0939  140.3222  155.4547 H   0  0  0  0  0  0  0  0  0  0  0  0  # atno 8009 bound_to 7997
  156.2697  140.2043  156.6066 H   0  0  0  0  0  0  0  0  0  0  0  0  # atno 8010 bound_to 7997
  139.6250  144.0550  152.1966 H   0  0  0  0  0  0  0  0  0  0  0  0  # atno 10167 bound_to 10162
  156.5911  130.8770  151.2890 H   0  0  0  0  0  0  0  0  0  0  0  0  # atno 10718 bound_to 10713
  152.9853  135.6089  154.3174 H   0  0  0  0  0  0  0  0  0  0  0  0  # atno 10763 bound_to 10752
  154.2886  135.2775  155.2667 H   0  0  0  0  0  0  0  0  0  0  0  0  # atno 10764 bound_to 10752
  154.4973  135.5876  153.6560 H   0  0  0  0  0  0  0  0  0  0  0  0  # atno 10765 bound_to 10752
  141.0175  134.0174  157.3329 H   0  0  0  0  0  0  0  0  0  0  0  0  # atno 11005 bound_to 11000
  145.7155  141.0092  143.1430 LP  0  0  0  0  0  0  0  0  0  0  0  0  # atno 17320 bound_to 7965
  144.7000  139.8808  143.7447 LP  0  0  0  0  0  0  0  0  0  0  0  0  # atno 17321 bound_to 7965
  140.0201  144.6159  150.7574 LP  0  0  0  0  0  0  0  0  0  0  0  0  # atno 17342 bound_to 10162
  140.7405  143.2806  151.3611 LP  0  0  0  0  0  0  0  0  0  0  0  0  # atno 17343 bound_to 10162
  157.7303  130.9684  150.1828 LP  0  0  0  0  0  0  0  0  0  0  0  0  # atno 17370 bound_to 10713
  156.2549  130.3704  149.8193 LP  0  0  0  0  0  0  0  0  0  0  0  0  # atno 17371 bound_to 10713
  139.9126  135.0192  156.7752 LP  0  0  0  0  0  0  0  0  0  0  0  0  # atno 17394 bound_to 11000
  140.6630  133.9628  155.7815 LP  0  0  0  0  0  0  0  0  0  0  0  0  # atno 17395 bound_to 11000

$$$$
