AV-unprocessed.smi:3176|AV-procd|sdf|12125|dock4
  -GOLD-   2272017563D 1   1.00000     0.00000
 Structure written by MMmdl.
 32 33  0  0  0  0  0  0  0  0  1 V2000
  153.3731  139.1718  157.2462 O   0  0  0  0  0  0  0  0  0  0  0  0
  152.2265  139.2286  156.8015 C   0  0  0  0  0  0  0  0  0  0  0  0
  151.1997  139.7376  157.5003 N   0  0  0  0  0  0  0  0  0  0  0  0
  151.2638  140.1943  158.8849 C   0  0  0  0  0  0  0  0  0  0  0  0
  152.5085  141.0606  159.1653 C   0  0  0  0  0  0  0  0  0  0  0  0
  152.2155  142.5520  159.1872 C   0  0  0  0  0  0  0  0  0  0  0  0
  152.4725  143.3191  160.3441 C   0  0  0  0  0  0  0  0  0  0  0  0
  152.1573  144.6910  160.3240 C   0  0  0  0  0  0  0  0  0  0  0  0
  151.6046  145.2420  159.1521 C   0  0  0  0  0  0  0  0  0  0  0  0
  151.3906  144.3924  158.0482 C   0  0  0  0  0  0  0  0  0  0  0  0
  151.6864  143.0747  158.0581 N   0  0  0  0  0  0  0  0  0  0  0  0
  151.9127  138.7045  155.3901 C   0  0  1  0  0  0  0  0  0  0  0  0
  151.1642  137.3585  155.3737 C   0  0  0  0  0  0  0  0  0  0  0  0
  149.7404  137.7529  155.0426 C   0  0  0  0  0  0  0  0  0  0  0  0
  149.9631  138.9444  154.1238 C   0  0  0  0  0  0  0  0  0  0  0  0
  151.0539  139.6322  154.7186 O   0  0  0  0  0  0  0  0  0  0  0  0
  150.2930  139.7546  157.0554 H   0  0  0  0  0  0  0  0  0  0  0  0
  150.3534  140.7330  159.1519 H   0  0  0  0  0  0  0  0  0  0  0  0
  151.2929  139.3063  159.5165 H   0  0  0  0  0  0  0  0  0  0  0  0
  152.9449  140.7741  160.1229 H   0  0  0  0  0  0  0  0  0  0  0  0
  153.2745  140.8577  158.4159 H   0  0  0  0  0  0  0  0  0  0  0  0
  152.8902  142.8650  161.2306 H   0  0  0  0  0  0  0  0  0  0  0  0
  152.3340  145.3081  161.1925 H   0  0  0  0  0  0  0  0  0  0  0  0
  151.3507  146.2902  159.1000 H   0  0  0  0  0  0  0  0  0  0  0  0
  150.9685  144.7813  157.1334 H   0  0  0  0  0  0  0  0  0  0  0  0
  152.8497  138.6173  154.8391 H   0  0  0  0  0  0  0  0  0  0  0  0
  151.5667  136.7267  154.5808 H   0  0  0  0  0  0  0  0  0  0  0  0
  151.2251  136.7903  156.3026 H   0  0  0  0  0  0  0  0  0  0  0  0
  149.1708  136.9510  154.5728 H   0  0  0  0  0  0  0  0  0  0  0  0
  149.2148  138.0658  155.9452 H   0  0  0  0  0  0  0  0  0  0  0  0
  150.2476  138.6129  153.1242 H   0  0  0  0  0  0  0  0  0  0  0  0
  149.0842  139.5834  154.0393 H   0  0  0  0  0  0  0  0  0  0  0  0
  1  2  2  0  0  0  0
  2  3  1  0  0  0  0
  2 12  1  0  0  0  0
  3  4  1  0  0  0  0
  3 17  1  0  0  0  0
  4  5  1  0  0  0  0
  4 18  1  0  0  0  0
  4 19  1  0  0  0  0
  5  6  1  0  0  0  0
  5 20  1  0  0  0  0
  5 21  1  0  0  0  0
  6 11  1  0  0  0  0
  6  7  2  0  0  0  0
  7  8  1  0  0  0  0
  7 22  1  0  0  0  0
  8  9  2  0  0  0  0
  8 23  1  0  0  0  0
  9 10  1  0  0  0  0
  9 24  1  0  0  0  0
 10 11  2  0  0  0  0
 10 25  1  0  0  0  0
 12 16  1  0  0  0  0
 12 13  1  0  0  0  0
 12 26  1  0  0  0  0
 13 14  1  0  0  0  0
 13 27  1  0  0  0  0
 13 28  1  0  0  0  0
 14 15  1  0  0  0  0
 14 29  1  0  0  0  0
 14 30  1  0  0  0  0
 15 16  1  0  0  0  0
 15 31  1  0  0  0  0
 15 32  1  0  0  0  0
M  END
> <s_m_source_file>
AV-unprocessed.smi

> <i_m_source_file_index>
3176

> <i_lp_mmshare_version>
43012

> <i_f3d_flags>
0

> <s_epik_input>
TzFbQ0gyXVtDSDJdW0NIMl1bQ0BIXTFDKD1PKVtOSF1bQ0gyXVtDSDJdYzJbY0hdW2NIXVtjSF1bY0hdbjI=

> <s_epik_cmdline>
J2VwaWtfcHl0aG9uJywgJy1waCcsICc3LjAnLCAnLXRuJywgJzgnLCAnLW1hJywgJzIwMCcsICctbWV0YWxfYmluZGluZycsICctaW1hZScsICc8aW5maWxlLm1hZT4nLCAnLW9tYWUnLCAnPG91dGZpbGUubWFlPic=

> <r_epik_Ionization_Penalty>
0.0282744

> <r_epik_Ionization_Penalty_Charging>
0

> <r_epik_Ionization_Penalty_Neutral>
0.0282744

> <r_epik_State_Penalty>
0.0231919

> <r_epik_Charging_Adjusted_Penalty>
0.0231919

> <i_epik_Tot_Q>
0

> <i_epik_Tot_abs_Q>
0

> <r_epik_Metal_State_Penalty>
0.02213

> <b_epik_Metal_Only>
0

> <s_lp_Force_Field>
OPLS_2005

> <r_lp_Energy>
16.341

> <b_lp_Chiralities_Consistent>
1

> <s_lp_Variant>
AV-unprocessed.smi:3176-2

> <Gold.Version>
5.8.1

> <Gold.Id.Protein>
6NUR|6NUR_protein|mol2

> <Gold.PLP.Fitness>
42.7518

> <Gold.PLP.PLP>
-35.3458

> <Gold.PLP.part.hbond>
-1.7683

> <Gold.PLP.part.metal>
0.0000

> <Gold.PLP.part.buried>
-5.1147

> <Gold.PLP.part.nonpolar>
-29.1214

> <Gold.PLP.part.repulsive>
0.1759

> <Gold.PLP.ligand.clash>
0.0000

> <Gold.PLP.ligand.torsion>
0.7772

> <Gold.PLP.Chemscore.Hbond>
1.9913

> <Gold.PLP.Chemscore.CHOScore>
0.9920

> <Gold.PLP.Chemscore.Metal>
0.0000

> <Gold.Chemscore.Hbonds>
donor molecule, donor type, donor heavy atom, donor atom, acceptor molecule, acceptor atom, score
      P1  H  7989  7998       L1    16  1.00
      P1  H  7997  8008       L1     1  0.96
      L1  C    10    25       P1  8028  1.00

> <Gold.PLP.Chemscore.Internal.Correction>
0.0107

> <Gold.Rescore>
     Score         DG    S(hbond)    S(metal)    S(lipo)     H(rot)  DE(clash)    DE(int)     intcor
     17.00     -19.22       1.86        0.00      97.56       1.52       0.04       2.19       ----

> <Gold.Chemscore.Fitness>
16.9962

> <Gold.Chemscore.DG>
-19.2224

> <Gold.Chemscore.ZeroCoef>
-5.4800

> <Gold.Chemscore.Hbond>
1.8588

> <Gold.Chemscore.Metal>
0.0000

> <Gold.Chemscore.Lipo>
97.5609

> <Gold.Chemscore.Internal_Hbond>
0.0000

> <Gold.Chemscore.DEClash>
0.0374

> <Gold.Chemscore.DEInternal>
2.1888

> <Gold.Chemscore.Rot>
1.5159

> <Gold.Chemscore.Internal.Correction>
   9.000000E+99

> <Gold.Chemscore.Hbonds>
donor molecule, donor type, donor heavy atom, donor atom, acceptor molecule, acceptor atom, score
      P1  H  7989  7998       L1    16  0.60
      P1  H  7997  8008       L1     1  0.88

> <Gold.Chemscore.Hbond.Weighted>
-6.2085

> <Gold.Chemscore.Metal.Weighted>
-0.0000

> <Gold.Chemscore.Lipo.Weighted>
-11.4146

> <Gold.Chemscore.Internal_Hbond.Weighted>
0.0000

> <Gold.Chemscore.DEClash.Weighted>
0.0374

> <Gold.Chemscore.DEInternal.Weighted>
2.1888

> <Gold.Chemscore.Rot.Weighted>
3.8807

> <Gold.Chemscore.Internal.Correction.Weighted>
   9.000000E+99

> <Gold.Protein.RotatedTorsions>
[ 6907 6896 6895 6894 ] final   86.66 input  -60.11 | X-H torsion
[ 7974 7965 7964 7962 ] final -103.54 input  175.53 | X-H torsion
[ 8008 7997 7996 7995 ] final  -87.52 input   59.86 | X-H torsion
[ 10167 10162 10161 10158 ] final   50.67 input  -65.29 | X-H torsion
[ 10718 10713 10712 10709 ] final   47.93 input   66.30 | X-H torsion
[ 10763 10752 10751 10750 ] final -176.71 input  -60.55 | X-H torsion
[ 11005 11000 10999 10996 ] final  -62.33 input  -57.11 | X-H torsion

> <Gold.Protein.ActiveResidues>
 VAL166  LYS551  ARG553  GLY616  TRP617  ASP618  TYR619  PRO620  LYS621  CYS622 
 ASP623  PHE694  ASN695  SER759  ASP760  ASP761  ALA762  ILE779  LEU786  VAL792 
 PHE793  MET794  SER795  GLU796  ALA797  LYS798  CYS799  TRP800  GLU811  SER814 

> <Gold.Protein.RotatedAtoms>
  152.5398  134.2397  159.8857 H   0  0  0  0  0  0  0  0  0  0  0  0  # atno 6907 bound_to 6896
  151.2365  133.4415  159.2613 H   0  0  0  0  0  0  0  0  0  0  0  0  # atno 6908 bound_to 6896
  151.0666  134.9785  159.8343 H   0  0  0  0  0  0  0  0  0  0  0  0  # atno 6909 bound_to 6896
  145.2546  140.9249  143.3076 H   0  0  0  0  0  0  0  0  0  0  0  0  # atno 7974 bound_to 7965
  154.6642  140.0565  157.0095 H   0  0  0  0  0  0  0  0  0  0  0  0  # atno 8008 bound_to 7997
  155.1184  140.3245  155.4485 H   0  0  0  0  0  0  0  0  0  0  0  0  # atno 8009 bound_to 7997
  156.2631  140.2002  156.6307 H   0  0  0  0  0  0  0  0  0  0  0  0  # atno 8010 bound_to 7997
  140.2700  144.3276  150.6293 H   0  0  0  0  0  0  0  0  0  0  0  0  # atno 10167 bound_to 10162
  157.4635  130.8211  149.7911 H   0  0  0  0  0  0  0  0  0  0  0  0  # atno 10718 bound_to 10713
  154.5691  135.2826  155.0845 H   0  0  0  0  0  0  0  0  0  0  0  0  # atno 10763 bound_to 10752
  154.2225  135.6388  153.5153 H   0  0  0  0  0  0  0  0  0  0  0  0  # atno 10764 bound_to 10752
  153.0052  135.5518  154.6308 H   0  0  0  0  0  0  0  0  0  0  0  0  # atno 10765 bound_to 10752
  141.1356  133.6639  156.5511 H   0  0  0  0  0  0  0  0  0  0  0  0  # atno 11005 bound_to 11000
  144.9472  139.4122  143.6420 LP  0  0  0  0  0  0  0  0  0  0  0  0  # atno 17320 bound_to 7965
  146.3293  139.8462  142.8881 LP  0  0  0  0  0  0  0  0  0  0  0  0  # atno 17321 bound_to 7965
  140.5897  143.2168  151.7276 LP  0  0  0  0  0  0  0  0  0  0  0  0  # atno 17342 bound_to 10162
  139.4991  144.3957  152.0233 LP  0  0  0  0  0  0  0  0  0  0  0  0  # atno 17343 bound_to 10162
  156.0039  130.3865  150.2501 LP  0  0  0  0  0  0  0  0  0  0  0  0  # atno 17370 bound_to 10713
  157.0680  131.0109  151.3200 LP  0  0  0  0  0  0  0  0  0  0  0  0  # atno 17371 bound_to 10713
  140.4063  134.7312  157.4810 LP  0  0  0  0  0  0  0  0  0  0  0  0  # atno 17394 bound_to 11000
  140.0459  134.6200  155.8921 LP  0  0  0  0  0  0  0  0  0  0  0  0  # atno 17395 bound_to 11000

$$$$
