#       Name:                AV-unprocessed.smi:3041
#       Creating user name   scv26
#       Creation time:       Fri Mar 27 16:57:32 2020


#       File generated by GOLD software.
#

@<TRIPOS>MOLECULE
AV-unprocessed.smi:3041
    43    44     1
SMALL
NO_CHARGES


@<TRIPOS>ATOM
      1 ****        -1.3459   6.7599  -1.8144 C.3            1 S1                 0.0000
      2 ****        -1.2390   5.4656  -1.1757 N.pl3          1 S1                 0.0000
      3 ****        -0.7413   4.2885  -1.6925 C.2            1 S1                 0.0000
      4 ****        -0.8469   3.3364  -0.7179 C.2            1 S1                 0.0000
      5 ****        -0.4459   1.8885  -0.7660 C.3            1 S1                 0.0000
      6 ****         1.0547   1.7098  -0.4840 C.3            1 S1                 0.0000
      7 ****         1.4466   0.3059  -0.5303 N.am           1 S1                 0.0000
      8 ****         1.2987  -0.5646   0.4782 C.2            1 S1                 0.0000
      9 ****         0.8090  -0.2782   1.5709 O.2            1 S1                 0.0000
     10 ****         1.7453  -1.7853   0.1523 N.am           1 S1                 0.0000
     11 ****         1.7216  -2.9486   1.0329 C.3            1 S1                 0.0000
     12 ****         0.3206  -3.5841   1.1203 C.3            1 S1                 0.0000
     13 ****         0.2711  -4.8504   1.9497 C.3            1 S1                 0.0000
     14 ****        -1.0378  -5.4796   1.4832 C.3            1 S1                 0.0000
     15 ****        -1.1889  -5.0953   0.1196 O.3            1 S1                 0.0000
     16 ****        -0.2444  -4.0812  -0.2115 C.3            1 S1                 0.0000
     17 ****        -1.4307   4.0426   0.3721 C.2            1 S1                 0.0000
     18 ****        -1.6651   5.3149   0.0950 N.2            1 S1                 0.0000
     19 ****        -0.8485   6.7410  -2.7844 H              1 S1                 0.0000
     20 ****        -0.8757   7.5211  -1.1907 H              1 S1                 0.0000
     21 ****        -2.3964   7.0137  -1.9587 H              1 S1                 0.0000
     22 ****        -0.3555   4.2259  -2.6994 H              1 S1                 0.0000
     23 ****        -1.0236   1.3135  -0.0412 H              1 S1                 0.0000
     24 ****        -0.6838   1.4592  -1.7401 H              1 S1                 0.0000
     25 ****         1.6399   2.2489  -1.2296 H              1 S1                 0.0000
     26 ****         1.3159   2.1389   0.4850 H              1 S1                 0.0000
     27 ****         1.8591  -0.0248  -1.3905 H              1 S1                 0.0000
     28 ****         2.1320  -1.9208  -0.7704 H              1 S1                 0.0000
     29 ****         2.4394  -3.6739   0.6490 H              1 S1                 0.0000
     30 ****         2.0707  -2.6674   2.0278 H              1 S1                 0.0000
     31 ****        -0.3809  -2.8673   1.5506 H              1 S1                 0.0000
     32 ****         1.1086  -5.5039   1.7005 H              1 S1                 0.0000
     33 ****         0.2924  -4.6624   3.0235 H              1 S1                 0.0000
     34 ****        -1.0416  -6.5640   1.5949 H              1 S1                 0.0000
     35 ****        -1.8767  -5.0774   2.0526 H              1 S1                 0.0000
     36 ****        -0.7070  -3.2823  -0.7915 H              1 S1                 0.0000
     37 ****         0.5405  -4.5300  -0.8217 H              1 S1                 0.0000
     38 ****        -1.6887   3.6690   1.3520 H              1 S1                 0.0000
     39 ****         0.4923   0.6536   1.7481 LP             1 S1                 0.0000
     40 ****         0.7279  -0.9775   2.2812 LP             1 S1                 0.0000
     41 ****        -2.1144  -4.7450  -0.0246 LP             1 S1                 0.0000
     42 ****        -1.0387  -5.8913  -0.4668 LP             1 S1                 0.0000
     43 ****        -2.0674   6.0082   0.6928 LP             1 S1                 0.0000
@<TRIPOS>BOND
    1    1    2 1     
    2    1   19 1     
    3    1   20 1     
    4    1   21 1     
    5    2   18 1     
    6    2    3 1     
    7    3    4 2     
    8    3   22 1     
    9    4    5 1     
   10    4   17 1     
   11    5    6 1     
   12    5   23 1     
   13    5   24 1     
   14    6    7 1     
   15    6   25 1     
   16    6   26 1     
   17    7    8 am    
   18    7   27 1     
   19    8    9 2     
   20    8   10 am    
   21   10   11 1     
   22   10   28 1     
   23   11   12 1     
   24   11   29 1     
   25   11   30 1     
   26   12   16 1     
   27   12   13 1     
   28   12   31 1     
   29   13   14 1     
   30   13   32 1     
   31   13   33 1     
   32   14   15 1     
   33   14   34 1     
   34   14   35 1     
   35   15   16 1     
   36   16   36 1     
   37   16   37 1     
   38   17   18 2     
   39   17   38 1     
   40    9   39 1     
   41    9   40 1     
   42   15   41 1     
   43   15   42 1     
   44   18   43 1     
@<TRIPOS>SUBSTRUCTURE
      1 S1             1
@<TRIPOS>SET
LONE_PAIRS      STATIC     ATOMS    <user>   **** ""
5 39 40 41 42 43
DONOR_HYDROGENS      STATIC     ATOMS    <user>   **** ""
2 27 28
ATOM$BLUE        STATIC     ATOMS    COLORGROUP SYSTEM
5 39 40 41 42 43
ATOM$RED        STATIC     ATOMS    COLORGROUP SYSTEM
2 27 28
