AV-unprocessed.smi:3284|AV-procd|sdf|12577|dock2
  -GOLD-   2272018503D 1   1.00000     0.00000
 Structure written by MMmdl.
 45 46  0  0  0  0  0  0  0  0  3 V2000
  151.8020  145.3675  159.4099 C   0  0  0  0  0  0  0  0  0  0  0  0
  152.0661  143.9328  159.8392 C   0  0  0  0  0  0  0  0  0  0  0  0
  152.4460  143.6768  161.1057 C   0  0  0  0  0  0  0  0  0  0  0  0
  152.8068  142.3051  161.6273 C   0  0  0  0  0  0  0  0  0  0  0  0
  153.1697  141.3592  160.4801 C   0  0  0  0  0  0  0  0  0  0  0  0
  152.1050  141.3884  159.3714 C   0  0  2  0  0  0  0  0  0  0  0  0
  152.4615  140.3476  158.2922 C   0  0  0  0  0  0  0  0  0  0  0  0
  151.9069  142.8189  158.7817 C   0  0  1  0  0  0  0  0  0  0  0  0
  150.5559  142.9020  158.0234 C   0  0  0  0  0  0  0  0  0  0  0  0
  150.7357  142.9969  156.5608 N   0  3  0  0  0  0  0  0  0  0  0  0
  150.7786  141.6973  155.8614 C   0  0  0  0  0  0  0  0  0  0  0  0
  149.4763  140.9047  156.0647 C   0  0  0  0  0  0  0  0  0  0  0  0
  148.3939  141.2593  155.0869 C   0  0  0  0  0  0  0  0  0  0  0  0
  147.8166  142.4622  154.9731 N   0  3  0  0  0  0  0  0  0  0  0  0
  146.8529  142.4402  154.0021 C   0  0  0  0  0  0  0  0  0  0  0  0
  146.8413  141.1665  153.4978 C   0  0  0  0  0  0  0  0  0  0  0  0
  147.8003  140.4632  154.1809 N   0  0  0  0  0  0  0  0  0  0  0  0
  148.1517  139.0561  153.9789 C   0  0  0  0  0  0  0  0  0  0  0  0
  152.3549  145.6034  158.5006 H   0  0  0  0  0  0  0  0  0  0  0  0
  152.1170  146.0746  160.1780 H   0  0  0  0  0  0  0  0  0  0  0  0
  150.7394  145.5345  159.2350 H   0  0  0  0  0  0  0  0  0  0  0  0
  152.5231  144.4842  161.8197 H   0  0  0  0  0  0  0  0  0  0  0  0
  153.6499  142.3933  162.3130 H   0  0  0  0  0  0  0  0  0  0  0  0
  151.9653  141.9163  162.2015 H   0  0  0  0  0  0  0  0  0  0  0  0
  154.1372  141.6457  160.0647 H   0  0  0  0  0  0  0  0  0  0  0  0
  153.2895  140.3477  160.8701 H   0  0  0  0  0  0  0  0  0  0  0  0
  151.1646  141.0788  159.8307 H   0  0  0  0  0  0  0  0  0  0  0  0
  153.3907  140.6071  157.7840 H   0  0  0  0  0  0  0  0  0  0  0  0
  151.6860  140.2494  157.5342 H   0  0  0  0  0  0  0  0  0  0  0  0
  152.5959  139.3595  158.7338 H   0  0  0  0  0  0  0  0  0  0  0  0
  152.7120  142.9840  158.0641 H   0  0  0  0  0  0  0  0  0  0  0  0
  149.9345  142.0279  158.2108 H   0  0  0  0  0  0  0  0  0  0  0  0
  149.9913  143.7626  158.3853 H   0  0  0  0  0  0  0  0  0  0  0  0
  149.9550  143.5226  156.1949 H   0  0  0  0  0  0  0  0  0  0  0  0
  150.9471  141.8715  154.7983 H   0  0  0  0  0  0  0  0  0  0  0  0
  151.6270  141.1178  156.2254 H   0  0  0  0  0  0  0  0  0  0  0  0
  149.6582  139.8335  155.9678 H   0  0  0  0  0  0  0  0  0  0  0  0
  149.0758  141.0697  157.0652 H   0  0  0  0  0  0  0  0  0  0  0  0
  146.2640  143.3098  153.7482 H   0  0  0  0  0  0  0  0  0  0  0  0
  146.2373  140.7211  152.7203 H   0  0  0  0  0  0  0  0  0  0  0  0
  147.6332  138.6750  153.0985 H   0  0  0  0  0  0  0  0  0  0  0  0
  147.8482  138.4772  154.8507 H   0  0  0  0  0  0  0  0  0  0  0  0
  149.2273  138.9652  153.8254 H   0  0  0  0  0  0  0  0  0  0  0  0
  151.5869  143.5066  156.3700 H   0  0  0  0  0  0  0  0  0  0  0  0
  148.0647  143.2764  155.5213 H   0  0  0  0  0  0  0  0  0  0  0  0
  1  2  1  0  0  0  0
  1 19  1  0  0  0  0
  1 20  1  0  0  0  0
  1 21  1  0  0  0  0
  2  8  1  0  0  0  0
  2  3  2  0  0  0  0
  3  4  1  0  0  0  0
  3 22  1  0  0  0  0
  4  5  1  0  0  0  0
  4 23  1  0  0  0  0
  4 24  1  0  0  0  0
  5  6  1  0  0  0  0
  5 25  1  0  0  0  0
  5 26  1  0  0  0  0
  6  7  1  0  0  0  0
  6  8  1  0  0  0  0
  6 27  1  0  0  0  0
  7 28  1  0  0  0  0
  7 29  1  0  0  0  0
  7 30  1  0  0  0  0
  8  9  1  0  0  0  0
  8 31  1  0  0  0  0
  9 10  1  0  0  0  0
  9 32  1  0  0  0  0
  9 33  1  0  0  0  0
 10 11  1  0  0  0  0
 10 34  1  0  0  0  0
 10 44  1  0  0  0  0
 11 12  1  0  0  0  0
 11 35  1  0  0  0  0
 11 36  1  0  0  0  0
 12 13  1  0  0  0  0
 12 37  1  0  0  0  0
 12 38  1  0  0  0  0
 13 17  1  0  0  0  0
 13 14  2  0  0  0  0
 14 15  1  0  0  0  0
 14 45  1  0  0  0  0
 15 16  2  0  0  0  0
 15 39  1  0  0  0  0
 16 17  1  0  0  0  0
 16 40  1  0  0  0  0
 17 18  1  0  0  0  0
 18 41  1  0  0  0  0
 18 42  1  0  0  0  0
 18 43  1  0  0  0  0
M  CHG  1  10   1
M  CHG  1  14   1
M  END
> <s_m_source_file>
AV-unprocessed.smi

> <i_m_source_file_index>
3284

> <i_lp_mmshare_version>
43012

> <i_f3d_flags>
0

> <s_epik_input>
W0NIM11DMT1bQ0hdW0NIMl1bQ0gyXVtDQEBIXShbQ0gzXSlbQ0BIXTFbQ0gyXVtOSF1bQ0gyXVtDSDJdYzJuW2NIXVtjSF1uMltDSDNd

> <s_epik_cmdline>
J2VwaWtfcHl0aG9uJywgJy1waCcsICc3LjAnLCAnLXRuJywgJzgnLCAnLW1hJywgJzIwMCcsICctbWV0YWxfYmluZGluZycsICctaW1hZScsICc8aW5maWxlLm1hZT4nLCAnLW9tYWUnLCAnPG91dGZpbGUubWFlPic=

> <r_lp_tautomer_probability>
1

> <r_epik_Ionization_Penalty>
0.892846

> <r_epik_Ionization_Penalty_Charging>
0.00275802

> <r_epik_Ionization_Penalty_Neutral>
0.890088

> <r_epik_State_Penalty>
0.485211

> <r_epik_Charging_Adjusted_Penalty>
0.487969

> <i_epik_Tot_Q>
2

> <i_epik_Tot_abs_Q>
2

> <r_epik_Metal_State_Penalty>
4.22898

> <b_epik_Metal_Only>
0

> <s_lp_Force_Field>
OPLS_2005

> <r_lp_Energy>
25.617

> <b_lp_Chiralities_Consistent>
1

> <s_lp_Variant>
AV-unprocessed.smi:3284-6

> <Gold.Version>
5.8.1

> <Gold.Id.Protein>
6NUR|6NUR_protein|mol2

> <Gold.PLP.Fitness>
58.4294

> <Gold.PLP.PLP>
-45.4260

> <Gold.PLP.part.hbond>
-1.7662

> <Gold.PLP.part.metal>
0.0000

> <Gold.PLP.part.buried>
-6.8475

> <Gold.PLP.part.nonpolar>
-37.2684

> <Gold.PLP.part.repulsive>
0.2104

> <Gold.PLP.ligand.clash>
0.0000

> <Gold.PLP.ligand.torsion>
1.0531

> <Gold.PLP.Chemscore.Hbond>
4.0000

> <Gold.PLP.Chemscore.CHOScore>
0.9962

> <Gold.PLP.Chemscore.Metal>
0.0000

> <Gold.Chemscore.Hbonds>
donor molecule, donor type, donor heavy atom, donor atom, acceptor molecule, acceptor atom, score
      L1  H    10    34       P1  8028  2.00
      L1  H    14    45       P1  8028  1.98
      L1  C    16    40       P1 10175  0.91

> <Gold.PLP.Chemscore.Internal.Correction>
0.1209

> <Gold.Rescore>
     Score         DG    S(hbond)    S(metal)    S(lipo)     H(rot)  DE(clash)    DE(int)     intcor
     21.18     -22.31       1.98        0.00     124.56       1.70       0.09       1.04       ----

> <Gold.Chemscore.Fitness>
21.1784

> <Gold.Chemscore.DG>
-22.3064

> <Gold.Chemscore.ZeroCoef>
-5.4800

> <Gold.Chemscore.Hbond>
1.9772

> <Gold.Chemscore.Metal>
0.0000

> <Gold.Chemscore.Lipo>
124.5627

> <Gold.Chemscore.Internal_Hbond>
0.0000

> <Gold.Chemscore.DEClash>
0.0878

> <Gold.Chemscore.DEInternal>
1.0402

> <Gold.Chemscore.Rot>
1.6997

> <Gold.Chemscore.Internal.Correction>
   9.000000E+99

> <Gold.Chemscore.Hbonds>
donor molecule, donor type, donor heavy atom, donor atom, acceptor molecule, acceptor atom, score
      L1  H    10    34       P1  8028  1.00
      L1  H    14    45       P1  8028  0.70

> <Gold.Chemscore.Hbond.Weighted>
-6.6038

> <Gold.Chemscore.Metal.Weighted>
-0.0000

> <Gold.Chemscore.Lipo.Weighted>
-14.5738

> <Gold.Chemscore.Internal_Hbond.Weighted>
0.0000

> <Gold.Chemscore.DEClash.Weighted>
0.0878

> <Gold.Chemscore.DEInternal.Weighted>
1.0402

> <Gold.Chemscore.Rot.Weighted>
4.3512

> <Gold.Chemscore.Internal.Correction.Weighted>
   9.000000E+99

> <Gold.Protein.RotatedTorsions>
[ 6907 6896 6895 6894 ] final  -52.36 input  -60.11 | X-H torsion
[ 7974 7965 7964 7962 ] final  -69.18 input  175.53 | X-H torsion
[ 8008 7997 7996 7995 ] final  -21.52 input   59.86 | X-H torsion
[ 10167 10162 10161 10158 ] final   54.17 input  -65.29 | X-H torsion
[ 10718 10713 10712 10709 ] final -168.13 input   66.30 | X-H torsion
[ 10763 10752 10751 10750 ] final -135.62 input  -60.55 | X-H torsion
[ 11005 11000 10999 10996 ] final  136.51 input  -57.11 | X-H torsion

> <Gold.Protein.ActiveResidues>
 VAL166  LYS551  ARG553  GLY616  TRP617  ASP618  TYR619  PRO620  LYS621  CYS622 
 ASP623  PHE694  ASN695  SER759  ASP760  ASP761  ALA762  ILE779  LEU786  VAL792 
 PHE793  MET794  SER795  GLU796  ALA797  LYS798  CYS799  TRP800  GLU811  SER814 

> <Gold.Protein.RotatedAtoms>
  150.8525  134.7855  159.7019 H   0  0  0  0  0  0  0  0  0  0  0  0  # atno 6907 bound_to 6896
  152.4586  134.5232  159.9798 H   0  0  0  0  0  0  0  0  0  0  0  0  # atno 6908 bound_to 6896
  151.5350  133.3404  159.2961 H   0  0  0  0  0  0  0  0  0  0  0  0  # atno 6909 bound_to 6896
  145.7070  140.9094  143.0701 H   0  0  0  0  0  0  0  0  0  0  0  0  # atno 7974 bound_to 7965
  154.4701  140.2032  156.0018 H   0  0  0  0  0  0  0  0  0  0  0  0  # atno 8008 bound_to 7997
  156.0995  140.3246  155.7894 H   0  0  0  0  0  0  0  0  0  0  0  0  # atno 8009 bound_to 7997
  155.4821  140.0539  157.2956 H   0  0  0  0  0  0  0  0  0  0  0  0  # atno 8010 bound_to 7997
  140.2329  144.3667  150.6408 H   0  0  0  0  0  0  0  0  0  0  0  0  # atno 10167 bound_to 10162
  156.6924  130.9165  151.3070 H   0  0  0  0  0  0  0  0  0  0  0  0  # atno 10718 bound_to 10713
  154.8699  135.3698  154.4927 H   0  0  0  0  0  0  0  0  0  0  0  0  # atno 10763 bound_to 10752
  153.5573  135.7023  153.5568 H   0  0  0  0  0  0  0  0  0  0  0  0  # atno 10764 bound_to 10752
  153.3660  135.4034  155.1717 H   0  0  0  0  0  0  0  0  0  0  0  0  # atno 10765 bound_to 10752
  140.0051  134.9462  157.0157 H   0  0  0  0  0  0  0  0  0  0  0  0  # atno 11005 bound_to 11000
  144.6952  139.9023  143.7459 LP  0  0  0  0  0  0  0  0  0  0  0  0  # atno 17320 bound_to 7965
  146.0747  139.3735  143.0501 LP  0  0  0  0  0  0  0  0  0  0  0  0  # atno 17321 bound_to 7965
  140.6171  143.2173  151.6769 LP  0  0  0  0  0  0  0  0  0  0  0  0  # atno 17342 bound_to 10162
  139.5103  144.3545  152.0620 LP  0  0  0  0  0  0  0  0  0  0  0  0  # atno 17343 bound_to 10162
  157.7004  130.9326  150.0767 LP  0  0  0  0  0  0  0  0  0  0  0  0  # atno 17370 bound_to 10713
  156.1788  130.3649  149.9064 LP  0  0  0  0  0  0  0  0  0  0  0  0  # atno 17371 bound_to 10713
  140.4656  134.1439  155.7196 LP  0  0  0  0  0  0  0  0  0  0  0  0  # atno 17394 bound_to 11000
  141.1671  133.8682  157.1683 LP  0  0  0  0  0  0  0  0  0  0  0  0  # atno 17395 bound_to 11000

$$$$
