AV-unprocessed.smi:196|AV-procd|sdf|1528|dock4
  -GOLD-   2262019373D 1   1.00000     0.00000
 Structure written by MMmdl.
 47 50  0  0  0  0  0  0  0  0  1 V2000
  152.9419  137.6448  156.2237 C   0  0  0  0  0  0  0  0  0  0  0  0
  152.4018  139.0583  155.9555 C   0  0  2  0  0  0  0  0  0  0  0  0
  152.6906  139.8609  157.0968 O   0  0  0  0  0  0  0  0  0  0  0  0
  151.7102  140.8781  157.1943 C   0  0  0  0  0  0  0  0  0  0  0  0
  150.4323  140.1294  156.8494 C   0  0  0  0  0  0  0  0  0  0  0  0
  150.8701  139.1954  155.7230 C   0  0  1  0  0  0  0  0  0  0  0  0
  150.6788  139.8820  154.4974 O   0  0  0  0  0  0  0  0  0  0  0  0
  150.0604  137.8730  155.6696 C   0  0  0  0  0  0  0  0  0  0  0  0
  149.6331  137.4042  156.9789 N   0  0  0  0  0  0  0  0  0  0  0  0
  150.4301  136.8679  157.9641 C   0  0  0  0  0  0  0  0  0  0  0  0
  149.8075  136.5300  159.0597 N   0  0  0  0  0  0  0  0  0  0  0  0
  148.4761  136.8440  158.8091 C   0  0  0  0  0  0  0  0  0  0  0  0
  147.2700  136.7442  159.5626 C   0  0  0  0  0  0  0  0  0  0  0  0
  147.2159  136.2485  160.8282 N   0  0  0  0  0  0  0  0  0  0  0  0
  148.3090  135.4189  161.3214 C   0  0  0  0  0  0  0  0  0  0  0  0
  147.6618  134.3998  162.2591 C   0  0  2  0  0  0  0  0  0  0  0  0
  147.3329  133.3069  161.5684 F   0  0  0  0  0  0  0  0  0  0  0  0
  146.3933  135.1074  162.7253 C   0  0  0  0  0  0  0  0  0  0  0  0
  145.9525  135.9203  161.4967 C   0  0  1  0  0  0  0  0  0  0  0  0
  145.1576  137.1690  161.9106 C   0  0  0  0  0  0  0  0  0  0  0  0
  144.0236  136.9642  162.5843 N   0  0  0  0  0  0  0  0  0  0  0  0
  145.5636  138.2985  161.6408 O   0  0  0  0  0  0  0  0  0  0  0  0
  146.1287  137.1826  158.9675 N   0  0  0  0  0  0  0  0  0  0  0  0
  146.1551  137.6738  157.7256 C   0  0  0  0  0  0  0  0  0  0  0  0
  147.1996  137.8210  156.9095 N   0  0  0  0  0  0  0  0  0  0  0  0
  148.3515  137.3941  157.5012 C   0  0  0  0  0  0  0  0  0  0  0  0
  148.3135  134.0897  163.0764 H   0  0  0  0  0  0  0  0  0  0  0  0
  145.3521  135.2855  160.8423 H   0  0  0  0  0  0  0  0  0  0  0  0
  152.7630  136.9817  155.3774 H   0  0  0  0  0  0  0  0  0  0  0  0
  152.4852  137.2018  157.1088 H   0  0  0  0  0  0  0  0  0  0  0  0
  154.0185  137.6722  156.3925 H   0  0  0  0  0  0  0  0  0  0  0  0
  152.9526  139.4814  155.1131 H   0  0  0  0  0  0  0  0  0  0  0  0
  151.6854  141.3210  158.1900 H   0  0  0  0  0  0  0  0  0  0  0  0
  151.9160  141.6648  156.4668 H   0  0  0  0  0  0  0  0  0  0  0  0
  150.1239  139.5494  157.7201 H   0  0  0  0  0  0  0  0  0  0  0  0
  149.6062  140.7897  156.5814 H   0  0  0  0  0  0  0  0  0  0  0  0
  149.8532  140.3404  154.5351 H   0  0  0  0  0  0  0  0  0  0  0  0
  149.1740  137.9925  155.0456 H   0  0  0  0  0  0  0  0  0  0  0  0
  150.6542  137.0798  155.2146 H   0  0  0  0  0  0  0  0  0  0  0  0
  151.4964  136.7405  157.8477 H   0  0  0  0  0  0  0  0  0  0  0  0
  148.8642  134.9244  160.5227 H   0  0  0  0  0  0  0  0  0  0  0  0
  149.0016  136.0565  161.8723 H   0  0  0  0  0  0  0  0  0  0  0  0
  145.6263  134.4113  163.0663 H   0  0  0  0  0  0  0  0  0  0  0  0
  146.6388  135.7649  163.5616 H   0  0  0  0  0  0  0  0  0  0  0  0
  143.4674  137.7505  162.8869 H   0  0  0  0  0  0  0  0  0  0  0  0
  143.7309  136.0212  162.7954 H   0  0  0  0  0  0  0  0  0  0  0  0
  145.2028  137.9944  157.3301 H   0  0  0  0  0  0  0  0  0  0  0  0
  1  2  1  0  0  0  0
  1 29  1  0  0  0  0
  1 30  1  0  0  0  0
  1 31  1  0  0  0  0
  2  6  1  0  0  0  0
  2  3  1  0  0  0  0
  2 32  1  0  0  0  0
  3  4  1  0  0  0  0
  4  5  1  0  0  0  0
  4 33  1  0  0  0  0
  4 34  1  0  0  0  0
  5  6  1  0  0  0  0
  5 35  1  0  0  0  0
  5 36  1  0  0  0  0
  6  7  1  0  0  0  0
  6  8  1  0  0  0  0
  7 37  1  0  0  0  0
  8  9  1  0  0  0  0
  8 38  1  0  0  0  0
  8 39  1  0  0  0  0
  9 26  1  0  0  0  0
  9 10  1  0  0  0  0
 10 11  2  0  0  0  0
 10 40  1  0  0  0  0
 11 12  1  0  0  0  0
 12 26  2  0  0  0  0
 12 13  1  0  0  0  0
 13 14  1  0  0  0  0
 13 23  2  0  0  0  0
 14 19  1  0  0  0  0
 14 15  1  0  0  0  0
 15 16  1  0  0  0  0
 15 41  1  0  0  0  0
 15 42  1  0  0  0  0
 16 27  1  0  0  0  0
 16 17  1  0  0  0  0
 16 18  1  0  0  0  0
 18 19  1  0  0  0  0
 18 43  1  0  0  0  0
 18 44  1  0  0  0  0
 19 28  1  0  0  0  0
 19 20  1  0  0  0  0
 20 21  1  0  0  0  0
 20 22  2  0  0  0  0
 21 45  1  0  0  0  0
 21 46  1  0  0  0  0
 23 24  1  0  0  0  0
 24 25  2  0  0  0  0
 24 47  1  0  0  0  0
 25 26  1  0  0  0  0
M  END
> <s_m_source_file>
AV-unprocessed.smi

> <i_m_source_file_index>
196

> <i_lp_mmshare_version>
43012

> <i_f3d_flags>
0

> <s_epik_input>
W0NIMl0xW0NIMl1PW0NAQEhdKFtDSDNdKVtDQEBdMShbT0hdKVtDSDJdbihbY0hdbjIpYyhjMjMpbltjSF1uYzNONFtDSDJdW0NASF0oRilbQ0gyXVtDQEhdNEMoPU8pW05IMl0=

> <s_epik_cmdline>
J2VwaWtfcHl0aG9uJywgJy1waCcsICc3LjAnLCAnLXRuJywgJzgnLCAnLW1hJywgJzIwMCcsICctbWV0YWxfYmluZGluZycsICctaW1hZScsICc8aW5maWxlLm1hZT4nLCAnLW9tYWUnLCAnPG91dGZpbGUubWFlPic=

> <r_lp_tautomer_probability>
1

> <r_epik_Ionization_Penalty>
0.000857933

> <r_epik_Ionization_Penalty_Charging>
0

> <r_epik_Ionization_Penalty_Neutral>
0.000857933

> <r_epik_State_Penalty>
0.000462053

> <r_epik_Charging_Adjusted_Penalty>
0.000462053

> <i_epik_Tot_Q>
0

> <i_epik_Tot_abs_Q>
0

> <r_epik_Metal_State_Penalty>
-0

> <b_epik_Metal_Only>
0

> <s_lp_Force_Field>
OPLS_2005

> <r_lp_Energy>
42.3005

> <b_lp_Chiralities_Consistent>
1

> <s_lp_Variant>
AV-unprocessed.smi:196-1

> <Gold.Version>
5.8.1

> <Gold.Id.Protein>
6NUR|6NUR_protein|mol2

> <Gold.PLP.Fitness>
40.7810

> <Gold.PLP.PLP>
-31.5371

> <Gold.PLP.part.hbond>
-3.8918

> <Gold.PLP.part.metal>
0.0000

> <Gold.PLP.part.buried>
-5.7956

> <Gold.PLP.part.nonpolar>
-22.0626

> <Gold.PLP.part.repulsive>
0.2031

> <Gold.PLP.ligand.clash>
0.0000

> <Gold.PLP.ligand.torsion>
0.7200

> <Gold.PLP.Chemscore.Hbond>
3.4703

> <Gold.PLP.Chemscore.CHOScore>
0.0000

> <Gold.PLP.Chemscore.Metal>
0.0000

> <Gold.Chemscore.Hbonds>
donor molecule, donor type, donor heavy atom, donor atom, acceptor molecule, acceptor atom, score
      P1  H  6896  6907       L1    11  0.94
      P1  H  6934  6947       L1    22  0.54
      P1  H  7989  7998       L1     7  1.00
      P1  H  7997  8009       L1     3  0.95

> <Gold.PLP.Chemscore.Internal.Correction>
0.2731

> <Gold.Rescore>
     Score         DG    S(hbond)    S(metal)    S(lipo)     H(rot)  DE(clash)    DE(int)     intcor
     13.21     -17.22       3.23        0.00      65.06       2.60       0.88       3.12       ----

> <Gold.Chemscore.Fitness>
13.2149

> <Gold.Chemscore.DG>
-17.2156

> <Gold.Chemscore.ZeroCoef>
-5.4800

> <Gold.Chemscore.Hbond>
3.2251

> <Gold.Chemscore.Metal>
0.0000

> <Gold.Chemscore.Lipo>
65.0571

> <Gold.Chemscore.Internal_Hbond>
0.0000

> <Gold.Chemscore.DEClash>
0.8807

> <Gold.Chemscore.DEInternal>
3.1201

> <Gold.Chemscore.Rot>
2.5968

> <Gold.Chemscore.Internal.Correction>
   9.000000E+99

> <Gold.Chemscore.Hbonds>
donor molecule, donor type, donor heavy atom, donor atom, acceptor molecule, acceptor atom, score
      P1  H  6896  6907       L1    11  0.36
      P1  H  6934  6947       L1    22  0.54
      P1  H  7989  7998       L1     7  0.40
      P1  H  7997  8009       L1     3  0.20

> <Gold.Chemscore.Hbond.Weighted>
-10.7717

> <Gold.Chemscore.Metal.Weighted>
-0.0000

> <Gold.Chemscore.Lipo.Weighted>
-7.6117

> <Gold.Chemscore.Internal_Hbond.Weighted>
0.0000

> <Gold.Chemscore.DEClash.Weighted>
0.8807

> <Gold.Chemscore.DEInternal.Weighted>
3.1201

> <Gold.Chemscore.Rot.Weighted>
6.6477

> <Gold.Chemscore.Internal.Correction.Weighted>
   9.000000E+99

> <Gold.Protein.RotatedTorsions>
[ 6907 6896 6895 6894 ] final  -47.94 input  -60.11 | X-H torsion
[ 7974 7965 7964 7962 ] final -172.09 input  175.53 | X-H torsion
[ 8008 7997 7996 7995 ] final  163.96 input   59.86 | X-H torsion
[ 10167 10162 10161 10158 ] final   -8.49 input  -65.29 | X-H torsion
[ 10718 10713 10712 10709 ] final  -11.97 input   66.30 | X-H torsion
[ 10763 10752 10751 10750 ] final  -79.23 input  -60.55 | X-H torsion
[ 11005 11000 10999 10996 ] final   86.11 input  -57.11 | X-H torsion

> <Gold.Protein.ActiveResidues>
 VAL166  LYS551  ARG553  GLY616  TRP617  ASP618  TYR619  PRO620  LYS621  CYS622 
 ASP623  PHE694  ASN695  SER759  ASP760  ASP761  ALA762  ILE779  LEU786  VAL792 
 PHE793  MET794  SER795  GLU796  ALA797  LYS798  CYS799  TRP800  GLU811  SER814 

> <Gold.Protein.RotatedAtoms>
  150.8956  134.8364  159.7323 H   0  0  0  0  0  0  0  0  0  0  0  0  # atno 6907 bound_to 6896
  152.4863  134.4581  159.9606 H   0  0  0  0  0  0  0  0  0  0  0  0  # atno 6908 bound_to 6896
  151.4638  133.3547  159.2848 H   0  0  0  0  0  0  0  0  0  0  0  0  # atno 6909 bound_to 6896
  144.7150  140.1824  143.6357 H   0  0  0  0  0  0  0  0  0  0  0  0  # atno 7974 bound_to 7965
  156.1917  140.1709  156.8079 H   0  0  0  0  0  0  0  0  0  0  0  0  # atno 8008 bound_to 7997
  154.5479  140.0723  156.8651 H   0  0  0  0  0  0  0  0  0  0  0  0  # atno 8009 bound_to 7997
  155.3086  140.3366  155.4247 H   0  0  0  0  0  0  0  0  0  0  0  0  # atno 8010 bound_to 7997
  140.7060  143.5963  150.8843 H   0  0  0  0  0  0  0  0  0  0  0  0  # atno 10167 bound_to 10162
  156.6514  130.4956  149.6061 H   0  0  0  0  0  0  0  0  0  0  0  0  # atno 10718 bound_to 10713
  154.5360  135.5703  153.6798 H   0  0  0  0  0  0  0  0  0  0  0  0  # atno 10763 bound_to 10752
  152.9951  135.6216  154.2566 H   0  0  0  0  0  0  0  0  0  0  0  0  # atno 10764 bound_to 10752
  154.2495  135.2859  155.2802 H   0  0  0  0  0  0  0  0  0  0  0  0  # atno 10765 bound_to 10752
  139.8953  134.8333  156.2675 H   0  0  0  0  0  0  0  0  0  0  0  0  # atno 11005 bound_to 11000
  145.8844  139.2341  143.1586 LP  0  0  0  0  0  0  0  0  0  0  0  0  # atno 17320 bound_to 7965
  145.9964  140.8559  143.0041 LP  0  0  0  0  0  0  0  0  0  0  0  0  # atno 17321 bound_to 7965
  139.9688  143.6081  152.2980 LP  0  0  0  0  0  0  0  0  0  0  0  0  # atno 17342 bound_to 10162
  139.6660  144.7662  151.1873 LP  0  0  0  0  0  0  0  0  0  0  0  0  # atno 17343 bound_to 10162
  156.2081  130.6662  151.1240 LP  0  0  0  0  0  0  0  0  0  0  0  0  # atno 17370 bound_to 10713
  157.7140  131.0720  150.6398 LP  0  0  0  0  0  0  0  0  0  0  0  0  # atno 17371 bound_to 10713
  141.0122  133.7089  156.1131 LP  0  0  0  0  0  0  0  0  0  0  0  0  # atno 17394 bound_to 11000
  140.7351  134.4212  157.5561 LP  0  0  0  0  0  0  0  0  0  0  0  0  # atno 17395 bound_to 11000

$$$$
