AV-unprocessed.smi:1060|AV-procd|sdf|4657|dock7
  -GOLD-   22720 3163D 1   1.00000     0.00000
 Structure written by MMmdl.
 37 38  0  0  0  0  0  0  0  0  1 V2000
  153.6883  138.7749  157.2596 O   0  0  0  0  0  0  0  0  0  0  0  0
  153.3353  138.6739  158.4339 C   0  0  0  0  0  0  0  0  0  0  0  0
  153.7620  137.4449  159.2356 C   0  0  0  0  0  0  0  0  0  0  0  0
  154.2548  137.8625  160.4994 O   0  0  0  0  0  0  0  0  0  0  0  0
  154.1136  136.8674  161.4988 C   0  0  0  0  0  0  0  0  0  0  0  0
  153.9523  137.5517  162.8617 C   0  0  1  0  0  0  0  0  0  0  0  0
  153.7502  136.5743  164.0180 C   0  0  0  0  0  0  0  0  0  0  0  0
  154.2197  137.3971  165.1959 C   0  0  0  0  0  0  0  0  0  0  0  0
  155.4058  138.1491  164.5987 C   0  0  0  0  0  0  0  0  0  0  0  0
  155.1368  138.2679  163.2034 O   0  0  0  0  0  0  0  0  0  0  0  0
  152.5560  139.5552  159.0919 N   0  0  0  0  0  0  0  0  0  0  0  0
  152.0243  140.7799  158.6542 C   0  0  0  0  0  0  0  0  0  0  0  0
  151.9467  141.9077  159.4083 C   0  0  0  0  0  0  0  0  0  0  0  0
  151.3722  143.1406  158.8959 C   0  0  0  0  0  0  0  0  0  0  0  0
  151.2394  144.3798  159.7682 C   0  0  0  0  0  0  0  0  0  0  0  0
  149.9614  144.7273  159.9246 F   0  0  0  0  0  0  0  0  0  0  0  0
  151.7675  144.1740  160.9750 F   0  0  0  0  0  0  0  0  0  0  0  0
  151.8814  145.4018  159.2037 F   0  0  0  0  0  0  0  0  0  0  0  0
  150.8902  143.1012  157.6400 C   0  0  0  0  0  0  0  0  0  0  0  0
  150.9662  141.9464  156.8581 N   0  0  0  0  0  0  0  0  0  0  0  0
  151.4987  140.7772  157.2789 C   0  0  0  0  0  0  0  0  0  0  0  0
  151.5228  139.8008  156.5303 O   0  0  0  0  0  0  0  0  0  0  0  0
  150.5898  141.9999  155.9227 H   0  0  0  0  0  0  0  0  0  0  0  0
  152.9036  136.7826  159.3579 H   0  0  0  0  0  0  0  0  0  0  0  0
  154.5331  136.8977  158.6905 H   0  0  0  0  0  0  0  0  0  0  0  0
  153.2285  136.2673  161.2815 H   0  0  0  0  0  0  0  0  0  0  0  0
  154.9740  136.1962  161.5063 H   0  0  0  0  0  0  0  0  0  0  0  0
  153.1165  138.2529  162.8395 H   0  0  0  0  0  0  0  0  0  0  0  0
  152.7180  136.2370  164.1151 H   0  0  0  0  0  0  0  0  0  0  0  0
  154.3884  135.6977  163.8980 H   0  0  0  0  0  0  0  0  0  0  0  0
  153.4404  138.0993  165.4957 H   0  0  0  0  0  0  0  0  0  0  0  0
  154.4893  136.7938  166.0632 H   0  0  0  0  0  0  0  0  0  0  0  0
  155.5516  139.1259  165.0604 H   0  0  0  0  0  0  0  0  0  0  0  0
  156.3244  137.5750  164.7246 H   0  0  0  0  0  0  0  0  0  0  0  0
  152.2906  139.2947  160.0312 H   0  0  0  0  0  0  0  0  0  0  0  0
  152.2991  141.9201  160.4266 H   0  0  0  0  0  0  0  0  0  0  0  0
  150.4126  143.9337  157.1449 H   0  0  0  0  0  0  0  0  0  0  0  0
  1  2  2  0  0  0  0
  2  3  1  0  0  0  0
  2 11  1  0  0  0  0
  3  4  1  0  0  0  0
  3 24  1  0  0  0  0
  3 25  1  0  0  0  0
  4  5  1  0  0  0  0
  5  6  1  0  0  0  0
  5 26  1  0  0  0  0
  5 27  1  0  0  0  0
  6 10  1  0  0  0  0
  6  7  1  0  0  0  0
  6 28  1  0  0  0  0
  7  8  1  0  0  0  0
  7 29  1  0  0  0  0
  7 30  1  0  0  0  0
  8  9  1  0  0  0  0
  8 31  1  0  0  0  0
  8 32  1  0  0  0  0
  9 10  1  0  0  0  0
  9 33  1  0  0  0  0
  9 34  1  0  0  0  0
 11 12  1  0  0  0  0
 11 35  1  0  0  0  0
 12 21  1  0  0  0  0
 12 13  2  0  0  0  0
 13 14  1  0  0  0  0
 13 36  1  0  0  0  0
 14 15  1  0  0  0  0
 14 19  2  0  0  0  0
 15 16  1  0  0  0  0
 15 17  1  0  0  0  0
 15 18  1  0  0  0  0
 19 20  1  0  0  0  0
 19 37  1  0  0  0  0
 20 23  1  0  0  0  0
 20 21  1  0  0  0  0
 21 22  2  0  0  0  0
M  END
> <s_m_source_file>
AV-unprocessed.smi

> <i_m_source_file_index>
1060

> <i_lp_mmshare_version>
43012

> <i_f3d_flags>
0

> <s_epik_input>
Tz1jMVtuSF1bY0hdYyhDKEYpKEYpRilbY0hdYzFbTkhdQyg9TylbQ0gyXU9bQ0gyXVtDQEBIXTJbQ0gyXVtDSDJdW0NIMl1PMg==

> <s_epik_cmdline>
J2VwaWtfcHl0aG9uJywgJy1waCcsICc3LjAnLCAnLXRuJywgJzgnLCAnLW1hJywgJzIwMCcsICctbWV0YWxfYmluZGluZycsICctaW1hZScsICc8aW5maWxlLm1hZT4nLCAnLW9tYWUnLCAnPG91dGZpbGUubWFlPic=

> <r_lp_tautomer_probability>
0.999

> <r_epik_Ionization_Penalty>
0.00950091

> <r_epik_Ionization_Penalty_Charging>
0.00950081

> <r_epik_Ionization_Penalty_Neutral>
1.00143e-07

> <r_epik_State_Penalty>
0.00721819

> <r_epik_Charging_Adjusted_Penalty>
0.016719

> <i_epik_Tot_Q>
0

> <i_epik_Tot_abs_Q>
0

> <r_epik_Metal_State_Penalty>
0.323303

> <b_epik_Metal_Only>
0

> <s_lp_Force_Field>
OPLS_2005

> <r_lp_Energy>
32.1884

> <b_lp_Chiralities_Consistent>
1

> <s_lp_Variant>
AV-unprocessed.smi:1060-2

> <Gold.Version>
5.8.1

> <Gold.Id.Protein>
6NUR|6NUR_protein|mol2

> <Gold.PLP.Fitness>
47.8556

> <Gold.PLP.PLP>
-43.3902

> <Gold.PLP.part.hbond>
-1.0000

> <Gold.PLP.part.metal>
0.0000

> <Gold.PLP.part.buried>
-5.8642

> <Gold.PLP.part.nonpolar>
-36.4872

> <Gold.PLP.part.repulsive>
0.1631

> <Gold.PLP.ligand.clash>
0.0000

> <Gold.PLP.ligand.torsion>
0.8192

> <Gold.PLP.Chemscore.Hbond>
1.0000

> <Gold.PLP.Chemscore.CHOScore>
1.0000

> <Gold.PLP.Chemscore.Metal>
0.0000

> <Gold.Chemscore.Hbonds>
donor molecule, donor type, donor heavy atom, donor atom, acceptor molecule, acceptor atom, score
      P1  H  7997  8009       L1     1  1.00
      L1  C    19    37       P1  8028  1.00

> <Gold.PLP.Chemscore.Internal.Correction>
0.1039

> <Gold.Rescore>
     Score         DG    S(hbond)    S(metal)    S(lipo)     H(rot)  DE(clash)    DE(int)     intcor
     10.53     -15.29       1.23        0.00      91.38       1.95       0.39       4.36       ----

> <Gold.Chemscore.Fitness>
10.5345

> <Gold.Chemscore.DG>
-15.2914

> <Gold.Chemscore.ZeroCoef>
-5.4800

> <Gold.Chemscore.Hbond>
1.2331

> <Gold.Chemscore.Metal>
0.0000

> <Gold.Chemscore.Lipo>
91.3842

> <Gold.Chemscore.Internal_Hbond>
0.0000

> <Gold.Chemscore.DEClash>
0.3937

> <Gold.Chemscore.DEInternal>
4.3631

> <Gold.Chemscore.Rot>
1.9527

> <Gold.Chemscore.Internal.Correction>
   9.000000E+99

> <Gold.Chemscore.Hbonds>
donor molecule, donor type, donor heavy atom, donor atom, acceptor molecule, acceptor atom, score
      P1  H  7997  8009       L1     1  0.87

> <Gold.Chemscore.Hbond.Weighted>
-4.1184

> <Gold.Chemscore.Metal.Weighted>
-0.0000

> <Gold.Chemscore.Lipo.Weighted>
-10.6919

> <Gold.Chemscore.Internal_Hbond.Weighted>
0.0000

> <Gold.Chemscore.DEClash.Weighted>
0.3937

> <Gold.Chemscore.DEInternal.Weighted>
4.3631

> <Gold.Chemscore.Rot.Weighted>
4.9990

> <Gold.Chemscore.Internal.Correction.Weighted>
   9.000000E+99

> <Gold.Protein.RotatedTorsions>
[ 6907 6896 6895 6894 ] final   58.29 input  -60.11 | X-H torsion
[ 7974 7965 7964 7962 ] final -136.13 input  175.53 | X-H torsion
[ 8008 7997 7996 7995 ] final  169.32 input   59.86 | X-H torsion
[ 10167 10162 10161 10158 ] final -140.64 input  -65.29 | X-H torsion
[ 10718 10713 10712 10709 ] final   23.65 input   66.30 | X-H torsion
[ 10763 10752 10751 10750 ] final    0.29 input  -60.55 | X-H torsion
[ 11005 11000 10999 10996 ] final   52.65 input  -57.11 | X-H torsion

> <Gold.Protein.ActiveResidues>
 VAL166  LYS551  ARG553  GLY616  TRP617  ASP618  TYR619  PRO620  LYS621  CYS622 
 ASP623  PHE694  ASN695  SER759  ASP760  ASP761  ALA762  ILE779  LEU786  VAL792 
 PHE793  MET794  SER795  GLU796  ALA797  LYS798  CYS799  TRP800  GLU811  SER814 

> <Gold.Protein.RotatedAtoms>
  152.3810  134.6590  160.0142 H   0  0  0  0  0  0  0  0  0  0  0  0  # atno 6907 bound_to 6896
  151.6853  133.3306  159.3237 H   0  0  0  0  0  0  0  0  0  0  0  0  # atno 6908 bound_to 6896
  150.7747  134.6681  159.6421 H   0  0  0  0  0  0  0  0  0  0  0  0  # atno 6909 bound_to 6896
  144.8954  140.6699  143.5119 H   0  0  0  0  0  0  0  0  0  0  0  0  # atno 7974 bound_to 7965
  156.1468  140.1567  156.8834 H   0  0  0  0  0  0  0  0  0  0  0  0  # atno 8008 bound_to 7997
  154.5035  140.0819  156.7884 H   0  0  0  0  0  0  0  0  0  0  0  0  # atno 8009 bound_to 7997
  155.3974  140.3413  155.4257 H   0  0  0  0  0  0  0  0  0  0  0  0  # atno 8010 bound_to 7997
  139.8262  143.7507  152.2666 H   0  0  0  0  0  0  0  0  0  0  0  0  # atno 10167 bound_to 10162
  157.1690  130.6751  149.6071 H   0  0  0  0  0  0  0  0  0  0  0  0  # atno 10718 bound_to 10713
  153.3226  135.6970  153.7017 H   0  0  0  0  0  0  0  0  0  0  0  0  # atno 10763 bound_to 10752
  153.5851  135.3490  155.2890 H   0  0  0  0  0  0  0  0  0  0  0  0  # atno 10764 bound_to 10752
  154.8601  135.4304  154.2394 H   0  0  0  0  0  0  0  0  0  0  0  0  # atno 10765 bound_to 10752
  140.0832  134.5310  155.8926 H   0  0  0  0  0  0  0  0  0  0  0  0  # atno 11005 bound_to 11000
  145.3710  139.1659  143.4332 LP  0  0  0  0  0  0  0  0  0  0  0  0  # atno 17320 bound_to 7965
  146.3078  140.3781  142.8681 LP  0  0  0  0  0  0  0  0  0  0  0  0  # atno 17321 bound_to 7965
  139.7701  144.7479  151.0237 LP  0  0  0  0  0  0  0  0  0  0  0  0  # atno 17342 bound_to 10162
  140.7810  143.4655  151.0219 LP  0  0  0  0  0  0  0  0  0  0  0  0  # atno 17343 bound_to 10162
  155.9741  130.4685  150.6364 LP  0  0  0  0  0  0  0  0  0  0  0  0  # atno 17370 bound_to 10713
  157.4061  131.0817  151.1264 LP  0  0  0  0  0  0  0  0  0  0  0  0  # atno 17371 bound_to 10713
  141.2054  133.6646  156.6176 LP  0  0  0  0  0  0  0  0  0  0  0  0  # atno 17394 bound_to 11000
  140.3458  134.7810  157.4431 LP  0  0  0  0  0  0  0  0  0  0  0  0  # atno 17395 bound_to 11000

$$$$
