AV-unprocessed.smi:2896|AV-procd|sdf|11138|dock6
  -GOLD-   2272016 13D 1   1.00000     0.00000
 Structure written by MMmdl.
 49 50  0  0  0  0  0  0  0  0  1 V2000
  151.5092  139.6274  155.3274 C   0  0  0  0  0  0  0  0  0  0  0  0
  151.8930  140.1037  156.7399 C   0  0  2  0  0  0  0  0  0  0  0  0
  151.8264  138.9599  157.7775 C   0  0  0  0  0  0  0  0  0  0  0  0
  150.5313  138.2855  157.7777 N   0  0  0  0  0  0  0  0  0  0  0  0
  150.1042  137.3965  158.6914 C   0  0  0  0  0  0  0  0  0  0  0  0
  150.8012  137.0488  159.6460 O   0  0  0  0  0  0  0  0  0  0  0  0
  148.6905  136.7859  158.5107 C   0  0  0  0  0  0  0  0  0  0  0  0
  147.6919  137.9515  158.2991 C   0  0  0  0  0  0  0  0  0  0  0  0
  148.5952  135.8808  157.2556 C   0  0  0  0  0  0  0  0  0  0  0  0
  148.3820  135.9520  159.7693 C   0  0  0  0  0  0  0  0  0  0  0  0
  148.1696  134.5554  159.6691 C   0  0  0  0  0  0  0  0  0  0  0  0
  147.8891  133.8082  160.8282 C   0  0  0  0  0  0  0  0  0  0  0  0
  147.8285  134.4843  162.0605 C   0  0  0  0  0  0  0  0  0  0  0  0
  148.0264  135.8125  162.1827 N   0  0  0  0  0  0  0  0  0  0  0  0
  148.2963  136.5210  161.0652 C   0  0  0  0  0  0  0  0  0  0  0  0
  150.9888  141.2869  157.1519 C   0  0  0  0  0  0  0  0  0  0  0  0
  151.6718  142.4483  157.7252 N   0  0  0  0  0  0  0  0  0  0  0  0
  150.7462  143.4730  158.2048 C   0  0  0  0  0  0  0  0  0  0  0  0
  151.4872  144.6693  158.8275 C   0  0  0  0  0  0  0  0  0  0  0  0
  152.3335  144.2162  159.8788 O   0  0  0  0  0  0  0  0  0  0  0  0
  153.2823  143.2499  159.4402 C   0  0  0  0  0  0  0  0  0  0  0  0
  152.5452  142.0488  158.8237 C   0  0  0  0  0  0  0  0  0  0  0  0
  150.5047  139.2031  155.3126 H   0  0  0  0  0  0  0  0  0  0  0  0
  152.1973  138.8677  154.9569 H   0  0  0  0  0  0  0  0  0  0  0  0
  151.5318  140.4523  154.6147 H   0  0  0  0  0  0  0  0  0  0  0  0
  152.9239  140.4512  156.6783 H   0  0  0  0  0  0  0  0  0  0  0  0
  152.5741  138.2020  157.5431 H   0  0  0  0  0  0  0  0  0  0  0  0
  152.0801  139.3326  158.7712 H   0  0  0  0  0  0  0  0  0  0  0  0
  149.9035  138.5151  157.0209 H   0  0  0  0  0  0  0  0  0  0  0  0
  147.6811  138.6509  159.1362 H   0  0  0  0  0  0  0  0  0  0  0  0
  146.6738  137.5846  158.1641 H   0  0  0  0  0  0  0  0  0  0  0  0
  147.9421  138.5280  157.4073 H   0  0  0  0  0  0  0  0  0  0  0  0
  149.2806  135.0336  157.2911 H   0  0  0  0  0  0  0  0  0  0  0  0
  148.8122  136.4378  156.3429 H   0  0  0  0  0  0  0  0  0  0  0  0
  147.5905  135.4700  157.1499 H   0  0  0  0  0  0  0  0  0  0  0  0
  148.2239  134.0534  158.7144 H   0  0  0  0  0  0  0  0  0  0  0  0
  147.7261  132.7420  160.7739 H   0  0  0  0  0  0  0  0  0  0  0  0
  147.6162  133.9442  162.9712 H   0  0  0  0  0  0  0  0  0  0  0  0
  148.4428  137.5758  161.2366 H   0  0  0  0  0  0  0  0  0  0  0  0
  150.4031  141.6094  156.2897 H   0  0  0  0  0  0  0  0  0  0  0  0
  150.2637  140.9114  157.8754 H   0  0  0  0  0  0  0  0  0  0  0  0
  150.1275  143.8404  157.3872 H   0  0  0  0  0  0  0  0  0  0  0  0
  150.0682  143.0435  158.9437 H   0  0  0  0  0  0  0  0  0  0  0  0
  152.0799  145.1904  158.0740 H   0  0  0  0  0  0  0  0  0  0  0  0
  150.7744  145.3897  159.2287 H   0  0  0  0  0  0  0  0  0  0  0  0
  153.9626  143.6997  158.7154 H   0  0  0  0  0  0  0  0  0  0  0  0
  153.8846  142.9298  160.2903 H   0  0  0  0  0  0  0  0  0  0  0  0
  151.9606  141.5502  159.5985 H   0  0  0  0  0  0  0  0  0  0  0  0
  153.2773  141.3222  158.4695 H   0  0  0  0  0  0  0  0  0  0  0  0
  1  2  1  0  0  0  0
  1 23  1  0  0  0  0
  1 24  1  0  0  0  0
  1 25  1  0  0  0  0
  2  3  1  0  0  0  0
  2 16  1  0  0  0  0
  2 26  1  0  0  0  0
  3  4  1  0  0  0  0
  3 27  1  0  0  0  0
  3 28  1  0  0  0  0
  4  5  1  0  0  0  0
  4 29  1  0  0  0  0
  5  6  2  0  0  0  0
  5  7  1  0  0  0  0
  7  8  1  0  0  0  0
  7  9  1  0  0  0  0
  7 10  1  0  0  0  0
  8 30  1  0  0  0  0
  8 31  1  0  0  0  0
  8 32  1  0  0  0  0
  9 33  1  0  0  0  0
  9 34  1  0  0  0  0
  9 35  1  0  0  0  0
 10 15  1  0  0  0  0
 10 11  2  0  0  0  0
 11 12  1  0  0  0  0
 11 36  1  0  0  0  0
 12 13  2  0  0  0  0
 12 37  1  0  0  0  0
 13 14  1  0  0  0  0
 13 38  1  0  0  0  0
 14 15  2  0  0  0  0
 15 39  1  0  0  0  0
 16 17  1  0  0  0  0
 16 40  1  0  0  0  0
 16 41  1  0  0  0  0
 17 22  1  0  0  0  0
 17 18  1  0  0  0  0
 18 19  1  0  0  0  0
 18 42  1  0  0  0  0
 18 43  1  0  0  0  0
 19 20  1  0  0  0  0
 19 44  1  0  0  0  0
 19 45  1  0  0  0  0
 20 21  1  0  0  0  0
 21 22  1  0  0  0  0
 21 46  1  0  0  0  0
 21 47  1  0  0  0  0
 22 48  1  0  0  0  0
 22 49  1  0  0  0  0
M  END
> <s_m_source_file>
AV-unprocessed.smi

> <i_m_source_file_index>
2896

> <i_lp_mmshare_version>
43012

> <i_f3d_flags>
0

> <s_epik_input>
W0NIMl0xW0NIMl1PW0NIMl1bQ0gyXU4xW0NIMl1bQ0BIXShbQ0gzXSlbQ0gyXVtOSF1DKD1PKUMoW0NIM10pKFtDSDNdKWMyW2NIXVtjSF1bY0hdbltjSF0y

> <s_epik_cmdline>
J2VwaWtfcHl0aG9uJywgJy1waCcsICc3LjAnLCAnLXRuJywgJzgnLCAnLW1hJywgJzIwMCcsICctbWV0YWxfYmluZGluZycsICctaW1hZScsICc8aW5maWxlLm1hZT4nLCAnLW9tYWUnLCAnPG91dGZpbGUubWFlPic=

> <r_epik_Ionization_Penalty>
0.458454

> <r_epik_Ionization_Penalty_Charging>
0

> <r_epik_Ionization_Penalty_Neutral>
0.458454

> <r_epik_State_Penalty>
0.453234

> <r_epik_Charging_Adjusted_Penalty>
0.453234

> <i_epik_Tot_Q>
0

> <i_epik_Tot_abs_Q>
0

> <r_epik_Metal_State_Penalty>
0.448418

> <b_epik_Metal_Only>
0

> <s_lp_Force_Field>
OPLS_2005

> <r_lp_Energy>
34.6302

> <b_lp_Chiralities_Consistent>
1

> <s_lp_Variant>
AV-unprocessed.smi:2896-3

> <Gold.Version>
5.8.1

> <Gold.Id.Protein>
6NUR|6NUR_protein|mol2

> <Gold.PLP.Fitness>
39.2135

> <Gold.PLP.PLP>
-37.9950

> <Gold.PLP.part.hbond>
-1.4998

> <Gold.PLP.part.metal>
0.0000

> <Gold.PLP.part.buried>
-5.4590

> <Gold.PLP.part.nonpolar>
-32.1601

> <Gold.PLP.part.repulsive>
0.1550

> <Gold.PLP.ligand.clash>
0.0000

> <Gold.PLP.ligand.torsion>
0.9700

> <Gold.PLP.Chemscore.Hbond>
1.0000

> <Gold.PLP.Chemscore.CHOScore>
0.0000

> <Gold.PLP.Chemscore.Metal>
0.0000

> <Gold.Chemscore.Hbonds>
donor molecule, donor type, donor heavy atom, donor atom, acceptor molecule, acceptor atom, score
      P1  H  6896  6907       L1     6  1.00

> <Gold.PLP.Chemscore.Internal.Correction>
0.1585

> <Gold.Rescore>
     Score         DG    S(hbond)    S(metal)    S(lipo)     H(rot)  DE(clash)    DE(int)     intcor
     14.75     -16.95       0.97        0.00     107.06       1.68       0.09       2.11       ----

> <Gold.Chemscore.Fitness>
14.7509

> <Gold.Chemscore.DG>
-16.9504

> <Gold.Chemscore.ZeroCoef>
-5.4800

> <Gold.Chemscore.Hbond>
0.9741

> <Gold.Chemscore.Metal>
0.0000

> <Gold.Chemscore.Lipo>
107.0595

> <Gold.Chemscore.Internal_Hbond>
0.0000

> <Gold.Chemscore.DEClash>
0.0878

> <Gold.Chemscore.DEInternal>
2.1118

> <Gold.Chemscore.Rot>
1.6832

> <Gold.Chemscore.Internal.Correction>
   9.000000E+99

> <Gold.Chemscore.Hbonds>
donor molecule, donor type, donor heavy atom, donor atom, acceptor molecule, acceptor atom, score
      P1  H  6896  6907       L1     6  0.93

> <Gold.Chemscore.Hbond.Weighted>
-3.2534

> <Gold.Chemscore.Metal.Weighted>
-0.0000

> <Gold.Chemscore.Lipo.Weighted>
-12.5260

> <Gold.Chemscore.Internal_Hbond.Weighted>
0.0000

> <Gold.Chemscore.DEClash.Weighted>
0.0878

> <Gold.Chemscore.DEInternal.Weighted>
2.1118

> <Gold.Chemscore.Rot.Weighted>
4.3090

> <Gold.Chemscore.Internal.Correction.Weighted>
   9.000000E+99

> <Gold.Protein.RotatedTorsions>
[ 6907 6896 6895 6894 ] final  -25.02 input  -60.11 | X-H torsion
[ 7974 7965 7964 7962 ] final -134.81 input  175.53 | X-H torsion
[ 8008 7997 7996 7995 ] final  -16.47 input   59.86 | X-H torsion
[ 10167 10162 10161 10158 ] final   44.41 input  -65.29 | X-H torsion
[ 10718 10713 10712 10709 ] final   96.18 input   66.30 | X-H torsion
[ 10763 10752 10751 10750 ] final   82.91 input  -60.55 | X-H torsion
[ 11005 11000 10999 10996 ] final  112.93 input  -57.11 | X-H torsion

> <Gold.Protein.ActiveResidues>
 VAL166  LYS551  ARG553  GLY616  TRP617  ASP618  TYR619  PRO620  LYS621  CYS622 
 ASP623  PHE694  ASN695  SER759  ASP760  ASP761  ALA762  ILE779  LEU786  VAL792 
 PHE793  MET794  SER795  GLU796  ALA797  LYS798  CYS799  TRP800  GLU811  SER814 

> <Gold.Protein.RotatedAtoms>
  151.1812  135.0361  159.8792 H   0  0  0  0  0  0  0  0  0  0  0  0  # atno 6907 bound_to 6896
  152.5444  134.1061  159.8349 H   0  0  0  0  0  0  0  0  0  0  0  0  # atno 6908 bound_to 6896
  151.1178  133.5079  159.2635 H   0  0  0  0  0  0  0  0  0  0  0  0  # atno 6909 bound_to 6896
  144.9069  140.6845  143.5049 H   0  0  0  0  0  0  0  0  0  0  0  0  # atno 7974 bound_to 7965
  154.5050  140.2168  155.9269 H   0  0  0  0  0  0  0  0  0  0  0  0  # atno 8008 bound_to 7997
  156.1482  140.3166  155.8572 H   0  0  0  0  0  0  0  0  0  0  0  0  # atno 8009 bound_to 7997
  155.3989  140.0483  157.3028 H   0  0  0  0  0  0  0  0  0  0  0  0  # atno 8010 bound_to 7997
  140.3346  144.2546  150.6163 H   0  0  0  0  0  0  0  0  0  0  0  0  # atno 10167 bound_to 10162
  157.6930  131.0569  150.4452 H   0  0  0  0  0  0  0  0  0  0  0  0  # atno 10718 bound_to 10713
  153.1244  135.4711  154.9248 H   0  0  0  0  0  0  0  0  0  0  0  0  # atno 10763 bound_to 10752
  154.7606  135.3130  154.8387 H   0  0  0  0  0  0  0  0  0  0  0  0  # atno 10764 bound_to 10752
  153.8944  135.6881  153.4812 H   0  0  0  0  0  0  0  0  0  0  0  0  # atno 10765 bound_to 10752
  139.8940  134.9540  156.6661 H   0  0  0  0  0  0  0  0  0  0  0  0  # atno 11005 bound_to 11000
  145.3520  139.1704  143.4429 LP  0  0  0  0  0  0  0  0  0  0  0  0  # atno 17320 bound_to 7965
  146.3138  140.3573  142.8661 LP  0  0  0  0  0  0  0  0  0  0  0  0  # atno 17321 bound_to 7965
  140.5366  143.2232  151.8153 LP  0  0  0  0  0  0  0  0  0  0  0  0  # atno 17342 bound_to 10162
  139.4850  144.4654  151.9491 LP  0  0  0  0  0  0  0  0  0  0  0  0  # atno 17343 bound_to 10162
  156.4807  130.4073  149.6463 LP  0  0  0  0  0  0  0  0  0  0  0  0  # atno 17370 bound_to 10713
  156.3510  130.7432  151.2391 LP  0  0  0  0  0  0  0  0  0  0  0  0  # atno 17371 bound_to 10713
  140.7409  133.8978  155.8277 LP  0  0  0  0  0  0  0  0  0  0  0  0  # atno 17394 bound_to 11000
  141.0078  134.1062  157.4252 LP  0  0  0  0  0  0  0  0  0  0  0  0  # atno 17395 bound_to 11000

$$$$
