AV-unprocessed.smi:281|AV-procd|sdf|2104|dock7
  -GOLD-   2262021393D 1   1.00000     0.00000
 Structure written by MMmdl.
 55 59  0  0  0  0  0  0  0  0  1 V2000
  149.5096  137.3474  159.2110 C   0  0  0  0  0  0  0  0  0  0  0  0
  149.4041  137.5264  157.6934 C   0  0  1  0  0  0  0  0  0  0  0  0
  148.2643  136.6924  157.0887 C   0  0  0  0  0  0  0  0  0  0  0  0
  148.1720  136.9679  155.6641 N   0  0  0  0  0  0  0  0  0  0  0  0
  147.3323  136.1502  154.9968 C   0  0  0  0  0  0  0  0  0  0  0  0
  147.3661  134.8353  155.3220 N   0  0  0  0  0  0  0  0  0  0  0  0
  146.5662  133.9714  154.6895 C   0  0  0  0  0  0  0  0  0  0  0  0
  145.6803  134.2092  153.7193 N   0  0  0  0  0  0  0  0  0  0  0  0
  145.6468  135.5329  153.3904 C   0  0  0  0  0  0  0  0  0  0  0  0
  146.4288  136.5662  153.9786 C   0  0  0  0  0  0  0  0  0  0  0  0
  146.1167  137.7881  153.3950 N   0  0  0  0  0  0  0  0  0  0  0  0
  145.2051  137.4931  152.5089 C   0  0  0  0  0  0  0  0  0  0  0  0
  144.8718  136.1593  152.4300 N   0  0  0  0  0  0  0  0  0  0  0  0
  143.9052  135.5523  151.5282 C   0  0  0  0  0  0  0  0  0  0  0  0
  144.4728  134.3470  150.7421 C   0  0  2  0  0  0  0  0  0  0  0  0
  143.9525  134.3646  149.4243 O   0  0  0  0  0  0  0  0  0  0  0  0
  144.1572  132.9907  151.3695 C   0  0  0  0  0  0  0  0  0  0  0  0
  145.3906  132.1630  151.0375 C   0  0  0  0  0  0  0  0  0  0  0  0
  146.4399  133.1013  151.1994 O   0  0  0  0  0  0  0  0  0  0  0  0
  146.0125  134.3462  150.6575 C   0  0  0  0  0  0  0  0  0  0  0  0
  147.9629  138.3808  155.3831 C   0  0  0  0  0  0  0  0  0  0  0  0
  149.0678  139.2470  156.0379 C   0  0  2  0  0  0  0  0  0  0  0  0
  148.7189  140.7223  155.9275 C   0  0  0  0  0  0  0  0  0  0  0  0
  149.1909  141.0761  154.5221 C   0  0  0  0  0  0  0  0  0  0  0  0
  150.2977  140.2190  154.2618 O   0  0  0  0  0  0  0  0  0  0  0  0
  150.4064  139.2087  155.2647 C   0  0  1  0  0  0  0  0  0  0  0  0
  151.6502  139.5755  156.0969 C   0  0  0  0  0  0  0  0  0  0  0  0
  149.1778  138.9122  157.4258 O   0  0  0  0  0  0  0  0  0  0  0  0
  149.6955  136.3053  159.4719 H   0  0  0  0  0  0  0  0  0  0  0  0
  148.5917  137.6603  159.7099 H   0  0  0  0  0  0  0  0  0  0  0  0
  150.3284  137.9427  159.6158 H   0  0  0  0  0  0  0  0  0  0  0  0
  150.3457  137.2116  157.2438 H   0  0  0  0  0  0  0  0  0  0  0  0
  148.4492  135.6294  157.2497 H   0  0  0  0  0  0  0  0  0  0  0  0
  147.3205  136.9365  157.5778 H   0  0  0  0  0  0  0  0  0  0  0  0
  146.6496  132.9415  155.0034 H   0  0  0  0  0  0  0  0  0  0  0  0
  144.7531  138.2458  151.8795 H   0  0  0  0  0  0  0  0  0  0  0  0
  143.0332  135.2486  152.1092 H   0  0  0  0  0  0  0  0  0  0  0  0
  143.5581  136.3212  150.8365 H   0  0  0  0  0  0  0  0  0  0  0  0
  144.6190  134.6966  148.8425 H   0  0  0  0  0  0  0  0  0  0  0  0
  144.0849  133.0838  152.4538 H   0  0  0  0  0  0  0  0  0  0  0  0
  143.2287  132.5429  151.0123 H   0  0  0  0  0  0  0  0  0  0  0  0
  145.5130  131.3030  151.6963 H   0  0  0  0  0  0  0  0  0  0  0  0
  145.3630  131.8106  150.0053 H   0  0  0  0  0  0  0  0  0  0  0  0
  146.3660  134.4306  149.6284 H   0  0  0  0  0  0  0  0  0  0  0  0
  146.4635  135.1616  151.2239 H   0  0  0  0  0  0  0  0  0  0  0  0
  147.9352  138.5410  154.3043 H   0  0  0  0  0  0  0  0  0  0  0  0
  146.9888  138.6784  155.7731 H   0  0  0  0  0  0  0  0  0  0  0  0
  147.6618  140.9363  156.0888 H   0  0  0  0  0  0  0  0  0  0  0  0
  149.2851  141.2997  156.6594 H   0  0  0  0  0  0  0  0  0  0  0  0
  148.4087  140.8705  153.7903 H   0  0  0  0  0  0  0  0  0  0  0  0
  149.4704  142.1258  154.4306 H   0  0  0  0  0  0  0  0  0  0  0  0
  150.5668  138.2372  154.7958 H   0  0  0  0  0  0  0  0  0  0  0  0
  151.8435  138.8518  156.8869 H   0  0  0  0  0  0  0  0  0  0  0  0
  151.5500  140.5545  156.5651 H   0  0  0  0  0  0  0  0  0  0  0  0
  152.5381  139.6048  155.4649 H   0  0  0  0  0  0  0  0  0  0  0  0
  1  2  1  0  0  0  0
  1 29  1  0  0  0  0
  1 30  1  0  0  0  0
  1 31  1  0  0  0  0
  2 28  1  0  0  0  0
  2  3  1  0  0  0  0
  2 32  1  0  0  0  0
  3  4  1  0  0  0  0
  3 33  1  0  0  0  0
  3 34  1  0  0  0  0
  4  5  1  0  0  0  0
  4 21  1  0  0  0  0
  5 10  1  0  0  0  0
  5  6  2  0  0  0  0
  6  7  1  0  0  0  0
  7  8  2  0  0  0  0
  7 35  1  0  0  0  0
  8  9  1  0  0  0  0
  9 13  1  0  0  0  0
  9 10  2  0  0  0  0
 10 11  1  0  0  0  0
 11 12  2  0  0  0  0
 12 13  1  0  0  0  0
 12 36  1  0  0  0  0
 13 14  1  0  0  0  0
 14 15  1  0  0  0  0
 14 37  1  0  0  0  0
 14 38  1  0  0  0  0
 15 20  1  0  0  0  0
 15 16  1  0  0  0  0
 15 17  1  0  0  0  0
 16 39  1  0  0  0  0
 17 18  1  0  0  0  0
 17 40  1  0  0  0  0
 17 41  1  0  0  0  0
 18 19  1  0  0  0  0
 18 42  1  0  0  0  0
 18 43  1  0  0  0  0
 19 20  1  0  0  0  0
 20 44  1  0  0  0  0
 20 45  1  0  0  0  0
 21 22  1  0  0  0  0
 21 46  1  0  0  0  0
 21 47  1  0  0  0  0
 22 26  1  0  0  0  0
 22 23  1  0  0  0  0
 22 28  1  0  0  0  0
 23 24  1  0  0  0  0
 23 48  1  0  0  0  0
 23 49  1  0  0  0  0
 24 25  1  0  0  0  0
 24 50  1  0  0  0  0
 24 51  1  0  0  0  0
 25 26  1  0  0  0  0
 26 27  1  0  0  0  0
 26 52  1  0  0  0  0
 27 53  1  0  0  0  0
 27 54  1  0  0  0  0
 27 55  1  0  0  0  0
M  END
> <s_m_source_file>
AV-unprocessed.smi

> <i_m_source_file_index>
281

> <i_lp_mmshare_version>
43012

> <i_f3d_flags>
0

> <s_epik_input>
W0NIM11bQ0BASF0xT1tDSDJdW0NIMl1bQ0BAXTEyW0NIMl1OKFtDSDJdW0NASF0oTzIpW0NIM10pYyhuW2NIXW4zKWMoYzM0KW5bY0hdbjRbQ0gyXVtDQEBdNShbT0hdKVtDSDJdW0NIMl1PW0NIMl01

> <s_epik_cmdline>
J2VwaWtfcHl0aG9uJywgJy1waCcsICc3LjAnLCAnLXRuJywgJzgnLCAnLW1hJywgJzIwMCcsICctbWV0YWxfYmluZGluZycsICctaW1hZScsICc8aW5maWxlLm1hZT4nLCAnLW9tYWUnLCAnPG91dGZpbGUubWFlPic=

> <r_lp_tautomer_probability>
1

> <r_epik_Ionization_Penalty>
0.00571331

> <r_epik_Ionization_Penalty_Charging>
0

> <r_epik_Ionization_Penalty_Neutral>
0.00571331

> <r_epik_State_Penalty>
0.00399586

> <r_epik_Charging_Adjusted_Penalty>
0.00399586

> <i_epik_Tot_Q>
0

> <i_epik_Tot_abs_Q>
0

> <r_epik_Metal_State_Penalty>
-0

> <b_epik_Metal_Only>
0

> <s_lp_Force_Field>
OPLS_2005

> <r_lp_Energy>
57.1517

> <b_lp_Chiralities_Consistent>
1

> <s_lp_Variant>
AV-unprocessed.smi:281-4

> <Gold.Version>
5.8.1

> <Gold.Id.Protein>
6NUR|6NUR_protein|mol2

> <Gold.PLP.Fitness>
39.7436

> <Gold.PLP.PLP>
-29.9328

> <Gold.PLP.part.hbond>
-2.9833

> <Gold.PLP.part.metal>
0.0000

> <Gold.PLP.part.buried>
-4.4379

> <Gold.PLP.part.nonpolar>
-23.2871

> <Gold.PLP.part.repulsive>
0.7174

> <Gold.PLP.ligand.clash>
0.0000

> <Gold.PLP.ligand.torsion>
1.1551

> <Gold.PLP.Chemscore.Hbond>
2.0000

> <Gold.PLP.Chemscore.CHOScore>
1.9991

> <Gold.PLP.Chemscore.Metal>
0.0000

> <Gold.Chemscore.Hbonds>
donor molecule, donor type, donor heavy atom, donor atom, acceptor molecule, acceptor atom, score
      L1  H    16    39       P1  7921  1.00
      P1  H  7989  7998       L1    25  1.00
      L1  C    12    36       P1 10171  1.00
      L1  C    12    36       P1 10175  1.00

> <Gold.PLP.Chemscore.Internal.Correction>
0.1238

> <Gold.Rescore>
     Score         DG    S(hbond)    S(metal)    S(lipo)     H(rot)  DE(clash)    DE(int)     intcor
      9.61     -14.23       1.94        0.00      65.28       2.09       0.02       4.60       ----

> <Gold.Chemscore.Fitness>
9.6099

> <Gold.Chemscore.DG>
-14.2319

> <Gold.Chemscore.ZeroCoef>
-5.4800

> <Gold.Chemscore.Hbond>
1.9376

> <Gold.Chemscore.Metal>
0.0000

> <Gold.Chemscore.Lipo>
65.2793

> <Gold.Chemscore.Internal_Hbond>
0.0000

> <Gold.Chemscore.DEClash>
0.0234

> <Gold.Chemscore.DEInternal>
4.5986

> <Gold.Chemscore.Rot>
2.0927

> <Gold.Chemscore.Internal.Correction>
   9.000000E+99

> <Gold.Chemscore.Hbonds>
donor molecule, donor type, donor heavy atom, donor atom, acceptor molecule, acceptor atom, score
      L1  H    16    39       P1  7921  0.99
      P1  H  7989  7998       L1    25  0.90

> <Gold.Chemscore.Hbond.Weighted>
-6.4716

> <Gold.Chemscore.Metal.Weighted>
-0.0000

> <Gold.Chemscore.Lipo.Weighted>
-7.6377

> <Gold.Chemscore.Internal_Hbond.Weighted>
0.0000

> <Gold.Chemscore.DEClash.Weighted>
0.0234

> <Gold.Chemscore.DEInternal.Weighted>
4.5986

> <Gold.Chemscore.Rot.Weighted>
5.3573

> <Gold.Chemscore.Internal.Correction.Weighted>
   9.000000E+99

> <Gold.Protein.RotatedTorsions>
[ 6907 6896 6895 6894 ] final -151.50 input  -60.11 | X-H torsion
[ 7974 7965 7964 7962 ] final -150.30 input  175.53 | X-H torsion
[ 8008 7997 7996 7995 ] final   80.59 input   59.86 | X-H torsion
[ 10167 10162 10161 10158 ] final   -1.38 input  -65.29 | X-H torsion
[ 10718 10713 10712 10709 ] final   57.03 input   66.30 | X-H torsion
[ 10763 10752 10751 10750 ] final  132.81 input  -60.55 | X-H torsion
[ 11005 11000 10999 10996 ] final   91.58 input  -57.11 | X-H torsion

> <Gold.Protein.ActiveResidues>
 VAL166  LYS551  ARG553  GLY616  TRP617  ASP618  TYR619  PRO620  LYS621  CYS622 
 ASP623  PHE694  ASN695  SER759  ASP760  ASP761  ALA762  ILE779  LEU786  VAL792 
 PHE793  MET794  SER795  GLU796  ALA797  LYS798  CYS799  TRP800  GLU811  SER814 

> <Gold.Protein.RotatedAtoms>
  151.2140  133.4540  159.2598 H   0  0  0  0  0  0  0  0  0  0  0  0  # atno 6907 bound_to 6896
  151.0949  134.9938  159.8431 H   0  0  0  0  0  0  0  0  0  0  0  0  # atno 6908 bound_to 6896
  152.5438  134.2071  159.8788 H   0  0  0  0  0  0  0  0  0  0  0  0  # atno 6909 bound_to 6896
  144.7915  140.4949  143.5769 H   0  0  0  0  0  0  0  0  0  0  0  0  # atno 7974 bound_to 7965
  155.8856  140.3441  155.5919 H   0  0  0  0  0  0  0  0  0  0  0  0  # atno 8008 bound_to 7997
  155.7670  140.0840  157.2146 H   0  0  0  0  0  0  0  0  0  0  0  0  # atno 8009 bound_to 7997
  154.4028  140.1525  156.2885 H   0  0  0  0  0  0  0  0  0  0  0  0  # atno 8010 bound_to 7997
  140.6808  143.6782  150.8127 H   0  0  0  0  0  0  0  0  0  0  0  0  # atno 10167 bound_to 10162
  157.5481  130.8745  149.8921 H   0  0  0  0  0  0  0  0  0  0  0  0  # atno 10718 bound_to 10713
  153.7968  135.3147  155.3385 H   0  0  0  0  0  0  0  0  0  0  0  0  # atno 10763 bound_to 10752
  154.8104  135.4671  154.0505 H   0  0  0  0  0  0  0  0  0  0  0  0  # atno 10764 bound_to 10752
  153.1840  135.6898  153.8526 H   0  0  0  0  0  0  0  0  0  0  0  0  # atno 10765 bound_to 10752
  139.8836  134.8682  156.3448 H   0  0  0  0  0  0  0  0  0  0  0  0  # atno 11005 bound_to 11000
  145.5781  139.1487  143.3250 LP  0  0  0  0  0  0  0  0  0  0  0  0  # atno 17320 bound_to 7965
  146.2169  140.5912  142.9034 LP  0  0  0  0  0  0  0  0  0  0  0  0  # atno 17321 bound_to 7965
  140.0482  143.5277  152.2686 LP  0  0  0  0  0  0  0  0  0  0  0  0  # atno 17342 bound_to 10162
  139.6129  144.7613  151.2912 LP  0  0  0  0  0  0  0  0  0  0  0  0  # atno 17343 bound_to 10162
  156.0553  130.3709  150.1106 LP  0  0  0  0  0  0  0  0  0  0  0  0  # atno 17370 bound_to 10713
  156.9281  130.9705  151.3537 LP  0  0  0  0  0  0  0  0  0  0  0  0  # atno 17371 bound_to 10713
  140.9634  133.7374  156.0433 LP  0  0  0  0  0  0  0  0  0  0  0  0  # atno 17394 bound_to 11000
  140.7961  134.3562  157.5452 LP  0  0  0  0  0  0  0  0  0  0  0  0  # atno 17395 bound_to 11000

$$$$
