AV-unprocessed.smi:1856|AV-procd|sdf|7539|dock5
  -GOLD-   22720 9253D 1   1.00000     0.00000
 Structure written by MMmdl.
 45 46  0  0  0  0  0  0  0  0  2 V2000
  144.9566  133.2959  150.3679 C   0  0  0  0  0  0  0  0  0  0  0  0
  144.7546  134.7648  150.7554 C   0  0  0  0  0  0  0  0  0  0  0  0
  145.7817  135.2438  151.7966 C   0  0  0  0  0  0  0  0  0  0  0  0
  145.5894  136.7111  152.1917 C   0  0  0  0  0  0  0  0  0  0  0  0
  144.4842  137.1250  152.5429 O   0  0  0  0  0  0  0  0  0  0  0  0
  146.6794  137.4921  152.1286 N   0  0  0  0  0  0  0  0  0  0  0  0
  146.7141  138.9138  152.4583 C   0  0  2  0  0  0  0  0  0  0  0  0
  146.6514  139.7442  151.1685 C   0  0  0  0  0  0  0  0  0  0  0  0
  147.9302  139.2702  153.2642 C   0  0  0  0  0  0  0  0  0  0  0  0
  148.9674  138.4293  153.5412 N   0  3  0  0  0  0  0  0  0  0  0  0
  149.9050  139.0783  154.3421 C   0  0  0  0  0  0  0  0  0  0  0  0
  151.1107  138.6308  154.8730 C   0  0  0  0  0  0  0  0  0  0  0  0
  151.8349  139.5488  155.6608 C   0  0  0  0  0  0  0  0  0  0  0  0
  151.3535  140.8528  155.8954 C   0  0  0  0  0  0  0  0  0  0  0  0
  150.1288  141.2937  155.3526 C   0  0  0  0  0  0  0  0  0  0  0  0
  149.4185  140.3815  154.5709 C   0  0  0  0  0  0  0  0  0  0  0  0
  148.2008  140.4602  153.8806 N   0  0  0  0  0  0  0  0  0  0  0  0
  147.4223  141.7132  153.9270 C   0  0  0  0  0  0  0  0  0  0  0  0
  146.3024  141.7258  154.9926 C   0  0  1  0  0  0  0  0  0  0  0  0
  145.5389  143.0545  155.0982 C   0  0  0  0  0  0  0  0  0  0  0  0
  145.3652  140.7042  154.7243 O   0  0  0  0  0  0  0  0  0  0  0  0
  144.2159  132.9831  149.6315 H   0  0  0  0  0  0  0  0  0  0  0  0
  144.8606  132.6415  151.2347 H   0  0  0  0  0  0  0  0  0  0  0  0
  145.9441  133.1362  149.9342 H   0  0  0  0  0  0  0  0  0  0  0  0
  144.8198  135.3786  149.8559 H   0  0  0  0  0  0  0  0  0  0  0  0
  143.7444  134.8950  151.1459 H   0  0  0  0  0  0  0  0  0  0  0  0
  145.7149  134.6177  152.6878 H   0  0  0  0  0  0  0  0  0  0  0  0
  146.7928  135.1228  151.4058 H   0  0  0  0  0  0  0  0  0  0  0  0
  147.5457  137.0727  151.8234 H   0  0  0  0  0  0  0  0  0  0  0  0
  145.8210  139.1405  153.0405 H   0  0  0  0  0  0  0  0  0  0  0  0
  146.6387  140.8116  151.3916 H   0  0  0  0  0  0  0  0  0  0  0  0
  145.7493  139.5176  150.5996 H   0  0  0  0  0  0  0  0  0  0  0  0
  147.5086  139.5500  150.5229 H   0  0  0  0  0  0  0  0  0  0  0  0
  151.4796  137.6313  154.6960 H   0  0  0  0  0  0  0  0  0  0  0  0
  152.7773  139.2467  156.0946 H   0  0  0  0  0  0  0  0  0  0  0  0
  151.9353  141.5296  156.5045 H   0  0  0  0  0  0  0  0  0  0  0  0
  149.7746  142.2960  155.5409 H   0  0  0  0  0  0  0  0  0  0  0  0
  148.1215  142.5299  154.1081 H   0  0  0  0  0  0  0  0  0  0  0  0
  147.0066  141.9079  152.9389 H   0  0  0  0  0  0  0  0  0  0  0  0
  146.7490  141.5060  155.9627 H   0  0  0  0  0  0  0  0  0  0  0  0
  146.2158  143.8776  155.3263 H   0  0  0  0  0  0  0  0  0  0  0  0
  144.7955  143.0140  155.8951 H   0  0  0  0  0  0  0  0  0  0  0  0
  145.0145  143.2959  154.1732 H   0  0  0  0  0  0  0  0  0  0  0  0
  144.8808  140.9382  153.9472 H   0  0  0  0  0  0  0  0  0  0  0  0
  149.0215  137.4751  153.2090 H   0  0  0  0  0  0  0  0  0  0  0  0
  1  2  1  0  0  0  0
  1 22  1  0  0  0  0
  1 23  1  0  0  0  0
  1 24  1  0  0  0  0
  2  3  1  0  0  0  0
  2 25  1  0  0  0  0
  2 26  1  0  0  0  0
  3  4  1  0  0  0  0
  3 27  1  0  0  0  0
  3 28  1  0  0  0  0
  4  5  2  0  0  0  0
  4  6  1  0  0  0  0
  6  7  1  0  0  0  0
  6 29  1  0  0  0  0
  7  8  1  0  0  0  0
  7  9  1  0  0  0  0
  7 30  1  0  0  0  0
  8 31  1  0  0  0  0
  8 32  1  0  0  0  0
  8 33  1  0  0  0  0
  9 17  1  0  0  0  0
  9 10  2  0  0  0  0
 10 11  1  0  0  0  0
 10 45  1  0  0  0  0
 11 16  2  0  0  0  0
 11 12  1  0  0  0  0
 12 13  2  0  0  0  0
 12 34  1  0  0  0  0
 13 14  1  0  0  0  0
 13 35  1  0  0  0  0
 14 15  2  0  0  0  0
 14 36  1  0  0  0  0
 15 16  1  0  0  0  0
 15 37  1  0  0  0  0
 16 17  1  0  0  0  0
 17 18  1  0  0  0  0
 18 19  1  0  0  0  0
 18 38  1  0  0  0  0
 18 39  1  0  0  0  0
 19 20  1  0  0  0  0
 19 21  1  0  0  0  0
 19 40  1  0  0  0  0
 20 41  1  0  0  0  0
 20 42  1  0  0  0  0
 20 43  1  0  0  0  0
 21 44  1  0  0  0  0
M  CHG  1  10   1
M  END
> <s_m_source_file>
AV-unprocessed.smi

> <i_m_source_file_index>
1856

> <i_lp_mmshare_version>
43012

> <i_f3d_flags>
0

> <s_epik_input>
W0NIM11bQ0gyXVtDSDJdQyg9TylbTkhdW0NASF0oW0NIM10pYyhuMSluKFtDSDJdW0NASF0oW0NIM10pW09IXSljKGMxMilbY0hdW2NIXVtjSF1bY0hdMg==

> <s_epik_cmdline>
J2VwaWtfcHl0aG9uJywgJy1waCcsICc3LjAnLCAnLXRuJywgJzgnLCAnLW1hJywgJzIwMCcsICctbWV0YWxfYmluZGluZycsICctaW1hZScsICc8aW5maWxlLm1hZT4nLCAnLW9tYWUnLCAnPG91dGZpbGUubWFlPic=

> <r_epik_Ionization_Penalty>
0.945588

> <r_epik_Ionization_Penalty_Charging>
0.945588

> <r_epik_Ionization_Penalty_Neutral>
8.64698e-08

> <r_epik_State_Penalty>
0.989378

> <r_epik_Charging_Adjusted_Penalty>
1.93497

> <i_epik_Tot_Q>
1

> <i_epik_Tot_abs_Q>
1

> <r_epik_Metal_State_Penalty>
1.10045

> <b_epik_Metal_Only>
0

> <s_lp_Force_Field>
OPLS_2005

> <r_lp_Energy>
7.08732

> <b_lp_Chiralities_Consistent>
1

> <s_lp_Variant>
AV-unprocessed.smi:1856-7

> <Gold.Version>
5.8.1

> <Gold.Id.Protein>
6NUR|6NUR_protein|mol2

> <Gold.PLP.Fitness>
54.2959

> <Gold.PLP.PLP>
-43.7570

> <Gold.PLP.part.hbond>
-4.0000

> <Gold.PLP.part.metal>
0.0000

> <Gold.PLP.part.buried>
1.1365

> <Gold.PLP.part.nonpolar>
-41.1055

> <Gold.PLP.part.repulsive>
0.3298

> <Gold.PLP.ligand.clash>
0.0000

> <Gold.PLP.ligand.torsion>
0.7542

> <Gold.PLP.Chemscore.Hbond>
4.0000

> <Gold.PLP.Chemscore.CHOScore>
0.0000

> <Gold.PLP.Chemscore.Metal>
0.0000

> <Gold.Chemscore.Hbonds>
donor molecule, donor type, donor heavy atom, donor atom, acceptor molecule, acceptor atom, score
      L1  H     6    29       P1  7948  1.00
      L1  H    10    45       P1  7948  2.00
      L1  H    21    44       P1 10175  1.00

> <Gold.PLP.Chemscore.Internal.Correction>
0.0474

> <Gold.Rescore>
     Score         DG    S(hbond)    S(metal)    S(lipo)     H(rot)  DE(clash)    DE(int)     intcor
     18.45     -20.10       2.96        0.00      95.67       2.52       0.79       0.86       ----

> <Gold.Chemscore.Fitness>
18.4476

> <Gold.Chemscore.DG>
-20.1036

> <Gold.Chemscore.ZeroCoef>
-5.4800

> <Gold.Chemscore.Hbond>
2.9556

> <Gold.Chemscore.Metal>
0.0000

> <Gold.Chemscore.Lipo>
95.6669

> <Gold.Chemscore.Internal_Hbond>
0.0000

> <Gold.Chemscore.DEClash>
0.7916

> <Gold.Chemscore.DEInternal>
0.8644

> <Gold.Chemscore.Rot>
2.5161

> <Gold.Chemscore.Internal.Correction>
   9.000000E+99

> <Gold.Chemscore.Hbonds>
donor molecule, donor type, donor heavy atom, donor atom, acceptor molecule, acceptor atom, score
      L1  H     6    29       P1  7948  0.99
      L1  H    10    45       P1  7948  0.95
      L1  H    21    44       P1 10175  0.84

> <Gold.Chemscore.Hbond.Weighted>
-9.8717

> <Gold.Chemscore.Metal.Weighted>
-0.0000

> <Gold.Chemscore.Lipo.Weighted>
-11.1930

> <Gold.Chemscore.Internal_Hbond.Weighted>
0.0000

> <Gold.Chemscore.DEClash.Weighted>
0.7916

> <Gold.Chemscore.DEInternal.Weighted>
0.8644

> <Gold.Chemscore.Rot.Weighted>
6.4412

> <Gold.Chemscore.Internal.Correction.Weighted>
   9.000000E+99

> <Gold.Protein.RotatedTorsions>
[ 6907 6896 6895 6894 ] final -130.34 input  -60.11 | X-H torsion
[ 7974 7965 7964 7962 ] final -163.89 input  175.53 | X-H torsion
[ 8008 7997 7996 7995 ] final  -69.15 input   59.86 | X-H torsion
[ 10167 10162 10161 10158 ] final  -36.52 input  -65.29 | X-H torsion
[ 10718 10713 10712 10709 ] final -143.14 input   66.30 | X-H torsion
[ 10763 10752 10751 10750 ] final -131.79 input  -60.55 | X-H torsion
[ 11005 11000 10999 10996 ] final  -31.79 input  -57.11 | X-H torsion

> <Gold.Protein.ActiveResidues>
 VAL166  LYS551  ARG553  GLY616  TRP617  ASP618  TYR619  PRO620  LYS621  CYS622 
 ASP623  PHE694  ASN695  SER759  ASP760  ASP761  ALA762  ILE779  LEU786  VAL792 
 PHE793  MET794  SER795  GLU796  ALA797  LYS798  CYS799  TRP800  GLU811  SER814 

> <Gold.Protein.RotatedAtoms>
  150.9386  133.6682  159.2795 H   0  0  0  0  0  0  0  0  0  0  0  0  # atno 6907 bound_to 6896
  151.4079  135.0979  159.9586 H   0  0  0  0  0  0  0  0  0  0  0  0  # atno 6908 bound_to 6896
  152.5059  133.8866  159.7428 H   0  0  0  0  0  0  0  0  0  0  0  0  # atno 6909 bound_to 6896
  144.7313  140.3041  143.6199 H   0  0  0  0  0  0  0  0  0  0  0  0  # atno 7974 bound_to 7965
  154.4918  140.0859  156.7611 H   0  0  0  0  0  0  0  0  0  0  0  0  # atno 8008 bound_to 7997
  155.4212  140.3446  155.4253 H   0  0  0  0  0  0  0  0  0  0  0  0  # atno 8009 bound_to 7997
  156.1340  140.1509  156.9010 H   0  0  0  0  0  0  0  0  0  0  0  0  # atno 8010 bound_to 7997
  140.7140  143.3403  151.2372 H   0  0  0  0  0  0  0  0  0  0  0  0  # atno 10167 bound_to 10162
  156.3543  130.7704  151.1862 H   0  0  0  0  0  0  0  0  0  0  0  0  # atno 10718 bound_to 10713
  154.8748  135.3818  154.4304 H   0  0  0  0  0  0  0  0  0  0  0  0  # atno 10763 bound_to 10752
  153.4999  135.7030  153.5843 H   0  0  0  0  0  0  0  0  0  0  0  0  # atno 10764 bound_to 10752
  153.4179  135.3908  155.2059 H   0  0  0  0  0  0  0  0  0  0  0  0  # atno 10765 bound_to 10752
  140.9498  133.7228  156.1202 H   0  0  0  0  0  0  0  0  0  0  0  0  # atno 11005 bound_to 11000
  145.7730  139.1864  143.2201 LP  0  0  0  0  0  0  0  0  0  0  0  0  # atno 17320 bound_to 7965
  146.0895  140.7672  142.9602 LP  0  0  0  0  0  0  0  0  0  0  0  0  # atno 17321 bound_to 7965
  139.6909  143.9694  152.2858 LP  0  0  0  0  0  0  0  0  0  0  0  0  # atno 17342 bound_to 10162
  139.9355  144.6714  150.8319 LP  0  0  0  0  0  0  0  0  0  0  0  0  # atno 17343 bound_to 10162
  157.7465  131.0418  150.4666 LP  0  0  0  0  0  0  0  0  0  0  0  0  # atno 17370 bound_to 10713
  156.4866  130.4086  149.6431 LP  0  0  0  0  0  0  0  0  0  0  0  0  # atno 17371 bound_to 10713
  140.7619  134.3930  157.5524 LP  0  0  0  0  0  0  0  0  0  0  0  0  # atno 17394 bound_to 11000
  139.8844  134.8966  156.2706 LP  0  0  0  0  0  0  0  0  0  0  0  0  # atno 17395 bound_to 11000

$$$$
