AV-unprocessed.smi:3025|AV-procd|sdf|11507|dock3
  -GOLD-   2272016443D 1   1.00000     0.00000
 Structure written by MMmdl.
 42 43  0  0  0  0  0  0  0  0  2 V2000
  153.9922  143.0702  163.9974 C   0  0  0  0  0  0  0  0  0  0  0  0
  153.1844  142.6062  162.7802 C   0  0  0  0  0  0  0  0  0  0  0  0
  152.6424  143.7829  161.9510 C   0  0  0  0  0  0  0  0  0  0  0  0
  151.8971  143.3616  160.6677 C   0  0  2  0  0  0  0  0  0  0  0  0
  152.7005  142.3531  159.8194 C   0  0  0  0  0  0  0  0  0  0  0  0
  151.9561  141.9644  158.5315 C   0  0  0  0  0  0  0  0  0  0  0  0
  151.5987  143.2028  157.6843 C   0  0  1  0  0  0  0  0  0  0  0  0
  150.8291  142.8331  156.4755 N   0  3  0  0  0  0  0  0  0  0  0  0
  149.8240  141.7673  156.6694 C   0  0  0  0  0  0  0  0  0  0  0  0
  149.1554  141.3921  155.3404 C   0  0  0  0  0  0  0  0  0  0  0  0
  149.7287  140.1419  154.7603 C   0  0  0  0  0  0  0  0  0  0  0  0
  148.9495  139.2398  154.1617 N   0  0  0  0  0  0  0  0  0  0  0  0
  149.8477  138.3167  153.7552 N   0  0  0  0  0  0  0  0  0  0  0  0
  151.0670  138.7194  154.1100 C   0  0  0  0  0  0  0  0  0  0  0  0
  151.0719  139.8828  154.7476 N   0  0  0  0  0  0  0  0  0  0  0  0
  150.7909  144.2027  158.5302 C   0  0  0  0  0  0  0  0  0  0  0  0
  151.5422  144.5944  159.8123 C   0  0  0  0  0  0  0  0  0  0  0  0
  154.3585  142.2171  164.5683 H   0  0  0  0  0  0  0  0  0  0  0  0
  153.3838  143.6805  164.6656 H   0  0  0  0  0  0  0  0  0  0  0  0
  154.8556  143.6627  163.6942 H   0  0  0  0  0  0  0  0  0  0  0  0
  153.8189  141.9701  162.1635 H   0  0  0  0  0  0  0  0  0  0  0  0
  152.3553  141.9833  163.1179 H   0  0  0  0  0  0  0  0  0  0  0  0
  151.9594  144.3547  162.5807 H   0  0  0  0  0  0  0  0  0  0  0  0
  153.4575  144.4623  161.6985 H   0  0  0  0  0  0  0  0  0  0  0  0
  150.9606  142.8870  160.9655 H   0  0  0  0  0  0  0  0  0  0  0  0
  153.6718  142.7784  159.5629 H   0  0  0  0  0  0  0  0  0  0  0  0
  152.9022  141.4484  160.3920 H   0  0  0  0  0  0  0  0  0  0  0  0
  152.5790  141.2742  157.9628 H   0  0  0  0  0  0  0  0  0  0  0  0
  151.0475  141.4188  158.7900 H   0  0  0  0  0  0  0  0  0  0  0  0
  152.5185  143.6965  157.3655 H   0  0  0  0  0  0  0  0  0  0  0  0
  150.3743  143.6594  156.1135 H   0  0  0  0  0  0  0  0  0  0  0  0
  150.3086  140.8901  157.1004 H   0  0  0  0  0  0  0  0  0  0  0  0
  149.0643  142.0977  157.3776 H   0  0  0  0  0  0  0  0  0  0  0  0
  148.0831  141.2533  155.4866 H   0  0  0  0  0  0  0  0  0  0  0  0
  149.2672  142.2037  154.6198 H   0  0  0  0  0  0  0  0  0  0  0  0
  151.9638  138.1568  153.8942 H   0  0  0  0  0  0  0  0  0  0  0  0
  150.5776  145.0989  157.9462 H   0  0  0  0  0  0  0  0  0  0  0  0
  149.8250  143.7703  158.7956 H   0  0  0  0  0  0  0  0  0  0  0  0
  150.9303  145.2868  160.3915 H   0  0  0  0  0  0  0  0  0  0  0  0
  152.4526  145.1352  159.5494 H   0  0  0  0  0  0  0  0  0  0  0  0
  151.4869  142.5018  155.7845 H   0  0  0  0  0  0  0  0  0  0  0  0
  149.5931  137.4740  153.2596 H   0  0  0  0  0  0  0  0  0  0  0  0
  1  2  1  0  0  0  0
  1 18  1  0  0  0  0
  1 19  1  0  0  0  0
  1 20  1  0  0  0  0
  2  3  1  0  0  0  0
  2 21  1  0  0  0  0
  2 22  1  0  0  0  0
  3  4  1  0  0  0  0
  3 23  1  0  0  0  0
  3 24  1  0  0  0  0
  4 17  1  0  0  0  0
  4  5  1  0  0  0  0
  4 25  1  0  0  0  0
  5  6  1  0  0  0  0
  5 26  1  0  0  0  0
  5 27  1  0  0  0  0
  6  7  1  0  0  0  0
  6 28  1  0  0  0  0
  6 29  1  0  0  0  0
  7  8  1  0  0  0  0
  7 16  1  0  0  0  0
  7 30  1  0  0  0  0
  8  9  1  0  0  0  0
  8 31  1  0  0  0  0
  8 41  1  0  0  0  0
  9 10  1  0  0  0  0
  9 32  1  0  0  0  0
  9 33  1  0  0  0  0
 10 34  1  0  0  0  0
 10 35  1  0  0  0  0
 10 11  1  0  0  0  0
 11 15  1  0  0  0  0
 11 12  2  0  0  0  0
 12 13  1  0  0  0  0
 13 14  1  0  0  0  0
 13 42  1  0  0  0  0
 14 15  2  0  0  0  0
 14 36  1  0  0  0  0
 16 17  1  0  0  0  0
 16 37  1  0  0  0  0
 16 38  1  0  0  0  0
 17 39  1  0  0  0  0
 17 40  1  0  0  0  0
M  CHG  1   8   1
M  END
> <s_m_source_file>
AV-unprocessed.smi

> <i_m_source_file_index>
3025

> <i_lp_mmshare_version>
43012

> <i_f3d_flags>
0

> <s_epik_input>
W0NIM11bQ0gyXVtDSDJdW0NAQEhdMVtDSDJdW0NIMl1bQ0BIXShbQ0gyXVtDSDJdMSlbTkhdW0NIMl1bQ0gyXWMybm5bY0hdW25IXTI=

> <s_epik_cmdline>
J2VwaWtfcHl0aG9uJywgJy1waCcsICc3LjAnLCAnLXRuJywgJzgnLCAnLW1hJywgJzIwMCcsICctbWV0YWxfYmluZGluZycsICctaW1hZScsICc8aW5maWxlLm1hZT4nLCAnLW9tYWUnLCAnPG91dGZpbGUubWFlPic=

> <r_epik_Ionization_Penalty>
0.00995411

> <r_epik_Ionization_Penalty_Charging>
0.000442289

> <r_epik_Ionization_Penalty_Neutral>
0.00951182

> <r_epik_State_Penalty>
0.448541

> <r_epik_Charging_Adjusted_Penalty>
0.448983

> <i_epik_Tot_Q>
1

> <i_epik_Tot_abs_Q>
1

> <r_epik_Metal_State_Penalty>
0.682245

> <b_epik_Metal_Only>
0

> <s_lp_Force_Field>
OPLS_2005

> <r_lp_Energy>
10.682

> <b_lp_Chiralities_Consistent>
1

> <s_lp_Variant>
AV-unprocessed.smi:3025-3

> <Gold.Version>
5.8.1

> <Gold.Id.Protein>
6NUR|6NUR_protein|mol2

> <Gold.PLP.Fitness>
54.3890

> <Gold.PLP.PLP>
-43.9373

> <Gold.PLP.part.hbond>
-3.6795

> <Gold.PLP.part.metal>
0.0000

> <Gold.PLP.part.buried>
-7.1531

> <Gold.PLP.part.nonpolar>
-33.4046

> <Gold.PLP.part.repulsive>
0.3725

> <Gold.PLP.ligand.clash>
0.0000

> <Gold.PLP.ligand.torsion>
0.8152

> <Gold.PLP.Chemscore.Hbond>
4.0000

> <Gold.PLP.Chemscore.CHOScore>
0.0000

> <Gold.PLP.Chemscore.Metal>
0.0000

> <Gold.Chemscore.Hbonds>
donor molecule, donor type, donor heavy atom, donor atom, acceptor molecule, acceptor atom, score
      L1  H     8    31       P1  8028  2.00
      L1  H    13    42       P1  7948  1.00
      P1  H  7989  7998       L1    15  0.95

> <Gold.PLP.Chemscore.Internal.Correction>
0.0820

> <Gold.Rescore>
     Score         DG    S(hbond)    S(metal)    S(lipo)     H(rot)  DE(clash)    DE(int)     intcor
     19.92     -20.56       2.67        0.00     108.80       2.56       0.02       0.62       ----

> <Gold.Chemscore.Fitness>
19.9179

> <Gold.Chemscore.DG>
-20.5631

> <Gold.Chemscore.ZeroCoef>
-5.4800

> <Gold.Chemscore.Hbond>
2.6671

> <Gold.Chemscore.Metal>
0.0000

> <Gold.Chemscore.Lipo>
108.7959

> <Gold.Chemscore.Internal_Hbond>
0.0000

> <Gold.Chemscore.DEClash>
0.0217

> <Gold.Chemscore.DEInternal>
0.6235

> <Gold.Chemscore.Rot>
2.5602

> <Gold.Chemscore.Internal.Correction>
   9.000000E+99

> <Gold.Chemscore.Hbonds>
donor molecule, donor type, donor heavy atom, donor atom, acceptor molecule, acceptor atom, score
      L1  H     8    31       P1  8028  0.98
      L1  H    13    42       P1  7948  0.81
      P1  H  7989  7998       L1    15  0.09

> <Gold.Chemscore.Hbond.Weighted>
-8.9082

> <Gold.Chemscore.Metal.Weighted>
-0.0000

> <Gold.Chemscore.Lipo.Weighted>
-12.7291

> <Gold.Chemscore.Internal_Hbond.Weighted>
0.0000

> <Gold.Chemscore.DEClash.Weighted>
0.0217

> <Gold.Chemscore.DEInternal.Weighted>
0.6235

> <Gold.Chemscore.Rot.Weighted>
6.5542

> <Gold.Chemscore.Internal.Correction.Weighted>
   9.000000E+99

> <Gold.Protein.RotatedTorsions>
[ 6907 6896 6895 6894 ] final   86.42 input  -60.11 | X-H torsion
[ 7974 7965 7964 7962 ] final   96.16 input  175.53 | X-H torsion
[ 8008 7997 7996 7995 ] final  156.66 input   59.86 | X-H torsion
[ 10167 10162 10161 10158 ] final   43.07 input  -65.29 | X-H torsion
[ 10718 10713 10712 10709 ] final  127.26 input   66.30 | X-H torsion
[ 10763 10752 10751 10750 ] final   27.30 input  -60.55 | X-H torsion
[ 11005 11000 10999 10996 ] final  -82.79 input  -57.11 | X-H torsion

> <Gold.Protein.ActiveResidues>
 VAL166  LYS551  ARG553  GLY616  TRP617  ASP618  TYR619  PRO620  LYS621  CYS622 
 ASP623  PHE694  ASN695  SER759  ASP760  ASP761  ALA762  ILE779  LEU786  VAL792 
 PHE793  MET794  SER795  GLU796  ALA797  LYS798  CYS799  TRP800  GLU811  SER814 

> <Gold.Protein.RotatedAtoms>
  152.5394  134.2435  159.8870 H   0  0  0  0  0  0  0  0  0  0  0  0  # atno 6907 bound_to 6896
  151.2401  133.4397  159.2614 H   0  0  0  0  0  0  0  0  0  0  0  0  # atno 6908 bound_to 6896
  151.0635  134.9766  159.8328 H   0  0  0  0  0  0  0  0  0  0  0  0  # atno 6909 bound_to 6896
  145.4425  139.2300  143.3084 H   0  0  0  0  0  0  0  0  0  0  0  0  # atno 7974 bound_to 7965
  156.2409  140.1906  156.6990 H   0  0  0  0  0  0  0  0  0  0  0  0  # atno 8008 bound_to 7997
  154.6196  140.0610  156.9624 H   0  0  0  0  0  0  0  0  0  0  0  0  # atno 8009 bound_to 7997
  155.1884  140.3282  155.4365 H   0  0  0  0  0  0  0  0  0  0  0  0  # atno 8010 bound_to 7997
  140.3480  144.2386  150.6148 H   0  0  0  0  0  0  0  0  0  0  0  0  # atno 10167 bound_to 10162
  157.5348  131.1098  150.8953 H   0  0  0  0  0  0  0  0  0  0  0  0  # atno 10718 bound_to 10713
  153.0565  135.6540  154.0565 H   0  0  0  0  0  0  0  0  0  0  0  0  # atno 10763 bound_to 10752
  154.0242  135.2917  155.3378 H   0  0  0  0  0  0  0  0  0  0  0  0  # atno 10764 bound_to 10752
  154.6882  135.5293  153.8423 H   0  0  0  0  0  0  0  0  0  0  0  0  # atno 10765 bound_to 10752
  141.1661  133.7262  156.8623 H   0  0  0  0  0  0  0  0  0  0  0  0  # atno 11005 bound_to 11000
  146.2548  140.5175  142.8878 LP  0  0  0  0  0  0  0  0  0  0  0  0  # atno 17320 bound_to 7965
  144.8112  140.6389  143.6414 LP  0  0  0  0  0  0  0  0  0  0  0  0  # atno 17321 bound_to 7965
  140.5246  143.2257  151.8335 LP  0  0  0  0  0  0  0  0  0  0  0  0  # atno 17342 bound_to 10162
  139.4830  144.4795  151.9324 LP  0  0  0  0  0  0  0  0  0  0  0  0  # atno 17343 bound_to 10162
  156.9523  130.5424  149.5283 LP  0  0  0  0  0  0  0  0  0  0  0  0  # atno 17370 bound_to 10713
  156.0450  130.5528  150.8859 LP  0  0  0  0  0  0  0  0  0  0  0  0  # atno 17371 bound_to 10713
  140.1839  134.9013  157.2981 LP  0  0  0  0  0  0  0  0  0  0  0  0  # atno 17394 bound_to 11000
  140.2364  134.3848  155.7499 LP  0  0  0  0  0  0  0  0  0  0  0  0  # atno 17395 bound_to 11000

$$$$
