#       Name:                AV-unprocessed.smi:2032
#       Creating user name   scv26
#       Creation time:       Fri Mar 27 10:51:10 2020


#       File generated by GOLD software.
#

@<TRIPOS>MOLECULE
AV-unprocessed.smi:2032
    48    49     1
SMALL
NO_CHARGES


@<TRIPOS>ATOM
      1 ****        -4.2455   0.1166  -1.0242 C.3            1 S1                 0.0000
      2 ****        -3.5807  -1.2663  -0.9017 C.3            1 S1                 0.0000
      3 ****        -2.0402  -1.2161  -0.9624 C.3            1 S1                 0.0000
      4 ****        -1.4565  -0.6884   0.3017 N.4            1 S1                 1.0000
      5 ****         0.0364  -0.5413   0.3299 C.3            1 S1                 0.0000
      6 ****         0.4344   0.5255   1.3753 C.3            1 S1                 0.0000
      7 ****         0.6599  -0.2184  -1.0568 C.3            1 S1                 0.0000
      8 ****         2.1148  -0.0863  -1.0150 N.am           1 S1                 0.0000
      9 ****         2.7897   1.0726  -1.0498 C.2            1 S1                 0.0000
     10 ****         2.2421   2.1742  -1.1052 O.2            1 S1                 0.0000
     11 ****         4.1173   0.8654  -1.0086 N.am           1 S1                 0.0000
     12 ****         5.1552   1.8339  -0.9899 C.2            1 S1                 0.0000
     13 ****         4.9533   3.1566  -1.0097 N.2            1 S1                 0.0000
     14 ****         6.1536   3.8708  -0.9783 C.2            1 S1                 0.0000
     15 ****         7.2676   3.0700  -0.9337 C.2            1 S1                 0.0000
     16 ****         6.8512   1.3770  -0.9298 S.3            1 S1                 0.0000
     17 ****        -1.9726  -1.4818   1.4481 C.3            1 S1                 0.0000
     18 ****        -3.5097  -1.4569   1.4859 C.3            1 S1                 0.0000
     19 ****        -4.0701  -2.3188   2.6227 C.3            1 S1                 0.0000
     20 ****        -4.0148  -1.9713   0.2590 O.3            1 S1                 0.0000
     21 ****        -4.0180   0.5703  -1.9891 H              1 S1                 0.0000
     22 ****        -3.9074   0.8095  -0.2542 H              1 S1                 0.0000
     23 ****        -5.3301   0.0342  -0.9489 H              1 S1                 0.0000
     24 ****        -3.9247  -1.8535  -1.7537 H              1 S1                 0.0000
     25 ****        -1.6452  -2.2166  -1.1459 H              1 S1                 0.0000
     26 ****        -1.7641  -0.5983  -1.8164 H              1 S1                 0.0000
     27 ****         0.4541  -1.4991   0.6452 H              1 S1                 0.0000
     28 ****         1.5147   0.5794   1.5056 H              1 S1                 0.0000
     29 ****         0.0267   0.3225   2.3637 H              1 S1                 0.0000
     30 ****         0.0888   1.5152   1.0753 H              1 S1                 0.0000
     31 ****         0.4658  -1.0289  -1.7589 H              1 S1                 0.0000
     32 ****         0.2026   0.6771  -1.4816 H              1 S1                 0.0000
     33 ****         2.6474  -0.9429  -0.9676 H              1 S1                 0.0000
     34 ****         4.4226  -0.0960  -0.9751 H              1 S1                 0.0000
     35 ****         6.1227   4.9503  -0.9894 H              1 S1                 0.0000
     36 ****         8.3037   3.3727  -0.9022 H              1 S1                 0.0000
     37 ****        -1.6169  -2.5104   1.3663 H              1 S1                 0.0000
     38 ****        -1.5956  -1.0967   2.3939 H              1 S1                 0.0000
     39 ****        -3.8584  -0.4345   1.6341 H              1 S1                 0.0000
     40 ****        -3.7198  -1.9661   3.5933 H              1 S1                 0.0000
     41 ****        -3.7669  -3.3605   2.5156 H              1 S1                 0.0000
     42 ****        -5.1599  -2.2888   2.6331 H              1 S1                 0.0000
     43 ****        -1.8272   0.2461   0.4011 H              1 S1                 0.0000
     44 ****         1.2442   2.2360  -1.1265 LP             1 S1                 0.0000
     45 ****         2.7953   3.0069  -1.1290 LP             1 S1                 0.0000
     46 ****         4.0496   3.5835  -1.0431 LP             1 S1                 0.0000
     47 ****        -3.7201  -2.9232   0.1746 LP             1 S1                 0.0000
     48 ****        -5.0135  -1.9333   0.2920 LP             1 S1                 0.0000
@<TRIPOS>BOND
    1    1    2 1     
    2    1   21 1     
    3    1   22 1     
    4    1   23 1     
    5    2   20 1     
    6    2    3 1     
    7    2   24 1     
    8    3    4 1     
    9    3   25 1     
   10    3   26 1     
   11    4    5 1     
   12    4   17 1     
   13    4   43 1     
   14    5    6 1     
   15    5    7 1     
   16    5   27 1     
   17    6   28 1     
   18    6   29 1     
   19    6   30 1     
   20    7    8 1     
   21    7   31 1     
   22    7   32 1     
   23    8    9 am    
   24    8   33 1     
   25    9   10 2     
   26    9   11 am    
   27   11   12 1     
   28   11   34 1     
   29   12   16 1     
   30   12   13 2     
   31   13   14 1     
   32   14   15 2     
   33   14   35 1     
   34   15   16 1     
   35   15   36 1     
   36   17   18 1     
   37   17   37 1     
   38   17   38 1     
   39   18   19 1     
   40   18   20 1     
   41   18   39 1     
   42   19   40 1     
   43   19   41 1     
   44   19   42 1     
   45   10   44 1     
   46   10   45 1     
   47   13   46 1     
   48   20   47 1     
   49   20   48 1     
@<TRIPOS>SUBSTRUCTURE
      1 S1             1
@<TRIPOS>SET
LONE_PAIRS      STATIC     ATOMS    <user>   **** ""
5 44 45 46 47 48
DONOR_HYDROGENS      STATIC     ATOMS    <user>   **** ""
3 43 33 34
ATOM$BLUE        STATIC     ATOMS    COLORGROUP SYSTEM
5 44 45 46 47 48
ATOM$RED        STATIC     ATOMS    COLORGROUP SYSTEM
3 43 33 34
