AV-unprocessed.smi:1748|AV-procd|sdf|7037|dock5
  -GOLD-   22720 8253D 1   1.00000     0.00000
 Structure written by MMmdl.
 40 41  0  0  0  0  0  0  0  0  2 V2000
  150.0019  139.0069  154.4189 C   0  0  0  0  0  0  0  0  0  0  0  0
  148.7134  138.5055  153.8955 N   0  3  2  0  0  0  0  0  0  0  0  0
  147.9659  139.5427  153.1409 C   0  0  0  0  0  0  0  0  0  0  0  0
  146.6960  138.9553  152.5011 C   0  0  0  0  0  0  0  0  0  0  0  0
  145.8096  138.2629  153.5506 C   0  0  0  0  0  0  0  0  0  0  0  0
  146.6131  137.2242  154.3545 C   0  0  1  0  0  0  0  0  0  0  0  0
  146.9465  136.0839  153.5004 N   0  0  0  0  0  0  0  0  0  0  0  0
  146.2693  134.9280  153.4492 C   0  0  0  0  0  0  0  0  0  0  0  0
  145.2873  134.6928  154.1521 O   0  0  0  0  0  0  0  0  0  0  0  0
  146.8235  134.0870  152.5569 N   0  0  0  0  0  0  0  0  0  0  0  0
  146.4247  132.7924  152.1827 C   0  0  0  0  0  0  0  0  0  0  0  0
  146.9424  131.6406  152.6847 C   0  0  0  0  0  0  0  0  0  0  0  0
  146.4705  130.3331  152.2600 C   0  0  0  0  0  0  0  0  0  0  0  0
  147.1139  129.0525  152.7691 C   0  0  0  0  0  0  0  0  0  0  0  0
  146.2140  128.3252  153.4292 F   0  0  0  0  0  0  0  0  0  0  0  0
  147.5890  128.3149  151.7645 F   0  0  0  0  0  0  0  0  0  0  0  0
  148.1193  129.3230  153.6014 F   0  0  0  0  0  0  0  0  0  0  0  0
  145.4943  130.3190  151.3337 C   0  0  0  0  0  0  0  0  0  0  0  0
  144.9423  131.4981  150.8282 N   0  0  0  0  0  0  0  0  0  0  0  0
  145.3397  132.7387  151.1888 C   0  0  0  0  0  0  0  0  0  0  0  0
  144.8054  133.7310  150.6944 O   0  0  0  0  0  0  0  0  0  0  0  0
  147.8763  137.8838  154.9524 C   0  0  0  0  0  0  0  0  0  0  0  0
  144.2022  131.4031  150.1476 H   0  0  0  0  0  0  0  0  0  0  0  0
  149.8453  139.8059  155.1447 H   0  0  0  0  0  0  0  0  0  0  0  0
  150.6214  139.3951  153.6099 H   0  0  0  0  0  0  0  0  0  0  0  0
  150.5575  138.2050  154.9063 H   0  0  0  0  0  0  0  0  0  0  0  0
  147.7033  140.3632  153.8105 H   0  0  0  0  0  0  0  0  0  0  0  0
  148.6052  139.9611  152.3622 H   0  0  0  0  0  0  0  0  0  0  0  0
  146.1325  139.7443  152.0022 H   0  0  0  0  0  0  0  0  0  0  0  0
  146.9754  138.2427  151.7240 H   0  0  0  0  0  0  0  0  0  0  0  0
  145.4077  139.0137  154.2323 H   0  0  0  0  0  0  0  0  0  0  0  0
  144.9492  137.7948  153.0706 H   0  0  0  0  0  0  0  0  0  0  0  0
  145.9831  136.8627  155.1694 H   0  0  0  0  0  0  0  0  0  0  0  0
  147.7389  136.1941  152.8844 H   0  0  0  0  0  0  0  0  0  0  0  0
  147.6649  134.4091  152.1007 H   0  0  0  0  0  0  0  0  0  0  0  0
  147.7130  131.6571  153.4374 H   0  0  0  0  0  0  0  0  0  0  0  0
  145.0706  129.4205  150.9095 H   0  0  0  0  0  0  0  0  0  0  0  0
  148.4645  137.1459  155.4995 H   0  0  0  0  0  0  0  0  0  0  0  0
  147.5890  138.6460  155.6785 H   0  0  0  0  0  0  0  0  0  0  0  0
  148.9375  137.7723  153.2378 H   0  0  0  0  0  0  0  0  0  0  0  0
  1  2  1  0  0  0  0
  1 24  1  0  0  0  0
  1 25  1  0  0  0  0
  1 26  1  0  0  0  0
  2 22  1  0  0  0  0
  2  3  1  0  0  0  0
  2 40  1  0  0  0  0
  3  4  1  0  0  0  0
  3 27  1  0  0  0  0
  3 28  1  0  0  0  0
  4  5  1  0  0  0  0
  4 29  1  0  0  0  0
  4 30  1  0  0  0  0
  5  6  1  0  0  0  0
  5 31  1  0  0  0  0
  5 32  1  0  0  0  0
  6  7  1  0  0  0  0
  6 22  1  0  0  0  0
  6 33  1  0  0  0  0
  7  8  1  0  0  0  0
  7 34  1  0  0  0  0
  8  9  2  0  0  0  0
  8 10  1  0  0  0  0
 10 11  1  0  0  0  0
 10 35  1  0  0  0  0
 11 20  1  0  0  0  0
 11 12  2  0  0  0  0
 12 13  1  0  0  0  0
 12 36  1  0  0  0  0
 13 14  1  0  0  0  0
 13 18  2  0  0  0  0
 14 15  1  0  0  0  0
 14 16  1  0  0  0  0
 14 17  1  0  0  0  0
 18 19  1  0  0  0  0
 18 37  1  0  0  0  0
 19 23  1  0  0  0  0
 19 20  1  0  0  0  0
 20 21  2  0  0  0  0
 22 38  1  0  0  0  0
 22 39  1  0  0  0  0
M  CHG  1   2   1
M  END
> <s_m_source_file>
AV-unprocessed.smi

> <i_m_source_file_index>
1748

> <i_lp_mmshare_version>
43012

> <i_f3d_flags>
0

> <s_epik_input>
W0NIM11OMVtDSDJdW0NIMl1bQ0gyXVtDQEhdKFtDSDJdMSlbTkhdQyg9TylbTkhdYzJbY0hdYyhDKEYpKEYpRilbY0hdW25IXWMyPU8=

> <s_epik_cmdline>
J2VwaWtfcHl0aG9uJywgJy1waCcsICc3LjAnLCAnLXRuJywgJzgnLCAnLW1hJywgJzIwMCcsICctbWV0YWxfYmluZGluZycsICctaW1hZScsICc8aW5maWxlLm1hZT4nLCAnLW9tYWUnLCAnPG91dGZpbGUubWFlPic=

> <r_lp_tautomer_probability>
1

> <r_epik_Ionization_Penalty>
0.00746315

> <r_epik_Ionization_Penalty_Charging>
0.00744398

> <r_epik_Ionization_Penalty_Neutral>
1.91704e-05

> <r_epik_State_Penalty>
-0

> <r_epik_Charging_Adjusted_Penalty>
0.00744398

> <i_epik_Tot_Q>
1

> <i_epik_Tot_abs_Q>
1

> <r_epik_Metal_State_Penalty>
0.379332

> <b_epik_Metal_Only>
0

> <s_lp_Force_Field>
OPLS_2005

> <r_lp_Energy>
33.6429

> <b_lp_Chiralities_Consistent>
1

> <s_lp_Variant>
AV-unprocessed.smi:1748-2

> <Gold.Version>
5.8.1

> <Gold.Id.Protein>
6NUR|6NUR_protein|mol2

> <Gold.PLP.Fitness>
39.3390

> <Gold.PLP.PLP>
-30.7543

> <Gold.PLP.part.hbond>
-3.3503

> <Gold.PLP.part.metal>
0.0000

> <Gold.PLP.part.buried>
-0.1347

> <Gold.PLP.part.nonpolar>
-27.8390

> <Gold.PLP.part.repulsive>
0.3065

> <Gold.PLP.ligand.clash>
0.0000

> <Gold.PLP.ligand.torsion>
1.0786

> <Gold.PLP.Chemscore.Hbond>
3.5700

> <Gold.PLP.Chemscore.CHOScore>
0.0000

> <Gold.PLP.Chemscore.Metal>
0.0000

> <Gold.Chemscore.Hbonds>
donor molecule, donor type, donor heavy atom, donor atom, acceptor molecule, acceptor atom, score
      L1  H     2    40       P1  7948  1.92
      L1  H     7    34       P1  7948  1.00
      L1  H    10    35       P1  7948  0.51

> <Gold.PLP.Chemscore.Internal.Correction>
0.0319

> <Gold.Rescore>
     Score         DG    S(hbond)    S(metal)    S(lipo)     H(rot)  DE(clash)    DE(int)     intcor
     15.10     -16.31       1.97        0.00      58.30       1.00       0.12       1.10       ----

> <Gold.Chemscore.Fitness>
15.0972

> <Gold.Chemscore.DG>
-16.3123

> <Gold.Chemscore.ZeroCoef>
-5.4800

> <Gold.Chemscore.Hbond>
1.9675

> <Gold.Chemscore.Metal>
0.0000

> <Gold.Chemscore.Lipo>
58.2984

> <Gold.Chemscore.Internal_Hbond>
0.0000

> <Gold.Chemscore.DEClash>
0.1179

> <Gold.Chemscore.DEInternal>
1.0972

> <Gold.Chemscore.Rot>
1.0000

> <Gold.Chemscore.Internal.Correction>
   9.000000E+99

> <Gold.Chemscore.Hbonds>
donor molecule, donor type, donor heavy atom, donor atom, acceptor molecule, acceptor atom, score
      L1  H     2    40       P1  7948  0.91
      L1  H     7    34       P1  7948  0.98
      L1  H    10    35       P1  7948  0.20

> <Gold.Chemscore.Hbond.Weighted>
-6.5714

> <Gold.Chemscore.Metal.Weighted>
-0.0000

> <Gold.Chemscore.Lipo.Weighted>
-6.8209

> <Gold.Chemscore.Internal_Hbond.Weighted>
0.0000

> <Gold.Chemscore.DEClash.Weighted>
0.1179

> <Gold.Chemscore.DEInternal.Weighted>
1.0972

> <Gold.Chemscore.Rot.Weighted>
2.5600

> <Gold.Chemscore.Internal.Correction.Weighted>
   9.000000E+99

> <Gold.Protein.RotatedTorsions>
[ 6907 6896 6895 6894 ] final   37.53 input  -60.11 | X-H torsion
[ 7974 7965 7964 7962 ] final  150.14 input  175.53 | X-H torsion
[ 8008 7997 7996 7995 ] final  107.73 input   59.86 | X-H torsion
[ 10167 10162 10161 10158 ] final   62.00 input  -65.29 | X-H torsion
[ 10718 10713 10712 10709 ] final  110.05 input   66.30 | X-H torsion
[ 10763 10752 10751 10750 ] final  127.58 input  -60.55 | X-H torsion
[ 11005 11000 10999 10996 ] final  177.52 input  -57.11 | X-H torsion

> <Gold.Protein.ActiveResidues>
 VAL166  LYS551  ARG553  GLY616  TRP617  ASP618  TYR619  PRO620  LYS621  CYS622 
 ASP623  PHE694  ASN695  SER759  ASP760  ASP761  ALA762  ILE779  LEU786  VAL792 
 PHE793  MET794  SER795  GLU796  ALA797  LYS798  CYS799  TRP800  GLU811  SER814 

> <Gold.Protein.RotatedAtoms>
  152.1444  134.9037  160.0551 H   0  0  0  0  0  0  0  0  0  0  0  0  # atno 6907 bound_to 6896
  152.0093  133.3850  159.4221 H   0  0  0  0  0  0  0  0  0  0  0  0  # atno 6908 bound_to 6896
  150.6868  134.3670  159.5019 H   0  0  0  0  0  0  0  0  0  0  0  0  # atno 6909 bound_to 6896
  144.8386  139.6370  143.6027 H   0  0  0  0  0  0  0  0  0  0  0  0  # atno 7974 bound_to 7965
  156.1848  140.3089  155.9217 H   0  0  0  0  0  0  0  0  0  0  0  0  # atno 8008 bound_to 7997
  155.3306  140.0460  157.3059 H   0  0  0  0  0  0  0  0  0  0  0  0  # atno 8009 bound_to 7997
  154.5383  140.2253  155.8695 H   0  0  0  0  0  0  0  0  0  0  0  0  # atno 8010 bound_to 7997
  140.1487  144.4484  150.6771 H   0  0  0  0  0  0  0  0  0  0  0  0  # atno 10167 bound_to 10162
  157.6513  131.0925  150.6544 H   0  0  0  0  0  0  0  0  0  0  0  0  # atno 10718 bound_to 10713
  153.7116  135.3267  155.3247 H   0  0  0  0  0  0  0  0  0  0  0  0  # atno 10763 bound_to 10752
  154.8383  135.4478  154.1308 H   0  0  0  0  0  0  0  0  0  0  0  0  # atno 10764 bound_to 10752
  153.2403  135.6970  153.7869 H   0  0  0  0  0  0  0  0  0  0  0  0  # atno 10765 bound_to 10752
  140.3849  134.6913  157.4473 H   0  0  0  0  0  0  0  0  0  0  0  0  # atno 11005 bound_to 11000
  146.2682  139.6570  142.9315 LP  0  0  0  0  0  0  0  0  0  0  0  0  # atno 17320 bound_to 7965
  145.4742  141.0437  143.2682 LP  0  0  0  0  0  0  0  0  0  0  0  0  # atno 17321 bound_to 7965
  140.6716  143.2288  151.5611 LP  0  0  0  0  0  0  0  0  0  0  0  0  # atno 17342 bound_to 10162
  139.5436  144.2580  152.1400 LP  0  0  0  0  0  0  0  0  0  0  0  0  # atno 17343 bound_to 10162
  156.6855  130.4579  149.5615 LP  0  0  0  0  0  0  0  0  0  0  0  0  # atno 17370 bound_to 10713
  156.1899  130.6553  151.1049 LP  0  0  0  0  0  0  0  0  0  0  0  0  # atno 17371 bound_to 10713
  140.0450  134.6213  155.8933 LP  0  0  0  0  0  0  0  0  0  0  0  0  # atno 17394 bound_to 11000
  141.1911  133.6570  156.5440 LP  0  0  0  0  0  0  0  0  0  0  0  0  # atno 17395 bound_to 11000

$$$$
