AV-unprocessed.smi:262|AV-procd|sdf|2002|dock1
  -GOLD-   2262021193D 1   1.00000     0.00000
 Structure written by MMmdl.
 59 63  0  0  0  0  0  0  0  0  1 V2000
  146.4142  135.4667  150.5313 O   0  0  0  0  0  0  0  0  0  0  0  0
  145.4527  135.0710  151.4937 C   0  0  0  0  0  0  0  0  0  0  0  0
  144.7509  136.3498  152.0152 C   0  0  0  0  0  0  0  0  0  0  0  0
  145.6450  137.2879  152.6780 N   0  0  0  0  0  0  0  0  0  0  0  0
  146.2773  138.3663  152.1046 C   0  0  0  0  0  0  0  0  0  0  0  0
  147.0322  139.0589  152.9117 N   0  0  0  0  0  0  0  0  0  0  0  0
  146.9221  138.4099  154.1381 C   0  0  0  0  0  0  0  0  0  0  0  0
  147.4744  138.6141  155.4406 C   0  0  0  0  0  0  0  0  0  0  0  0
  148.3076  139.6255  155.8027 N   0  0  0  0  0  0  0  0  0  0  0  0
  149.4519  139.9559  154.9608 C   0  0  0  0  0  0  0  0  0  0  0  0
  150.0071  141.3452  155.3244 C   0  0  0  0  0  0  0  0  0  0  0  0
  150.3819  141.3833  156.7425 N   0  0  0  0  0  0  0  0  0  0  0  0
  150.9413  142.6850  157.1079 C   0  0  0  0  0  0  0  0  0  0  0  0
  151.2972  142.7827  158.6054 C   0  0  1  0  0  0  0  0  0  0  0  0
  152.4348  141.8674  159.0103 C   0  0  0  0  0  0  0  0  0  0  0  0
  152.8864  142.4913  160.3264 C   0  0  0  0  0  0  0  0  0  0  0  0
  152.6628  143.8905  160.1830 O   0  0  0  0  0  0  0  0  0  0  0  0
  151.8553  144.1410  159.0361 C   0  0  0  0  0  0  0  0  0  0  0  0
  149.1699  141.1555  157.5337 C   0  0  0  0  0  0  0  0  0  0  0  0
  148.5859  139.7639  157.2307 C   0  0  0  0  0  0  0  0  0  0  0  0
  147.1259  137.7236  156.4064 N   0  0  0  0  0  0  0  0  0  0  0  0
  146.3014  136.7092  156.1343 C   0  0  0  0  0  0  0  0  0  0  0  0
  145.7153  136.4001  154.9780 N   0  0  0  0  0  0  0  0  0  0  0  0
  146.0571  137.2848  153.9991 C   0  0  0  0  0  0  0  0  0  0  0  0
  144.4330  134.1426  150.8038 C   0  0  0  0  0  0  0  0  0  0  0  0
  145.0494  132.7854  150.4209 C   0  0  0  0  0  0  0  0  0  0  0  0
  145.6136  132.1669  151.5706 O   0  0  0  0  0  0  0  0  0  0  0  0
  146.6845  132.9196  152.1267 C   0  0  0  0  0  0  0  0  0  0  0  0
  146.1746  134.2882  152.6129 C   0  0  0  0  0  0  0  0  0  0  0  0
  147.2463  135.5784  150.9659 H   0  0  0  0  0  0  0  0  0  0  0  0
  144.2502  136.8704  151.1974 H   0  0  0  0  0  0  0  0  0  0  0  0
  143.9673  136.0795  152.7246 H   0  0  0  0  0  0  0  0  0  0  0  0
  146.1557  138.6284  151.0635 H   0  0  0  0  0  0  0  0  0  0  0  0
  150.2274  139.1987  155.0833 H   0  0  0  0  0  0  0  0  0  0  0  0
  149.1542  139.9580  153.9118 H   0  0  0  0  0  0  0  0  0  0  0  0
  150.8715  141.5468  154.6936 H   0  0  0  0  0  0  0  0  0  0  0  0
  149.2666  142.1170  155.1079 H   0  0  0  0  0  0  0  0  0  0  0  0
  151.8176  142.8968  156.4935 H   0  0  0  0  0  0  0  0  0  0  0  0
  150.2119  143.4641  156.8812 H   0  0  0  0  0  0  0  0  0  0  0  0
  150.4390  142.5352  159.2301 H   0  0  0  0  0  0  0  0  0  0  0  0
  152.1306  140.8259  159.1174 H   0  0  0  0  0  0  0  0  0  0  0  0
  153.2433  141.9140  158.2790 H   0  0  0  0  0  0  0  0  0  0  0  0
  152.2738  142.1241  161.1508 H   0  0  0  0  0  0  0  0  0  0  0  0
  153.9298  142.2738  160.5558 H   0  0  0  0  0  0  0  0  0  0  0  0
  152.4902  144.5652  158.2571 H   0  0  0  0  0  0  0  0  0  0  0  0
  151.0675  144.8620  159.2560 H   0  0  0  0  0  0  0  0  0  0  0  0
  149.4070  141.2174  158.5965 H   0  0  0  0  0  0  0  0  0  0  0  0
  148.4300  141.9305  157.3255 H   0  0  0  0  0  0  0  0  0  0  0  0
  147.6857  139.6245  157.8292 H   0  0  0  0  0  0  0  0  0  0  0  0
  149.2888  138.9864  157.5327 H   0  0  0  0  0  0  0  0  0  0  0  0
  146.0784  136.0528  156.9622 H   0  0  0  0  0  0  0  0  0  0  0  0
  143.5958  133.9609  151.4791 H   0  0  0  0  0  0  0  0  0  0  0  0
  144.0125  134.6251  149.9205 H   0  0  0  0  0  0  0  0  0  0  0  0
  144.2800  132.1296  150.0128 H   0  0  0  0  0  0  0  0  0  0  0  0
  145.8077  132.9010  149.6450 H   0  0  0  0  0  0  0  0  0  0  0  0
  147.1064  132.3621  152.9632 H   0  0  0  0  0  0  0  0  0  0  0  0
  147.4830  133.0356  151.3921 H   0  0  0  0  0  0  0  0  0  0  0  0
  147.0079  134.8637  153.0172 H   0  0  0  0  0  0  0  0  0  0  0  0
  145.4831  134.1262  153.4408 H   0  0  0  0  0  0  0  0  0  0  0  0
  1  2  1  0  0  0  0
  1 30  1  0  0  0  0
  2 29  1  0  0  0  0
  2  3  1  0  0  0  0
  2 25  1  0  0  0  0
  3  4  1  0  0  0  0
  3 31  1  0  0  0  0
  3 32  1  0  0  0  0
  4 24  1  0  0  0  0
  4  5  1  0  0  0  0
  5  6  2  0  0  0  0
  5 33  1  0  0  0  0
  6  7  1  0  0  0  0
  7 24  2  0  0  0  0
  7  8  1  0  0  0  0
  8  9  1  0  0  0  0
  8 21  2  0  0  0  0
  9 20  1  0  0  0  0
  9 10  1  0  0  0  0
 10 11  1  0  0  0  0
 10 34  1  0  0  0  0
 10 35  1  0  0  0  0
 11 12  1  0  0  0  0
 11 36  1  0  0  0  0
 11 37  1  0  0  0  0
 12 13  1  0  0  0  0
 12 19  1  0  0  0  0
 13 14  1  0  0  0  0
 13 38  1  0  0  0  0
 13 39  1  0  0  0  0
 14 18  1  0  0  0  0
 14 15  1  0  0  0  0
 14 40  1  0  0  0  0
 15 16  1  0  0  0  0
 15 41  1  0  0  0  0
 15 42  1  0  0  0  0
 16 17  1  0  0  0  0
 16 43  1  0  0  0  0
 16 44  1  0  0  0  0
 17 18  1  0  0  0  0
 18 45  1  0  0  0  0
 18 46  1  0  0  0  0
 19 20  1  0  0  0  0
 19 47  1  0  0  0  0
 19 48  1  0  0  0  0
 20 49  1  0  0  0  0
 20 50  1  0  0  0  0
 21 22  1  0  0  0  0
 22 23  2  0  0  0  0
 22 51  1  0  0  0  0
 23 24  1  0  0  0  0
 25 26  1  0  0  0  0
 25 52  1  0  0  0  0
 25 53  1  0  0  0  0
 26 27  1  0  0  0  0
 26 54  1  0  0  0  0
 26 55  1  0  0  0  0
 27 28  1  0  0  0  0
 28 29  1  0  0  0  0
 28 56  1  0  0  0  0
 28 57  1  0  0  0  0
 29 58  1  0  0  0  0
 29 59  1  0  0  0  0
M  END
> <s_m_source_file>
AV-unprocessed.smi

> <i_m_source_file_index>
262

> <i_lp_mmshare_version>
43012

> <i_f3d_flags>
0

> <s_epik_input>
W0NIMl0xW0NIMl1PW0NIMl1bQ0gyXUMxKFtPSF0pW0NIMl1uKFtjSF1uMiljKGMyMyluW2NIXW5jM040W0NIMl1bQ0gyXU4oW0NIMl1bQ0gyXTQpW0NIMl1bQ0BASF01W0NIMl1bQ0gyXU9bQ0gyXTU=

> <s_epik_cmdline>
J2VwaWtfcHl0aG9uJywgJy1waCcsICc3LjAnLCAnLXRuJywgJzgnLCAnLW1hJywgJzIwMCcsICctbWV0YWxfYmluZGluZycsICctaW1hZScsICc8aW5maWxlLm1hZT4nLCAnLW9tYWUnLCAnPG91dGZpbGUubWFlPic=

> <r_lp_tautomer_probability>
1

> <r_epik_Ionization_Penalty>
2.38637

> <r_epik_Ionization_Penalty_Charging>
0

> <r_epik_Ionization_Penalty_Neutral>
2.38637

> <r_epik_State_Penalty>
2.53316

> <r_epik_Charging_Adjusted_Penalty>
2.53316

> <i_epik_Tot_Q>
0

> <i_epik_Tot_abs_Q>
0

> <r_epik_Metal_State_Penalty>
2.52423

> <b_epik_Metal_Only>
0

> <s_lp_Force_Field>
OPLS_2005

> <r_lp_Energy>
58.0525

> <b_lp_Chiralities_Consistent>
1

> <s_lp_Variant>
AV-unprocessed.smi:262-4

> <Gold.Version>
5.8.1

> <Gold.Id.Protein>
6NUR|6NUR_protein|mol2

> <Gold.PLP.Fitness>
45.0662

> <Gold.PLP.PLP>
-39.7487

> <Gold.PLP.part.hbond>
-2.0000

> <Gold.PLP.part.metal>
0.0000

> <Gold.PLP.part.buried>
-2.8096

> <Gold.PLP.part.nonpolar>
-35.6839

> <Gold.PLP.part.repulsive>
0.4870

> <Gold.PLP.ligand.clash>
0.0000

> <Gold.PLP.ligand.torsion>
0.5979

> <Gold.PLP.Chemscore.Hbond>
1.0000

> <Gold.PLP.Chemscore.CHOScore>
0.9517

> <Gold.PLP.Chemscore.Metal>
0.0000

> <Gold.Chemscore.Hbonds>
donor molecule, donor type, donor heavy atom, donor atom, acceptor molecule, acceptor atom, score
      L1  H     1    30       P1  7948  1.00
      L1  C     5    33       P1 10171  0.76

> <Gold.PLP.Chemscore.Internal.Correction>
0.6582

> <Gold.Rescore>
     Score         DG    S(hbond)    S(metal)    S(lipo)     H(rot)  DE(clash)    DE(int)     intcor
     12.99     -14.70       0.97        0.00     105.43       2.49       1.12       0.59       ----

> <Gold.Chemscore.Fitness>
12.9934

> <Gold.Chemscore.DG>
-14.6968

> <Gold.Chemscore.ZeroCoef>
-5.4800

> <Gold.Chemscore.Hbond>
0.9715

> <Gold.Chemscore.Metal>
0.0000

> <Gold.Chemscore.Lipo>
105.4251

> <Gold.Chemscore.Internal_Hbond>
0.0000

> <Gold.Chemscore.DEClash>
1.1180

> <Gold.Chemscore.DEInternal>
0.5854

> <Gold.Chemscore.Rot>
2.4855

> <Gold.Chemscore.Internal.Correction>
   9.000000E+99

> <Gold.Chemscore.Hbonds>
donor molecule, donor type, donor heavy atom, donor atom, acceptor molecule, acceptor atom, score
      L1  H     1    30       P1  7948  0.73

> <Gold.Chemscore.Hbond.Weighted>
-3.2449

> <Gold.Chemscore.Metal.Weighted>
-0.0000

> <Gold.Chemscore.Lipo.Weighted>
-12.3347

> <Gold.Chemscore.Internal_Hbond.Weighted>
0.0000

> <Gold.Chemscore.DEClash.Weighted>
1.1180

> <Gold.Chemscore.DEInternal.Weighted>
0.5854

> <Gold.Chemscore.Rot.Weighted>
6.3629

> <Gold.Chemscore.Internal.Correction.Weighted>
   9.000000E+99

> <Gold.Protein.RotatedTorsions>
[ 6907 6896 6895 6894 ] final -105.45 input  -60.11 | X-H torsion
[ 7974 7965 7964 7962 ] final   11.21 input  175.53 | X-H torsion
[ 8008 7997 7996 7995 ] final -120.24 input   59.86 | X-H torsion
[ 10167 10162 10161 10158 ] final -150.13 input  -65.29 | X-H torsion
[ 10718 10713 10712 10709 ] final  -74.21 input   66.30 | X-H torsion
[ 10763 10752 10751 10750 ] final   73.33 input  -60.55 | X-H torsion
[ 11005 11000 10999 10996 ] final  -35.24 input  -57.11 | X-H torsion

> <Gold.Protein.ActiveResidues>
 VAL166  LYS551  ARG553  GLY616  TRP617  ASP618  TYR619  PRO620  LYS621  CYS622 
 ASP623  PHE694  ASN695  SER759  ASP760  ASP761  ALA762  ILE779  LEU786  VAL792 
 PHE793  MET794  SER795  GLU796  ALA797  LYS798  CYS799  TRP800  GLU811  SER814 

> <Gold.Protein.RotatedAtoms>
  150.7338  134.0124  159.3673 H   0  0  0  0  0  0  0  0  0  0  0  0  # atno 6907 bound_to 6896
  151.8085  135.0686  160.0419 H   0  0  0  0  0  0  0  0  0  0  0  0  # atno 6908 bound_to 6896
  152.3090  133.5697  159.5704 H   0  0  0  0  0  0  0  0  0  0  0  0  # atno 6909 bound_to 6896
  146.2375  139.9520  142.8469 H   0  0  0  0  0  0  0  0  0  0  0  0  # atno 7974 bound_to 7965
  155.1286  140.0400  157.2769 H   0  0  0  0  0  0  0  0  0  0  0  0  # atno 8008 bound_to 7997
  154.6559  140.2580  155.7136 H   0  0  0  0  0  0  0  0  0  0  0  0  # atno 8009 bound_to 7997
  156.2598  140.2826  156.1012 H   0  0  0  0  0  0  0  0  0  0  0  0  # atno 8010 bound_to 7997
  139.7382  143.8703  152.2555 H   0  0  0  0  0  0  0  0  0  0  0  0  # atno 10167 bound_to 10162
  156.0251  130.4412  150.2858 H   0  0  0  0  0  0  0  0  0  0  0  0  # atno 10718 bound_to 10713
  153.0514  135.5067  154.7877 H   0  0  0  0  0  0  0  0  0  0  0  0  # atno 10763 bound_to 10752
  154.6736  135.2957  154.9711 H   0  0  0  0  0  0  0  0  0  0  0  0  # atno 10764 bound_to 10752
  154.0521  135.6702  153.4854 H   0  0  0  0  0  0  0  0  0  0  0  0  # atno 10765 bound_to 10752
  140.9781  133.7072  156.1636 H   0  0  0  0  0  0  0  0  0  0  0  0  # atno 11005 bound_to 11000
  145.1853  140.9786  143.4243 LP  0  0  0  0  0  0  0  0  0  0  0  0  # atno 17320 bound_to 7965
  144.9906  139.3693  143.6217 LP  0  0  0  0  0  0  0  0  0  0  0  0  # atno 17321 bound_to 7965
  139.8646  144.7099  150.9059 LP  0  0  0  0  0  0  0  0  0  0  0  0  # atno 17342 bound_to 10162
  140.7782  143.3789  151.1513 LP  0  0  0  0  0  0  0  0  0  0  0  0  # atno 17343 bound_to 10162
  157.0962  131.0183  151.3103 LP  0  0  0  0  0  0  0  0  0  0  0  0  # atno 17370 bound_to 10713
  157.4816  130.7768  149.7419 LP  0  0  0  0  0  0  0  0  0  0  0  0  # atno 17371 bound_to 10713
  140.7229  134.4339  157.5573 LP  0  0  0  0  0  0  0  0  0  0  0  0  # atno 17394 bound_to 11000
  139.8938  134.8720  156.2204 LP  0  0  0  0  0  0  0  0  0  0  0  0  # atno 17395 bound_to 11000

$$$$
