AV-unprocessed.smi:139|AV-procd|sdf|1184|dock1
  -GOLD-   2262018333D 1   1.00000     0.00000
 Structure written by MMmdl.
 50 53  0  0  0  0  0  0  0  0  1 V2000
  148.9500  141.1664  158.5380 O   0  0  0  0  0  0  0  0  0  0  0  0
  149.5558  140.3635  157.8268 C   0  0  0  0  0  0  0  0  0  0  0  0
  148.8888  139.0627  157.3561 C   0  0  0  0  0  0  0  0  0  0  0  0
  147.9690  138.4741  158.3540 N   0  0  0  0  0  0  0  0  0  0  0  0
  146.5882  138.7818  158.2733 C   0  0  0  0  0  0  0  0  0  0  0  0
  146.1490  139.5227  157.3925 O   0  0  0  0  0  0  0  0  0  0  0  0
  145.7448  138.1634  159.2899 C   0  0  0  0  0  0  0  0  0  0  0  0
  144.4240  138.4110  159.2999 F   0  0  0  0  0  0  0  0  0  0  0  0
  146.2707  137.3490  160.2278 C   0  0  0  0  0  0  0  0  0  0  0  0
  147.6192  137.0457  160.2863 N   0  0  0  0  0  0  0  0  0  0  0  0
  148.1838  136.1264  161.3499 C   0  0  1  0  0  0  0  0  0  0  0  0
  147.8398  136.6548  162.7465 C   0  0  0  0  0  0  0  0  0  0  0  0
  146.5075  135.9865  163.0044 C   0  0  0  0  0  0  0  0  0  0  0  0
  146.7034  134.6327  162.3291 C   0  0  0  0  0  0  0  0  0  0  0  0
  147.5914  134.8644  161.2357 O   0  0  0  0  0  0  0  0  0  0  0  0
  148.5016  137.6077  159.3381 C   0  0  0  0  0  0  0  0  0  0  0  0
  149.7068  137.3491  159.3707 O   0  0  0  0  0  0  0  0  0  0  0  0
  150.8246  140.5434  157.4231 N   0  0  0  0  0  0  0  0  0  0  0  0
  151.6939  141.6802  157.7383 C   0  0  1  0  0  0  0  0  0  0  0  0
  150.9466  143.0213  157.5821 C   0  0  0  0  0  0  0  0  0  0  0  0
  151.7957  144.1967  158.0689 C   0  0  0  0  0  0  0  0  0  0  0  0
  152.1473  144.0400  159.5522 C   0  0  0  0  0  0  0  0  0  0  0  0
  152.6841  142.6604  159.9022 C   0  0  0  0  0  0  0  0  0  0  0  0
  153.4071  142.5021  161.1033 C   0  0  0  0  0  0  0  0  0  0  0  0
  153.9167  141.2430  161.4693 C   0  0  0  0  0  0  0  0  0  0  0  0
  153.7075  140.1325  160.6327 C   0  0  0  0  0  0  0  0  0  0  0  0
  152.9857  140.2819  159.4340 C   0  0  0  0  0  0  0  0  0  0  0  0
  152.4580  141.5397  159.0605 C   0  0  0  0  0  0  0  0  0  0  0  0
  148.3677  139.2554  156.4168 H   0  0  0  0  0  0  0  0  0  0  0  0
  149.6745  138.3576  157.0807 H   0  0  0  0  0  0  0  0  0  0  0  0
  145.5953  136.9274  160.9567 H   0  0  0  0  0  0  0  0  0  0  0  0
  149.2538  136.0583  161.1468 H   0  0  0  0  0  0  0  0  0  0  0  0
  148.5913  136.2953  163.4503 H   0  0  0  0  0  0  0  0  0  0  0  0
  147.8077  137.7441  162.7881 H   0  0  0  0  0  0  0  0  0  0  0  0
  146.2661  135.9043  164.0643 H   0  0  0  0  0  0  0  0  0  0  0  0
  145.7072  136.5422  162.5142 H   0  0  0  0  0  0  0  0  0  0  0  0
  147.1766  133.9311  163.0170 H   0  0  0  0  0  0  0  0  0  0  0  0
  145.7631  134.1954  161.9931 H   0  0  0  0  0  0  0  0  0  0  0  0
  151.2310  139.8217  156.8460 H   0  0  0  0  0  0  0  0  0  0  0  0
  152.4704  141.6646  156.9727 H   0  0  0  0  0  0  0  0  0  0  0  0
  150.6523  143.1675  156.5423 H   0  0  0  0  0  0  0  0  0  0  0  0
  150.0233  143.0139  158.1621 H   0  0  0  0  0  0  0  0  0  0  0  0
  152.7120  144.2433  157.4792 H   0  0  0  0  0  0  0  0  0  0  0  0
  151.2731  145.1396  157.9065 H   0  0  0  0  0  0  0  0  0  0  0  0
  152.8752  144.7997  159.8394 H   0  0  0  0  0  0  0  0  0  0  0  0
  151.2578  144.2145  160.1585 H   0  0  0  0  0  0  0  0  0  0  0  0
  153.5733  143.3509  161.7504 H   0  0  0  0  0  0  0  0  0  0  0  0
  154.4693  141.1300  162.3903 H   0  0  0  0  0  0  0  0  0  0  0  0
  154.1020  139.1659  160.9087 H   0  0  0  0  0  0  0  0  0  0  0  0
  152.8414  139.4199  158.7996 H   0  0  0  0  0  0  0  0  0  0  0  0
  1  2  2  0  0  0  0
  2  3  1  0  0  0  0
  2 18  1  0  0  0  0
  3  4  1  0  0  0  0
  3 29  1  0  0  0  0
  3 30  1  0  0  0  0
  4 16  1  0  0  0  0
  4  5  1  0  0  0  0
  5  6  2  0  0  0  0
  5  7  1  0  0  0  0
  7  8  1  0  0  0  0
  7  9  2  0  0  0  0
  9 10  1  0  0  0  0
  9 31  1  0  0  0  0
 10 11  1  0  0  0  0
 10 16  1  0  0  0  0
 11 15  1  0  0  0  0
 11 12  1  0  0  0  0
 11 32  1  0  0  0  0
 12 13  1  0  0  0  0
 12 33  1  0  0  0  0
 12 34  1  0  0  0  0
 13 14  1  0  0  0  0
 13 35  1  0  0  0  0
 13 36  1  0  0  0  0
 14 15  1  0  0  0  0
 14 37  1  0  0  0  0
 14 38  1  0  0  0  0
 16 17  2  0  0  0  0
 18 19  1  0  0  0  0
 18 39  1  0  0  0  0
 19 28  1  0  0  0  0
 19 20  1  0  0  0  0
 19 40  1  0  0  0  0
 20 21  1  0  0  0  0
 20 41  1  0  0  0  0
 20 42  1  0  0  0  0
 21 22  1  0  0  0  0
 21 43  1  0  0  0  0
 21 44  1  0  0  0  0
 22 23  1  0  0  0  0
 22 45  1  0  0  0  0
 22 46  1  0  0  0  0
 23 28  2  0  0  0  0
 23 24  1  0  0  0  0
 24 25  2  0  0  0  0
 24 47  1  0  0  0  0
 25 26  1  0  0  0  0
 25 48  1  0  0  0  0
 26 27  2  0  0  0  0
 26 49  1  0  0  0  0
 27 28  1  0  0  0  0
 27 50  1  0  0  0  0
M  END
> <s_m_source_file>
AV-unprocessed.smi

> <i_m_source_file_index>
139

> <i_lp_mmshare_version>
43012

> <i_f3d_flags>
0

> <s_epik_input>
W2NIXTFbY0hdW2NIXVtjSF1jKGMxMilbQ0BASF0oW0NIMl1bQ0gyXVtDSDJdMilbTkhdQyg9TylbQ0gyXW4zYyg9TyljKEYpW2NIXW4oYzM9TylbQ0BASF00W0NIMl1bQ0gyXVtDSDJdTzQ=

> <s_epik_cmdline>
J2VwaWtfcHl0aG9uJywgJy1waCcsICc3LjAnLCAnLXRuJywgJzgnLCAnLW1hJywgJzIwMCcsICctbWV0YWxfYmluZGluZycsICctaW1hZScsICc8aW5maWxlLm1hZT4nLCAnLW9tYWUnLCAnPG91dGZpbGUubWFlPic=

> <r_lp_tautomer_probability>
1

> <r_epik_Ionization_Penalty>
3.261e-08

> <r_epik_Ionization_Penalty_Charging>
3.6725e-09

> <r_epik_Ionization_Penalty_Neutral>
2.89375e-08

> <r_epik_State_Penalty>
-0

> <r_epik_Charging_Adjusted_Penalty>
3.6725e-09

> <i_epik_Tot_Q>
0

> <i_epik_Tot_abs_Q>
0

> <r_epik_Metal_State_Penalty>
-0

> <b_epik_Metal_Only>
0

> <s_epik_Chemistry_Notes>
This compound contains an acetal/aminal-like group ( X-CH(R)-Y where X, Y are N, S, or O) that may be acid/base labile, releasing an aldehyde.

> <s_lp_Force_Field>
OPLS_2005

> <r_lp_Energy>
31.2563

> <b_lp_Chiralities_Consistent>
1

> <s_lp_Variant>
AV-unprocessed.smi:139-4

> <Gold.Version>
5.8.1

> <Gold.Id.Protein>
6NUR|6NUR_protein|mol2

> <Gold.PLP.Fitness>
46.9876

> <Gold.PLP.PLP>
-48.8433

> <Gold.PLP.part.hbond>
-0.2344

> <Gold.PLP.part.metal>
0.0000

> <Gold.PLP.part.buried>
-6.4345

> <Gold.PLP.part.nonpolar>
-42.8084

> <Gold.PLP.part.repulsive>
0.0716

> <Gold.PLP.ligand.clash>
0.0000

> <Gold.PLP.ligand.torsion>
0.9911

> <Gold.PLP.Chemscore.Hbond>
0.0000

> <Gold.PLP.Chemscore.CHOScore>
0.0000

> <Gold.PLP.Chemscore.Metal>
0.0000

> <Gold.PLP.Chemscore.Internal.Correction>
0.1264

> <Gold.Rescore>
     Score         DG    S(hbond)    S(metal)    S(lipo)     H(rot)  DE(clash)    DE(int)     intcor
     14.05     -16.07       0.00        0.00     130.32       1.82       0.03       2.00       ----

> <Gold.Chemscore.Fitness>
14.0493

> <Gold.Chemscore.DG>
-16.0745

> <Gold.Chemscore.ZeroCoef>
-5.4800

> <Gold.Chemscore.Hbond>
0.0000

> <Gold.Chemscore.Metal>
0.0000

> <Gold.Chemscore.Lipo>
130.3159

> <Gold.Chemscore.Internal_Hbond>
0.0000

> <Gold.Chemscore.DEClash>
0.0256

> <Gold.Chemscore.DEInternal>
1.9997

> <Gold.Chemscore.Rot>
1.8174

> <Gold.Chemscore.Internal.Correction>
   9.000000E+99

> <Gold.Chemscore.Hbond.Weighted>
-0.0000

> <Gold.Chemscore.Metal.Weighted>
-0.0000

> <Gold.Chemscore.Lipo.Weighted>
-15.2470

> <Gold.Chemscore.Internal_Hbond.Weighted>
0.0000

> <Gold.Chemscore.DEClash.Weighted>
0.0256

> <Gold.Chemscore.DEInternal.Weighted>
1.9997

> <Gold.Chemscore.Rot.Weighted>
4.6524

> <Gold.Chemscore.Internal.Correction.Weighted>
   9.000000E+99

> <Gold.Protein.RotatedTorsions>
[ 6907 6896 6895 6894 ] final -107.64 input  -60.11 | X-H torsion
[ 7974 7965 7964 7962 ] final  -45.03 input  175.53 | X-H torsion
[ 8008 7997 7996 7995 ] final  115.61 input   59.86 | X-H torsion
[ 10167 10162 10161 10158 ] final  100.66 input  -65.29 | X-H torsion
[ 10718 10713 10712 10709 ] final -174.41 input   66.30 | X-H torsion
[ 10763 10752 10751 10750 ] final -112.08 input  -60.55 | X-H torsion
[ 11005 11000 10999 10996 ] final -141.92 input  -57.11 | X-H torsion

> <Gold.Protein.ActiveResidues>
 VAL166  LYS551  ARG553  GLY616  TRP617  ASP618  TYR619  PRO620  LYS621  CYS622 
 ASP623  PHE694  ASN695  SER759  ASP760  ASP761  ALA762  ILE779  LEU786  VAL792 
 PHE793  MET794  SER795  GLU796  ALA797  LYS798  CYS799  TRP800  GLU811  SER814 

> <Gold.Protein.RotatedAtoms>
  150.7455  133.9796  159.3571 H   0  0  0  0  0  0  0  0  0  0  0  0  # atno 6907 bound_to 6896
  151.7736  135.0778  160.0373 H   0  0  0  0  0  0  0  0  0  0  0  0  # atno 6908 bound_to 6896
  152.3322  133.5934  159.5853 H   0  0  0  0  0  0  0  0  0  0  0  0  # atno 6909 bound_to 6896
  145.9861  140.7231  142.9339 H   0  0  0  0  0  0  0  0  0  0  0  0  # atno 7974 bound_to 7965
  156.2391  140.2935  156.0395 H   0  0  0  0  0  0  0  0  0  0  0  0  # atno 8008 bound_to 7997
  155.2003  140.0409  157.2933 H   0  0  0  0  0  0  0  0  0  0  0  0  # atno 8009 bound_to 7997
  154.6135  140.2458  155.7646 H   0  0  0  0  0  0  0  0  0  0  0  0  # atno 8010 bound_to 7997
  139.7507  144.6985  151.0437 H   0  0  0  0  0  0  0  0  0  0  0  0  # atno 10167 bound_to 10162
  156.7846  130.9496  151.3120 H   0  0  0  0  0  0  0  0  0  0  0  0  # atno 10718 bound_to 10713
  154.8332  135.4504  154.1139 H   0  0  0  0  0  0  0  0  0  0  0  0  # atno 10763 bound_to 10752
  153.2393  135.6914  153.7807 H   0  0  0  0  0  0  0  0  0  0  0  0  # atno 10764 bound_to 10752
  153.7160  135.3349  155.3232 H   0  0  0  0  0  0  0  0  0  0  0  0  # atno 10765 bound_to 10752
  140.8276  134.2556  157.4872 H   0  0  0  0  0  0  0  0  0  0  0  0  # atno 11005 bound_to 11000
  144.6875  140.2991  143.7266 LP  0  0  0  0  0  0  0  0  0  0  0  0  # atno 17320 bound_to 7965
  145.7698  139.1853  143.2219 LP  0  0  0  0  0  0  0  0  0  0  0  0  # atno 17321 bound_to 7965
  140.7797  143.4812  151.0015 LP  0  0  0  0  0  0  0  0  0  0  0  0  # atno 17342 bound_to 10162
  139.8500  143.7451  152.3178 LP  0  0  0  0  0  0  0  0  0  0  0  0  # atno 17343 bound_to 10162
  157.6630  130.8982  149.9870 LP  0  0  0  0  0  0  0  0  0  0  0  0  # atno 17370 bound_to 10713
  156.1196  130.3646  149.9909 LP  0  0  0  0  0  0  0  0  0  0  0  0  # atno 17371 bound_to 10713
  139.8706  134.9569  156.4252 LP  0  0  0  0  0  0  0  0  0  0  0  0  # atno 17394 bound_to 11000
  140.9032  133.7764  155.9705 LP  0  0  0  0  0  0  0  0  0  0  0  0  # atno 17395 bound_to 11000

$$$$
