AV-unprocessed.smi:2413|AV-procd|sdf|9537|dock4
  -GOLD-   2272013173D 1   1.00000     0.00000
 Structure written by MMmdl.
 46 47  0  0  0  0  0  0  0  0  2 V2000
  147.0980  142.3863  154.2751 C   0  0  0  0  0  0  0  0  0  0  0  0
  148.1960  141.3401  154.1125 C   0  0  0  0  0  0  0  0  0  0  0  0
  149.2755  141.6571  153.6144 O   0  0  0  0  0  0  0  0  0  0  0  0
  147.9123  140.1004  154.5396 N   0  0  0  0  0  0  0  0  0  0  0  0
  148.8234  138.9617  154.4814 C   0  0  0  0  0  0  0  0  0  0  0  0
  150.2859  139.3586  154.7560 C   0  0  1  0  0  0  0  0  0  0  0  0
  150.5298  139.8111  156.2118 C   0  0  0  0  0  0  0  0  0  0  0  0
  151.9471  140.0743  156.4220 N   0  0  0  0  0  0  0  0  0  0  0  0
  152.2339  140.6147  157.6812 C   0  0  0  0  0  0  0  0  0  0  0  0
  152.8885  139.8788  158.6873 C   0  0  0  0  0  0  0  0  0  0  0  0
  153.1189  140.5420  159.9058 C   0  0  0  0  0  0  0  0  0  0  0  0
  152.7199  141.8263  160.0741 N   0  3  0  0  0  0  0  0  0  0  0  0
  152.0994  142.4776  159.0738 C   0  0  0  0  0  0  0  0  0  0  0  0
  151.6567  143.9298  159.3092 C   0  0  0  0  0  0  0  0  0  0  0  0
  152.4012  144.9208  158.3821 C   0  0  0  0  0  0  0  0  0  0  0  0
  151.9684  144.3385  160.7631 C   0  0  0  0  0  0  0  0  0  0  0  0
  150.1488  144.0668  159.0196 C   0  0  0  0  0  0  0  0  0  0  0  0
  151.8510  141.8892  157.8928 N   0  0  0  0  0  0  0  0  0  0  0  0
  152.7882  138.9393  156.0664 C   0  0  0  0  0  0  0  0  0  0  0  0
  152.4932  138.5029  154.6221 C   0  0  0  0  0  0  0  0  0  0  0  0
  151.1031  138.2209  154.4864 O   0  0  0  0  0  0  0  0  0  0  0  0
  146.1578  141.9350  154.5949 H   0  0  0  0  0  0  0  0  0  0  0  0
  146.9241  142.8994  153.3292 H   0  0  0  0  0  0  0  0  0  0  0  0
  147.3926  143.1272  155.0186 H   0  0  0  0  0  0  0  0  0  0  0  0
  146.9958  139.9317  154.9287 H   0  0  0  0  0  0  0  0  0  0  0  0
  148.4945  138.2291  155.2190 H   0  0  0  0  0  0  0  0  0  0  0  0
  148.7422  138.4750  153.5081 H   0  0  0  0  0  0  0  0  0  0  0  0
  150.5696  140.1612  154.0727 H   0  0  0  0  0  0  0  0  0  0  0  0
  149.9591  140.7151  156.4287 H   0  0  0  0  0  0  0  0  0  0  0  0
  150.1898  139.0401  156.9048 H   0  0  0  0  0  0  0  0  0  0  0  0
  153.2013  138.8556  158.5374 H   0  0  0  0  0  0  0  0  0  0  0  0
  153.6108  140.0871  160.7532 H   0  0  0  0  0  0  0  0  0  0  0  0
  152.0794  145.9477  158.5603 H   0  0  0  0  0  0  0  0  0  0  0  0
  152.2152  144.7062  157.3288 H   0  0  0  0  0  0  0  0  0  0  0  0
  153.4799  144.8908  158.5421 H   0  0  0  0  0  0  0  0  0  0  0  0
  153.0331  144.2450  160.9807 H   0  0  0  0  0  0  0  0  0  0  0  0
  151.4306  143.7195  161.4819 H   0  0  0  0  0  0  0  0  0  0  0  0
  151.6842  145.3738  160.9546 H   0  0  0  0  0  0  0  0  0  0  0  0
  149.8096  145.0943  159.1577 H   0  0  0  0  0  0  0  0  0  0  0  0
  149.5516  143.4388  159.6815 H   0  0  0  0  0  0  0  0  0  0  0  0
  149.9152  143.7789  157.9939 H   0  0  0  0  0  0  0  0  0  0  0  0
  153.8397  139.2103  156.1692 H   0  0  0  0  0  0  0  0  0  0  0  0
  152.5994  138.1091  156.7481 H   0  0  0  0  0  0  0  0  0  0  0  0
  152.7899  139.2765  153.9118 H   0  0  0  0  0  0  0  0  0  0  0  0
  153.0636  137.6073  154.3757 H   0  0  0  0  0  0  0  0  0  0  0  0
  152.8947  142.2935  160.9643 H   0  0  0  0  0  0  0  0  0  0  0  0
  1  2  1  0  0  0  0
  1 22  1  0  0  0  0
  1 23  1  0  0  0  0
  1 24  1  0  0  0  0
  2  3  2  0  0  0  0
  2  4  1  0  0  0  0
  4  5  1  0  0  0  0
  4 25  1  0  0  0  0
  5  6  1  0  0  0  0
  5 26  1  0  0  0  0
  5 27  1  0  0  0  0
  6 21  1  0  0  0  0
  6  7  1  0  0  0  0
  6 28  1  0  0  0  0
  7  8  1  0  0  0  0
  7 29  1  0  0  0  0
  7 30  1  0  0  0  0
  8  9  1  0  0  0  0
  8 19  1  0  0  0  0
  9 18  1  0  0  0  0
  9 10  2  0  0  0  0
 10 11  1  0  0  0  0
 10 31  1  0  0  0  0
 11 12  2  0  0  0  0
 11 32  1  0  0  0  0
 12 13  1  0  0  0  0
 12 46  1  0  0  0  0
 13 14  1  0  0  0  0
 13 18  2  0  0  0  0
 14 15  1  0  0  0  0
 14 16  1  0  0  0  0
 14 17  1  0  0  0  0
 15 33  1  0  0  0  0
 15 34  1  0  0  0  0
 15 35  1  0  0  0  0
 16 36  1  0  0  0  0
 16 37  1  0  0  0  0
 16 38  1  0  0  0  0
 17 39  1  0  0  0  0
 17 40  1  0  0  0  0
 17 41  1  0  0  0  0
 19 20  1  0  0  0  0
 19 42  1  0  0  0  0
 19 43  1  0  0  0  0
 20 21  1  0  0  0  0
 20 44  1  0  0  0  0
 20 45  1  0  0  0  0
M  CHG  1  12   1
M  END
> <s_m_source_file>
AV-unprocessed.smi

> <i_m_source_file_index>
2413

> <i_lp_mmshare_version>
43012

> <i_f3d_flags>
0

> <s_epik_input>
W0NIM11DKD1PKVtOSF1bQ0gyXVtDQEBIXTFbQ0gyXU4oW0NIMl1bQ0gyXU8xKWMyW2NIXVtjSF1uYyhuMilDKFtDSDNdKShbQ0gzXSlbQ0gzXQ==

> <s_epik_cmdline>
J2VwaWtfcHl0aG9uJywgJy1waCcsICc3LjAnLCAnLXRuJywgJzgnLCAnLW1hJywgJzIwMCcsICctbWV0YWxfYmluZGluZycsICctaW1hZScsICc8aW5maWxlLm1hZT4nLCAnLW9tYWUnLCAnPG91dGZpbGUubWFlPic=

> <r_lp_tautomer_probability>
0.999336

> <r_epik_Ionization_Penalty>
2.26127

> <r_epik_Ionization_Penalty_Charging>
2.26127

> <r_epik_Ionization_Penalty_Neutral>
4.08984e-07

> <r_epik_State_Penalty>
2.40914

> <r_epik_Charging_Adjusted_Penalty>
4.67041

> <i_epik_Tot_Q>
1

> <i_epik_Tot_abs_Q>
1

> <r_epik_Metal_State_Penalty>
2.42208

> <b_epik_Metal_Only>
0

> <s_lp_Force_Field>
OPLS_2005

> <r_lp_Energy>
19.627

> <b_lp_Chiralities_Consistent>
1

> <s_lp_Variant>
AV-unprocessed.smi:2413-4

> <Gold.Version>
5.8.1

> <Gold.Id.Protein>
6NUR|6NUR_protein|mol2

> <Gold.PLP.Fitness>
40.4761

> <Gold.PLP.PLP>
-41.0047

> <Gold.PLP.part.hbond>
-1.8104

> <Gold.PLP.part.metal>
0.0000

> <Gold.PLP.part.buried>
-4.0195

> <Gold.PLP.part.nonpolar>
-35.5060

> <Gold.PLP.part.repulsive>
1.3370

> <Gold.PLP.ligand.clash>
1.3983

> <Gold.PLP.ligand.torsion>
0.6897

> <Gold.PLP.Chemscore.Hbond>
0.7040

> <Gold.PLP.Chemscore.CHOScore>
0.0000

> <Gold.PLP.Chemscore.Metal>
0.0000

> <Gold.Chemscore.Hbonds>
donor molecule, donor type, donor heavy atom, donor atom, acceptor molecule, acceptor atom, score
      P1  H  8011  8017       L1     3  0.72

> <Gold.PLP.Chemscore.Internal.Correction>
0.1372

> <Gold.Rescore>
     Score         DG    S(hbond)    S(metal)    S(lipo)     H(rot)  DE(clash)    DE(int)     intcor
     12.19     -14.65       0.66        0.00      98.41       1.77       0.67       1.79       ----

> <Gold.Chemscore.Fitness>
12.1912

> <Gold.Chemscore.DG>
-14.6542

> <Gold.Chemscore.ZeroCoef>
-5.4800

> <Gold.Chemscore.Hbond>
0.6576

> <Gold.Chemscore.Metal>
0.0000

> <Gold.Chemscore.Lipo>
98.4105

> <Gold.Chemscore.Internal_Hbond>
0.0000

> <Gold.Chemscore.DEClash>
0.6722

> <Gold.Chemscore.DEInternal>
1.7909

> <Gold.Chemscore.Rot>
1.7719

> <Gold.Chemscore.Internal.Correction>
   9.000000E+99

> <Gold.Chemscore.Hbonds>
donor molecule, donor type, donor heavy atom, donor atom, acceptor molecule, acceptor atom, score
      P1  H  8011  8017       L1     3  0.70

> <Gold.Chemscore.Hbond.Weighted>
-2.1963

> <Gold.Chemscore.Metal.Weighted>
-0.0000

> <Gold.Chemscore.Lipo.Weighted>
-11.5140

> <Gold.Chemscore.Internal_Hbond.Weighted>
0.0000

> <Gold.Chemscore.DEClash.Weighted>
0.6722

> <Gold.Chemscore.DEInternal.Weighted>
1.7909

> <Gold.Chemscore.Rot.Weighted>
4.5361

> <Gold.Chemscore.Internal.Correction.Weighted>
   9.000000E+99

> <Gold.Protein.RotatedTorsions>
[ 6907 6896 6895 6894 ] final  -83.28 input  -60.11 | X-H torsion
[ 7974 7965 7964 7962 ] final  129.41 input  175.53 | X-H torsion
[ 8008 7997 7996 7995 ] final  -62.43 input   59.86 | X-H torsion
[ 10167 10162 10161 10158 ] final   26.51 input  -65.29 | X-H torsion
[ 10718 10713 10712 10709 ] final  -59.07 input   66.30 | X-H torsion
[ 10763 10752 10751 10750 ] final  -52.46 input  -60.55 | X-H torsion
[ 11005 11000 10999 10996 ] final -108.53 input  -57.11 | X-H torsion

> <Gold.Protein.ActiveResidues>
 VAL166  LYS551  ARG553  GLY616  TRP617  ASP618  TYR619  PRO620  LYS621  CYS622 
 ASP623  PHE694  ASN695  SER759  ASP760  ASP761  ALA762  ILE779  LEU786  VAL792 
 PHE793  MET794  SER795  GLU796  ALA797  LYS798  CYS799  TRP800  GLU811  SER814 

> <Gold.Protein.RotatedAtoms>
  150.6887  134.3535  159.4919 H   0  0  0  0  0  0  0  0  0  0  0  0  # atno 6907 bound_to 6896
  152.1373  134.9086  160.0565 H   0  0  0  0  0  0  0  0  0  0  0  0  # atno 6908 bound_to 6896
  152.0233  133.3873  159.4304 H   0  0  0  0  0  0  0  0  0  0  0  0  # atno 6909 bound_to 6896
  145.0290  139.4063  143.5159 H   0  0  0  0  0  0  0  0  0  0  0  0  # atno 7974 bound_to 7965
  154.4499  140.0996  156.6585 H   0  0  0  0  0  0  0  0  0  0  0  0  # atno 8008 bound_to 7997
  155.5319  140.3481  155.4409 H   0  0  0  0  0  0  0  0  0  0  0  0  # atno 8009 bound_to 7997
  156.0658  140.1337  156.9876 H   0  0  0  0  0  0  0  0  0  0  0  0  # atno 8010 bound_to 7997
  140.5016  144.0305  150.6335 H   0  0  0  0  0  0  0  0  0  0  0  0  # atno 10167 bound_to 10162
  156.1088  130.4177  150.0664 H   0  0  0  0  0  0  0  0  0  0  0  0  # atno 10718 bound_to 10713
  154.1430  135.6502  153.4946 H   0  0  0  0  0  0  0  0  0  0  0  0  # atno 10763 bound_to 10752
  153.0160  135.5320  154.6885 H   0  0  0  0  0  0  0  0  0  0  0  0  # atno 10764 bound_to 10752
  154.6152  135.2958  155.0359 H   0  0  0  0  0  0  0  0  0  0  0  0  # atno 10765 bound_to 10752
  141.0897  133.9077  157.2105 H   0  0  0  0  0  0  0  0  0  0  0  0  # atno 11005 bound_to 11000
  146.3496  139.9829  142.8694 LP  0  0  0  0  0  0  0  0  0  0  0  0  # atno 17320 bound_to 7965
  145.1796  140.9760  143.4274 LP  0  0  0  0  0  0  0  0  0  0  0  0  # atno 17321 bound_to 7965
  140.3603  143.2912  152.0391 LP  0  0  0  0  0  0  0  0  0  0  0  0  # atno 17342 bound_to 10162
  139.4873  144.6308  151.7073 LP  0  0  0  0  0  0  0  0  0  0  0  0  # atno 17343 bound_to 10162
  156.8633  130.9499  151.3616 LP  0  0  0  0  0  0  0  0  0  0  0  0  # atno 17370 bound_to 10713
  157.6268  130.8697  149.9203 LP  0  0  0  0  0  0  0  0  0  0  0  0  # atno 17371 bound_to 10713
  139.9720  135.0125  156.9536 LP  0  0  0  0  0  0  0  0  0  0  0  0  # atno 17394 bound_to 11000
  140.5282  134.0840  155.7309 LP  0  0  0  0  0  0  0  0  0  0  0  0  # atno 17395 bound_to 11000

$$$$
