AV-unprocessed.smi:2689|AV-procd|sdf|10387|dock8
  -GOLD-   2272014423D 1   1.00000     0.00000
 Structure written by MMmdl.
 32 32  0  0  0  0  0  0  0  0  2 V2000
  149.7749  140.8972  155.1852 C   0  0  0  0  0  0  0  0  0  0  0  0
  150.8141  140.3294  156.1588 C   0  0  0  0  0  0  0  0  0  0  0  0
  151.0854  138.8715  155.9052 C   0  0  0  0  0  0  0  0  0  0  0  0
  152.2092  138.5173  155.3037 N   0  0  0  0  0  0  0  0  0  0  0  0
  152.1840  137.1217  155.2347 O   0  0  0  0  0  0  0  0  0  0  0  0
  151.0326  136.6833  155.8043 C   0  0  0  0  0  0  0  0  0  0  0  0
  150.8290  135.2039  155.8399 C   0  0  0  0  0  0  0  0  0  0  0  0
  149.6337  134.7400  155.0017 C   0  0  0  0  0  0  0  0  0  0  0  0
  150.2841  137.7420  156.2429 C   0  0  0  0  0  0  0  0  0  0  0  0
  148.9437  137.7253  156.9339 C   0  0  0  0  0  0  0  0  0  0  0  0
  149.0379  136.8897  158.2097 C   0  0  0  0  0  0  0  0  0  0  0  0
  150.1364  136.5229  158.6260 O   0  0  0  0  0  0  0  0  0  0  0  0
  147.8738  136.5921  158.8056 N   0  0  0  0  0  0  0  0  0  0  0  0
  147.6962  135.7249  159.9630 C   0  0  0  0  0  0  0  0  0  0  0  0
  147.4565  136.5778  161.2073 C   0  0  0  0  0  0  0  0  0  0  0  0
  146.4352  137.2987  161.2208 O   0  0  0  0  0  0  0  0  0  0  0  0
  148.3054  136.4989  162.1229 O   0  5  0  0  0  0  0  0  0  0  0  0
  149.5981  141.9553  155.3791 H   0  0  0  0  0  0  0  0  0  0  0  0
  148.8210  140.3775  155.2784 H   0  0  0  0  0  0  0  0  0  0  0  0
  150.1092  140.7994  154.1521 H   0  0  0  0  0  0  0  0  0  0  0  0
  151.7359  140.9045  156.0754 H   0  0  0  0  0  0  0  0  0  0  0  0
  150.4657  140.4715  157.1824 H   0  0  0  0  0  0  0  0  0  0  0  0
  151.7344  134.7096  155.4860 H   0  0  0  0  0  0  0  0  0  0  0  0
  150.6927  134.8761  156.8703 H   0  0  0  0  0  0  0  0  0  0  0  0
  149.5177  133.6574  155.0575 H   0  0  0  0  0  0  0  0  0  0  0  0
  149.7605  135.0078  153.9523 H   0  0  0  0  0  0  0  0  0  0  0  0
  148.7074  135.1938  155.3549 H   0  0  0  0  0  0  0  0  0  0  0  0
  148.6107  138.7313  157.1898 H   0  0  0  0  0  0  0  0  0  0  0  0
  148.1680  137.3103  156.2893 H   0  0  0  0  0  0  0  0  0  0  0  0
  147.0263  136.9366  158.3788 H   0  0  0  0  0  0  0  0  0  0  0  0
  146.8716  135.0226  159.8296 H   0  0  0  0  0  0  0  0  0  0  0  0
  148.6000  135.1317  160.1034 H   0  0  0  0  0  0  0  0  0  0  0  0
  1  2  1  0  0  0  0
  1 18  1  0  0  0  0
  1 19  1  0  0  0  0
  1 20  1  0  0  0  0
  2  3  1  0  0  0  0
  2 21  1  0  0  0  0
  2 22  1  0  0  0  0
  3  9  1  0  0  0  0
  3  4  2  0  0  0  0
  4  5  1  0  0  0  0
  5  6  1  0  0  0  0
  6  7  1  0  0  0  0
  6  9  2  0  0  0  0
  7  8  1  0  0  0  0
  7 23  1  0  0  0  0
  7 24  1  0  0  0  0
  8 25  1  0  0  0  0
  8 26  1  0  0  0  0
  8 27  1  0  0  0  0
  9 10  1  0  0  0  0
 10 11  1  0  0  0  0
 10 28  1  0  0  0  0
 10 29  1  0  0  0  0
 11 12  2  0  0  0  0
 11 13  1  0  0  0  0
 13 14  1  0  0  0  0
 13 30  1  0  0  0  0
 14 15  1  0  0  0  0
 14 31  1  0  0  0  0
 14 32  1  0  0  0  0
 15 16  2  0  0  0  0
 15 17  1  0  0  0  0
M  CHG  1  17  -1
M  END
> <s_m_source_file>
AV-unprocessed.smi

> <i_m_source_file_index>
2689

> <i_lp_mmshare_version>
43012

> <i_f3d_flags>
0

> <s_epik_input>
W0NIM11bQ0gyXWMxbm9jKFtDSDJdW0NIM10pYzFbQ0gyXUMoPU8pW05IXVtDSDJdQyg9TylbT0hd

> <s_epik_cmdline>
J2VwaWtfcHl0aG9uJywgJy1waCcsICc3LjAnLCAnLXRuJywgJzgnLCAnLW1hJywgJzIwMCcsICctbWV0YWxfYmluZGluZycsICctaW1hZScsICc8aW5maWxlLm1hZT4nLCAnLW9tYWUnLCAnPG91dGZpbGUubWFlPic=

> <r_lp_tautomer_probability>
1

> <r_epik_Ionization_Penalty>
0.000217839

> <r_epik_Ionization_Penalty_Charging>
0.000217819

> <r_epik_Ionization_Penalty_Neutral>
1.99806e-08

> <r_epik_State_Penalty>
-0

> <r_epik_Charging_Adjusted_Penalty>
0.000217819

> <i_epik_Tot_Q>
-1

> <i_epik_Tot_abs_Q>
1

> <r_epik_Metal_State_Penalty>
-0

> <b_epik_Metal_Only>
0

> <s_lp_Force_Field>
OPLS_2005

> <r_lp_Energy>
-12.6879

> <b_lp_Chiralities_Consistent>
1

> <s_lp_Variant>
AV-unprocessed.smi:2689-1

> <Gold.Version>
5.8.1

> <Gold.Id.Protein>
6NUR|6NUR_protein|mol2

> <Gold.PLP.Fitness>
38.2795

> <Gold.PLP.PLP>
-21.7395

> <Gold.PLP.part.hbond>
-4.0000

> <Gold.PLP.part.metal>
0.0000

> <Gold.PLP.part.buried>
-4.3645

> <Gold.PLP.part.nonpolar>
-14.3655

> <Gold.PLP.part.repulsive>
0.1608

> <Gold.PLP.ligand.clash>
0.0000

> <Gold.PLP.ligand.torsion>
0.4532

> <Gold.PLP.Chemscore.Hbond>
5.8000

> <Gold.PLP.Chemscore.CHOScore>
0.0000

> <Gold.PLP.Chemscore.Metal>
0.0000

> <Gold.Chemscore.Hbonds>
donor molecule, donor type, donor heavy atom, donor atom, acceptor molecule, acceptor atom, score
      P1  H  6896  6907       L1    12  0.88
      P1  H  6931  6943       L1    17  1.80
      P1  H  6934  6947       L1    16  2.00
      P1  H 10752 10764       L1     5  0.83

> <Gold.PLP.Chemscore.Internal.Correction>
0.0464

> <Gold.Rescore>
     Score         DG    S(hbond)    S(metal)    S(lipo)     H(rot)  DE(clash)    DE(int)     intcor
     10.87     -12.62       2.80        0.00      40.25       2.71       0.02       1.74       ----

> <Gold.Chemscore.Fitness>
10.8708

> <Gold.Chemscore.DG>
-12.6245

> <Gold.Chemscore.ZeroCoef>
-5.4800

> <Gold.Chemscore.Hbond>
2.8025

> <Gold.Chemscore.Metal>
0.0000

> <Gold.Chemscore.Lipo>
40.2514

> <Gold.Chemscore.Internal_Hbond>
0.0000

> <Gold.Chemscore.DEClash>
0.0155

> <Gold.Chemscore.DEInternal>
1.7382

> <Gold.Chemscore.Rot>
2.7051

> <Gold.Chemscore.Internal.Correction>
   9.000000E+99

> <Gold.Chemscore.Hbonds>
donor molecule, donor type, donor heavy atom, donor atom, acceptor molecule, acceptor atom, score
      P1  H  6896  6907       L1    12  0.85
      P1  H  6931  6943       L1    17  0.18
      P1  H  6934  6947       L1    16  0.35
      P1  H 10752 10764       L1     5  0.33

> <Gold.Chemscore.Hbond.Weighted>
-9.3602

> <Gold.Chemscore.Metal.Weighted>
-0.0000

> <Gold.Chemscore.Lipo.Weighted>
-4.7094

> <Gold.Chemscore.Internal_Hbond.Weighted>
0.0000

> <Gold.Chemscore.DEClash.Weighted>
0.0155

> <Gold.Chemscore.DEInternal.Weighted>
1.7382

> <Gold.Chemscore.Rot.Weighted>
6.9251

> <Gold.Chemscore.Internal.Correction.Weighted>
   9.000000E+99

> <Gold.Protein.RotatedTorsions>
[ 6907 6896 6895 6894 ] final  -42.37 input  -60.11 | X-H torsion
[ 7974 7965 7964 7962 ] final -165.62 input  175.53 | X-H torsion
[ 8008 7997 7996 7995 ] final   94.08 input   59.86 | X-H torsion
[ 10167 10162 10161 10158 ] final -133.37 input  -65.29 | X-H torsion
[ 10718 10713 10712 10709 ] final  -94.80 input   66.30 | X-H torsion
[ 10763 10752 10751 10750 ] final  -48.09 input  -60.55 | X-H torsion
[ 11005 11000 10999 10996 ] final  177.65 input  -57.11 | X-H torsion

> <Gold.Protein.ActiveResidues>
 VAL166  LYS551  ARG553  GLY616  TRP617  ASP618  TYR619  PRO620  LYS621  CYS622 
 ASP623  PHE694  ASN695  SER759  ASP760  ASP761  ALA762  ILE779  LEU786  VAL792 
 PHE793  MET794  SER795  GLU796  ALA797  LYS798  CYS799  TRP800  GLU811  SER814 

> <Gold.Protein.RotatedAtoms>
  150.9561  134.8955  159.7701 H   0  0  0  0  0  0  0  0  0  0  0  0  # atno 6907 bound_to 6896
  152.5138  134.3739  159.9337 H   0  0  0  0  0  0  0  0  0  0  0  0  # atno 6908 bound_to 6896
  151.3752  133.3800  159.2739 H   0  0  0  0  0  0  0  0  0  0  0  0  # atno 6909 bound_to 6896
  144.7265  140.2787  143.6239 H   0  0  0  0  0  0  0  0  0  0  0  0  # atno 7974 bound_to 7965
  156.0540  140.3304  155.7383 H   0  0  0  0  0  0  0  0  0  0  0  0  # atno 8008 bound_to 7997
  155.5558  140.0614  157.2857 H   0  0  0  0  0  0  0  0  0  0  0  0  # atno 8009 bound_to 7997
  154.4449  140.1886  156.0720 H   0  0  0  0  0  0  0  0  0  0  0  0  # atno 8010 bound_to 7997
  139.8990  143.6631  152.2598 H   0  0  0  0  0  0  0  0  0  0  0  0  # atno 10167 bound_to 10162
  156.0033  130.5083  150.5981 H   0  0  0  0  0  0  0  0  0  0  0  0  # atno 10718 bound_to 10713
  154.0721  135.6603  153.4826 H   0  0  0  0  0  0  0  0  0  0  0  0  # atno 10763 bound_to 10752
  153.0387  135.5160  154.7556 H   0  0  0  0  0  0  0  0  0  0  0  0  # atno 10764 bound_to 10752
  154.6625  135.3017  154.9815 H   0  0  0  0  0  0  0  0  0  0  0  0  # atno 10765 bound_to 10752
  140.3864  134.6901  157.4481 H   0  0  0  0  0  0  0  0  0  0  0  0  # atno 11005 bound_to 11000
  145.7971  139.1949  143.2069 LP  0  0  0  0  0  0  0  0  0  0  0  0  # atno 17320 bound_to 7965
  146.0707  140.7871  142.9689 LP  0  0  0  0  0  0  0  0  0  0  0  0  # atno 17321 bound_to 7965
  139.7042  144.7630  151.1221 LP  0  0  0  0  0  0  0  0  0  0  0  0  # atno 17342 bound_to 10162
  140.7711  143.5416  150.9306 LP  0  0  0  0  0  0  0  0  0  0  0  0  # atno 17343 bound_to 10162
  157.3835  131.0784  151.1456 LP  0  0  0  0  0  0  0  0  0  0  0  0  # atno 17370 bound_to 10713
  157.2171  130.6464  149.5796 LP  0  0  0  0  0  0  0  0  0  0  0  0  # atno 17371 bound_to 10713
  140.0439  134.6227  155.8945 LP  0  0  0  0  0  0  0  0  0  0  0  0  # atno 17394 bound_to 11000
  141.1906  133.6569  156.5419 LP  0  0  0  0  0  0  0  0  0  0  0  0  # atno 17395 bound_to 11000

$$$$
