AV-unprocessed.smi:2925|AV-procd|sdf|11223|dock10
  -GOLD-   2272016113D 1   1.00000     0.00000
 Structure written by MMmdl.
 44 45  0  0  0  0  0  0  0  0  1 V2000
  152.4853  143.7765  161.9567 C   0  0  0  0  0  0  0  0  0  0  0  0
  152.5758  143.5196  160.4452 C   0  0  0  0  0  0  0  0  0  0  0  0
  152.6950  142.0271  160.0757 C   0  0  1  0  0  0  0  0  0  0  0  0
  152.5147  141.8644  158.6327 N   0  0  0  0  0  0  0  0  0  0  0  0
  151.6942  140.9860  158.0392 C   0  0  0  0  0  0  0  0  0  0  0  0
  150.9765  140.1931  158.6504 O   0  0  0  0  0  0  0  0  0  0  0  0
  151.7466  141.0953  156.7002 N   0  0  0  0  0  0  0  0  0  0  0  0
  151.0028  140.3378  155.7824 C   0  0  0  0  0  0  0  0  0  0  0  0
  151.4720  139.1223  155.3967 C   0  0  0  0  0  0  0  0  0  0  0  0
  152.7985  138.5784  155.9032 C   0  0  0  0  0  0  0  0  0  0  0  0
  150.6983  138.3349  154.4589 C   0  0  0  0  0  0  0  0  0  0  0  0
  149.5348  138.8139  153.9987 C   0  0  0  0  0  0  0  0  0  0  0  0
  149.0338  140.0563  154.4133 N   0  0  0  0  0  0  0  0  0  0  0  0
  147.7434  140.4843  153.8669 C   0  0  0  0  0  0  0  0  0  0  0  0
  149.6883  140.8420  155.3160 C   0  0  0  0  0  0  0  0  0  0  0  0
  149.1872  141.8948  155.7178 O   0  0  0  0  0  0  0  0  0  0  0  0
  154.0510  141.4322  160.5126 C   0  0  2  0  0  0  0  0  0  0  0  0
  154.1767  139.9155  160.3469 C   0  0  0  0  0  0  0  0  0  0  0  0
  155.2593  139.5859  161.3476 C   0  0  0  0  0  0  0  0  0  0  0  0
  154.9183  140.5304  162.4957 C   0  0  0  0  0  0  0  0  0  0  0  0
  154.2734  141.6557  161.9036 O   0  0  0  0  0  0  0  0  0  0  0  0
  152.4600  144.8462  162.1656 H   0  0  0  0  0  0  0  0  0  0  0  0
  153.3458  143.3565  162.4782 H   0  0  0  0  0  0  0  0  0  0  0  0
  151.5850  143.3369  162.3870 H   0  0  0  0  0  0  0  0  0  0  0  0
  151.7054  143.9549  159.9524 H   0  0  0  0  0  0  0  0  0  0  0  0
  153.4417  144.0575  160.0578 H   0  0  0  0  0  0  0  0  0  0  0  0
  151.9066  141.4928  160.6093 H   0  0  0  0  0  0  0  0  0  0  0  0
  153.0606  142.4734  158.0408 H   0  0  0  0  0  0  0  0  0  0  0  0
  152.2781  141.8611  156.3136 H   0  0  0  0  0  0  0  0  0  0  0  0
  153.0176  137.6032  155.4675 H   0  0  0  0  0  0  0  0  0  0  0  0
  152.7765  138.4644  156.9872 H   0  0  0  0  0  0  0  0  0  0  0  0
  153.6140  139.2536  155.6419 H   0  0  0  0  0  0  0  0  0  0  0  0
  151.0551  137.3721  154.1235 H   0  0  0  0  0  0  0  0  0  0  0  0
  148.9161  138.2742  153.2965 H   0  0  0  0  0  0  0  0  0  0  0  0
  147.8219  141.4779  153.4231 H   0  0  0  0  0  0  0  0  0  0  0  0
  146.9902  140.5223  154.6551 H   0  0  0  0  0  0  0  0  0  0  0  0
  147.3723  139.8147  153.0903 H   0  0  0  0  0  0  0  0  0  0  0  0
  154.8643  141.9139  159.9671 H   0  0  0  0  0  0  0  0  0  0  0  0
  153.2471  139.4185  160.6283 H   0  0  0  0  0  0  0  0  0  0  0  0
  154.4306  139.6162  159.3296 H   0  0  0  0  0  0  0  0  0  0  0  0
  155.2663  138.5369  161.6450 H   0  0  0  0  0  0  0  0  0  0  0  0
  156.2382  139.8324  160.9344 H   0  0  0  0  0  0  0  0  0  0  0  0
  154.2193  140.0561  163.1854 H   0  0  0  0  0  0  0  0  0  0  0  0
  155.8012  140.8296  163.0611 H   0  0  0  0  0  0  0  0  0  0  0  0
  1  2  1  0  0  0  0
  1 22  1  0  0  0  0
  1 23  1  0  0  0  0
  1 24  1  0  0  0  0
  2  3  1  0  0  0  0
  2 25  1  0  0  0  0
  2 26  1  0  0  0  0
  3  4  1  0  0  0  0
  3 17  1  0  0  0  0
  3 27  1  0  0  0  0
  4  5  1  0  0  0  0
  4 28  1  0  0  0  0
  5  6  2  0  0  0  0
  5  7  1  0  0  0  0
  7  8  1  0  0  0  0
  7 29  1  0  0  0  0
  8 15  1  0  0  0  0
  8  9  2  0  0  0  0
  9 10  1  0  0  0  0
  9 11  1  0  0  0  0
 10 30  1  0  0  0  0
 10 31  1  0  0  0  0
 10 32  1  0  0  0  0
 11 12  2  0  0  0  0
 11 33  1  0  0  0  0
 12 13  1  0  0  0  0
 12 34  1  0  0  0  0
 13 14  1  0  0  0  0
 13 15  1  0  0  0  0
 14 35  1  0  0  0  0
 14 36  1  0  0  0  0
 14 37  1  0  0  0  0
 15 16  2  0  0  0  0
 17 21  1  0  0  0  0
 17 18  1  0  0  0  0
 17 38  1  0  0  0  0
 18 19  1  0  0  0  0
 18 39  1  0  0  0  0
 18 40  1  0  0  0  0
 19 20  1  0  0  0  0
 19 41  1  0  0  0  0
 19 42  1  0  0  0  0
 20 21  1  0  0  0  0
 20 43  1  0  0  0  0
 20 44  1  0  0  0  0
M  END
> <s_m_source_file>
AV-unprocessed.smi

> <i_m_source_file_index>
2925

> <i_lp_mmshare_version>
43012

> <i_f3d_flags>
0

> <s_epik_input>
TzFbQ0gyXVtDSDJdW0NIMl1bQ0BIXTFbQ0BIXShbQ0gyXVtDSDNdKVtOSF1DKD1PKVtOSF1jMmMoW0NIM10pW2NIXVtjSF1uKFtDSDNdKWMyPU8=

> <s_epik_cmdline>
J2VwaWtfcHl0aG9uJywgJy1waCcsICc3LjAnLCAnLXRuJywgJzgnLCAnLW1hJywgJzIwMCcsICctbWV0YWxfYmluZGluZycsICctaW1hZScsICc8aW5maWxlLm1hZT4nLCAnLW9tYWUnLCAnPG91dGZpbGUubWFlPic=

> <r_lp_tautomer_probability>
1

> <r_epik_Ionization_Penalty>
2.58789e-05

> <r_epik_Ionization_Penalty_Charging>
6.72534e-06

> <r_epik_Ionization_Penalty_Neutral>
1.91535e-05

> <r_epik_State_Penalty>
-0

> <r_epik_Charging_Adjusted_Penalty>
6.72534e-06

> <i_epik_Tot_Q>
0

> <i_epik_Tot_abs_Q>
0

> <r_epik_Metal_State_Penalty>
-0

> <b_epik_Metal_Only>
0

> <s_lp_Force_Field>
OPLS_2005

> <r_lp_Energy>
34.616

> <b_lp_Chiralities_Consistent>
1

> <s_lp_Variant>
AV-unprocessed.smi:2925-2

> <Gold.Version>
5.8.1

> <Gold.Id.Protein>
6NUR|6NUR_protein|mol2

> <Gold.PLP.Fitness>
43.5989

> <Gold.PLP.PLP>
-41.7269

> <Gold.PLP.part.hbond>
-1.0000

> <Gold.PLP.part.metal>
0.0000

> <Gold.PLP.part.buried>
-0.3649

> <Gold.PLP.part.nonpolar>
-40.8179

> <Gold.PLP.part.repulsive>
2.2282

> <Gold.PLP.ligand.clash>
0.0000

> <Gold.PLP.ligand.torsion>
0.9641

> <Gold.PLP.Chemscore.Hbond>
0.0000

> <Gold.PLP.Chemscore.CHOScore>
1.0741

> <Gold.PLP.Chemscore.Metal>
0.0000

> <Gold.Chemscore.Hbonds>
donor molecule, donor type, donor heavy atom, donor atom, acceptor molecule, acceptor atom, score
      L1  C    12    34       P1  7948  1.00
      L1  C    12    34       P1  7957  0.06

> <Gold.PLP.Chemscore.Internal.Correction>
0.5779

> <Gold.Rescore>
     Score         DG    S(hbond)    S(metal)    S(lipo)     H(rot)  DE(clash)    DE(int)     intcor
     12.04     -14.18       0.00        0.00     104.08       1.36       0.08       2.06       ----

> <Gold.Chemscore.Fitness>
12.0408

> <Gold.Chemscore.DG>
-14.1811

> <Gold.Chemscore.ZeroCoef>
-5.4800

> <Gold.Chemscore.Hbond>
0.0000

> <Gold.Chemscore.Metal>
0.0000

> <Gold.Chemscore.Lipo>
104.0807

> <Gold.Chemscore.Internal_Hbond>
0.0000

> <Gold.Chemscore.DEClash>
0.0766

> <Gold.Chemscore.DEInternal>
2.0638

> <Gold.Chemscore.Rot>
1.3579

> <Gold.Chemscore.Internal.Correction>
   9.000000E+99

> <Gold.Chemscore.Hbond.Weighted>
-0.0000

> <Gold.Chemscore.Metal.Weighted>
-0.0000

> <Gold.Chemscore.Lipo.Weighted>
-12.1774

> <Gold.Chemscore.Internal_Hbond.Weighted>
0.0000

> <Gold.Chemscore.DEClash.Weighted>
0.0766

> <Gold.Chemscore.DEInternal.Weighted>
2.0638

> <Gold.Chemscore.Rot.Weighted>
3.4763

> <Gold.Chemscore.Internal.Correction.Weighted>
   9.000000E+99

> <Gold.Protein.RotatedTorsions>
[ 6907 6896 6895 6894 ] final  -53.87 input  -60.11 | X-H torsion
[ 7974 7965 7964 7962 ] final -122.17 input  175.53 | X-H torsion
[ 8008 7997 7996 7995 ] final  174.19 input   59.86 | X-H torsion
[ 10167 10162 10161 10158 ] final -145.72 input  -65.29 | X-H torsion
[ 10718 10713 10712 10709 ] final  -11.16 input   66.30 | X-H torsion
[ 10763 10752 10751 10750 ] final  150.54 input  -60.55 | X-H torsion
[ 11005 11000 10999 10996 ] final -162.87 input  -57.11 | X-H torsion

> <Gold.Protein.ActiveResidues>
 VAL166  LYS551  ARG553  GLY616  TRP617  ASP618  TYR619  PRO620  LYS621  CYS622 
 ASP623  PHE694  ASN695  SER759  ASP760  ASP761  ALA762  ILE779  LEU786  VAL792 
 PHE793  MET794  SER795  GLU796  ALA797  LYS798  CYS799  TRP800  GLU811  SER814 

> <Gold.Protein.RotatedAtoms>
  150.8388  134.7672  159.6915 H   0  0  0  0  0  0  0  0  0  0  0  0  # atno 6907 bound_to 6896
  152.4480  134.5451  159.9860 H   0  0  0  0  0  0  0  0  0  0  0  0  # atno 6908 bound_to 6896
  151.5595  133.3367  159.3004 H   0  0  0  0  0  0  0  0  0  0  0  0  # atno 6909 bound_to 6896
  145.0324  140.8078  143.4315 H   0  0  0  0  0  0  0  0  0  0  0  0  # atno 7974 bound_to 7965
  156.0999  140.1441  156.9481 H   0  0  0  0  0  0  0  0  0  0  0  0  # atno 8008 bound_to 7997
  154.4696  140.0914  156.7155 H   0  0  0  0  0  0  0  0  0  0  0  0  # atno 8009 bound_to 7997
  155.4777  140.3444  155.4337 H   0  0  0  0  0  0  0  0  0  0  0  0  # atno 8010 bound_to 7997
  139.7779  143.8143  152.2634 H   0  0  0  0  0  0  0  0  0  0  0  0  # atno 10167 bound_to 10162
  156.6631  130.4987  149.6024 H   0  0  0  0  0  0  0  0  0  0  0  0  # atno 10718 bound_to 10713
  154.0892  135.2853  155.3275 H   0  0  0  0  0  0  0  0  0  0  0  0  # atno 10763 bound_to 10752
  154.6631  135.5327  153.8047 H   0  0  0  0  0  0  0  0  0  0  0  0  # atno 10764 bound_to 10752
  153.0420  135.6539  154.1062 H   0  0  0  0  0  0  0  0  0  0  0  0  # atno 10765 bound_to 10752
  140.6045  134.4913  157.5209 H   0  0  0  0  0  0  0  0  0  0  0  0  # atno 11005 bound_to 11000
  145.1753  139.2381  143.5320 LP  0  0  0  0  0  0  0  0  0  0  0  0  # atno 17320 bound_to 7965
  146.3500  140.1514  142.8592 LP  0  0  0  0  0  0  0  0  0  0  0  0  # atno 17321 bound_to 7965
  139.8197  144.7301  150.9589 LP  0  0  0  0  0  0  0  0  0  0  0  0  # atno 17342 bound_to 10162
  140.7817  143.4171  151.0900 LP  0  0  0  0  0  0  0  0  0  0  0  0  # atno 17343 bound_to 10162
  156.1996  130.6611  151.1152 LP  0  0  0  0  0  0  0  0  0  0  0  0  # atno 17370 bound_to 10713
  157.7103  131.0737  150.6525 LP  0  0  0  0  0  0  0  0  0  0  0  0  # atno 17371 bound_to 10713
  139.9218  134.8133  156.1188 LP  0  0  0  0  0  0  0  0  0  0  0  0  # atno 17394 bound_to 11000
  141.0850  133.6738  156.2417 LP  0  0  0  0  0  0  0  0  0  0  0  0  # atno 17395 bound_to 11000

$$$$
