#       Name:                AV-unprocessed.smi:2040
#       Creating user name   scv26
#       Creation time:       Fri Mar 27 10:55:35 2020


#       File generated by GOLD software.
#

@<TRIPOS>MOLECULE
AV-unprocessed.smi:2040
    43    44     1
SMALL
NO_CHARGES


@<TRIPOS>ATOM
      1 ****        -6.1062  -0.2785  -1.4528 C.3            1 S1                 0.0000
      2 ****        -4.7486   0.3172  -1.2231 C.2            1 S1                 0.0000
      3 ****        -3.5223  -0.3645  -0.9721 C.2            1 S1                 0.0000
      4 ****        -2.6275   0.6626  -0.8439 C.2            1 S1                 0.0000
      5 ****        -1.2933   0.6071  -0.5883 N.am           1 S1                 0.0000
      6 ****        -0.4997  -0.4748  -0.5032 C.2            1 S1                 0.0000
      7 ****        -0.8633  -1.6410  -0.6567 O.2            1 S1                 0.0000
      8 ****         0.7663  -0.1252  -0.2329 N.am           1 S1                 0.0000
      9 ****         1.8825  -1.0526  -0.0653 C.3            1 S1                 0.0000
     10 ****         2.4760  -1.4009  -1.4416 C.3            1 S1                 0.0000
     11 ****         2.9262  -0.4216   0.8760 C.3            1 S1                 0.0000
     12 ****         4.1090  -1.3302   1.2240 C.3            1 S1                 0.0000
     13 ****         4.5354  -0.8719   2.6116 C.3            1 S1                 0.0000
     14 ****         3.4350   0.1004   3.0400 C.3            1 S1                 0.0000
     15 ****         2.3599  -0.1642   2.1524 O.3            1 S1                 0.0000
     16 ****        -3.2947   1.8566  -1.0048 N.pl3          1 S1                 0.0000
     17 ****        -2.7821   3.2119  -0.9542 C.3            1 S1                 0.0000
     18 ****        -4.6062   1.6378  -1.2422 N.2            1 S1                 0.0000
     19 ****        -6.0891  -1.3605  -1.3208 H              1 S1                 0.0000
     20 ****        -6.4584  -0.0734  -2.4640 H              1 S1                 0.0000
     21 ****        -6.8380   0.1284  -0.7544 H              1 S1                 0.0000
     22 ****        -3.3512  -1.4279  -0.9002 H              1 S1                 0.0000
     23 ****        -0.8422   1.5006  -0.4589 H              1 S1                 0.0000
     24 ****         0.9741   0.8558  -0.1176 H              1 S1                 0.0000
     25 ****         1.5160  -1.9701   0.3992 H              1 S1                 0.0000
     26 ****         3.2885  -2.1221  -1.3532 H              1 S1                 0.0000
     27 ****         2.8708  -0.5143  -1.9389 H              1 S1                 0.0000
     28 ****         1.7241  -1.8423  -2.0966 H              1 S1                 0.0000
     29 ****         3.2940   0.5195   0.4613 H              1 S1                 0.0000
     30 ****         3.7897  -2.3724   1.2690 H              1 S1                 0.0000
     31 ****         4.9144  -1.2597   0.4923 H              1 S1                 0.0000
     32 ****         4.5945  -1.7234   3.2906 H              1 S1                 0.0000
     33 ****         5.5099  -0.3825   2.6013 H              1 S1                 0.0000
     34 ****         3.1361  -0.0332   4.0798 H              1 S1                 0.0000
     35 ****         3.7618   1.1331   2.9088 H              1 S1                 0.0000
     36 ****        -2.0295   3.3480  -1.7311 H              1 S1                 0.0000
     37 ****        -2.3274   3.3952   0.0195 H              1 S1                 0.0000
     38 ****        -3.5857   3.9329  -1.1099 H              1 S1                 0.0000
     39 ****        -1.8206  -1.8432  -0.8632 LP             1 S1                 0.0000
     40 ****        -0.2013  -2.3860  -0.5748 LP             1 S1                 0.0000
     41 ****         1.8444  -0.9616   2.4661 LP             1 S1                 0.0000
     42 ****         1.7517   0.6281   2.1044 LP             1 S1                 0.0000
     43 ****        -5.3175   2.3230  -1.3988 LP             1 S1                 0.0000
@<TRIPOS>BOND
    1    1    2 1     
    2    1   19 1     
    3    1   20 1     
    4    1   21 1     
    5    2   18 2     
    6    2    3 1     
    7    3    4 2     
    8    3   22 1     
    9    4    5 1     
   10    4   16 1     
   11    5    6 am    
   12    5   23 1     
   13    6    7 2     
   14    6    8 am    
   15    8    9 1     
   16    8   24 1     
   17    9   10 1     
   18    9   11 1     
   19    9   25 1     
   20   10   26 1     
   21   10   27 1     
   22   10   28 1     
   23   11   15 1     
   24   11   12 1     
   25   11   29 1     
   26   12   13 1     
   27   12   30 1     
   28   12   31 1     
   29   13   14 1     
   30   13   32 1     
   31   13   33 1     
   32   14   15 1     
   33   14   34 1     
   34   14   35 1     
   35   16   17 1     
   36   16   18 1     
   37   17   36 1     
   38   17   37 1     
   39   17   38 1     
   40    7   39 1     
   41    7   40 1     
   42   15   41 1     
   43   15   42 1     
   44   18   43 1     
@<TRIPOS>SUBSTRUCTURE
      1 S1             1
@<TRIPOS>SET
LONE_PAIRS      STATIC     ATOMS    <user>   **** ""
5 39 40 41 42 43
DONOR_HYDROGENS      STATIC     ATOMS    <user>   **** ""
2 23 24
ATOM$BLUE        STATIC     ATOMS    COLORGROUP SYSTEM
5 39 40 41 42 43
ATOM$RED        STATIC     ATOMS    COLORGROUP SYSTEM
2 23 24
