AV-unprocessed.smi:2754|AV-procd|sdf|10616|dock2
  -GOLD-   2272015 63D 1   1.00000     0.00000
 Structure written by MMmdl.
 28 29  0  0  0  0  0  0  0  0  2 V2000
  153.2081  138.3995  154.4519 N   0  0  0  0  0  0  0  0  0  0  0  0
  152.5020  139.1274  155.3773 C   0  0  0  0  0  0  0  0  0  0  0  0
  152.9401  139.0786  156.6367 N   0  0  0  0  0  0  0  0  0  0  0  0
  152.2489  139.7952  157.5494 C   0  0  0  0  0  0  0  0  0  0  0  0
  151.1174  140.5574  157.1931 C   0  0  0  0  0  0  0  0  0  0  0  0
  150.7483  140.5299  155.8305 C   0  0  0  0  0  0  0  0  0  0  0  0
  149.5437  141.3084  155.3208 C   0  0  1  0  0  0  0  0  0  0  0  0
  148.9098  140.6544  154.0773 C   0  0  0  0  0  0  0  0  0  0  0  0
  147.6954  141.4670  153.6022 C   0  0  0  0  0  0  0  0  0  0  0  0
  146.6875  141.6693  154.7459 C   0  0  0  0  0  0  0  0  0  0  0  0
  147.3388  142.3097  155.9095 N   0  3  0  0  0  0  0  0  0  0  0  0
  148.4908  141.5377  156.4257 C   0  0  0  0  0  0  0  0  0  0  0  0
  151.4479  139.8092  154.9232 N   0  0  0  0  0  0  0  0  0  0  0  0
  152.9236  138.3970  153.4830 H   0  0  0  0  0  0  0  0  0  0  0  0
  153.9461  137.7770  154.7470 H   0  0  0  0  0  0  0  0  0  0  0  0
  152.5999  139.7594  158.5702 H   0  0  0  0  0  0  0  0  0  0  0  0
  150.5698  141.1280  157.9287 H   0  0  0  0  0  0  0  0  0  0  0  0
  149.9088  142.2906  155.0158 H   0  0  0  0  0  0  0  0  0  0  0  0
  149.6439  140.5783  153.2745 H   0  0  0  0  0  0  0  0  0  0  0  0
  148.5938  139.6360  154.3083 H   0  0  0  0  0  0  0  0  0  0  0  0
  148.0261  142.4370  153.2283 H   0  0  0  0  0  0  0  0  0  0  0  0
  147.2133  140.9613  152.7650 H   0  0  0  0  0  0  0  0  0  0  0  0
  145.8586  142.2948  154.4136 H   0  0  0  0  0  0  0  0  0  0  0  0
  146.2626  140.7126  155.0526 H   0  0  0  0  0  0  0  0  0  0  0  0
  147.6632  143.2251  155.6316 H   0  0  0  0  0  0  0  0  0  0  0  0
  148.1284  140.5865  156.8183 H   0  0  0  0  0  0  0  0  0  0  0  0
  148.9309  142.0809  157.2625 H   0  0  0  0  0  0  0  0  0  0  0  0
  146.6586  142.4161  156.6487 H   0  0  0  0  0  0  0  0  0  0  0  0
  1  2  1  0  0  0  0
  1 14  1  0  0  0  0
  1 15  1  0  0  0  0
  2 13  1  0  0  0  0
  2  3  2  0  0  0  0
  3  4  1  0  0  0  0
  4  5  2  0  0  0  0
  4 16  1  0  0  0  0
  5  6  1  0  0  0  0
  5 17  1  0  0  0  0
  6  7  1  0  0  0  0
  6 13  2  0  0  0  0
  7 12  1  0  0  0  0
  7  8  1  0  0  0  0
  7 18  1  0  0  0  0
  8  9  1  0  0  0  0
  8 19  1  0  0  0  0
  8 20  1  0  0  0  0
  9 10  1  0  0  0  0
  9 21  1  0  0  0  0
  9 22  1  0  0  0  0
 10 11  1  0  0  0  0
 10 23  1  0  0  0  0
 10 24  1  0  0  0  0
 11 12  1  0  0  0  0
 11 25  1  0  0  0  0
 11 28  1  0  0  0  0
 12 26  1  0  0  0  0
 12 27  1  0  0  0  0
M  CHG  1  11   1
M  END
> <s_m_source_file>
AV-unprocessed.smi

> <i_m_source_file_index>
2754

> <i_lp_mmshare_version>
43012

> <i_f3d_flags>
0

> <s_epik_input>
W05IMl1jMW5bY0hdW2NIXWMobjEpW0NAQEhdMltDSDJdW0NIMl1bQ0gyXVtOSF1bQ0gyXTI=

> <s_epik_cmdline>
J2VwaWtfcHl0aG9uJywgJy1waCcsICc3LjAnLCAnLXRuJywgJzgnLCAnLW1hJywgJzIwMCcsICctbWV0YWxfYmluZGluZycsICctaW1hZScsICc8aW5maWxlLm1hZT4nLCAnLW9tYWUnLCAnPG91dGZpbGUubWFlPic=

> <r_lp_tautomer_probability>
1

> <r_epik_Ionization_Penalty>
0.000528025

> <r_epik_Ionization_Penalty_Charging>
0.000372054

> <r_epik_Ionization_Penalty_Neutral>
0.000155972

> <r_epik_State_Penalty>
-0

> <r_epik_Charging_Adjusted_Penalty>
0.000372054

> <i_epik_Tot_Q>
1

> <i_epik_Tot_abs_Q>
1

> <r_epik_Metal_State_Penalty>
-0

> <b_epik_Metal_Only>
0

> <s_lp_Force_Field>
OPLS_2005

> <r_lp_Energy>
4.9837

> <b_lp_Chiralities_Consistent>
1

> <s_lp_Variant>
AV-unprocessed.smi:2754-2

> <Gold.Version>
5.8.1

> <Gold.Id.Protein>
6NUR|6NUR_protein|mol2

> <Gold.PLP.Fitness>
34.8048

> <Gold.PLP.PLP>
-24.2305

> <Gold.PLP.part.hbond>
-3.0000

> <Gold.PLP.part.metal>
0.0000

> <Gold.PLP.part.buried>
-2.2594

> <Gold.PLP.part.nonpolar>
-18.9101

> <Gold.PLP.part.repulsive>
0.3254

> <Gold.PLP.ligand.clash>
0.0000

> <Gold.PLP.ligand.torsion>
0.7304

> <Gold.PLP.Chemscore.Hbond>
4.0000

> <Gold.PLP.Chemscore.CHOScore>
0.0000

> <Gold.PLP.Chemscore.Metal>
0.0000

> <Gold.Chemscore.Hbonds>
donor molecule, donor type, donor heavy atom, donor atom, acceptor molecule, acceptor atom, score
      L1  H    11    25       P1  8028  2.00
      P1  H  7989  7998       L1    13  1.00
      P1  H  7997  8008       L1     3  0.95

> <Gold.PLP.Chemscore.Internal.Correction>
0.0352

> <Gold.Rescore>
     Score         DG    S(hbond)    S(metal)    S(lipo)     H(rot)  DE(clash)    DE(int)     intcor
     11.49     -12.33       1.12        0.00      48.45       1.00       0.11       0.73       ----

> <Gold.Chemscore.Fitness>
11.4856

> <Gold.Chemscore.DG>
-12.3324

> <Gold.Chemscore.ZeroCoef>
-5.4800

> <Gold.Chemscore.Hbond>
1.1210

> <Gold.Chemscore.Metal>
0.0000

> <Gold.Chemscore.Lipo>
48.4471

> <Gold.Chemscore.Internal_Hbond>
0.0000

> <Gold.Chemscore.DEClash>
0.1148

> <Gold.Chemscore.DEInternal>
0.7320

> <Gold.Chemscore.Rot>
1.0000

> <Gold.Chemscore.Internal.Correction>
   9.000000E+99

> <Gold.Chemscore.Hbonds>
donor molecule, donor type, donor heavy atom, donor atom, acceptor molecule, acceptor atom, score
      L1  H    11    25       P1  8028  0.25
      P1  H  7989  7998       L1    13  0.53
      P1  H  7997  8008       L1     3  0.06

> <Gold.Chemscore.Hbond.Weighted>
-3.7441

> <Gold.Chemscore.Metal.Weighted>
-0.0000

> <Gold.Chemscore.Lipo.Weighted>
-5.6683

> <Gold.Chemscore.Internal_Hbond.Weighted>
0.0000

> <Gold.Chemscore.DEClash.Weighted>
0.1148

> <Gold.Chemscore.DEInternal.Weighted>
0.7320

> <Gold.Chemscore.Rot.Weighted>
2.5600

> <Gold.Chemscore.Internal.Correction.Weighted>
   9.000000E+99

> <Gold.Protein.RotatedTorsions>
[ 6907 6896 6895 6894 ] final  178.49 input  -60.11 | X-H torsion
[ 7974 7965 7964 7962 ] final  166.77 input  175.53 | X-H torsion
[ 8008 7997 7996 7995 ] final  -51.31 input   59.86 | X-H torsion
[ 10167 10162 10161 10158 ] final  -25.54 input  -65.29 | X-H torsion
[ 10718 10713 10712 10709 ] final   66.27 input   66.30 | X-H torsion
[ 10763 10752 10751 10750 ] final   -6.02 input  -60.55 | X-H torsion
[ 11005 11000 10999 10996 ] final -165.72 input  -57.11 | X-H torsion

> <Gold.Protein.ActiveResidues>
 VAL166  LYS551  ARG553  GLY616  TRP617  ASP618  TYR619  PRO620  LYS621  CYS622 
 ASP623  PHE694  ASN695  SER759  ASP760  ASP761  ALA762  ILE779  LEU786  VAL792 
 PHE793  MET794  SER795  GLU796  ALA797  LYS798  CYS799  TRP800  GLU811  SER814 

> <Gold.Protein.RotatedAtoms>
  151.6870  133.3311  159.3233 H   0  0  0  0  0  0  0  0  0  0  0  0  # atno 6907 bound_to 6896
  150.7796  134.6731  159.6412 H   0  0  0  0  0  0  0  0  0  0  0  0  # atno 6908 bound_to 6896
  152.3850  134.6535  160.0181 H   0  0  0  0  0  0  0  0  0  0  0  0  # atno 6909 bound_to 6896
  144.7449  139.8664  143.6385 H   0  0  0  0  0  0  0  0  0  0  0  0  # atno 7974 bound_to 7965
  154.4080  140.1251  156.4809 H   0  0  0  0  0  0  0  0  0  0  0  0  # atno 8008 bound_to 7997
  155.7086  140.3494  155.4944 H   0  0  0  0  0  0  0  0  0  0  0  0  # atno 8009 bound_to 7997
  155.9320  140.1071  157.1114 H   0  0  0  0  0  0  0  0  0  0  0  0  # atno 8010 bound_to 7997
  140.7286  143.4256  151.0882 H   0  0  0  0  0  0  0  0  0  0  0  0  # atno 10167 bound_to 10162
  157.6158  130.9258  150.0086 H   0  0  0  0  0  0  0  0  0  0  0  0  # atno 10718 bound_to 10713
  153.4065  135.7006  153.6389 H   0  0  0  0  0  0  0  0  0  0  0  0  # atno 10763 bound_to 10752
  153.4901  135.3674  155.2487 H   0  0  0  0  0  0  0  0  0  0  0  0  # atno 10764 bound_to 10752
  154.8714  135.4087  154.3409 H   0  0  0  0  0  0  0  0  0  0  0  0  # atno 10765 bound_to 10752
  140.5725  134.5223  157.5164 H   0  0  0  0  0  0  0  0  0  0  0  0  # atno 11005 bound_to 11000
  146.1312  139.4348  143.0167 LP  0  0  0  0  0  0  0  0  0  0  0  0  # atno 17320 bound_to 7965
  145.7160  141.0090  143.1428 LP  0  0  0  0  0  0  0  0  0  0  0  0  # atno 17321 bound_to 7965
  139.7907  143.8222  152.3151 LP  0  0  0  0  0  0  0  0  0  0  0  0  # atno 17342 bound_to 10162
  139.8205  144.7297  150.9578 LP  0  0  0  0  0  0  0  0  0  0  0  0  # atno 17343 bound_to 10162
  156.1280  130.3644  149.9778 LP  0  0  0  0  0  0  0  0  0  0  0  0  # atno 17370 bound_to 10713
  156.7845  130.9233  151.3646 LP  0  0  0  0  0  0  0  0  0  0  0  0  # atno 17371 bound_to 10713
  139.9355  134.7883  156.0814 LP  0  0  0  0  0  0  0  0  0  0  0  0  # atno 17394 bound_to 11000
  141.1047  133.6664  156.2836 LP  0  0  0  0  0  0  0  0  0  0  0  0  # atno 17395 bound_to 11000

$$$$
