AV-unprocessed.smi:1250|AV-procd|sdf|5254|dock1
  -GOLD-   22720 4363D 1   1.00000     0.00000
 Structure written by MMmdl.
 41 42  0  0  0  0  0  0  0  0  1 V2000
  147.7559  137.8049  154.5606 C   0  0  0  0  0  0  0  0  0  0  0  0
  146.3598  137.9316  153.9254 C   0  0  0  0  0  0  0  0  0  0  0  0
  145.8306  136.5288  153.5617 C   0  0  0  0  0  0  0  0  0  0  0  0
  146.3508  138.9004  152.7126 C   0  0  2  0  0  0  0  0  0  0  0  0
  146.8021  138.2411  151.3967 C   0  0  0  0  0  0  0  0  0  0  0  0
  147.2155  140.0460  152.9845 N   0  0  0  0  0  0  0  0  0  0  0  0
  147.0474  140.9456  153.9684 C   0  0  0  0  0  0  0  0  0  0  0  0
  146.0654  140.9629  154.7102 O   0  0  0  0  0  0  0  0  0  0  0  0
  148.1593  141.9853  154.1508 C   0  0  0  0  0  0  0  0  0  0  0  0
  149.3606  141.3833  154.8274 C   0  0  0  0  0  0  0  0  0  0  0  0
  150.0154  140.2319  154.4637 C   0  0  0  0  0  0  0  0  0  0  0  0
  151.3320  139.8598  155.5423 S   0  0  0  0  0  0  0  0  0  0  0  0
  150.9433  141.3145  156.4653 C   0  0  0  0  0  0  0  0  0  0  0  0
  151.6042  141.7735  157.6435 N   0  0  0  0  0  0  0  0  0  0  0  0
  151.3207  143.0841  158.2206 C   0  0  0  0  0  0  0  0  0  0  0  0
  152.3508  143.2859  159.3371 C   0  0  0  0  0  0  0  0  0  0  0  0
  152.9544  141.9053  159.5858 C   0  0  0  0  0  0  0  0  0  0  0  0
  152.4965  141.0937  158.3851 C   0  0  0  0  0  0  0  0  0  0  0  0
  152.9264  139.9605  158.1748 O   0  0  0  0  0  0  0  0  0  0  0  0
  149.9114  141.9966  155.9584 N   0  0  0  0  0  0  0  0  0  0  0  0
  148.4918  137.4591  153.8338 H   0  0  0  0  0  0  0  0  0  0  0  0
  147.7476  137.0930  155.3866 H   0  0  0  0  0  0  0  0  0  0  0  0
  148.1050  138.7535  154.9672 H   0  0  0  0  0  0  0  0  0  0  0  0
  145.6923  138.3376  154.6868 H   0  0  0  0  0  0  0  0  0  0  0  0
  146.4126  136.0839  152.7540 H   0  0  0  0  0  0  0  0  0  0  0  0
  144.7878  136.5544  153.2453 H   0  0  0  0  0  0  0  0  0  0  0  0
  145.8824  135.8548  154.4172 H   0  0  0  0  0  0  0  0  0  0  0  0
  145.3267  139.2548  152.5799 H   0  0  0  0  0  0  0  0  0  0  0  0
  146.1172  137.4540  151.0830 H   0  0  0  0  0  0  0  0  0  0  0  0
  147.7962  137.8033  151.4922 H   0  0  0  0  0  0  0  0  0  0  0  0
  146.8371  138.9689  150.5854 H   0  0  0  0  0  0  0  0  0  0  0  0
  148.0501  140.1218  152.4209 H   0  0  0  0  0  0  0  0  0  0  0  0
  148.4253  142.3843  153.1714 H   0  0  0  0  0  0  0  0  0  0  0  0
  147.7778  142.8247  154.7338 H   0  0  0  0  0  0  0  0  0  0  0  0
  149.7957  139.5749  153.6352 H   0  0  0  0  0  0  0  0  0  0  0  0
  151.3892  143.8756  157.4734 H   0  0  0  0  0  0  0  0  0  0  0  0
  150.3071  143.0853  158.6242 H   0  0  0  0  0  0  0  0  0  0  0  0
  153.1288  143.9773  159.0099 H   0  0  0  0  0  0  0  0  0  0  0  0
  151.8965  143.7033  160.2364 H   0  0  0  0  0  0  0  0  0  0  0  0
  154.0421  141.9371  159.6550 H   0  0  0  0  0  0  0  0  0  0  0  0
  152.5582  141.4570  160.4974 H   0  0  0  0  0  0  0  0  0  0  0  0
  1  2  1  0  0  0  0
  1 21  1  0  0  0  0
  1 22  1  0  0  0  0
  1 23  1  0  0  0  0
  2  3  1  0  0  0  0
  2  4  1  0  0  0  0
  2 24  1  0  0  0  0
  3 25  1  0  0  0  0
  3 26  1  0  0  0  0
  3 27  1  0  0  0  0
  4  5  1  0  0  0  0
  4  6  1  0  0  0  0
  4 28  1  0  0  0  0
  5 29  1  0  0  0  0
  5 30  1  0  0  0  0
  5 31  1  0  0  0  0
  6  7  1  0  0  0  0
  6 32  1  0  0  0  0
  7  8  2  0  0  0  0
  7  9  1  0  0  0  0
  9 10  1  0  0  0  0
  9 33  1  0  0  0  0
  9 34  1  0  0  0  0
 10 20  1  0  0  0  0
 10 11  2  0  0  0  0
 11 12  1  0  0  0  0
 11 35  1  0  0  0  0
 12 13  1  0  0  0  0
 13 14  1  0  0  0  0
 13 20  2  0  0  0  0
 14 18  1  0  0  0  0
 14 15  1  0  0  0  0
 15 16  1  0  0  0  0
 15 36  1  0  0  0  0
 15 37  1  0  0  0  0
 16 17  1  0  0  0  0
 16 38  1  0  0  0  0
 16 39  1  0  0  0  0
 17 18  1  0  0  0  0
 17 40  1  0  0  0  0
 17 41  1  0  0  0  0
 18 19  2  0  0  0  0
M  END
> <s_m_source_file>
AV-unprocessed.smi

> <i_m_source_file_index>
1250

> <i_lp_mmshare_version>
43012

> <i_f3d_flags>
0

> <s_epik_input>
W0NIM11bQ0hdKFtDSDNdKVtDQEhdKFtDSDNdKVtOSF1DKD1PKVtDSDJdYzFbY0hdc2MobjEpTjJbQ0gyXVtDSDJdW0NIMl1DMj1P

> <s_epik_cmdline>
J2VwaWtfcHl0aG9uJywgJy1waCcsICc3LjAnLCAnLXRuJywgJzgnLCAnLW1hJywgJzIwMCcsICctbWV0YWxfYmluZGluZycsICctaW1hZScsICc8aW5maWxlLm1hZT4nLCAnLW9tYWUnLCAnPG91dGZpbGUubWFlPic=

> <r_lp_tautomer_probability>
1

> <r_epik_Ionization_Penalty>
3.03552e-05

> <r_epik_Ionization_Penalty_Charging>
0

> <r_epik_Ionization_Penalty_Neutral>
3.03552e-05

> <r_epik_State_Penalty>
-0

> <r_epik_Charging_Adjusted_Penalty>
0

> <i_epik_Tot_Q>
0

> <i_epik_Tot_abs_Q>
0

> <r_epik_Metal_State_Penalty>
-0

> <b_epik_Metal_Only>
0

> <s_lp_Force_Field>
OPLS_2005

> <r_lp_Energy>
18.568

> <b_lp_Chiralities_Consistent>
1

> <s_lp_Variant>
AV-unprocessed.smi:1250-1

> <Gold.Version>
5.8.1

> <Gold.Id.Protein>
6NUR|6NUR_protein|mol2

> <Gold.PLP.Fitness>
41.4396

> <Gold.PLP.PLP>
-33.8894

> <Gold.PLP.part.hbond>
-2.0000

> <Gold.PLP.part.metal>
0.0000

> <Gold.PLP.part.buried>
3.8832

> <Gold.PLP.part.nonpolar>
-36.2117

> <Gold.PLP.part.repulsive>
1.5213

> <Gold.PLP.ligand.clash>
0.0000

> <Gold.PLP.ligand.torsion>
0.7426

> <Gold.PLP.Chemscore.Hbond>
2.0000

> <Gold.PLP.Chemscore.CHOScore>
1.0000

> <Gold.PLP.Chemscore.Metal>
0.0000

> <Gold.Chemscore.Hbonds>
donor molecule, donor type, donor heavy atom, donor atom, acceptor molecule, acceptor atom, score
      L1  H     6    32       P1  7957  1.00
      P1  H  7997  8010       L1    19  1.00
      L1  C    11    35       P1  7957  1.00

> <Gold.PLP.Chemscore.Internal.Correction>
0.0355

> <Gold.Rescore>
     Score         DG    S(hbond)    S(metal)    S(lipo)     H(rot)  DE(clash)    DE(int)     intcor
     14.24     -18.41       1.91        0.00      90.39       1.58       2.85       1.32       ----

> <Gold.Chemscore.Fitness>
14.2384

> <Gold.Chemscore.DG>
-18.4115

> <Gold.Chemscore.ZeroCoef>
-5.4800

> <Gold.Chemscore.Hbond>
1.9144

> <Gold.Chemscore.Metal>
0.0000

> <Gold.Chemscore.Lipo>
90.3929

> <Gold.Chemscore.Internal_Hbond>
0.0000

> <Gold.Chemscore.DEClash>
2.8491

> <Gold.Chemscore.DEInternal>
1.3240

> <Gold.Chemscore.Rot>
1.5775

> <Gold.Chemscore.Internal.Correction>
   9.000000E+99

> <Gold.Chemscore.Hbonds>
donor molecule, donor type, donor heavy atom, donor atom, acceptor molecule, acceptor atom, score
      L1  H     6    32       P1  7957  0.97
      P1  H  7997  8010       L1    19  0.69

> <Gold.Chemscore.Hbond.Weighted>
-6.3940

> <Gold.Chemscore.Metal.Weighted>
-0.0000

> <Gold.Chemscore.Lipo.Weighted>
-10.5760

> <Gold.Chemscore.Internal_Hbond.Weighted>
0.0000

> <Gold.Chemscore.DEClash.Weighted>
2.8491

> <Gold.Chemscore.DEInternal.Weighted>
1.3240

> <Gold.Chemscore.Rot.Weighted>
4.0385

> <Gold.Chemscore.Internal.Correction.Weighted>
   9.000000E+99

> <Gold.Protein.RotatedTorsions>
[ 6907 6896 6895 6894 ] final   62.77 input  -60.11 | X-H torsion
[ 7974 7965 7964 7962 ] final  -34.84 input  175.53 | X-H torsion
[ 8008 7997 7996 7995 ] final   36.57 input   59.86 | X-H torsion
[ 10167 10162 10161 10158 ] final -137.72 input  -65.29 | X-H torsion
[ 10718 10713 10712 10709 ] final -162.24 input   66.30 | X-H torsion
[ 10763 10752 10751 10750 ] final -127.95 input  -60.55 | X-H torsion
[ 11005 11000 10999 10996 ] final  138.61 input  -57.11 | X-H torsion

> <Gold.Protein.ActiveResidues>
 VAL166  LYS551  ARG553  GLY616  TRP617  ASP618  TYR619  PRO620  LYS621  CYS622 
 ASP623  PHE694  ASN695  SER759  ASP760  ASP761  ALA762  ILE779  LEU786  VAL792 
 PHE793  MET794  SER795  GLU796  ALA797  LYS798  CYS799  TRP800  GLU811  SER814 

> <Gold.Protein.RotatedAtoms>
  152.4199  134.5974  159.9990 H   0  0  0  0  0  0  0  0  0  0  0  0  # atno 6907 bound_to 6896
  151.6126  133.3340  159.3079 H   0  0  0  0  0  0  0  0  0  0  0  0  # atno 6908 bound_to 6896
  150.8087  134.7267  159.6734 H   0  0  0  0  0  0  0  0  0  0  0  0  # atno 6909 bound_to 6896
  146.0796  140.6088  142.8914 H   0  0  0  0  0  0  0  0  0  0  0  0  # atno 7974 bound_to 7965
  155.1896  140.3307  155.4361 H   0  0  0  0  0  0  0  0  0  0  0  0  # atno 8008 bound_to 7997
  156.2447  140.1912  156.6940 H   0  0  0  0  0  0  0  0  0  0  0  0  # atno 8009 bound_to 7997
  154.6215  140.0595  156.9606 H   0  0  0  0  0  0  0  0  0  0  0  0  # atno 8010 bound_to 7997
  139.8550  143.7150  152.2655 H   0  0  0  0  0  0  0  0  0  0  0  0  # atno 10167 bound_to 10162
  156.6076  130.8837  151.2929 H   0  0  0  0  0  0  0  0  0  0  0  0  # atno 10718 bound_to 10713
  154.8754  135.3945  154.3677 H   0  0  0  0  0  0  0  0  0  0  0  0  # atno 10763 bound_to 10752
  153.4441  135.7027  153.6155 H   0  0  0  0  0  0  0  0  0  0  0  0  # atno 10764 bound_to 10752
  153.4724  135.3787  155.2367 H   0  0  0  0  0  0  0  0  0  0  0  0  # atno 10765 bound_to 10752
  140.0195  134.9403  157.0446 H   0  0  0  0  0  0  0  0  0  0  0  0  # atno 11005 bound_to 11000
  144.7284  140.4597  143.6956 LP  0  0  0  0  0  0  0  0  0  0  0  0  # atno 17320 bound_to 7965
  145.6243  139.1528  143.3005 LP  0  0  0  0  0  0  0  0  0  0  0  0  # atno 17321 bound_to 7965
  139.7429  144.7555  151.0625 LP  0  0  0  0  0  0  0  0  0  0  0  0  # atno 17342 bound_to 10162
  140.7783  143.4951  150.9843 LP  0  0  0  0  0  0  0  0  0  0  0  0  # atno 17343 bound_to 10162
  157.7263  130.9627  150.1650 LP  0  0  0  0  0  0  0  0  0  0  0  0  # atno 17370 bound_to 10713
  156.2417  130.3691  149.8330 LP  0  0  0  0  0  0  0  0  0  0  0  0  # atno 17371 bound_to 10713
  140.4411  134.1680  155.7174 LP  0  0  0  0  0  0  0  0  0  0  0  0  # atno 17394 bound_to 11000
  141.1765  133.8503  157.1404 LP  0  0  0  0  0  0  0  0  0  0  0  0  # atno 17395 bound_to 11000

$$$$
