AV-unprocessed.smi:468|AV-procd|sdf|2652|dock6
  -GOLD-   2262023 63D 1   1.00000     0.00000
 Structure written by MMmdl.
 49 50  0  0  0  0  0  0  0  0  2 V2000
  145.5196  133.7283  156.0147 C   0  0  0  0  0  0  0  0  0  0  0  0
  145.3565  134.6488  157.0780 O   0  0  0  0  0  0  0  0  0  0  0  0
  146.5640  135.3054  157.4250 C   0  0  0  0  0  0  0  0  0  0  0  0
  146.3240  136.2018  158.6509 C   0  0  0  0  0  0  0  0  0  0  0  0
  147.5753  136.7293  159.2201 N   0  0  0  0  0  0  0  0  0  0  0  0
  147.9519  136.4178  160.4888 C   0  0  0  0  0  0  0  0  0  0  0  0
  149.0410  136.7699  160.9461 O   0  0  0  0  0  0  0  0  0  0  0  0
  146.9740  135.6411  161.4010 C   0  0  0  0  0  0  0  0  0  0  0  0
  147.5135  135.2494  162.7923 C   0  0  0  0  0  0  0  0  0  0  0  0
  146.8910  133.8647  162.5947 C   0  0  0  0  0  0  0  0  0  0  0  0
  146.8883  134.1379  161.0885 C   0  0  0  0  0  0  0  0  0  0  0  0
  148.3723  137.5236  158.3745 C   0  0  0  0  0  0  0  0  0  0  0  0
  147.9202  138.6775  157.8142 C   0  0  0  0  0  0  0  0  0  0  0  0
  146.6279  139.1261  158.0474 N   0  0  0  0  0  0  0  0  0  0  0  0
  148.7721  139.4395  156.9699 N   0  0  0  0  0  0  0  0  0  0  0  0
  148.2455  140.6848  156.3641 C   0  0  0  0  0  0  0  0  0  0  0  0
  148.4925  140.7763  154.8379 C   0  0  0  0  0  0  0  0  0  0  0  0
  147.7124  141.9194  154.1669 C   0  0  0  0  0  0  0  0  0  0  0  0
  148.1704  139.4362  154.1605 C   0  0  0  0  0  0  0  0  0  0  0  0
  150.0546  139.0290  156.7194 C   0  0  0  0  0  0  0  0  0  0  0  0
  150.7718  139.7026  155.9785 O   0  0  0  0  0  0  0  0  0  0  0  0
  150.5066  137.8774  157.2932 N   0  5  0  0  0  0  0  0  0  0  0  0
  149.7494  137.0960  158.1072 C   0  0  0  0  0  0  0  0  0  0  0  0
  150.1861  136.0646  158.6186 O   0  0  0  0  0  0  0  0  0  0  0  0
  144.5624  133.2580  155.7902 H   0  0  0  0  0  0  0  0  0  0  0  0
  146.2266  132.9414  156.2802 H   0  0  0  0  0  0  0  0  0  0  0  0
  145.8715  134.2273  155.1111 H   0  0  0  0  0  0  0  0  0  0  0  0
  147.3577  134.5826  157.6197 H   0  0  0  0  0  0  0  0  0  0  0  0
  146.8866  135.9211  156.5843 H   0  0  0  0  0  0  0  0  0  0  0  0
  145.6706  137.0311  158.3745 H   0  0  0  0  0  0  0  0  0  0  0  0
  145.7663  135.6417  159.4033 H   0  0  0  0  0  0  0  0  0  0  0  0
  145.9887  136.1003  161.4955 H   0  0  0  0  0  0  0  0  0  0  0  0
  148.6003  135.2029  162.8757 H   0  0  0  0  0  0  0  0  0  0  0  0
  147.0787  135.8147  163.6170 H   0  0  0  0  0  0  0  0  0  0  0  0
  147.5222  133.0317  162.9057 H   0  0  0  0  0  0  0  0  0  0  0  0
  145.8852  133.7908  163.0114 H   0  0  0  0  0  0  0  0  0  0  0  0
  145.9697  133.8350  160.5851 H   0  0  0  0  0  0  0  0  0  0  0  0
  147.7710  133.7425  160.5827 H   0  0  0  0  0  0  0  0  0  0  0  0
  145.9942  138.6069  158.6378 H   0  0  0  0  0  0  0  0  0  0  0  0
  146.2078  139.8289  157.4564 H   0  0  0  0  0  0  0  0  0  0  0  0
  147.1773  140.7611  156.5708 H   0  0  0  0  0  0  0  0  0  0  0  0
  148.6536  141.5748  156.8451 H   0  0  0  0  0  0  0  0  0  0  0  0
  149.5522  140.9698  154.6704 H   0  0  0  0  0  0  0  0  0  0  0  0
  146.6396  141.8177  154.3332 H   0  0  0  0  0  0  0  0  0  0  0  0
  147.8829  141.9325  153.0902 H   0  0  0  0  0  0  0  0  0  0  0  0
  148.0195  142.8923  154.5509 H   0  0  0  0  0  0  0  0  0  0  0  0
  147.1163  139.1797  154.2723 H   0  0  0  0  0  0  0  0  0  0  0  0
  148.7584  138.6260  154.5924 H   0  0  0  0  0  0  0  0  0  0  0  0
  148.3938  139.4701  153.0938 H   0  0  0  0  0  0  0  0  0  0  0  0
  1  2  1  0  0  0  0
  1 25  1  0  0  0  0
  1 26  1  0  0  0  0
  1 27  1  0  0  0  0
  2  3  1  0  0  0  0
  3  4  1  0  0  0  0
  3 28  1  0  0  0  0
  3 29  1  0  0  0  0
  4  5  1  0  0  0  0
  4 30  1  0  0  0  0
  4 31  1  0  0  0  0
  5  6  1  0  0  0  0
  5 12  1  0  0  0  0
  6  7  2  0  0  0  0
  6  8  1  0  0  0  0
  8 11  1  0  0  0  0
  8  9  1  0  0  0  0
  8 32  1  0  0  0  0
  9 10  1  0  0  0  0
  9 33  1  0  0  0  0
  9 34  1  0  0  0  0
 10 11  1  0  0  0  0
 10 35  1  0  0  0  0
 10 36  1  0  0  0  0
 11 37  1  0  0  0  0
 11 38  1  0  0  0  0
 12 23  1  0  0  0  0
 12 13  2  0  0  0  0
 13 14  1  0  0  0  0
 13 15  1  0  0  0  0
 14 39  1  0  0  0  0
 14 40  1  0  0  0  0
 15 16  1  0  0  0  0
 15 20  1  0  0  0  0
 16 17  1  0  0  0  0
 16 41  1  0  0  0  0
 16 42  1  0  0  0  0
 17 18  1  0  0  0  0
 17 19  1  0  0  0  0
 17 43  1  0  0  0  0
 18 44  1  0  0  0  0
 18 45  1  0  0  0  0
 18 46  1  0  0  0  0
 19 47  1  0  0  0  0
 19 48  1  0  0  0  0
 19 49  1  0  0  0  0
 20 21  2  0  0  0  0
 20 22  1  0  0  0  0
 22 23  1  0  0  0  0
 23 24  2  0  0  0  0
M  CHG  1  22  -1
M  END
> <s_m_source_file>
AV-unprocessed.smi

> <i_m_source_file_index>
468

> <i_lp_mmshare_version>
43012

> <i_f3d_flags>
0

> <s_epik_input>
W0NIMl0xW0NIMl1bQ0gyXVtDSF0xQyg9TylOKFtDSDJdW0NIMl1PW0NIM10pYzJjKFtOSDJdKW4oW0NIMl1bQ0hdKFtDSDNdKVtDSDNdKWMoPU8pW25IXWMyPU8=

> <s_epik_cmdline>
J2VwaWtfcHl0aG9uJywgJy1waCcsICc3LjAnLCAnLXRuJywgJzgnLCAnLW1hJywgJzIwMCcsICctbWV0YWxfYmluZGluZycsICctaW1hZScsICc8aW5maWxlLm1hZT4nLCAnLW9tYWUnLCAnPG91dGZpbGUubWFlPic=

> <r_lp_tautomer_probability>
1

> <r_epik_Ionization_Penalty>
5.91772

> <r_epik_Ionization_Penalty_Charging>
1.97379e-07

> <r_epik_Ionization_Penalty_Neutral>
5.91772

> <r_epik_State_Penalty>
5.91769

> <r_epik_Charging_Adjusted_Penalty>
5.91769

> <i_epik_Tot_Q>
-1

> <i_epik_Tot_abs_Q>
1

> <r_epik_Metal_State_Penalty>
1.85156

> <b_epik_Metal_Only>
1

> <s_lp_Force_Field>
OPLS_2005

> <r_lp_Energy>
46.8311

> <b_lp_Chiralities_Consistent>
1

> <s_lp_Variant>
AV-unprocessed.smi:468-2

> <Gold.Version>
5.8.1

> <Gold.Id.Protein>
6NUR|6NUR_protein|mol2

> <Gold.PLP.Fitness>
35.7018

> <Gold.PLP.PLP>
-30.0989

> <Gold.PLP.part.hbond>
-1.8338

> <Gold.PLP.part.metal>
0.0000

> <Gold.PLP.part.buried>
-3.6711

> <Gold.PLP.part.nonpolar>
-24.6584

> <Gold.PLP.part.repulsive>
0.1023

> <Gold.PLP.ligand.clash>
0.0000

> <Gold.PLP.ligand.torsion>
1.5520

> <Gold.PLP.Chemscore.Hbond>
1.9920

> <Gold.PLP.Chemscore.CHOScore>
0.0000

> <Gold.PLP.Chemscore.Metal>
0.0000

> <Gold.Chemscore.Hbonds>
donor molecule, donor type, donor heavy atom, donor atom, acceptor molecule, acceptor atom, score
      P1  H  6896  6909       L1    24  1.00
      P1  H  6931  6943       L1     7  0.93

> <Gold.PLP.Chemscore.Internal.Correction>
2.7309

> <Gold.Rescore>
     Score         DG    S(hbond)    S(metal)    S(lipo)     H(rot)  DE(clash)    DE(int)     intcor
      7.41     -13.25       1.95        0.00      55.23       2.04       0.02       5.81       ----

> <Gold.Chemscore.Fitness>
7.4122

> <Gold.Chemscore.DG>
-13.2453

> <Gold.Chemscore.ZeroCoef>
-5.4800

> <Gold.Chemscore.Hbond>
1.9510

> <Gold.Chemscore.Metal>
0.0000

> <Gold.Chemscore.Lipo>
55.2262

> <Gold.Chemscore.Internal_Hbond>
0.0000

> <Gold.Chemscore.DEClash>
0.0236

> <Gold.Chemscore.DEInternal>
5.8095

> <Gold.Chemscore.Rot>
2.0362

> <Gold.Chemscore.Internal.Correction>
   9.000000E+99

> <Gold.Chemscore.Hbonds>
donor molecule, donor type, donor heavy atom, donor atom, acceptor molecule, acceptor atom, score
      P1  H  6896  6909       L1    24  0.97
      P1  H  6931  6943       L1     7  0.85

> <Gold.Chemscore.Hbond.Weighted>
-6.5165

> <Gold.Chemscore.Metal.Weighted>
-0.0000

> <Gold.Chemscore.Lipo.Weighted>
-6.4615

> <Gold.Chemscore.Internal_Hbond.Weighted>
0.0000

> <Gold.Chemscore.DEClash.Weighted>
0.0236

> <Gold.Chemscore.DEInternal.Weighted>
5.8095

> <Gold.Chemscore.Rot.Weighted>
5.2126

> <Gold.Chemscore.Internal.Correction.Weighted>
   9.000000E+99

> <Gold.Protein.RotatedTorsions>
[ 6907 6896 6895 6894 ] final   67.04 input  -60.11 | X-H torsion
[ 7974 7965 7964 7962 ] final   85.41 input  175.53 | X-H torsion
[ 8008 7997 7996 7995 ] final  104.37 input   59.86 | X-H torsion
[ 10167 10162 10161 10158 ] final   29.24 input  -65.29 | X-H torsion
[ 10718 10713 10712 10709 ] final  141.99 input   66.30 | X-H torsion
[ 10763 10752 10751 10750 ] final  -69.68 input  -60.55 | X-H torsion
[ 11005 11000 10999 10996 ] final  -83.77 input  -57.11 | X-H torsion

> <Gold.Protein.ActiveResidues>
 VAL166  LYS551  ARG553  GLY616  TRP617  ASP618  TYR619  PRO620  LYS621  CYS622 
 ASP623  PHE694  ASN695  SER759  ASP760  ASP761  ALA762  ILE779  LEU786  VAL792 
 PHE793  MET794  SER795  GLU796  ALA797  LYS798  CYS799  TRP800  GLU811  SER814 

> <Gold.Protein.RotatedAtoms>
  152.4524  134.5365  159.9826 H   0  0  0  0  0  0  0  0  0  0  0  0  # atno 6907 bound_to 6896
  151.5435  133.3423  159.2947 H   0  0  0  0  0  0  0  0  0  0  0  0  # atno 6908 bound_to 6896
  150.8457  134.7796  159.7031 H   0  0  0  0  0  0  0  0  0  0  0  0  # atno 6909 bound_to 6896
  145.5858  139.2331  143.2327 H   0  0  0  0  0  0  0  0  0  0  0  0  # atno 7974 bound_to 7965
  156.1566  140.3149  155.8737 H   0  0  0  0  0  0  0  0  0  0  0  0  # atno 8008 bound_to 7997
  155.3865  140.0491  157.3059 H   0  0  0  0  0  0  0  0  0  0  0  0  # atno 8009 bound_to 7997
  154.5107  140.2163  155.9173 H   0  0  0  0  0  0  0  0  0  0  0  0  # atno 8010 bound_to 7997
  140.4783  144.0655  150.6257 H   0  0  0  0  0  0  0  0  0  0  0  0  # atno 10167 bound_to 10162
  157.3857  131.0998  151.0696 H   0  0  0  0  0  0  0  0  0  0  0  0  # atno 10718 bound_to 10713
  154.4068  135.6018  153.5929 H   0  0  0  0  0  0  0  0  0  0  0  0  # atno 10763 bound_to 10752
  152.9789  135.5920  154.4118 H   0  0  0  0  0  0  0  0  0  0  0  0  # atno 10764 bound_to 10752
  154.3924  135.2842  155.2125 H   0  0  0  0  0  0  0  0  0  0  0  0  # atno 10765 bound_to 10752
  141.1655  133.7311  156.8769 H   0  0  0  0  0  0  0  0  0  0  0  0  # atno 11005 bound_to 11000
  146.1683  140.6685  142.9245 LP  0  0  0  0  0  0  0  0  0  0  0  0  # atno 17320 bound_to 7965
  144.7373  140.4844  143.6894 LP  0  0  0  0  0  0  0  0  0  0  0  0  # atno 17321 bound_to 7965
  140.3890  143.2762  152.0082 LP  0  0  0  0  0  0  0  0  0  0  0  0  # atno 17342 bound_to 10162
  139.4829  144.6093  151.7463 LP  0  0  0  0  0  0  0  0  0  0  0  0  # atno 17343 bound_to 10162
  157.1748  130.6283  149.5652 LP  0  0  0  0  0  0  0  0  0  0  0  0  # atno 17370 bound_to 10713
  155.9786  130.4773  150.6665 LP  0  0  0  0  0  0  0  0  0  0  0  0  # atno 17371 bound_to 10713
  140.1742  134.9078  157.2870 LP  0  0  0  0  0  0  0  0  0  0  0  0  # atno 17394 bound_to 11000
  140.2467  134.3731  155.7458 LP  0  0  0  0  0  0  0  0  0  0  0  0  # atno 17395 bound_to 11000

$$$$
