AV-unprocessed.smi:573|AV-procd|sdf|2973|dock10
  -GOLD-   2262023483D 1   1.00000     0.00000
 Structure written by MMmdl.
 44 46  0  0  0  0  0  0  0  0  1 V2000
  147.6765  139.5399  153.8770 C   0  0  0  0  0  0  0  0  0  0  0  0
  148.8402  140.3251  154.4950 C   0  0  2  0  0  0  0  0  0  0  0  0
  149.1740  141.3679  153.6023 O   0  0  0  0  0  0  0  0  0  0  0  0
  150.0791  139.4382  154.7078 C   0  0  0  0  0  0  0  0  0  0  0  0
  150.6404  139.5864  156.0389 N   0  0  0  0  0  0  0  0  0  0  0  0
  151.0254  140.7050  156.7689 C   0  0  0  0  0  0  0  0  0  0  0  0
  150.9310  141.9547  156.3182 N   0  0  0  0  0  0  0  0  0  0  0  0
  151.4189  142.6882  157.3836 C   0  0  0  0  0  0  0  0  0  0  0  0
  151.5818  144.0835  157.5386 C   0  0  0  0  0  0  0  0  0  0  0  0
  152.1048  144.6128  158.7365 C   0  0  0  0  0  0  0  0  0  0  0  0
  152.4706  143.7571  159.7958 C   0  0  0  0  0  0  0  0  0  0  0  0
  152.3186  142.3635  159.6623 C   0  0  0  0  0  0  0  0  0  0  0  0
  151.7989  141.8391  158.4635 C   0  0  0  0  0  0  0  0  0  0  0  0
  151.5292  140.5487  158.0159 N   0  0  0  0  0  0  0  0  0  0  0  0
  151.7450  139.3117  158.7534 C   0  0  0  0  0  0  0  0  0  0  0  0
  152.9209  139.4241  159.7378 C   0  0  1  0  0  0  0  0  0  0  0  0
  153.2555  138.0703  160.3928 C   0  0  0  0  0  0  0  0  0  0  0  0
  154.4780  138.2003  161.3089 C   0  0  0  0  0  0  0  0  0  0  0  0
  155.6398  138.8323  160.5345 C   0  0  0  0  0  0  0  0  0  0  0  0
  155.1896  140.1442  159.8726 C   0  0  0  0  0  0  0  0  0  0  0  0
  154.0657  139.9021  159.0329 O   0  0  0  0  0  0  0  0  0  0  0  0
  147.3675  138.7228  154.5296 H   0  0  0  0  0  0  0  0  0  0  0  0
  147.9532  139.1094  152.9138 H   0  0  0  0  0  0  0  0  0  0  0  0
  146.8084  140.1808  153.7197 H   0  0  0  0  0  0  0  0  0  0  0  0
  148.5088  140.7559  155.4407 H   0  0  0  0  0  0  0  0  0  0  0  0
  149.5829  140.9872  152.8401 H   0  0  0  0  0  0  0  0  0  0  0  0
  149.8033  138.3898  154.5890 H   0  0  0  0  0  0  0  0  0  0  0  0
  150.8441  139.6462  153.9590 H   0  0  0  0  0  0  0  0  0  0  0  0
  150.7805  138.7078  156.5158 H   0  0  0  0  0  0  0  0  0  0  0  0
  151.3029  144.7476  156.7341 H   0  0  0  0  0  0  0  0  0  0  0  0
  152.2246  145.6810  158.8437 H   0  0  0  0  0  0  0  0  0  0  0  0
  152.8676  144.1712  160.7112 H   0  0  0  0  0  0  0  0  0  0  0  0
  152.5952  141.7054  160.4727 H   0  0  0  0  0  0  0  0  0  0  0  0
  150.8278  139.0440  159.2790 H   0  0  0  0  0  0  0  0  0  0  0  0
  151.9306  138.5108  158.0371 H   0  0  0  0  0  0  0  0  0  0  0  0
  152.6587  140.1458  160.5138 H   0  0  0  0  0  0  0  0  0  0  0  0
  152.4011  137.7029  160.9619 H   0  0  0  0  0  0  0  0  0  0  0  0
  153.4586  137.3284  159.6195 H   0  0  0  0  0  0  0  0  0  0  0  0
  154.2281  138.8225  162.1693 H   0  0  0  0  0  0  0  0  0  0  0  0
  154.7670  137.2243  161.6995 H   0  0  0  0  0  0  0  0  0  0  0  0
  156.4834  139.0145  161.2008 H   0  0  0  0  0  0  0  0  0  0  0  0
  155.9895  138.1398  159.7679 H   0  0  0  0  0  0  0  0  0  0  0  0
  154.9407  140.8954  160.6236 H   0  0  0  0  0  0  0  0  0  0  0  0
  155.9980  140.5553  159.2680 H   0  0  0  0  0  0  0  0  0  0  0  0
  1  2  1  0  0  0  0
  1 22  1  0  0  0  0
  1 23  1  0  0  0  0
  1 24  1  0  0  0  0
  2  3  1  0  0  0  0
  2  4  1  0  0  0  0
  2 25  1  0  0  0  0
  3 26  1  0  0  0  0
  4  5  1  0  0  0  0
  4 27  1  0  0  0  0
  4 28  1  0  0  0  0
  5  6  1  0  0  0  0
  5 29  1  0  0  0  0
  6 14  1  0  0  0  0
  6  7  2  0  0  0  0
  7  8  1  0  0  0  0
  8 13  2  0  0  0  0
  8  9  1  0  0  0  0
  9 10  2  0  0  0  0
  9 30  1  0  0  0  0
 10 11  1  0  0  0  0
 10 31  1  0  0  0  0
 11 12  2  0  0  0  0
 11 32  1  0  0  0  0
 12 13  1  0  0  0  0
 12 33  1  0  0  0  0
 13 14  1  0  0  0  0
 14 15  1  0  0  0  0
 15 16  1  0  0  0  0
 15 34  1  0  0  0  0
 15 35  1  0  0  0  0
 16 21  1  0  0  0  0
 16 17  1  0  0  0  0
 16 36  1  0  0  0  0
 17 18  1  0  0  0  0
 17 37  1  0  0  0  0
 17 38  1  0  0  0  0
 18 19  1  0  0  0  0
 18 39  1  0  0  0  0
 18 40  1  0  0  0  0
 19 20  1  0  0  0  0
 19 41  1  0  0  0  0
 19 42  1  0  0  0  0
 20 21  1  0  0  0  0
 20 43  1  0  0  0  0
 20 44  1  0  0  0  0
M  END
> <s_m_source_file>
AV-unprocessed.smi

> <i_m_source_file_index>
573

> <i_lp_mmshare_version>
43012

> <i_f3d_flags>
0

> <s_epik_input>
W0NIM11bQ0BIXShbT0hdKVtDSDJdW05IXWMobjEpbihjKGMxMilbY0hdW2NIXVtjSF1bY0hdMilbQ0gyXVtDQEBIXTNbQ0gyXVtDSDJdW0NIMl1bQ0gyXU8z

> <s_epik_cmdline>
J2VwaWtfcHl0aG9uJywgJy1waCcsICc3LjAnLCAnLXRuJywgJzgnLCAnLW1hJywgJzIwMCcsICctbWV0YWxfYmluZGluZycsICctaW1hZScsICc8aW5maWxlLm1hZT4nLCAnLW9tYWUnLCAnPG91dGZpbGUubWFlPic=

> <r_epik_Ionization_Penalty>
1.30635

> <r_epik_Ionization_Penalty_Charging>
0

> <r_epik_Ionization_Penalty_Neutral>
1.30635

> <r_epik_State_Penalty>
1.38073

> <r_epik_Charging_Adjusted_Penalty>
1.38073

> <i_epik_Tot_Q>
0

> <i_epik_Tot_abs_Q>
0

> <r_epik_Metal_State_Penalty>
0.00547412

> <b_epik_Metal_Only>
0

> <s_lp_Force_Field>
OPLS_2005

> <r_lp_Energy>
9.89465

> <b_lp_Chiralities_Consistent>
1

> <s_lp_Variant>
AV-unprocessed.smi:573-7

> <Gold.Version>
5.8.1

> <Gold.Id.Protein>
6NUR|6NUR_protein|mol2

> <Gold.PLP.Fitness>
48.1413

> <Gold.PLP.PLP>
-44.3726

> <Gold.PLP.part.hbond>
-3.8448

> <Gold.PLP.part.metal>
0.0000

> <Gold.PLP.part.buried>
-3.2556

> <Gold.PLP.part.nonpolar>
-36.6855

> <Gold.PLP.part.repulsive>
0.1562

> <Gold.PLP.ligand.clash>
0.0000

> <Gold.PLP.ligand.torsion>
1.1191

> <Gold.PLP.Chemscore.Hbond>
2.0000

> <Gold.PLP.Chemscore.CHOScore>
0.0000

> <Gold.PLP.Chemscore.Metal>
0.0000

> <Gold.Chemscore.Hbonds>
donor molecule, donor type, donor heavy atom, donor atom, acceptor molecule, acceptor atom, score
      L1  H     3    26       P1  7957  1.00
      P1  H  7997  8008       L1    21  1.00

> <Gold.PLP.Chemscore.Internal.Correction>
0.0070

> <Gold.Rescore>
     Score         DG    S(hbond)    S(metal)    S(lipo)     H(rot)  DE(clash)    DE(int)     intcor
     17.69     -20.05       1.68        0.00     120.67       2.02       0.16       2.19       ----

> <Gold.Chemscore.Fitness>
17.6933

> <Gold.Chemscore.DG>
-20.0470

> <Gold.Chemscore.ZeroCoef>
-5.4800

> <Gold.Chemscore.Hbond>
1.6842

> <Gold.Chemscore.Metal>
0.0000

> <Gold.Chemscore.Lipo>
120.6748

> <Gold.Chemscore.Internal_Hbond>
0.0000

> <Gold.Chemscore.DEClash>
0.1640

> <Gold.Chemscore.DEInternal>
2.1896

> <Gold.Chemscore.Rot>
2.0224

> <Gold.Chemscore.Internal.Correction>
   9.000000E+99

> <Gold.Chemscore.Hbonds>
donor molecule, donor type, donor heavy atom, donor atom, acceptor molecule, acceptor atom, score
      L1  H     3    26       P1  7957  0.98
      P1  H  7997  8008       L1    21  0.42

> <Gold.Chemscore.Hbond.Weighted>
-5.6254

> <Gold.Chemscore.Metal.Weighted>
-0.0000

> <Gold.Chemscore.Lipo.Weighted>
-14.1190

> <Gold.Chemscore.Internal_Hbond.Weighted>
0.0000

> <Gold.Chemscore.DEClash.Weighted>
0.1640

> <Gold.Chemscore.DEInternal.Weighted>
2.1896

> <Gold.Chemscore.Rot.Weighted>
5.1773

> <Gold.Chemscore.Internal.Correction.Weighted>
   9.000000E+99

> <Gold.Protein.RotatedTorsions>
[ 6907 6896 6895 6894 ] final  -33.07 input  -60.11 | X-H torsion
[ 7974 7965 7964 7962 ] final  -50.19 input  175.53 | X-H torsion
[ 8008 7997 7996 7995 ] final -100.05 input   59.86 | X-H torsion
[ 10167 10162 10161 10158 ] final   94.40 input  -65.29 | X-H torsion
[ 10718 10713 10712 10709 ] final  167.12 input   66.30 | X-H torsion
[ 10763 10752 10751 10750 ] final  120.02 input  -60.55 | X-H torsion
[ 11005 11000 10999 10996 ] final  -98.08 input  -57.11 | X-H torsion

> <Gold.Protein.ActiveResidues>
 VAL166  LYS551  ARG553  GLY616  TRP617  ASP618  TYR619  PRO620  LYS621  CYS622 
 ASP623  PHE694  ASN695  SER759  ASP760  ASP761  ALA762  ILE779  LEU786  VAL792 
 PHE793  MET794  SER795  GLU796  ALA797  LYS798  CYS799  TRP800  GLU811  SER814 

> <Gold.Protein.RotatedAtoms>
  151.0704  134.9795  159.8305 H   0  0  0  0  0  0  0  0  0  0  0  0  # atno 6907 bound_to 6896
  152.5407  134.2306  159.8833 H   0  0  0  0  0  0  0  0  0  0  0  0  # atno 6908 bound_to 6896
  151.2330  133.4396  159.2638 H   0  0  0  0  0  0  0  0  0  0  0  0  # atno 6909 bound_to 6896
  145.9325  140.7736  142.9592 H   0  0  0  0  0  0  0  0  0  0  0  0  # atno 7974 bound_to 7965
  154.8232  140.0443  157.1425 H   0  0  0  0  0  0  0  0  0  0  0  0  # atno 8008 bound_to 7997
  154.9236  140.3030  155.5183 H   0  0  0  0  0  0  0  0  0  0  0  0  # atno 8009 bound_to 7997
  156.2982  140.2336  156.4288 H   0  0  0  0  0  0  0  0  0  0  0  0  # atno 8010 bound_to 7997
  139.8087  144.6783  150.9669 H   0  0  0  0  0  0  0  0  0  0  0  0  # atno 10167 bound_to 10162
  157.0561  131.0327  151.2663 H   0  0  0  0  0  0  0  0  0  0  0  0  # atno 10718 bound_to 10713
  153.5921  135.3464  155.2914 H   0  0  0  0  0  0  0  0  0  0  0  0  # atno 10763 bound_to 10752
  154.8651  135.4207  154.2505 H   0  0  0  0  0  0  0  0  0  0  0  0  # atno 10764 bound_to 10752
  153.3314  135.7044  153.7015 H   0  0  0  0  0  0  0  0  0  0  0  0  # atno 10765 bound_to 10752
  141.1357  133.8218  157.0791 H   0  0  0  0  0  0  0  0  0  0  0  0  # atno 11005 bound_to 11000
  144.6767  140.2151  143.7373 LP  0  0  0  0  0  0  0  0  0  0  0  0  # atno 17320 bound_to 7965
  145.8406  139.2128  143.1829 LP  0  0  0  0  0  0  0  0  0  0  0  0  # atno 17321 bound_to 7965
  140.7818  143.4207  151.0846 LP  0  0  0  0  0  0  0  0  0  0  0  0  # atno 17342 bound_to 10162
  139.7875  143.8266  152.3147 LP  0  0  0  0  0  0  0  0  0  0  0  0  # atno 17343 bound_to 10162
  157.4992  130.7869  149.7587 LP  0  0  0  0  0  0  0  0  0  0  0  0  # atno 17370 bound_to 10713
  155.9993  130.3890  150.2671 LP  0  0  0  0  0  0  0  0  0  0  0  0  # atno 17371 bound_to 10713
  140.0463  134.9829  157.1054 LP  0  0  0  0  0  0  0  0  0  0  0  0  # atno 17394 bound_to 11000
  140.4058  134.2033  155.7163 LP  0  0  0  0  0  0  0  0  0  0  0  0  # atno 17395 bound_to 11000

$$$$
