AV-unprocessed.smi:101|AV-procd|sdf|914|dock2
  -GOLD-   2262017413D 1   1.00000     0.00000
 Structure written by MMmdl.
 44 46  0  0  0  0  0  0  0  0  1 V2000
  152.3218  136.2171  156.9894 C   0  0  0  0  0  0  0  0  0  0  0  0
  150.8449  136.1846  156.6303 C   0  0  0  0  0  0  0  0  0  0  0  0
  150.1707  137.2928  156.2311 C   0  0  0  0  0  0  0  0  0  0  0  0
  148.8239  137.2993  155.8891 N   0  0  0  0  0  0  0  0  0  0  0  0
  148.0946  138.5571  155.4464 C   0  0  1  0  0  0  0  0  0  0  0  0
  148.4013  139.6188  156.3119 O   0  0  0  0  0  0  0  0  0  0  0  0
  149.1111  140.6587  155.6379 C   0  0  1  0  0  0  0  0  0  0  0  0
  150.6310  140.4502  155.7888 C   0  0  0  0  0  0  0  0  0  0  0  0
  151.0847  141.1359  156.9451 O   0  0  0  0  0  0  0  0  0  0  0  0
  152.1575  140.6803  157.6240 C   0  0  0  0  0  0  0  0  0  0  0  0
  152.8305  139.7108  157.2677 O   0  0  0  0  0  0  0  0  0  0  0  0
  152.4320  141.4581  158.8659 C   0  0  0  0  0  0  0  0  0  0  0  0
  153.3552  140.9510  159.8098 C   0  0  0  0  0  0  0  0  0  0  0  0
  153.6287  141.6579  160.9967 C   0  0  0  0  0  0  0  0  0  0  0  0
  152.9820  142.8805  161.2542 C   0  0  0  0  0  0  0  0  0  0  0  0
  152.0609  143.3954  160.3235 C   0  0  0  0  0  0  0  0  0  0  0  0
  151.7857  142.6897  159.1359 C   0  0  0  0  0  0  0  0  0  0  0  0
  148.5838  140.5267  154.2077 C   0  0  1  0  0  0  0  0  0  0  0  0
  149.3612  141.1818  153.2216 O   0  0  0  0  0  0  0  0  0  0  0  0
  148.4547  139.0219  154.0110 C   0  0  1  0  0  0  0  0  0  0  0  0
  149.6500  138.4526  153.4981 O   0  0  0  0  0  0  0  0  0  0  0  0
  148.0809  136.1071  156.0155 C   0  0  0  0  0  0  0  0  0  0  0  0
  146.8749  136.0482  155.7775 O   0  0  0  0  0  0  0  0  0  0  0  0
  148.7709  134.9670  156.4235 N   0  0  0  0  0  0  0  0  0  0  0  0
  150.1310  134.9095  156.7371 C   0  0  0  0  0  0  0  0  0  0  0  0
  150.6310  133.8390  157.0787 O   0  0  0  0  0  0  0  0  0  0  0  0
  148.2428  134.1101  156.5011 H   0  0  0  0  0  0  0  0  0  0  0  0
  152.7504  137.2112  156.8580 H   0  0  0  0  0  0  0  0  0  0  0  0
  152.8829  135.5282  156.3572 H   0  0  0  0  0  0  0  0  0  0  0  0
  152.4676  135.9252  158.0298 H   0  0  0  0  0  0  0  0  0  0  0  0
  150.7288  138.2128  156.1942 H   0  0  0  0  0  0  0  0  0  0  0  0
  147.0345  138.3255  155.5666 H   0  0  0  0  0  0  0  0  0  0  0  0
  148.8371  141.6282  156.0555 H   0  0  0  0  0  0  0  0  0  0  0  0
  150.8686  139.3884  155.8526 H   0  0  0  0  0  0  0  0  0  0  0  0
  151.1595  140.8492  154.9228 H   0  0  0  0  0  0  0  0  0  0  0  0
  153.8626  140.0130  159.6346 H   0  0  0  0  0  0  0  0  0  0  0  0
  154.3354  141.2604  161.7101 H   0  0  0  0  0  0  0  0  0  0  0  0
  153.1919  143.4226  162.1645 H   0  0  0  0  0  0  0  0  0  0  0  0
  151.5636  144.3336  160.5209 H   0  0  0  0  0  0  0  0  0  0  0  0
  151.0720  143.1120  158.4436 H   0  0  0  0  0  0  0  0  0  0  0  0
  147.5828  140.9598  154.1770 H   0  0  0  0  0  0  0  0  0  0  0  0
  149.6970  140.5327  152.6222 H   0  0  0  0  0  0  0  0  0  0  0  0
  147.6395  138.7763  153.3295 H   0  0  0  0  0  0  0  0  0  0  0  0
  149.8037  138.8122  152.6377 H   0  0  0  0  0  0  0  0  0  0  0  0
  1  2  1  0  0  0  0
  1 28  1  0  0  0  0
  1 29  1  0  0  0  0
  1 30  1  0  0  0  0
  2 25  1  0  0  0  0
  2  3  2  0  0  0  0
  3  4  1  0  0  0  0
  3 31  1  0  0  0  0
  4  5  1  0  0  0  0
  4 22  1  0  0  0  0
  5 20  1  0  0  0  0
  5  6  1  0  0  0  0
  5 32  1  0  0  0  0
  6  7  1  0  0  0  0
  7  8  1  0  0  0  0
  7 18  1  0  0  0  0
  7 33  1  0  0  0  0
  8  9  1  0  0  0  0
  8 34  1  0  0  0  0
  8 35  1  0  0  0  0
  9 10  1  0  0  0  0
 10 11  2  0  0  0  0
 10 12  1  0  0  0  0
 12 17  1  0  0  0  0
 12 13  2  0  0  0  0
 13 14  1  0  0  0  0
 13 36  1  0  0  0  0
 14 15  2  0  0  0  0
 14 37  1  0  0  0  0
 15 16  1  0  0  0  0
 15 38  1  0  0  0  0
 16 17  2  0  0  0  0
 16 39  1  0  0  0  0
 17 40  1  0  0  0  0
 18 19  1  0  0  0  0
 18 20  1  0  0  0  0
 18 41  1  0  0  0  0
 19 42  1  0  0  0  0
 20 21  1  0  0  0  0
 20 43  1  0  0  0  0
 21 44  1  0  0  0  0
 22 23  2  0  0  0  0
 22 24  1  0  0  0  0
 24 27  1  0  0  0  0
 24 25  1  0  0  0  0
 25 26  2  0  0  0  0
M  END
> <s_m_source_file>
AV-unprocessed.smi

> <i_m_source_file_index>
101

> <i_lp_mmshare_version>
43012

> <i_f3d_flags>
0

> <s_epik_input>
Tz1jMVtuSF1jKD1PKW4oW2NIXWMxW0NIM10pW0NAQEhdMk9bQ0BIXShbQ0BASF0oW09IXSlbQ0BIXTJbT0hdKVtDSDJdT0MoPU8pYzNbY0hdW2NIXVtjSF1bY0hdW2NIXTM=

> <s_epik_cmdline>
J2VwaWtfcHl0aG9uJywgJy1waCcsICc3LjAnLCAnLXRuJywgJzgnLCAnLW1hJywgJzIwMCcsICctbWV0YWxfYmluZGluZycsICctaW1hZScsICc8aW5maWxlLm1hZT4nLCAnLW9tYWUnLCAnPG91dGZpbGUubWFlPic=

> <r_lp_tautomer_probability>
0.999537

> <r_epik_Ionization_Penalty>
0.00263537

> <r_epik_Ionization_Penalty_Charging>
0.00263428

> <r_epik_Ionization_Penalty_Neutral>
1.09111e-06

> <r_epik_State_Penalty>
0.00183335

> <r_epik_Charging_Adjusted_Penalty>
0.00446763

> <i_epik_Tot_Q>
0

> <i_epik_Tot_abs_Q>
0

> <r_epik_Metal_State_Penalty>
1.00528

> <b_epik_Metal_Only>
0

> <s_epik_Chemistry_Notes>
This compound has an ester and may undergo hydrolysis at high or low pH. This compound contains an acetal/aminal-like group ( X-CH(R)-Y where X, Y are N, S, or O) that may be acid/base labile, releasing an aldehyde.

> <s_lp_Force_Field>
OPLS_2005

> <r_lp_Energy>
43.2991

> <b_lp_Chiralities_Consistent>
1

> <s_lp_Variant>
AV-unprocessed.smi:101-2

> <Gold.Version>
5.8.1

> <Gold.Id.Protein>
6NUR|6NUR_protein|mol2

> <Gold.PLP.Fitness>
50.8200

> <Gold.PLP.PLP>
-38.6595

> <Gold.PLP.part.hbond>
-6.3099

> <Gold.PLP.part.metal>
0.0000

> <Gold.PLP.part.buried>
-5.5109

> <Gold.PLP.part.nonpolar>
-26.8027

> <Gold.PLP.part.repulsive>
0.0660

> <Gold.PLP.ligand.clash>
0.0000

> <Gold.PLP.ligand.torsion>
0.8552

> <Gold.PLP.Chemscore.Hbond>
4.5836

> <Gold.PLP.Chemscore.CHOScore>
0.0000

> <Gold.PLP.Chemscore.Metal>
0.0000

> <Gold.Chemscore.Hbonds>
donor molecule, donor type, donor heavy atom, donor atom, acceptor molecule, acceptor atom, score
      L1  H    19    42       P1  7957  0.86
      L1  H    21    44       P1  7957  1.00
      P1  H  6896  6907       L1    26  0.48
      P1  H  7997  8010       L1    11  1.00
      P1  H  8011  8017       L1    19  0.70

> <Gold.PLP.Chemscore.Internal.Correction>
0.1201

> <Gold.Rescore>
     Score         DG    S(hbond)    S(metal)    S(lipo)     H(rot)  DE(clash)    DE(int)     intcor
     18.93     -20.24       3.61        0.00      95.56       3.32       0.10       1.21       ----

> <Gold.Chemscore.Fitness>
18.9299

> <Gold.Chemscore.DG>
-20.2416

> <Gold.Chemscore.ZeroCoef>
-5.4800

> <Gold.Chemscore.Hbond>
3.6147

> <Gold.Chemscore.Metal>
0.0000

> <Gold.Chemscore.Lipo>
95.5585

> <Gold.Chemscore.Internal_Hbond>
0.0000

> <Gold.Chemscore.DEClash>
0.1041

> <Gold.Chemscore.DEInternal>
1.2076

> <Gold.Chemscore.Rot>
3.3172

> <Gold.Chemscore.Internal.Correction>
   9.000000E+99

> <Gold.Chemscore.Hbonds>
donor molecule, donor type, donor heavy atom, donor atom, acceptor molecule, acceptor atom, score
      L1  H    19    42       P1  7957  0.80
      L1  H    21    44       P1  7957  0.65
      P1  H  6896  6907       L1    26  0.38
      P1  H  7997  8010       L1    11  0.91
      P1  H  8011  8017       L1    19  0.07

> <Gold.Chemscore.Hbond.Weighted>
-12.0732

> <Gold.Chemscore.Metal.Weighted>
-0.0000

> <Gold.Chemscore.Lipo.Weighted>
-11.1803

> <Gold.Chemscore.Internal_Hbond.Weighted>
0.0000

> <Gold.Chemscore.DEClash.Weighted>
0.1041

> <Gold.Chemscore.DEInternal.Weighted>
1.2076

> <Gold.Chemscore.Rot.Weighted>
8.4920

> <Gold.Chemscore.Internal.Correction.Weighted>
   9.000000E+99

> <Gold.Protein.RotatedTorsions>
[ 6907 6896 6895 6894 ] final -125.17 input  -60.11 | X-H torsion
[ 7974 7965 7964 7962 ] final -136.68 input  175.53 | X-H torsion
[ 8008 7997 7996 7995 ] final   59.58 input   59.86 | X-H torsion
[ 10167 10162 10161 10158 ] final -127.53 input  -65.29 | X-H torsion
[ 10718 10713 10712 10709 ] final   77.43 input   66.30 | X-H torsion
[ 10763 10752 10751 10750 ] final -153.67 input  -60.55 | X-H torsion
[ 11005 11000 10999 10996 ] final -173.69 input  -57.11 | X-H torsion

> <Gold.Protein.ActiveResidues>
 VAL166  LYS551  ARG553  GLY616  TRP617  ASP618  TYR619  PRO620  LYS621  CYS622 
 ASP623  PHE694  ASN695  SER759  ASP760  ASP761  ALA762  ILE779  LEU786  VAL792 
 PHE793  MET794  SER795  GLU796  ALA797  LYS798  CYS799  TRP800  GLU811  SER814 

> <Gold.Protein.RotatedAtoms>
  150.8841  133.7332  159.2923 H   0  0  0  0  0  0  0  0  0  0  0  0  # atno 6907 bound_to 6896
  151.4903  135.1055  159.9811 H   0  0  0  0  0  0  0  0  0  0  0  0  # atno 6908 bound_to 6896
  152.4779  133.8136  159.7072 H   0  0  0  0  0  0  0  0  0  0  0  0  # atno 6909 bound_to 6896
  144.8906  140.6637  143.5148 H   0  0  0  0  0  0  0  0  0  0  0  0  # atno 7974 bound_to 7965
  155.5685  140.3489  155.4509 H   0  0  0  0  0  0  0  0  0  0  0  0  # atno 8008 bound_to 7997
  156.0462  140.1307  157.0126 H   0  0  0  0  0  0  0  0  0  0  0  0  # atno 8009 bound_to 7997
  154.4413  140.1014  156.6294 H   0  0  0  0  0  0  0  0  0  0  0  0  # atno 8010 bound_to 7997
  139.9599  143.5962  152.2448 H   0  0  0  0  0  0  0  0  0  0  0  0  # atno 10167 bound_to 10162
  157.6710  130.9821  150.1641 H   0  0  0  0  0  0  0  0  0  0  0  0  # atno 10718 bound_to 10713
  154.7912  135.3207  154.7773 H   0  0  0  0  0  0  0  0  0  0  0  0  # atno 10763 bound_to 10752
  153.8461  135.6866  153.4801 H   0  0  0  0  0  0  0  0  0  0  0  0  # atno 10764 bound_to 10752
  153.1583  135.4671  154.9676 H   0  0  0  0  0  0  0  0  0  0  0  0  # atno 10765 bound_to 10752
  140.4829  134.6058  157.4926 H   0  0  0  0  0  0  0  0  0  0  0  0  # atno 11005 bound_to 11000
  145.3790  139.1641  143.4291 LP  0  0  0  0  0  0  0  0  0  0  0  0  # atno 17320 bound_to 7965
  146.3051  140.3869  142.8690 LP  0  0  0  0  0  0  0  0  0  0  0  0  # atno 17321 bound_to 7965
  139.6562  144.7662  151.2051 LP  0  0  0  0  0  0  0  0  0  0  0  0  # atno 17342 bound_to 10162
  140.7556  143.6082  150.8632 LP  0  0  0  0  0  0  0  0  0  0  0  0  # atno 17343 bound_to 10162
  156.2410  130.3691  149.8337 LP  0  0  0  0  0  0  0  0  0  0  0  0  # atno 17370 bound_to 10713
  156.6137  130.8597  151.3460 LP  0  0  0  0  0  0  0  0  0  0  0  0  # atno 17371 bound_to 10713
  139.9816  134.7129  155.9850 LP  0  0  0  0  0  0  0  0  0  0  0  0  # atno 17394 bound_to 11000
  141.1522  133.6547  156.4050 LP  0  0  0  0  0  0  0  0  0  0  0  0  # atno 17395 bound_to 11000

$$$$
