AV-unprocessed.smi:2691|AV-procd|sdf|10393|dock1
  -GOLD-   2272014423D 1   1.00000     0.00000
 Structure written by MMmdl.
 50 52  0  0  0  0  0  0  0  0  2 V2000
  152.2156  145.0258  160.3848 C   0  0  0  0  0  0  0  0  0  0  0  0
  151.9569  143.7942  159.5335 C   0  0  0  0  0  0  0  0  0  0  0  0
  151.2418  143.9485  158.3241 C   0  0  0  0  0  0  0  0  0  0  0  0
  151.0183  142.8034  157.5689 C   0  0  0  0  0  0  0  0  0  0  0  0
  150.3562  142.6232  156.3522 N   0  3  0  0  0  0  0  0  0  0  0  0
  150.3909  141.3063  156.0067 C   0  0  0  0  0  0  0  0  0  0  0  0
  151.0677  140.6445  156.9840 N   0  0  0  0  0  0  0  0  0  0  0  0
  151.3788  139.2156  157.1129 C   0  0  0  0  0  0  0  0  0  0  0  0
  150.1809  138.3128  156.7434 C   0  0  1  0  0  0  0  0  0  0  0  0
  149.8934  138.4103  155.3623 O   0  0  0  0  0  0  0  0  0  0  0  0
  150.2992  136.8217  157.1519 C   0  0  0  0  0  0  0  0  0  0  0  0
  149.4785  136.4374  158.3157 N   0  0  0  0  0  0  0  0  0  0  0  0
  149.6605  137.1792  159.5004 C   0  0  0  0  0  0  0  0  0  0  0  0
  148.9835  136.9267  160.5749 N   0  0  0  0  0  0  0  0  0  0  0  0
  148.0349  135.8984  160.5739 C   0  0  0  0  0  0  0  0  0  0  0  0
  147.2743  135.6558  161.8710 C   0  0  0  0  0  0  0  0  0  0  0  0
  147.7362  136.6048  162.9887 C   0  0  0  0  0  0  0  0  0  0  0  0
  147.3606  134.1842  162.3048 C   0  0  0  0  0  0  0  0  0  0  0  0
  147.8210  135.1597  159.4583 C   0  0  0  0  0  0  0  0  0  0  0  0
  148.5711  135.4212  158.2302 C   0  0  0  0  0  0  0  0  0  0  0  0
  148.3955  134.7748  157.1976 O   0  0  0  0  0  0  0  0  0  0  0  0
  151.4792  141.5373  157.9784 C   0  0  0  0  0  0  0  0  0  0  0  0
  152.1869  141.3671  159.1657 C   0  0  0  0  0  0  0  0  0  0  0  0
  152.4250  142.5199  159.9479 C   0  0  0  0  0  0  0  0  0  0  0  0
  153.1948  142.3662  161.2487 C   0  0  0  0  0  0  0  0  0  0  0  0
  151.7568  145.9146  159.9505 H   0  0  0  0  0  0  0  0  0  0  0  0
  153.2862  145.2121  160.4724 H   0  0  0  0  0  0  0  0  0  0  0  0
  151.8032  144.8954  161.3856 H   0  0  0  0  0  0  0  0  0  0  0  0
  150.8830  144.9152  158.0021 H   0  0  0  0  0  0  0  0  0  0  0  0
  149.9542  140.8645  155.1224 H   0  0  0  0  0  0  0  0  0  0  0  0
  152.2294  139.0148  156.4603 H   0  0  0  0  0  0  0  0  0  0  0  0
  151.7146  139.0258  158.1330 H   0  0  0  0  0  0  0  0  0  0  0  0
  149.2945  138.7061  157.2424 H   0  0  0  0  0  0  0  0  0  0  0  0
  149.4700  139.2396  155.1997 H   0  0  0  0  0  0  0  0  0  0  0  0
  150.0129  136.2158  156.2901 H   0  0  0  0  0  0  0  0  0  0  0  0
  151.3444  136.5532  157.3175 H   0  0  0  0  0  0  0  0  0  0  0  0
  150.4104  137.9702  159.4499 H   0  0  0  0  0  0  0  0  0  0  0  0
  146.2223  135.8746  161.6804 H   0  0  0  0  0  0  0  0  0  0  0  0
  147.6548  137.6464  162.6769 H   0  0  0  0  0  0  0  0  0  0  0  0
  148.7732  136.4214  163.2718 H   0  0  0  0  0  0  0  0  0  0  0  0
  147.1248  136.4814  163.8829 H   0  0  0  0  0  0  0  0  0  0  0  0
  146.9974  133.5222  161.5180 H   0  0  0  0  0  0  0  0  0  0  0  0
  146.7546  134.0017  163.1927 H   0  0  0  0  0  0  0  0  0  0  0  0
  148.3851  133.8929  162.5383 H   0  0  0  0  0  0  0  0  0  0  0  0
  147.0863  134.3680  159.4652 H   0  0  0  0  0  0  0  0  0  0  0  0
  152.5397  140.3964  159.4812 H   0  0  0  0  0  0  0  0  0  0  0  0
  153.5226  141.3371  161.3992 H   0  0  0  0  0  0  0  0  0  0  0  0
  152.5705  142.6454  162.0977 H   0  0  0  0  0  0  0  0  0  0  0  0
  154.0821  142.9997  161.2474 H   0  0  0  0  0  0  0  0  0  0  0  0
  149.9092  143.3425  155.7982 H   0  0  0  0  0  0  0  0  0  0  0  0
  1  2  1  0  0  0  0
  1 26  1  0  0  0  0
  1 27  1  0  0  0  0
  1 28  1  0  0  0  0
  2 24  1  0  0  0  0
  2  3  2  0  0  0  0
  3  4  1  0  0  0  0
  3 29  1  0  0  0  0
  4 22  2  0  0  0  0
  4  5  1  0  0  0  0
  5  6  2  0  0  0  0
  5 50  1  0  0  0  0
  6  7  1  0  0  0  0
  6 30  1  0  0  0  0
  7  8  1  0  0  0  0
  7 22  1  0  0  0  0
  8  9  1  0  0  0  0
  8 31  1  0  0  0  0
  8 32  1  0  0  0  0
  9 10  1  0  0  0  0
  9 11  1  0  0  0  0
  9 33  1  0  0  0  0
 10 34  1  0  0  0  0
 11 12  1  0  0  0  0
 11 35  1  0  0  0  0
 11 36  1  0  0  0  0
 12 20  1  0  0  0  0
 12 13  1  0  0  0  0
 13 14  2  0  0  0  0
 13 37  1  0  0  0  0
 14 15  1  0  0  0  0
 15 16  1  0  0  0  0
 15 19  2  0  0  0  0
 16 17  1  0  0  0  0
 16 18  1  0  0  0  0
 16 38  1  0  0  0  0
 17 39  1  0  0  0  0
 17 40  1  0  0  0  0
 17 41  1  0  0  0  0
 18 42  1  0  0  0  0
 18 43  1  0  0  0  0
 18 44  1  0  0  0  0
 19 20  1  0  0  0  0
 19 45  1  0  0  0  0
 20 21  2  0  0  0  0
 22 23  1  0  0  0  0
 23 24  2  0  0  0  0
 23 46  1  0  0  0  0
 24 25  1  0  0  0  0
 25 47  1  0  0  0  0
 25 48  1  0  0  0  0
 25 49  1  0  0  0  0
M  CHG  1   5   1
M  END
> <s_m_source_file>
AV-unprocessed.smi

> <i_m_source_file_index>
2691

> <i_lp_mmshare_version>
43012

> <i_f3d_flags>
0

> <s_epik_input>
W0NIM11jKFtjSF0xKWMoW0NIM10pW2NIXWMoYzEyKW4oW2NIXW4yKVtDSDJdW0NASF0oW09IXSlbQ0gyXW4zW2NIXW5jKFtDSF0oW0NIM10pW0NIM10pW2NIXWMzPU8=

> <s_epik_cmdline>
J2VwaWtfcHl0aG9uJywgJy1waCcsICc3LjAnLCAnLXRuJywgJzgnLCAnLW1hJywgJzIwMCcsICctbWV0YWxfYmluZGluZycsICctaW1hZScsICc8aW5maWxlLm1hZT4nLCAnLW9tYWUnLCAnPG91dGZpbGUubWFlPic=

> <r_lp_tautomer_probability>
1

> <r_epik_Ionization_Penalty>
1.0357

> <r_epik_Ionization_Penalty_Charging>
1.03568

> <r_epik_Ionization_Penalty_Neutral>
1.29543e-05

> <r_epik_State_Penalty>
1.08724

> <r_epik_Charging_Adjusted_Penalty>
2.12292

> <i_epik_Tot_Q>
1

> <i_epik_Tot_abs_Q>
1

> <r_epik_Metal_State_Penalty>
1.18376

> <b_epik_Metal_Only>
0

> <s_lp_Force_Field>
OPLS_2005

> <r_lp_Energy>
24.9035

> <b_lp_Chiralities_Consistent>
1

> <s_lp_Variant>
AV-unprocessed.smi:2691-4

> <Gold.Version>
5.8.1

> <Gold.Id.Protein>
6NUR|6NUR_protein|mol2

> <Gold.PLP.Fitness>
58.2188

> <Gold.PLP.PLP>
-51.8376

> <Gold.PLP.part.hbond>
-2.0000

> <Gold.PLP.part.metal>
0.0000

> <Gold.PLP.part.buried>
-6.4180

> <Gold.PLP.part.nonpolar>
-44.3619

> <Gold.PLP.part.repulsive>
0.0914

> <Gold.PLP.ligand.clash>
0.0000

> <Gold.PLP.ligand.torsion>
1.0322

> <Gold.PLP.Chemscore.Hbond>
2.7680

> <Gold.PLP.Chemscore.CHOScore>
0.0000

> <Gold.PLP.Chemscore.Metal>
0.0000

> <Gold.Chemscore.Hbonds>
donor molecule, donor type, donor heavy atom, donor atom, acceptor molecule, acceptor atom, score
      L1  H     5    50       P1  8028  2.00
      P1  H  6931  6943       L1    14  0.75

> <Gold.PLP.Chemscore.Internal.Correction>
0.1416

> <Gold.Rescore>
     Score         DG    S(hbond)    S(metal)    S(lipo)     H(rot)  DE(clash)    DE(int)     intcor
     18.53     -19.74       1.71        0.00     128.07       2.52       0.12       1.09       ----

> <Gold.Chemscore.Fitness>
18.5298

> <Gold.Chemscore.DG>
-19.7403

> <Gold.Chemscore.ZeroCoef>
-5.4800

> <Gold.Chemscore.Hbond>
1.7148

> <Gold.Chemscore.Metal>
0.0000

> <Gold.Chemscore.Lipo>
128.0743

> <Gold.Chemscore.Internal_Hbond>
0.0000

> <Gold.Chemscore.DEClash>
0.1214

> <Gold.Chemscore.DEInternal>
1.0890

> <Gold.Chemscore.Rot>
2.5202

> <Gold.Chemscore.Internal.Correction>
   9.000000E+99

> <Gold.Chemscore.Hbonds>
donor molecule, donor type, donor heavy atom, donor atom, acceptor molecule, acceptor atom, score
      L1  H     5    50       P1  8028  0.96
      P1  H  6931  6943       L1    14  0.68

> <Gold.Chemscore.Hbond.Weighted>
-5.7273

> <Gold.Chemscore.Metal.Weighted>
-0.0000

> <Gold.Chemscore.Lipo.Weighted>
-14.9847

> <Gold.Chemscore.Internal_Hbond.Weighted>
0.0000

> <Gold.Chemscore.DEClash.Weighted>
0.1214

> <Gold.Chemscore.DEInternal.Weighted>
1.0890

> <Gold.Chemscore.Rot.Weighted>
6.4517

> <Gold.Chemscore.Internal.Correction.Weighted>
   9.000000E+99

> <Gold.Protein.RotatedTorsions>
[ 6907 6896 6895 6894 ] final  127.93 input  -60.11 | X-H torsion
[ 7974 7965 7964 7962 ] final  -72.56 input  175.53 | X-H torsion
[ 8008 7997 7996 7995 ] final    8.16 input   59.86 | X-H torsion
[ 10167 10162 10161 10158 ] final  166.07 input  -65.29 | X-H torsion
[ 10718 10713 10712 10709 ] final   20.76 input   66.30 | X-H torsion
[ 10763 10752 10751 10750 ] final -164.67 input  -60.55 | X-H torsion
[ 11005 11000 10999 10996 ] final   75.19 input  -57.11 | X-H torsion

> <Gold.Protein.ActiveResidues>
 VAL166  LYS551  ARG553  GLY616  TRP617  ASP618  TYR619  PRO620  LYS621  CYS622 
 ASP623  PHE694  ASN695  SER759  ASP760  ASP761  ALA762  ILE779  LEU786  VAL792 
 PHE793  MET794  SER795  GLU796  ALA797  LYS798  CYS799  TRP800  GLU811  SER814 

> <Gold.Protein.RotatedAtoms>
  152.3767  133.6490  159.6128 H   0  0  0  0  0  0  0  0  0  0  0  0  # atno 6907 bound_to 6896
  150.7709  133.9182  159.3399 H   0  0  0  0  0  0  0  0  0  0  0  0  # atno 6908 bound_to 6896
  151.6995  135.0934  160.0299 H   0  0  0  0  0  0  0  0  0  0  0  0  # atno 6909 bound_to 6896
  145.6635  140.9245  143.0921 H   0  0  0  0  0  0  0  0  0  0  0  0  # atno 7974 bound_to 7965
  154.7632  140.2788  155.6197 H   0  0  0  0  0  0  0  0  0  0  0  0  # atno 8008 bound_to 7997
  156.2919  140.2656  156.2343 H   0  0  0  0  0  0  0  0  0  0  0  0  # atno 8009 bound_to 7997
  154.9991  140.0373  157.2342 H   0  0  0  0  0  0  0  0  0  0  0  0  # atno 8010 bound_to 7997
  139.4917  144.4066  151.9348 H   0  0  0  0  0  0  0  0  0  0  0  0  # atno 10167 bound_to 10162
  157.1289  130.6582  149.5946 H   0  0  0  0  0  0  0  0  0  0  0  0  # atno 10718 bound_to 10713
  154.7006  135.2987  154.9347 H   0  0  0  0  0  0  0  0  0  0  0  0  # atno 10763 bound_to 10752
  154.0280  135.6674  153.4782 H   0  0  0  0  0  0  0  0  0  0  0  0  # atno 10764 bound_to 10752
  153.0678  135.5078  154.8148 H   0  0  0  0  0  0  0  0  0  0  0  0  # atno 10765 bound_to 10752
  139.9355  134.7496  156.1240 H   0  0  0  0  0  0  0  0  0  0  0  0  # atno 11005 bound_to 11000
  144.7081  139.8480  143.7423 LP  0  0  0  0  0  0  0  0  0  0  0  0  # atno 17320 bound_to 7965
  146.1105  139.4110  143.0290 LP  0  0  0  0  0  0  0  0  0  0  0  0  # atno 17321 bound_to 7965
  140.3507  144.3093  150.5950 LP  0  0  0  0  0  0  0  0  0  0  0  0  # atno 17342 bound_to 10162
  140.5488  143.2210  151.7962 LP  0  0  0  0  0  0  0  0  0  0  0  0  # atno 17343 bound_to 10162
  155.9812  130.4818  150.6815 LP  0  0  0  0  0  0  0  0  0  0  0  0  # atno 17370 bound_to 10713
  157.4410  131.0861  151.0944 LP  0  0  0  0  0  0  0  0  0  0  0  0  # atno 17371 bound_to 10713
  141.0967  133.6693  156.2661 LP  0  0  0  0  0  0  0  0  0  0  0  0  # atno 17394 bound_to 11000
  140.6086  134.5481  157.5530 LP  0  0  0  0  0  0  0  0  0  0  0  0  # atno 17395 bound_to 11000

$$$$
