AV-unprocessed.smi:1701|AV-procd|sdf|6831|dock3
  -GOLD-   22720 8 03D 1   1.00000     0.00000
 Structure written by MMmdl.
 54 56  0  0  0  0  0  0  0  0  2 V2000
  152.5271  141.8731  159.2143 C   0  0  0  0  0  0  0  0  0  0  0  0
  152.1143  140.6458  158.3868 C   0  0  0  0  0  0  0  0  0  0  0  0
  151.6080  140.9960  157.0601 N   0  0  0  0  0  0  0  0  0  0  0  0
  151.0620  142.3447  156.8906 C   0  0  0  0  0  0  0  0  0  0  0  0
  149.6631  142.5113  157.5055 C   0  0  0  0  0  0  0  0  0  0  0  0
  150.9957  139.9273  156.3685 C   0  0  0  0  0  0  0  0  0  0  0  0
  150.2362  138.9702  157.0789 C   0  0  0  0  0  0  0  0  0  0  0  0
  149.6207  137.9221  156.3697 C   0  0  0  0  0  0  0  0  0  0  0  0
  149.7693  137.8509  154.9708 C   0  0  0  0  0  0  0  0  0  0  0  0
  149.1314  136.7717  154.2989 N   0  0  0  0  0  0  0  0  0  0  0  0
  148.3810  135.7686  154.7966 C   0  0  0  0  0  0  0  0  0  0  0  0
  148.1054  135.6120  155.9828 O   0  0  0  0  0  0  0  0  0  0  0  0
  147.9291  134.9099  153.8654 N   0  0  0  0  0  0  0  0  0  0  0  0
  147.0962  133.7230  154.0620 C   0  0  2  0  0  0  0  0  0  0  0  0
  147.8749  132.4777  154.5316 C   0  0  0  0  0  0  0  0  0  0  0  0
  147.2446  131.2913  153.7746 C   0  0  0  0  0  0  0  0  0  0  0  0
  146.1038  131.8636  153.0346 N   0  3  2  0  0  0  0  0  0  0  0  0
  145.6417  131.1332  151.8342 C   0  0  0  0  0  0  0  0  0  0  0  0
  144.4046  131.8456  151.2502 C   0  0  0  0  0  0  0  0  0  0  0  0
  144.6706  133.3440  150.9975 C   0  0  0  0  0  0  0  0  0  0  0  0
  145.2375  134.0288  152.2561 C   0  0  0  0  0  0  0  0  0  0  0  0
  146.4731  133.2575  152.7469 C   0  0  1  0  0  0  0  0  0  0  0  0
  150.5496  138.8542  154.3463 C   0  0  0  0  0  0  0  0  0  0  0  0
  151.1421  139.8604  155.0232 N   0  0  0  0  0  0  0  0  0  0  0  0
  152.9026  141.5689  160.1915 H   0  0  0  0  0  0  0  0  0  0  0  0
  151.6835  142.5439  159.3801 H   0  0  0  0  0  0  0  0  0  0  0  0
  153.3158  142.4410  158.7202 H   0  0  0  0  0  0  0  0  0  0  0  0
  152.9757  139.9886  158.2643 H   0  0  0  0  0  0  0  0  0  0  0  0
  151.3778  140.0617  158.9376 H   0  0  0  0  0  0  0  0  0  0  0  0
  151.7483  143.0792  157.3138 H   0  0  0  0  0  0  0  0  0  0  0  0
  151.0026  142.5680  155.8250 H   0  0  0  0  0  0  0  0  0  0  0  0
  149.2779  143.5127  157.3136 H   0  0  0  0  0  0  0  0  0  0  0  0
  149.6676  142.3659  158.5856 H   0  0  0  0  0  0  0  0  0  0  0  0
  148.9589  141.7988  157.0753 H   0  0  0  0  0  0  0  0  0  0  0  0
  150.1306  139.0248  158.1524 H   0  0  0  0  0  0  0  0  0  0  0  0
  149.0405  137.1806  156.8993 H   0  0  0  0  0  0  0  0  0  0  0  0
  149.2749  136.7508  153.3001 H   0  0  0  0  0  0  0  0  0  0  0  0
  148.1811  135.1172  152.9096 H   0  0  0  0  0  0  0  0  0  0  0  0
  146.2923  133.9368  154.7697 H   0  0  0  0  0  0  0  0  0  0  0  0
  148.9350  132.5523  154.2844 H   0  0  0  0  0  0  0  0  0  0  0  0
  147.7993  132.3540  155.6124 H   0  0  0  0  0  0  0  0  0  0  0  0
  147.9684  130.8672  153.0765 H   0  0  0  0  0  0  0  0  0  0  0  0
  146.9137  130.4973  154.4445 H   0  0  0  0  0  0  0  0  0  0  0  0
  146.4422  131.0890  151.0941 H   0  0  0  0  0  0  0  0  0  0  0  0
  145.3934  130.1061  152.1033 H   0  0  0  0  0  0  0  0  0  0  0  0
  144.0963  131.3595  150.3241 H   0  0  0  0  0  0  0  0  0  0  0  0
  143.5689  131.7420  151.9438 H   0  0  0  0  0  0  0  0  0  0  0  0
  145.3796  133.4517  150.1758 H   0  0  0  0  0  0  0  0  0  0  0  0
  143.7529  133.8406  150.6810 H   0  0  0  0  0  0  0  0  0  0  0  0
  145.5003  135.0638  152.0347 H   0  0  0  0  0  0  0  0  0  0  0  0
  144.4765  134.0581  153.0373 H   0  0  0  0  0  0  0  0  0  0  0  0
  147.2373  133.2591  151.9656 H   0  0  0  0  0  0  0  0  0  0  0  0
  150.7271  138.8772  153.2839 H   0  0  0  0  0  0  0  0  0  0  0  0
  145.3294  131.9003  153.6821 H   0  0  0  0  0  0  0  0  0  0  0  0
  1  2  1  0  0  0  0
  1 25  1  0  0  0  0
  1 26  1  0  0  0  0
  1 27  1  0  0  0  0
  2  3  1  0  0  0  0
  2 28  1  0  0  0  0
  2 29  1  0  0  0  0
  3  4  1  0  0  0  0
  3  6  1  0  0  0  0
  4  5  1  0  0  0  0
  4 30  1  0  0  0  0
  4 31  1  0  0  0  0
  5 32  1  0  0  0  0
  5 33  1  0  0  0  0
  5 34  1  0  0  0  0
  6 24  1  0  0  0  0
  6  7  2  0  0  0  0
  7  8  1  0  0  0  0
  7 35  1  0  0  0  0
  8  9  2  0  0  0  0
  8 36  1  0  0  0  0
  9 10  1  0  0  0  0
  9 23  1  0  0  0  0
 10 11  1  0  0  0  0
 10 37  1  0  0  0  0
 11 12  2  0  0  0  0
 11 13  1  0  0  0  0
 13 14  1  0  0  0  0
 13 38  1  0  0  0  0
 14 22  1  0  0  0  0
 14 15  1  0  0  0  0
 14 39  1  0  0  0  0
 15 16  1  0  0  0  0
 15 40  1  0  0  0  0
 15 41  1  0  0  0  0
 16 17  1  0  0  0  0
 16 42  1  0  0  0  0
 16 43  1  0  0  0  0
 17 22  1  0  0  0  0
 17 18  1  0  0  0  0
 17 54  1  0  0  0  0
 18 19  1  0  0  0  0
 18 44  1  0  0  0  0
 18 45  1  0  0  0  0
 19 20  1  0  0  0  0
 19 46  1  0  0  0  0
 19 47  1  0  0  0  0
 20 21  1  0  0  0  0
 20 48  1  0  0  0  0
 20 49  1  0  0  0  0
 21 22  1  0  0  0  0
 21 50  1  0  0  0  0
 21 51  1  0  0  0  0
 22 52  1  0  0  0  0
 23 24  2  0  0  0  0
 23 53  1  0  0  0  0
M  CHG  1  17   1
M  END
> <s_m_source_file>
AV-unprocessed.smi

> <i_m_source_file_index>
1701

> <i_lp_mmshare_version>
43012

> <i_f3d_flags>
0

> <s_epik_input>
W0NIM11bQ0gyXU4oW0NIMl1bQ0gzXSljMVtjSF1bY0hdYyhbY0hdbjEpW05IXUMoPU8pW05IXVtDQEhdKFtDSDJdW0NIMl0yKVtDQEBIXShOMjMpW0NIMl1bQ0gyXVtDSDJdW0NIMl0z

> <s_epik_cmdline>
J2VwaWtfcHl0aG9uJywgJy1waCcsICc3LjAnLCAnLXRuJywgJzgnLCAnLW1hJywgJzIwMCcsICctbWV0YWxfYmluZGluZycsICctaW1hZScsICc8aW5maWxlLm1hZT4nLCAnLW9tYWUnLCAnPG91dGZpbGUubWFlPic=

> <r_lp_tautomer_probability>
1

> <r_epik_Ionization_Penalty>
0.56662

> <r_epik_Ionization_Penalty_Charging>
0.000974069

> <r_epik_Ionization_Penalty_Neutral>
0.565646

> <r_epik_State_Penalty>
2.0247

> <r_epik_Charging_Adjusted_Penalty>
2.02568

> <i_epik_Tot_Q>
1

> <i_epik_Tot_abs_Q>
1

> <r_epik_Metal_State_Penalty>
1.51504

> <b_epik_Metal_Only>
0

> <s_lp_Force_Field>
OPLS_2005

> <r_lp_Energy>
54.426

> <b_lp_Chiralities_Consistent>
1

> <s_lp_Variant>
AV-unprocessed.smi:1701-11

> <Gold.Version>
5.8.1

> <Gold.Id.Protein>
6NUR|6NUR_protein|mol2

> <Gold.PLP.Fitness>
43.9430

> <Gold.PLP.PLP>
-34.7552

> <Gold.PLP.part.hbond>
-2.8675

> <Gold.PLP.part.metal>
0.0000

> <Gold.PLP.part.buried>
-3.5159

> <Gold.PLP.part.nonpolar>
-28.1628

> <Gold.PLP.part.repulsive>
0.0957

> <Gold.PLP.ligand.clash>
0.0000

> <Gold.PLP.ligand.torsion>
1.5370

> <Gold.PLP.Chemscore.Hbond>
2.7940

> <Gold.PLP.Chemscore.CHOScore>
1.0000

> <Gold.PLP.Chemscore.Metal>
0.0000

> <Gold.Chemscore.Hbonds>
donor molecule, donor type, donor heavy atom, donor atom, acceptor molecule, acceptor atom, score
      L1  H    10    37       P1  7948  1.00
      L1  H    13    38       P1  7948  0.94
      P1  H  7989  7998       L1    24  0.80
      L1  C    23    53       P1  7957  0.71

> <Gold.PLP.Chemscore.Internal.Correction>
0.8798

> <Gold.Rescore>
     Score         DG    S(hbond)    S(metal)    S(lipo)     H(rot)  DE(clash)    DE(int)     intcor
     16.74     -19.70       2.17        0.00      87.57       1.28       0.03       2.93       ----

> <Gold.Chemscore.Fitness>
16.7450

> <Gold.Chemscore.DG>
-19.6995

> <Gold.Chemscore.ZeroCoef>
-5.4800

> <Gold.Chemscore.Hbond>
2.1738

> <Gold.Chemscore.Metal>
0.0000

> <Gold.Chemscore.Lipo>
87.5677

> <Gold.Chemscore.Internal_Hbond>
0.0000

> <Gold.Chemscore.DEClash>
0.0260

> <Gold.Chemscore.DEInternal>
2.9285

> <Gold.Chemscore.Rot>
1.2838

> <Gold.Chemscore.Internal.Correction>
   9.000000E+99

> <Gold.Chemscore.Hbonds>
donor molecule, donor type, donor heavy atom, donor atom, acceptor molecule, acceptor atom, score
      L1  H    10    37       P1  7948  0.88
      L1  H    13    38       P1  7948  0.86
      P1  H  7989  7998       L1    24  0.12

> <Gold.Chemscore.Hbond.Weighted>
-7.2606

> <Gold.Chemscore.Metal.Weighted>
-0.0000

> <Gold.Chemscore.Lipo.Weighted>
-10.2454

> <Gold.Chemscore.Internal_Hbond.Weighted>
0.0000

> <Gold.Chemscore.DEClash.Weighted>
0.0260

> <Gold.Chemscore.DEInternal.Weighted>
2.9285

> <Gold.Chemscore.Rot.Weighted>
3.2865

> <Gold.Chemscore.Internal.Correction.Weighted>
   9.000000E+99

> <Gold.Protein.RotatedTorsions>
[ 6907 6896 6895 6894 ] final -163.87 input  -60.11 | X-H torsion
[ 7974 7965 7964 7962 ] final   96.90 input  175.53 | X-H torsion
[ 8008 7997 7996 7995 ] final  117.62 input   59.86 | X-H torsion
[ 10167 10162 10161 10158 ] final -141.21 input  -65.29 | X-H torsion
[ 10718 10713 10712 10709 ] final   36.81 input   66.30 | X-H torsion
[ 10763 10752 10751 10750 ] final    3.15 input  -60.55 | X-H torsion
[ 11005 11000 10999 10996 ] final  -56.53 input  -57.11 | X-H torsion

> <Gold.Protein.ActiveResidues>
 VAL166  LYS551  ARG553  GLY616  TRP617  ASP618  TYR619  PRO620  LYS621  CYS622 
 ASP623  PHE694  ASN695  SER759  ASP760  ASP761  ALA762  ILE779  LEU786  VAL792 
 PHE793  MET794  SER795  GLU796  ALA797  LYS798  CYS799  TRP800  GLU811  SER814 

> <Gold.Protein.RotatedAtoms>
  151.4029  133.3752  159.2734 H   0  0  0  0  0  0  0  0  0  0  0  0  # atno 6907 bound_to 6896
  150.9420  134.8830  159.7629 H   0  0  0  0  0  0  0  0  0  0  0  0  # atno 6908 bound_to 6896
  152.5075  134.3980  159.9459 H   0  0  0  0  0  0  0  0  0  0  0  0  # atno 6909 bound_to 6896
  145.4326  139.2309  143.3136 H   0  0  0  0  0  0  0  0  0  0  0  0  # atno 7974 bound_to 7965
  156.2504  140.2892  156.0707 H   0  0  0  0  0  0  0  0  0  0  0  0  # atno 8008 bound_to 7997
  155.1674  140.0401  157.2873 H   0  0  0  0  0  0  0  0  0  0  0  0  # atno 8009 bound_to 7997
  154.6350  140.2508  155.7396 H   0  0  0  0  0  0  0  0  0  0  0  0  # atno 8010 bound_to 7997
  139.8206  143.7578  152.2666 H   0  0  0  0  0  0  0  0  0  0  0  0  # atno 10167 bound_to 10162
  157.3394  130.7539  149.6901 H   0  0  0  0  0  0  0  0  0  0  0  0  # atno 10718 bound_to 10713
  153.2868  135.6945  153.7331 H   0  0  0  0  0  0  0  0  0  0  0  0  # atno 10763 bound_to 10752
  153.6297  135.3412  155.3038 H   0  0  0  0  0  0  0  0  0  0  0  0  # atno 10764 bound_to 10752
  154.8512  135.4406  154.1939 H   0  0  0  0  0  0  0  0  0  0  0  0  # atno 10765 bound_to 10752
  141.1124  133.6610  156.4632 H   0  0  0  0  0  0  0  0  0  0  0  0  # atno 11005 bound_to 11000
  146.2599  140.5065  142.8858 LP  0  0  0  0  0  0  0  0  0  0  0  0  # atno 17320 bound_to 7965
  144.8173  140.6489  143.6376 LP  0  0  0  0  0  0  0  0  0  0  0  0  # atno 17321 bound_to 7965
  139.7755  144.7462  151.0162 LP  0  0  0  0  0  0  0  0  0  0  0  0  # atno 17342 bound_to 10162
  140.7813  143.4598  151.0294 LP  0  0  0  0  0  0  0  0  0  0  0  0  # atno 17343 bound_to 10162
  155.9705  130.4172  150.4268 LP  0  0  0  0  0  0  0  0  0  0  0  0  # atno 17370 bound_to 10713
  157.2313  131.0505  151.2490 LP  0  0  0  0  0  0  0  0  0  0  0  0  # atno 17371 bound_to 10713
  140.4739  134.6728  157.5141 LP  0  0  0  0  0  0  0  0  0  0  0  0  # atno 17394 bound_to 11000
  140.0025  134.6814  155.9507 LP  0  0  0  0  0  0  0  0  0  0  0  0  # atno 17395 bound_to 11000

$$$$
