AV-unprocessed.smi:2409|AV-procd|sdf|9524|dock6
  -GOLD-   2272013153D 1   1.00000     0.00000
 Structure written by MMmdl.
 35 36  0  0  0  0  0  0  0  0  1 V2000
  152.2283  138.9737  157.4403 C   0  0  0  0  0  0  0  0  0  0  0  0
  152.3647  139.9970  156.4691 O   0  0  0  0  0  0  0  0  0  0  0  0
  151.2537  140.1852  155.7254 C   0  0  0  0  0  0  0  0  0  0  0  0
  150.4067  141.2510  155.5979 C   0  0  0  0  0  0  0  0  0  0  0  0
  150.4355  142.5194  156.2308 N   0  0  0  0  0  0  0  0  0  0  0  0
  151.2048  142.9005  157.2673 C   0  0  0  0  0  0  0  0  0  0  0  0
  152.0057  142.1668  157.8424 O   0  0  0  0  0  0  0  0  0  0  0  0
  151.0312  144.1780  157.6499 N   0  0  0  0  0  0  0  0  0  0  0  0
  151.6922  144.8809  158.7102 C   0  0  2  0  0  0  0  0  0  0  0  0
  151.9466  144.1152  159.9907 C   0  0  0  0  0  0  0  0  0  0  0  0
  150.9143  145.2116  159.9709 C   0  0  2  0  0  0  0  0  0  0  0  0
  149.4404  144.8877  160.1169 C   0  0  0  0  0  0  0  0  0  0  0  0
  149.3895  140.8095  154.7074 C   0  0  0  0  0  0  0  0  0  0  0  0
  148.1706  141.5393  154.2210 C   0  0  0  0  0  0  0  0  0  0  0  0
  149.6279  139.5738  154.2820 N   0  0  0  0  0  0  0  0  0  0  0  0
  150.7740  139.1923  154.8972 N   0  0  0  0  0  0  0  0  0  0  0  0
  151.3112  137.8688  154.6575 C   0  0  0  0  0  0  0  0  0  0  0  0
  153.1608  138.8702  157.9948 H   0  0  0  0  0  0  0  0  0  0  0  0
  152.0083  138.0148  156.9689 H   0  0  0  0  0  0  0  0  0  0  0  0
  151.4364  139.1997  158.1552 H   0  0  0  0  0  0  0  0  0  0  0  0
  149.8828  143.2421  155.7936 H   0  0  0  0  0  0  0  0  0  0  0  0
  150.3251  144.7017  157.1529 H   0  0  0  0  0  0  0  0  0  0  0  0
  152.4832  145.5770  158.4350 H   0  0  0  0  0  0  0  0  0  0  0  0
  151.5934  143.0870  160.0471 H   0  0  0  0  0  0  0  0  0  0  0  0
  152.8775  144.3144  160.5178 H   0  0  0  0  0  0  0  0  0  0  0  0
  151.1972  146.1428  160.4583 H   0  0  0  0  0  0  0  0  0  0  0  0
  149.2083  143.9075  159.6991 H   0  0  0  0  0  0  0  0  0  0  0  0
  148.8406  145.6375  159.6006 H   0  0  0  0  0  0  0  0  0  0  0  0
  149.1627  144.8856  161.1710 H   0  0  0  0  0  0  0  0  0  0  0  0
  148.2020  142.5940  154.4945 H   0  0  0  0  0  0  0  0  0  0  0  0
  147.2639  141.1128  154.6499 H   0  0  0  0  0  0  0  0  0  0  0  0
  148.0852  141.4836  153.1356 H   0  0  0  0  0  0  0  0  0  0  0  0
  152.3978  137.8870  154.7464 H   0  0  0  0  0  0  0  0  0  0  0  0
  151.0467  137.5285  153.6555 H   0  0  0  0  0  0  0  0  0  0  0  0
  150.9056  137.1722  155.3914 H   0  0  0  0  0  0  0  0  0  0  0  0
  1  2  1  0  0  0  0
  1 18  1  0  0  0  0
  1 19  1  0  0  0  0
  1 20  1  0  0  0  0
  2  3  1  0  0  0  0
  3 16  1  0  0  0  0
  3  4  2  0  0  0  0
  4  5  1  0  0  0  0
  4 13  1  0  0  0  0
  5  6  1  0  0  0  0
  5 21  1  0  0  0  0
  6  7  2  0  0  0  0
  6  8  1  0  0  0  0
  8  9  1  0  0  0  0
  8 22  1  0  0  0  0
  9 11  1  0  0  0  0
  9 10  1  0  0  0  0
  9 23  1  0  0  0  0
 10 11  1  0  0  0  0
 10 24  1  0  0  0  0
 10 25  1  0  0  0  0
 11 12  1  0  0  0  0
 11 26  1  0  0  0  0
 12 27  1  0  0  0  0
 12 28  1  0  0  0  0
 12 29  1  0  0  0  0
 13 14  1  0  0  0  0
 13 15  2  0  0  0  0
 14 30  1  0  0  0  0
 14 31  1  0  0  0  0
 14 32  1  0  0  0  0
 15 16  1  0  0  0  0
 16 17  1  0  0  0  0
 17 33  1  0  0  0  0
 17 34  1  0  0  0  0
 17 35  1  0  0  0  0
M  END
> <s_m_source_file>
AV-unprocessed.smi

> <i_m_source_file_index>
2409

> <i_lp_mmshare_version>
43012

> <i_f3d_flags>
0

> <s_epik_input>
W0NIM11uMW5jKFtDSDNdKWMoYzFPW0NIM10pW05IXUMoPU8pW05IXVtDQEBIXTJbQ0gyXVtDQEhdMltDSDNd

> <s_epik_cmdline>
J2VwaWtfcHl0aG9uJywgJy1waCcsICc3LjAnLCAnLXRuJywgJzgnLCAnLW1hJywgJzIwMCcsICctbWV0YWxfYmluZGluZycsICctaW1hZScsICc8aW5maWxlLm1hZT4nLCAnLW9tYWUnLCAnPG91dGZpbGUubWFlPic=

> <r_lp_tautomer_probability>
1

> <r_epik_Ionization_Penalty>
0.000417804

> <r_epik_Ionization_Penalty_Charging>
0

> <r_epik_Ionization_Penalty_Neutral>
0.000417804

> <r_epik_State_Penalty>
-0

> <r_epik_Charging_Adjusted_Penalty>
0

> <i_epik_Tot_Q>
0

> <i_epik_Tot_abs_Q>
0

> <r_epik_Metal_State_Penalty>
-0

> <b_epik_Metal_Only>
0

> <s_lp_Force_Field>
OPLS_2005

> <r_lp_Energy>
35.5407

> <b_lp_Chiralities_Consistent>
1

> <s_lp_Variant>
AV-unprocessed.smi:2409-3

> <Gold.Version>
5.8.1

> <Gold.Id.Protein>
6NUR|6NUR_protein|mol2

> <Gold.PLP.Fitness>
44.8436

> <Gold.PLP.PLP>
-39.3529

> <Gold.PLP.part.hbond>
-3.0000

> <Gold.PLP.part.metal>
0.0000

> <Gold.PLP.part.buried>
-4.6986

> <Gold.PLP.part.nonpolar>
-32.3093

> <Gold.PLP.part.repulsive>
0.3037

> <Gold.PLP.ligand.clash>
0.0000

> <Gold.PLP.ligand.torsion>
0.2623

> <Gold.PLP.Chemscore.Hbond>
1.9920

> <Gold.PLP.Chemscore.CHOScore>
0.0000

> <Gold.PLP.Chemscore.Metal>
0.0000

> <Gold.Chemscore.Hbonds>
donor molecule, donor type, donor heavy atom, donor atom, acceptor molecule, acceptor atom, score
      L1  H     5    21       P1  8028  1.00
      L1  H     8    22       P1  8028  0.98

> <Gold.PLP.Chemscore.Internal.Correction>
0.0393

> <Gold.Rescore>
     Score         DG    S(hbond)    S(metal)    S(lipo)     H(rot)  DE(clash)    DE(int)     intcor
     12.90     -17.02       1.85        0.00      72.68       1.23       0.01       4.11       ----

> <Gold.Chemscore.Fitness>
12.8987

> <Gold.Chemscore.DG>
-17.0208

> <Gold.Chemscore.ZeroCoef>
-5.4800

> <Gold.Chemscore.Hbond>
1.8514

> <Gold.Chemscore.Metal>
0.0000

> <Gold.Chemscore.Lipo>
72.6811

> <Gold.Chemscore.Internal_Hbond>
0.0000

> <Gold.Chemscore.DEClash>
0.0147

> <Gold.Chemscore.DEInternal>
4.1074

> <Gold.Chemscore.Rot>
1.2292

> <Gold.Chemscore.Internal.Correction>
   9.000000E+99

> <Gold.Chemscore.Hbonds>
donor molecule, donor type, donor heavy atom, donor atom, acceptor molecule, acceptor atom, score
      L1  H     5    21       P1  8028  0.99
      L1  H     8    22       P1  8028  0.43

> <Gold.Chemscore.Hbond.Weighted>
-6.1837

> <Gold.Chemscore.Metal.Weighted>
-0.0000

> <Gold.Chemscore.Lipo.Weighted>
-8.5037

> <Gold.Chemscore.Internal_Hbond.Weighted>
0.0000

> <Gold.Chemscore.DEClash.Weighted>
0.0147

> <Gold.Chemscore.DEInternal.Weighted>
4.1074

> <Gold.Chemscore.Rot.Weighted>
3.1467

> <Gold.Chemscore.Internal.Correction.Weighted>
   9.000000E+99

> <Gold.Protein.RotatedTorsions>
[ 6907 6896 6895 6894 ] final  -94.37 input  -60.11 | X-H torsion
[ 7974 7965 7964 7962 ] final   68.80 input  175.53 | X-H torsion
[ 8008 7997 7996 7995 ] final -102.55 input   59.86 | X-H torsion
[ 10167 10162 10161 10158 ] final    9.22 input  -65.29 | X-H torsion
[ 10718 10713 10712 10709 ] final   56.23 input   66.30 | X-H torsion
[ 10763 10752 10751 10750 ] final -115.01 input  -60.55 | X-H torsion
[ 11005 11000 10999 10996 ] final -151.79 input  -57.11 | X-H torsion

> <Gold.Protein.ActiveResidues>
 VAL166  LYS551  ARG553  GLY616  TRP617  ASP618  TYR619  PRO620  LYS621  CYS622 
 ASP623  PHE694  ASN695  SER759  ASP760  ASP761  ALA762  ILE779  LEU786  VAL792 
 PHE793  MET794  SER795  GLU796  ALA797  LYS798  CYS799  TRP800  GLU811  SER814 

> <Gold.Protein.RotatedAtoms>
  150.6940  134.1823  159.4253 H   0  0  0  0  0  0  0  0  0  0  0  0  # atno 6907 bound_to 6896
  151.9797  135.0032  160.0566 H   0  0  0  0  0  0  0  0  0  0  0  0  # atno 6908 bound_to 6896
  152.1766  133.4644  159.4973 H   0  0  0  0  0  0  0  0  0  0  0  0  # atno 6909 bound_to 6896
  145.7982  139.2968  143.1170 H   0  0  0  0  0  0  0  0  0  0  0  0  # atno 7974 bound_to 7965
  154.8583  140.0428  157.1649 H   0  0  0  0  0  0  0  0  0  0  0  0  # atno 8008 bound_to 7997
  154.8868  140.2980  155.5373 H   0  0  0  0  0  0  0  0  0  0  0  0  # atno 8009 bound_to 7997
  156.2998  140.2401  156.3878 H   0  0  0  0  0  0  0  0  0  0  0  0  # atno 8010 bound_to 7997
  140.6268  143.8083  150.7243 H   0  0  0  0  0  0  0  0  0  0  0  0  # atno 10167 bound_to 10162
  157.5413  130.8699  149.8826 H   0  0  0  0  0  0  0  0  0  0  0  0  # atno 10718 bound_to 10713
  154.8464  135.4397  154.1596 H   0  0  0  0  0  0  0  0  0  0  0  0  # atno 10763 bound_to 10752
  153.2736  135.6947  153.7462 H   0  0  0  0  0  0  0  0  0  0  0  0  # atno 10764 bound_to 10752
  153.6692  135.3421  155.3124 H   0  0  0  0  0  0  0  0  0  0  0  0  # atno 10765 bound_to 10752
  140.7259  134.3676  157.5175 H   0  0  0  0  0  0  0  0  0  0  0  0  # atno 11005 bound_to 11000
  145.9906  140.8606  143.0068 LP  0  0  0  0  0  0  0  0  0  0  0  0  # atno 17320 bound_to 7965
  144.6772  140.2210  143.7366 LP  0  0  0  0  0  0  0  0  0  0  0  0  # atno 17321 bound_to 7965
  140.1686  143.4214  152.2017 LP  0  0  0  0  0  0  0  0  0  0  0  0  # atno 17342 bound_to 10162
  139.5487  144.7320  151.4502 LP  0  0  0  0  0  0  0  0  0  0  0  0  # atno 17343 bound_to 10162
  156.0499  130.3720  150.1227 LP  0  0  0  0  0  0  0  0  0  0  0  0  # atno 17370 bound_to 10713
  156.9406  130.9743  151.3517 LP  0  0  0  0  0  0  0  0  0  0  0  0  # atno 17371 bound_to 10713
  139.8837  134.8986  156.2748 LP  0  0  0  0  0  0  0  0  0  0  0  0  # atno 17394 bound_to 11000
  140.9963  133.7178  156.0892 LP  0  0  0  0  0  0  0  0  0  0  0  0  # atno 17395 bound_to 11000

$$$$
