AV-unprocessed.smi:447|AV-procd|sdf|2603|dock3
  -GOLD-   2262023 03D 1   1.00000     0.00000
 Structure written by MMmdl.
 46 48  0  0  0  0  0  0  0  0  2 V2000
  147.2469  133.3562  151.6345 C   0  0  0  0  0  0  0  0  0  0  0  0
  146.9975  133.5743  153.1229 C   0  0  0  0  0  0  0  0  0  0  0  0
  146.3076  132.7752  153.7548 O   0  0  0  0  0  0  0  0  0  0  0  0
  147.5626  134.6614  153.6712 N   0  0  0  0  0  0  0  0  0  0  0  0
  147.4233  135.0663  155.0677 C   0  0  2  0  0  0  0  0  0  0  0  0
  145.9453  135.3220  155.3896 C   0  0  0  0  0  0  0  0  0  0  0  0
  148.2508  136.2747  155.3991 C   0  0  0  0  0  0  0  0  0  0  0  0
  149.0129  136.9908  154.5230 N   0  3  0  0  0  0  0  0  0  0  0  0
  149.6416  138.0419  155.1906 C   0  0  0  0  0  0  0  0  0  0  0  0
  150.5111  139.0246  154.7270 C   0  0  0  0  0  0  0  0  0  0  0  0
  150.9821  139.9529  155.6786 C   0  0  0  0  0  0  0  0  0  0  0  0
  150.5882  139.8817  157.0304 C   0  0  0  0  0  0  0  0  0  0  0  0
  149.7038  138.8827  157.4874 C   0  0  0  0  0  0  0  0  0  0  0  0
  149.2402  137.9698  156.5401 C   0  0  0  0  0  0  0  0  0  0  0  0
  148.3756  136.8710  156.6201 N   0  0  0  0  0  0  0  0  0  0  0  0
  147.7642  136.5203  157.9125 C   0  0  0  0  0  0  0  0  0  0  0  0
  148.5722  135.4615  158.6889 C   0  0  1  0  0  0  0  0  0  0  0  0
  149.9354  135.8334  158.7474 O   0  0  0  0  0  0  0  0  0  0  0  0
  147.9841  135.2207  160.0694 C   0  0  0  0  0  0  0  0  0  0  0  0
  147.8714  136.2803  160.9964 C   0  0  0  0  0  0  0  0  0  0  0  0
  147.3222  136.0508  162.2730 C   0  0  0  0  0  0  0  0  0  0  0  0
  146.8806  134.7620  162.6286 C   0  0  0  0  0  0  0  0  0  0  0  0
  146.9858  133.7032  161.7062 C   0  0  0  0  0  0  0  0  0  0  0  0
  147.5351  133.9321  160.4295 C   0  0  0  0  0  0  0  0  0  0  0  0
  148.2236  133.7402  151.3380 H   0  0  0  0  0  0  0  0  0  0  0  0
  146.4829  133.8654  151.0467 H   0  0  0  0  0  0  0  0  0  0  0  0
  147.2134  132.2932  151.3930 H   0  0  0  0  0  0  0  0  0  0  0  0
  148.1115  135.2626  153.0737 H   0  0  0  0  0  0  0  0  0  0  0  0
  147.7589  134.2325  155.6858 H   0  0  0  0  0  0  0  0  0  0  0  0
  145.8129  135.5733  156.4425 H   0  0  0  0  0  0  0  0  0  0  0  0
  145.3406  134.4381  155.1851 H   0  0  0  0  0  0  0  0  0  0  0  0
  145.5436  136.1453  154.7978 H   0  0  0  0  0  0  0  0  0  0  0  0
  150.8171  139.0790  153.6926 H   0  0  0  0  0  0  0  0  0  0  0  0
  151.6612  140.7332  155.3667 H   0  0  0  0  0  0  0  0  0  0  0  0
  150.9729  140.6071  157.7326 H   0  0  0  0  0  0  0  0  0  0  0  0
  149.4155  138.8348  158.5270 H   0  0  0  0  0  0  0  0  0  0  0  0
  147.6233  137.4253  158.5037 H   0  0  0  0  0  0  0  0  0  0  0  0
  146.7623  136.1436  157.7034 H   0  0  0  0  0  0  0  0  0  0  0  0
  148.5337  134.5218  158.1380 H   0  0  0  0  0  0  0  0  0  0  0  0
  150.0323  136.6762  158.3306 H   0  0  0  0  0  0  0  0  0  0  0  0
  148.2051  137.2728  160.7309 H   0  0  0  0  0  0  0  0  0  0  0  0
  147.2396  136.8640  162.9790 H   0  0  0  0  0  0  0  0  0  0  0  0
  146.4603  134.5859  163.6078 H   0  0  0  0  0  0  0  0  0  0  0  0
  146.6451  132.7149  161.9776 H   0  0  0  0  0  0  0  0  0  0  0  0
  147.6104  133.1137  159.7285 H   0  0  0  0  0  0  0  0  0  0  0  0
  149.1007  136.7673  153.5402 H   0  0  0  0  0  0  0  0  0  0  0  0
  1  2  1  0  0  0  0
  1 25  1  0  0  0  0
  1 26  1  0  0  0  0
  1 27  1  0  0  0  0
  2  3  2  0  0  0  0
  2  4  1  0  0  0  0
  4  5  1  0  0  0  0
  4 28  1  0  0  0  0
  5  6  1  0  0  0  0
  5  7  1  0  0  0  0
  5 29  1  0  0  0  0
  6 30  1  0  0  0  0
  6 31  1  0  0  0  0
  6 32  1  0  0  0  0
  7 15  1  0  0  0  0
  7  8  2  0  0  0  0
  8  9  1  0  0  0  0
  8 46  1  0  0  0  0
  9 14  2  0  0  0  0
  9 10  1  0  0  0  0
 10 11  2  0  0  0  0
 10 33  1  0  0  0  0
 11 12  1  0  0  0  0
 11 34  1  0  0  0  0
 12 13  2  0  0  0  0
 12 35  1  0  0  0  0
 13 14  1  0  0  0  0
 13 36  1  0  0  0  0
 14 15  1  0  0  0  0
 15 16  1  0  0  0  0
 16 17  1  0  0  0  0
 16 37  1  0  0  0  0
 16 38  1  0  0  0  0
 17 18  1  0  0  0  0
 17 19  1  0  0  0  0
 17 39  1  0  0  0  0
 18 40  1  0  0  0  0
 19 24  1  0  0  0  0
 19 20  2  0  0  0  0
 20 21  1  0  0  0  0
 20 41  1  0  0  0  0
 21 22  2  0  0  0  0
 21 42  1  0  0  0  0
 22 23  1  0  0  0  0
 22 43  1  0  0  0  0
 23 24  2  0  0  0  0
 23 44  1  0  0  0  0
 24 45  1  0  0  0  0
M  CHG  1   8   1
M  END
> <s_m_source_file>
AV-unprocessed.smi

> <i_m_source_file_index>
447

> <i_lp_mmshare_version>
43012

> <i_f3d_flags>
0

> <s_epik_input>
W0NIM11DKD1PKVtOSF1bQ0BIXShbQ0gzXSljKG4xKW4oYyhjMTIpW2NIXVtjSF1bY0hdW2NIXTIpW0NIMl1bQ0BIXShbT0hdKWMzW2NIXVtjSF1bY0hdW2NIXVtjSF0z

> <s_epik_cmdline>
J2VwaWtfcHl0aG9uJywgJy1waCcsICc3LjAnLCAnLXRuJywgJzgnLCAnLW1hJywgJzIwMCcsICctbWV0YWxfYmluZGluZycsICctaW1hZScsICc8aW5maWxlLm1hZT4nLCAnLW9tYWUnLCAnPG91dGZpbGUubWFlPic=

> <r_epik_Ionization_Penalty>
0.950381

> <r_epik_Ionization_Penalty_Charging>
0.950379

> <r_epik_Ionization_Penalty_Neutral>
1.42115e-06

> <r_epik_State_Penalty>
0.994584

> <r_epik_Charging_Adjusted_Penalty>
1.94496

> <i_epik_Tot_Q>
1

> <i_epik_Tot_abs_Q>
1

> <r_epik_Metal_State_Penalty>
1.10485

> <b_epik_Metal_Only>
0

> <s_lp_Force_Field>
OPLS_2005

> <r_lp_Energy>
11.1979

> <b_lp_Chiralities_Consistent>
1

> <s_lp_Variant>
AV-unprocessed.smi:447-7

> <Gold.Version>
5.8.1

> <Gold.Id.Protein>
6NUR|6NUR_protein|mol2

> <Gold.PLP.Fitness>
46.6068

> <Gold.PLP.PLP>
-35.3362

> <Gold.PLP.part.hbond>
-3.0000

> <Gold.PLP.part.metal>
0.0000

> <Gold.PLP.part.buried>
-3.8821

> <Gold.PLP.part.nonpolar>
-28.8925

> <Gold.PLP.part.repulsive>
0.0959

> <Gold.PLP.ligand.clash>
0.0000

> <Gold.PLP.ligand.torsion>
0.4303

> <Gold.PLP.Chemscore.Hbond>
4.0000

> <Gold.PLP.Chemscore.CHOScore>
0.0000

> <Gold.PLP.Chemscore.Metal>
0.0000

> <Gold.Chemscore.Hbonds>
donor molecule, donor type, donor heavy atom, donor atom, acceptor molecule, acceptor atom, score
      L1  H     4    28       P1  7948  1.00
      L1  H     8    46       P1  7948  2.00
      P1  H  6896  6907       L1    18  1.00

> <Gold.PLP.Chemscore.Internal.Correction>
0.1312

> <Gold.Rescore>
     Score         DG    S(hbond)    S(metal)    S(lipo)     H(rot)  DE(clash)    DE(int)     intcor
     18.70     -19.11       2.94        0.00      85.17       2.41       0.02       0.39       ----

> <Gold.Chemscore.Fitness>
18.7025

> <Gold.Chemscore.DG>
-19.1076

> <Gold.Chemscore.ZeroCoef>
-5.4800

> <Gold.Chemscore.Hbond>
2.9446

> <Gold.Chemscore.Metal>
0.0000

> <Gold.Chemscore.Lipo>
85.1725

> <Gold.Chemscore.Internal_Hbond>
0.0000

> <Gold.Chemscore.DEClash>
0.0177

> <Gold.Chemscore.DEInternal>
0.3874

> <Gold.Chemscore.Rot>
2.4112

> <Gold.Chemscore.Internal.Correction>
   9.000000E+99

> <Gold.Chemscore.Hbonds>
donor molecule, donor type, donor heavy atom, donor atom, acceptor molecule, acceptor atom, score
      L1  H     4    28       P1  7948  0.99
      L1  H     8    46       P1  7948  1.00
      P1  H  6896  6907       L1    18  0.84

> <Gold.Chemscore.Hbond.Weighted>
-9.8351

> <Gold.Chemscore.Metal.Weighted>
-0.0000

> <Gold.Chemscore.Lipo.Weighted>
-9.9652

> <Gold.Chemscore.Internal_Hbond.Weighted>
0.0000

> <Gold.Chemscore.DEClash.Weighted>
0.0177

> <Gold.Chemscore.DEInternal.Weighted>
0.3874

> <Gold.Chemscore.Rot.Weighted>
6.1727

> <Gold.Chemscore.Internal.Correction.Weighted>
   9.000000E+99

> <Gold.Protein.RotatedTorsions>
[ 6907 6896 6895 6894 ] final  -51.74 input  -60.11 | X-H torsion
[ 7974 7965 7964 7962 ] final -139.19 input  175.53 | X-H torsion
[ 8008 7997 7996 7995 ] final  117.81 input   59.86 | X-H torsion
[ 10167 10162 10161 10158 ] final  105.96 input  -65.29 | X-H torsion
[ 10718 10713 10712 10709 ] final   10.56 input   66.30 | X-H torsion
[ 10763 10752 10751 10750 ] final  -30.77 input  -60.55 | X-H torsion
[ 11005 11000 10999 10996 ] final  -18.91 input  -57.11 | X-H torsion

> <Gold.Protein.ActiveResidues>
 VAL166  LYS551  ARG553  GLY616  TRP617  ASP618  TYR619  PRO620  LYS621  CYS622 
 ASP623  PHE694  ASN695  SER759  ASP760  ASP761  ALA762  ILE779  LEU786  VAL792 
 PHE793  MET794  SER795  GLU796  ALA797  LYS798  CYS799  TRP800  GLU811  SER814 

> <Gold.Protein.RotatedAtoms>
  150.8582  134.7927  159.7062 H   0  0  0  0  0  0  0  0  0  0  0  0  # atno 6907 bound_to 6896
  152.4627  134.5143  159.9773 H   0  0  0  0  0  0  0  0  0  0  0  0  # atno 6908 bound_to 6896
  151.5251  133.3421  159.2944 H   0  0  0  0  0  0  0  0  0  0  0  0  # atno 6909 bound_to 6896
  144.8697  140.6347  143.5275 H   0  0  0  0  0  0  0  0  0  0  0  0  # atno 7974 bound_to 7965
  156.2514  140.2888  156.0736 H   0  0  0  0  0  0  0  0  0  0  0  0  # atno 8008 bound_to 7997
  155.1644  140.0400  157.2867 H   0  0  0  0  0  0  0  0  0  0  0  0  # atno 8009 bound_to 7997
  154.6370  140.2513  155.7373 H   0  0  0  0  0  0  0  0  0  0  0  0  # atno 8010 bound_to 7997
  139.7049  144.7088  151.1123 H   0  0  0  0  0  0  0  0  0  0  0  0  # atno 10167 bound_to 10162
  156.9827  130.6012  149.5678 H   0  0  0  0  0  0  0  0  0  0  0  0  # atno 10718 bound_to 10713
  153.7863  135.6901  153.4879 H   0  0  0  0  0  0  0  0  0  0  0  0  # atno 10763 bound_to 10752
  153.1778  135.4518  154.9987 H   0  0  0  0  0  0  0  0  0  0  0  0  # atno 10764 bound_to 10752
  154.8062  135.3358  154.7363 H   0  0  0  0  0  0  0  0  0  0  0  0  # atno 10765 bound_to 10752
  140.8315  133.7994  155.9763 H   0  0  0  0  0  0  0  0  0  0  0  0  # atno 11005 bound_to 11000
  145.4155  139.1573  143.4103 LP  0  0  0  0  0  0  0  0  0  0  0  0  # atno 17320 bound_to 7965
  146.2921  140.4261  142.8735 LP  0  0  0  0  0  0  0  0  0  0  0  0  # atno 17321 bound_to 7965
  140.7719  143.5372  150.9354 LP  0  0  0  0  0  0  0  0  0  0  0  0  # atno 17342 bound_to 10162
  139.9055  143.6783  152.3124 LP  0  0  0  0  0  0  0  0  0  0  0  0  # atno 17343 bound_to 10162
  156.0238  130.5332  150.8349 LP  0  0  0  0  0  0  0  0  0  0  0  0  # atno 17370 bound_to 10713
  157.5514  131.0944  150.9689 LP  0  0  0  0  0  0  0  0  0  0  0  0  # atno 17371 bound_to 10713
  140.8993  134.2398  157.5050 LP  0  0  0  0  0  0  0  0  0  0  0  0  # atno 17394 bound_to 11000
  139.8705  134.9699  156.4682 LP  0  0  0  0  0  0  0  0  0  0  0  0  # atno 17395 bound_to 11000

$$$$
