AV-unprocessed.smi:2054|AV-procd|sdf|8332|dock2
  -GOLD-   2272010593D 1   1.00000     0.00000
 Structure written by MMmdl.
 42 43  0  0  0  0  0  0  0  0  1 V2000
  147.0836  142.1646  153.8306 C   0  0  0  0  0  0  0  0  0  0  0  0
  146.7169  141.4902  155.5036 S   0  0  0  0  0  0  0  0  0  0  0  0
  146.2181  142.5999  156.3303 O   0  0  0  0  0  0  0  0  0  0  0  0
  145.9200  140.2619  155.3647 O   0  0  0  0  0  0  0  0  0  0  0  0
  148.2825  141.0405  156.1010 N   0  0  0  0  0  0  0  0  0  0  0  0
  149.4569  141.4446  155.3020 C   0  0  0  0  0  0  0  0  0  0  0  0
  150.7545  141.3593  156.1218 C   0  0  0  0  0  0  0  0  0  0  0  0
  150.9453  139.9545  156.7157 C   0  0  0  0  0  0  0  0  0  0  0  0
  152.2362  139.8676  157.5406 C   0  0  0  0  0  0  0  0  0  0  0  0
  153.1842  139.1897  157.1432 O   0  0  0  0  0  0  0  0  0  0  0  0
  152.2589  140.5598  158.6900 N   0  0  0  0  0  0  0  0  0  0  0  0
  153.3856  140.6148  159.6144 C   0  0  0  0  0  0  0  0  0  0  0  0
  153.1812  141.6880  160.6965 C   0  0  0  0  0  0  0  0  0  0  0  0
  152.5384  142.9451  160.1413 C   0  0  0  0  0  0  0  0  0  0  0  0
  153.0285  143.5435  158.9607 C   0  0  0  0  0  0  0  0  0  0  0  0
  152.4028  144.7154  158.4929 C   0  0  0  0  0  0  0  0  0  0  0  0
  151.3177  145.2415  159.2199 C   0  0  0  0  0  0  0  0  0  0  0  0
  150.9049  144.5695  160.3877 C   0  0  0  0  0  0  0  0  0  0  0  0
  151.4982  143.4458  160.8452 N   0  0  0  0  0  0  0  0  0  0  0  0
  149.7126  139.6235  157.5719 C   0  0  0  0  0  0  0  0  0  0  0  0
  148.4161  139.7206  156.7505 C   0  0  0  0  0  0  0  0  0  0  0  0
  146.1645  142.5508  153.3907 H   0  0  0  0  0  0  0  0  0  0  0  0
  147.4826  141.3812  153.1880 H   0  0  0  0  0  0  0  0  0  0  0  0
  147.8096  142.9726  153.9152 H   0  0  0  0  0  0  0  0  0  0  0  0
  149.5228  140.8035  154.4220 H   0  0  0  0  0  0  0  0  0  0  0  0
  149.3252  142.4624  154.9384 H   0  0  0  0  0  0  0  0  0  0  0  0
  151.6025  141.6179  155.4864 H   0  0  0  0  0  0  0  0  0  0  0  0
  150.7257  142.1070  156.9163 H   0  0  0  0  0  0  0  0  0  0  0  0
  151.0045  139.2350  155.8969 H   0  0  0  0  0  0  0  0  0  0  0  0
  151.4368  141.0900  158.9410 H   0  0  0  0  0  0  0  0  0  0  0  0
  153.5463  139.6358  160.0695 H   0  0  0  0  0  0  0  0  0  0  0  0
  154.2828  140.8389  159.0369 H   0  0  0  0  0  0  0  0  0  0  0  0
  152.5585  141.2927  161.5003 H   0  0  0  0  0  0  0  0  0  0  0  0
  154.1365  141.9536  161.1519 H   0  0  0  0  0  0  0  0  0  0  0  0
  153.8653  143.1181  158.4265 H   0  0  0  0  0  0  0  0  0  0  0  0
  152.7499  145.2021  157.5935 H   0  0  0  0  0  0  0  0  0  0  0  0
  150.8144  146.1386  158.8911 H   0  0  0  0  0  0  0  0  0  0  0  0
  150.0768  144.9455  160.9703 H   0  0  0  0  0  0  0  0  0  0  0  0
  149.8029  138.6199  157.9895 H   0  0  0  0  0  0  0  0  0  0  0  0
  149.6487  140.3054  158.4216 H   0  0  0  0  0  0  0  0  0  0  0  0
  147.5661  139.5429  157.4088 H   0  0  0  0  0  0  0  0  0  0  0  0
  148.3908  138.9450  155.9841 H   0  0  0  0  0  0  0  0  0  0  0  0
  1  2  1  0  0  0  0
  1 22  1  0  0  0  0
  1 23  1  0  0  0  0
  1 24  1  0  0  0  0
  2  3  2  0  0  0  0
  2  4  2  0  0  0  0
  2  5  1  0  0  0  0
  5 21  1  0  0  0  0
  5  6  1  0  0  0  0
  6  7  1  0  0  0  0
  6 25  1  0  0  0  0
  6 26  1  0  0  0  0
  7  8  1  0  0  0  0
  7 27  1  0  0  0  0
  7 28  1  0  0  0  0
  8  9  1  0  0  0  0
  8 20  1  0  0  0  0
  8 29  1  0  0  0  0
  9 10  2  0  0  0  0
  9 11  1  0  0  0  0
 11 12  1  0  0  0  0
 11 30  1  0  0  0  0
 12 13  1  0  0  0  0
 12 31  1  0  0  0  0
 12 32  1  0  0  0  0
 13 14  1  0  0  0  0
 13 33  1  0  0  0  0
 13 34  1  0  0  0  0
 14 19  1  0  0  0  0
 14 15  2  0  0  0  0
 15 16  1  0  0  0  0
 15 35  1  0  0  0  0
 16 17  2  0  0  0  0
 16 36  1  0  0  0  0
 17 18  1  0  0  0  0
 17 37  1  0  0  0  0
 18 19  2  0  0  0  0
 18 38  1  0  0  0  0
 20 21  1  0  0  0  0
 20 39  1  0  0  0  0
 20 40  1  0  0  0  0
 21 41  1  0  0  0  0
 21 42  1  0  0  0  0
M  END
> <s_m_source_file>
AV-unprocessed.smi

> <i_m_source_file_index>
2054

> <i_lp_mmshare_version>
43012

> <i_f3d_flags>
0

> <s_epik_input>
W0NIM11TKD1PKSg9TylOMVtDSDJdW0NIMl1bQ0hdKFtDSDJdW0NIMl0xKUMoPU8pW05IXVtDSDJdW0NIMl1jMltjSF1bY0hdW2NIXVtjSF1uMg==

> <s_epik_cmdline>
J2VwaWtfcHl0aG9uJywgJy1waCcsICc3LjAnLCAnLXRuJywgJzgnLCAnLW1hJywgJzIwMCcsICctbWV0YWxfYmluZGluZycsICctaW1hZScsICc8aW5maWxlLm1hZT4nLCAnLW9tYWUnLCAnPG91dGZpbGUubWFlPic=

> <r_epik_Ionization_Penalty>
0.0277532

> <r_epik_Ionization_Penalty_Charging>
0

> <r_epik_Ionization_Penalty_Neutral>
0.0277532

> <r_epik_State_Penalty>
0.022734

> <r_epik_Charging_Adjusted_Penalty>
0.022734

> <i_epik_Tot_Q>
0

> <i_epik_Tot_abs_Q>
0

> <r_epik_Metal_State_Penalty>
0.021713

> <b_epik_Metal_Only>
0

> <s_lp_Force_Field>
OPLS_2005

> <r_lp_Energy>
2.16831

> <b_lp_Chiralities_Consistent>
1

> <s_lp_Variant>
AV-unprocessed.smi:2054-1

> <Gold.Version>
5.8.1

> <Gold.Id.Protein>
6NUR|6NUR_protein|mol2

> <Gold.PLP.Fitness>
46.0582

> <Gold.PLP.PLP>
-43.8762

> <Gold.PLP.part.hbond>
-1.2450

> <Gold.PLP.part.metal>
0.0000

> <Gold.PLP.part.buried>
-6.7909

> <Gold.PLP.part.nonpolar>
-36.4571

> <Gold.PLP.part.repulsive>
0.5129

> <Gold.PLP.ligand.clash>
0.0000

> <Gold.PLP.ligand.torsion>
0.7956

> <Gold.PLP.Chemscore.Hbond>
1.0000

> <Gold.PLP.Chemscore.CHOScore>
0.0000

> <Gold.PLP.Chemscore.Metal>
0.0000

> <Gold.Chemscore.Hbonds>
donor molecule, donor type, donor heavy atom, donor atom, acceptor molecule, acceptor atom, score
      P1  H  7997  8010       L1    10  1.00

> <Gold.PLP.Chemscore.Internal.Correction>
0.7732

> <Gold.Rescore>
     Score         DG    S(hbond)    S(metal)    S(lipo)     H(rot)  DE(clash)    DE(int)     intcor
     16.39     -17.19       0.94        0.00     113.68       1.84       0.03       0.77       ----

> <Gold.Chemscore.Fitness>
16.3897

> <Gold.Chemscore.DG>
-17.1906

> <Gold.Chemscore.ZeroCoef>
-5.4800

> <Gold.Chemscore.Hbond>
0.9356

> <Gold.Chemscore.Metal>
0.0000

> <Gold.Chemscore.Lipo>
113.6826

> <Gold.Chemscore.Internal_Hbond>
0.0000

> <Gold.Chemscore.DEClash>
0.0332

> <Gold.Chemscore.DEInternal>
0.7676

> <Gold.Chemscore.Rot>
1.8419

> <Gold.Chemscore.Internal.Correction>
   9.000000E+99

> <Gold.Chemscore.Hbonds>
donor molecule, donor type, donor heavy atom, donor atom, acceptor molecule, acceptor atom, score
      P1  H  7997  8010       L1    10  0.83

> <Gold.Chemscore.Hbond.Weighted>
-3.1250

> <Gold.Chemscore.Metal.Weighted>
-0.0000

> <Gold.Chemscore.Lipo.Weighted>
-13.3009

> <Gold.Chemscore.Internal_Hbond.Weighted>
0.0000

> <Gold.Chemscore.DEClash.Weighted>
0.0332

> <Gold.Chemscore.DEInternal.Weighted>
0.7676

> <Gold.Chemscore.Rot.Weighted>
4.7153

> <Gold.Chemscore.Internal.Correction.Weighted>
   9.000000E+99

> <Gold.Protein.RotatedTorsions>
[ 6907 6896 6895 6894 ] final  -13.18 input  -60.11 | X-H torsion
[ 7974 7965 7964 7962 ] final  -41.99 input  175.53 | X-H torsion
[ 8008 7997 7996 7995 ] final   63.98 input   59.86 | X-H torsion
[ 10167 10162 10161 10158 ] final   20.39 input  -65.29 | X-H torsion
[ 10718 10713 10712 10709 ] final  118.16 input   66.30 | X-H torsion
[ 10763 10752 10751 10750 ] final  136.20 input  -60.55 | X-H torsion
[ 11005 11000 10999 10996 ] final  106.47 input  -57.11 | X-H torsion

> <Gold.Protein.ActiveResidues>
 VAL166  LYS551  ARG553  GLY616  TRP617  ASP618  TYR619  PRO620  LYS621  CYS622 
 ASP623  PHE694  ASN695  SER759  ASP760  ASP761  ALA762  ILE779  LEU786  VAL792 
 PHE793  MET794  SER795  GLU796  ALA797  LYS798  CYS799  TRP800  GLU811  SER814 

> <Gold.Protein.RotatedAtoms>
  151.3590  135.0900  159.9427 H   0  0  0  0  0  0  0  0  0  0  0  0  # atno 6907 bound_to 6896
  152.5167  133.9277  159.7576 H   0  0  0  0  0  0  0  0  0  0  0  0  # atno 6908 bound_to 6896
  150.9668  133.6332  159.2774 H   0  0  0  0  0  0  0  0  0  0  0  0  # atno 6909 bound_to 6896
  146.0159  140.6909  142.9202 H   0  0  0  0  0  0  0  0  0  0  0  0  # atno 7974 bound_to 7965
  155.6387  140.3496  155.4707 H   0  0  0  0  0  0  0  0  0  0  0  0  # atno 8008 bound_to 7997
  155.9943  140.1200  157.0631 H   0  0  0  0  0  0  0  0  0  0  0  0  # atno 8009 bound_to 7997
  154.4229  140.1113  156.5595 H   0  0  0  0  0  0  0  0  0  0  0  0  # atno 8010 bound_to 7997
  140.5507  143.9514  150.6576 H   0  0  0  0  0  0  0  0  0  0  0  0  # atno 10167 bound_to 10162
  157.6049  131.1045  150.7716 H   0  0  0  0  0  0  0  0  0  0  0  0  # atno 10718 bound_to 10713
  153.8526  135.3077  155.3433 H   0  0  0  0  0  0  0  0  0  0  0  0  # atno 10763 bound_to 10752
  154.7884  135.4796  154.0001 H   0  0  0  0  0  0  0  0  0  0  0  0  # atno 10764 bound_to 10752
  153.1509  135.6843  153.8977 H   0  0  0  0  0  0  0  0  0  0  0  0  # atno 10765 bound_to 10752
  139.8814  134.9370  156.5672 H   0  0  0  0  0  0  0  0  0  0  0  0  # atno 11005 bound_to 11000
  144.6970  140.3480  143.7187 LP  0  0  0  0  0  0  0  0  0  0  0  0  # atno 17320 bound_to 7965
  145.7270  139.1725  143.2452 LP  0  0  0  0  0  0  0  0  0  0  0  0  # atno 17321 bound_to 7965
  140.2939  143.3306  152.1036 LP  0  0  0  0  0  0  0  0  0  0  0  0  # atno 17342 bound_to 10162
  139.5026  144.6738  151.6177 LP  0  0  0  0  0  0  0  0  0  0  0  0  # atno 17343 bound_to 10162
  156.8107  130.4951  149.5356 LP  0  0  0  0  0  0  0  0  0  0  0  0  # atno 17370 bound_to 10713
  156.1132  130.6056  151.0080 LP  0  0  0  0  0  0  0  0  0  0  0  0  # atno 17371 bound_to 10713
  140.8125  133.8417  155.8823 LP  0  0  0  0  0  0  0  0  0  0  0  0  # atno 17394 bound_to 11000
  140.9493  134.1800  157.4740 LP  0  0  0  0  0  0  0  0  0  0  0  0  # atno 17395 bound_to 11000

$$$$
