AV-unprocessed.smi:2923|AV-procd|sdf|11202|dock3
  -GOLD-   2272016 93D 1   1.00000     0.00000
 Structure written by MMmdl.
 47 49  0  0  0  0  0  0  0  0  2 V2000
  145.1257  132.3373  149.4619 C   0  0  0  0  0  0  0  0  0  0  0  0
  144.5284  132.4606  150.7830 N   0  0  0  0  0  0  0  0  0  0  0  0
  144.8502  131.4045  151.7308 C   0  0  0  0  0  0  0  0  0  0  0  0
  144.6695  133.7451  151.3257 C   0  0  0  0  0  0  0  0  0  0  0  0
  145.8865  134.1685  151.8985 C   0  0  0  0  0  0  0  0  0  0  0  0
  145.9820  135.4676  152.4380 C   0  0  0  0  0  0  0  0  0  0  0  0
  144.8655  136.3302  152.3913 C   0  0  0  0  0  0  0  0  0  0  0  0
  145.0035  137.6232  152.9643 N   0  0  0  0  0  0  0  0  0  0  0  0
  145.9503  138.0673  153.8088 C   0  0  0  0  0  0  0  0  0  0  0  0
  146.8704  137.3909  154.2674 O   0  0  0  0  0  0  0  0  0  0  0  0
  145.7618  139.3586  154.1103 N   0  0  0  0  0  0  0  0  0  0  0  0
  146.6063  140.1335  155.0256 C   0  0  2  0  0  0  0  0  0  0  0  0
  146.2272  141.6164  155.0579 C   0  0  2  0  0  0  0  0  0  0  0  0
  145.0446  142.4218  154.6570 C   0  0  0  0  0  0  0  0  0  0  0  0
  145.8235  143.6060  154.0226 C   0  0  0  0  0  0  0  0  0  0  0  0
  147.2079  143.1782  153.9449 O   0  0  0  0  0  0  0  0  0  0  0  0
  147.1239  141.7704  153.8464 C   0  0  1  0  0  0  0  0  0  0  0  0
  147.9855  140.6294  154.4323 C   0  0  0  0  0  0  0  0  0  0  0  0
  149.0836  141.0247  155.4364 C   0  0  0  0  0  0  0  0  0  0  0  0
  148.6708  139.7267  153.4002 C   0  0  0  0  0  0  0  0  0  0  0  0
  143.6660  135.8479  151.8122 C   0  0  0  0  0  0  0  0  0  0  0  0
  143.6161  134.5957  151.3080 N   0  3  0  0  0  0  0  0  0  0  0  0
  144.8073  133.1546  148.8133 H   0  0  0  0  0  0  0  0  0  0  0  0
  144.8194  131.4004  148.9960 H   0  0  0  0  0  0  0  0  0  0  0  0
  146.2147  132.3484  149.5220 H   0  0  0  0  0  0  0  0  0  0  0  0
  144.3500  131.5731  152.6852 H   0  0  0  0  0  0  0  0  0  0  0  0
  145.9248  131.3509  151.9084 H   0  0  0  0  0  0  0  0  0  0  0  0
  144.5200  130.4396  151.3450 H   0  0  0  0  0  0  0  0  0  0  0  0
  146.7394  133.5057  151.9269 H   0  0  0  0  0  0  0  0  0  0  0  0
  146.9107  135.7975  152.8807 H   0  0  0  0  0  0  0  0  0  0  0  0
  144.2695  138.2787  152.7388 H   0  0  0  0  0  0  0  0  0  0  0  0
  144.9800  139.8411  153.6919 H   0  0  0  0  0  0  0  0  0  0  0  0
  146.6943  139.6981  156.0225 H   0  0  0  0  0  0  0  0  0  0  0  0
  146.6557  142.0589  155.9604 H   0  0  0  0  0  0  0  0  0  0  0  0
  144.4195  141.9051  153.9277 H   0  0  0  0  0  0  0  0  0  0  0  0
  144.4308  142.7280  155.5044 H   0  0  0  0  0  0  0  0  0  0  0  0
  145.4396  143.8332  153.0274 H   0  0  0  0  0  0  0  0  0  0  0  0
  145.7537  144.5109  154.6268 H   0  0  0  0  0  0  0  0  0  0  0  0
  146.6517  141.4835  152.9011 H   0  0  0  0  0  0  0  0  0  0  0  0
  149.8551  141.6289  154.9583 H   0  0  0  0  0  0  0  0  0  0  0  0
  149.5727  140.1444  155.8545 H   0  0  0  0  0  0  0  0  0  0  0  0
  148.7140  141.6017  156.2822 H   0  0  0  0  0  0  0  0  0  0  0  0
  149.5528  140.2041  152.9722 H   0  0  0  0  0  0  0  0  0  0  0  0
  148.0118  139.4830  152.5670 H   0  0  0  0  0  0  0  0  0  0  0  0
  148.9902  138.7844  153.8461 H   0  0  0  0  0  0  0  0  0  0  0  0
  142.7417  136.4009  151.7418 H   0  0  0  0  0  0  0  0  0  0  0  0
  142.7390  134.2751  150.8975 H   0  0  0  0  0  0  0  0  0  0  0  0
  1  2  1  0  0  0  0
  1 23  1  0  0  0  0
  1 24  1  0  0  0  0
  1 25  1  0  0  0  0
  2  3  1  0  0  0  0
  2  4  1  0  0  0  0
  3 26  1  0  0  0  0
  3 27  1  0  0  0  0
  3 28  1  0  0  0  0
  4 22  1  0  0  0  0
  4  5  2  0  0  0  0
  5  6  1  0  0  0  0
  5 29  1  0  0  0  0
  6  7  2  0  0  0  0
  6 30  1  0  0  0  0
  7  8  1  0  0  0  0
  7 21  1  0  0  0  0
  8  9  1  0  0  0  0
  8 31  1  0  0  0  0
  9 10  2  0  0  0  0
  9 11  1  0  0  0  0
 11 12  1  0  0  0  0
 11 32  1  0  0  0  0
 12 18  1  0  0  0  0
 12 13  1  0  0  0  0
 12 33  1  0  0  0  0
 13 17  1  0  0  0  0
 13 14  1  0  0  0  0
 13 34  1  0  0  0  0
 14 15  1  0  0  0  0
 14 35  1  0  0  0  0
 14 36  1  0  0  0  0
 15 16  1  0  0  0  0
 15 37  1  0  0  0  0
 15 38  1  0  0  0  0
 16 17  1  0  0  0  0
 17 18  1  0  0  0  0
 17 39  1  0  0  0  0
 18 19  1  0  0  0  0
 18 20  1  0  0  0  0
 19 40  1  0  0  0  0
 19 41  1  0  0  0  0
 19 42  1  0  0  0  0
 20 43  1  0  0  0  0
 20 44  1  0  0  0  0
 20 45  1  0  0  0  0
 21 22  2  0  0  0  0
 21 46  1  0  0  0  0
 22 47  1  0  0  0  0
M  CHG  1  22   1
M  END
> <s_m_source_file>
AV-unprocessed.smi

> <i_m_source_file_index>
2923

> <i_lp_mmshare_version>
43012

> <i_f3d_flags>
0

> <s_epik_input>
W0NIM11OKFtDSDNdKWMxW2NIXVtjSF1jKFtjSF1uMSlbTkhdQyg9TylbTkhdW0NASF0yQyhbQ0gzXSkoW0NIM10pW0NAQEhdKFtDQEhdMjMpT1tDSDJdW0NIMl0z

> <s_epik_cmdline>
J2VwaWtfcHl0aG9uJywgJy1waCcsICc3LjAnLCAnLXRuJywgJzgnLCAnLW1hJywgJzIwMCcsICctbWV0YWxfYmluZGluZycsICctaW1hZScsICc8aW5maWxlLm1hZT4nLCAnLW9tYWUnLCAnPG91dGZpbGUubWFlPic=

> <r_lp_tautomer_probability>
0.999994

> <r_epik_Ionization_Penalty>
0.252205

> <r_epik_Ionization_Penalty_Charging>
0.252185

> <r_epik_Ionization_Penalty_Neutral>
1.99479e-05

> <r_epik_State_Penalty>
0.243573

> <r_epik_Charging_Adjusted_Penalty>
0.495758

> <i_epik_Tot_Q>
1

> <i_epik_Tot_abs_Q>
1

> <r_epik_Metal_State_Penalty>
0.534372

> <b_epik_Metal_Only>
0

> <s_lp_Force_Field>
OPLS_2005

> <r_lp_Energy>
76.1272

> <b_lp_Chiralities_Consistent>
1

> <s_lp_Variant>
AV-unprocessed.smi:2923-1

> <Gold.Version>
5.8.1

> <Gold.Id.Protein>
6NUR|6NUR_protein|mol2

> <Gold.PLP.Fitness>
39.6521

> <Gold.PLP.PLP>
-27.9209

> <Gold.PLP.part.hbond>
-3.9116

> <Gold.PLP.part.metal>
0.0000

> <Gold.PLP.part.buried>
2.4387

> <Gold.PLP.part.nonpolar>
-27.1737

> <Gold.PLP.part.repulsive>
2.5761

> <Gold.PLP.ligand.clash>
0.0000

> <Gold.PLP.ligand.torsion>
0.4639

> <Gold.PLP.Chemscore.Hbond>
4.0673

> <Gold.PLP.Chemscore.CHOScore>
0.0000

> <Gold.PLP.Chemscore.Metal>
0.0000

> <Gold.Chemscore.Hbonds>
donor molecule, donor type, donor heavy atom, donor atom, acceptor molecule, acceptor atom, score
      L1  H     8    31       P1 10175  0.41
      L1  H    11    32       P1 10175  1.00
      L1  H    22    47       P1 10186  1.20
      P1  H  8022  8030       L1    16  0.40

> <Gold.PLP.Chemscore.Internal.Correction>
0.4572

> <Gold.Rescore>
     Score         DG    S(hbond)    S(metal)    S(lipo)     H(rot)  DE(clash)    DE(int)     intcor
     15.18     -20.34       2.59        0.00      79.32       1.20       3.44       1.71       ----

> <Gold.Chemscore.Fitness>
15.1819

> <Gold.Chemscore.DG>
-20.3370

> <Gold.Chemscore.ZeroCoef>
-5.4800

> <Gold.Chemscore.Hbond>
2.5931

> <Gold.Chemscore.Metal>
0.0000

> <Gold.Chemscore.Lipo>
79.3231

> <Gold.Chemscore.Internal_Hbond>
0.0000

> <Gold.Chemscore.DEClash>
3.4405

> <Gold.Chemscore.DEInternal>
1.7146

> <Gold.Chemscore.Rot>
1.2049

> <Gold.Chemscore.Internal.Correction>
   9.000000E+99

> <Gold.Chemscore.Hbonds>
donor molecule, donor type, donor heavy atom, donor atom, acceptor molecule, acceptor atom, score
      L1  H     8    31       P1 10175  0.38
      L1  H    11    32       P1 10175  1.00
      L1  H    22    47       P1 10186  0.20
      P1  H  8022  8030       L1    16  0.34

> <Gold.Chemscore.Hbond.Weighted>
-8.6609

> <Gold.Chemscore.Metal.Weighted>
-0.0000

> <Gold.Chemscore.Lipo.Weighted>
-9.2808

> <Gold.Chemscore.Internal_Hbond.Weighted>
0.0000

> <Gold.Chemscore.DEClash.Weighted>
3.4405

> <Gold.Chemscore.DEInternal.Weighted>
1.7146

> <Gold.Chemscore.Rot.Weighted>
3.0846

> <Gold.Chemscore.Internal.Correction.Weighted>
   9.000000E+99

> <Gold.Protein.RotatedTorsions>
[ 6907 6896 6895 6894 ] final   64.85 input  -60.11 | X-H torsion
[ 7974 7965 7964 7962 ] final -151.40 input  175.53 | X-H torsion
[ 8008 7997 7996 7995 ] final  134.74 input   59.86 | X-H torsion
[ 10167 10162 10161 10158 ] final -171.47 input  -65.29 | X-H torsion
[ 10718 10713 10712 10709 ] final  176.44 input   66.30 | X-H torsion
[ 10763 10752 10751 10750 ] final -142.99 input  -60.55 | X-H torsion
[ 11005 11000 10999 10996 ] final   14.00 input  -57.11 | X-H torsion

> <Gold.Protein.ActiveResidues>
 VAL166  LYS551  ARG553  GLY616  TRP617  ASP618  TYR619  PRO620  LYS621  CYS622 
 ASP623  PHE694  ASN695  SER759  ASP760  ASP761  ALA762  ILE779  LEU786  VAL792 
 PHE793  MET794  SER795  GLU796  ALA797  LYS798  CYS799  TRP800  GLU811  SER814 

> <Gold.Protein.RotatedAtoms>
  152.4363  134.5680  159.9912 H   0  0  0  0  0  0  0  0  0  0  0  0  # atno 6907 bound_to 6896
  151.5790  133.3374  159.3012 H   0  0  0  0  0  0  0  0  0  0  0  0  # atno 6908 bound_to 6896
  150.8261  134.7528  159.6879 H   0  0  0  0  0  0  0  0  0  0  0  0  # atno 6909 bound_to 6896
  144.7852  140.4803  143.5811 H   0  0  0  0  0  0  0  0  0  0  0  0  # atno 7974 bound_to 7965
  156.3000  140.2488  156.3466 H   0  0  0  0  0  0  0  0  0  0  0  0  # atno 8008 bound_to 7997
  154.9005  140.0406  157.1909 H   0  0  0  0  0  0  0  0  0  0  0  0  # atno 8009 bound_to 7997
  154.8506  140.2905  155.5605 H   0  0  0  0  0  0  0  0  0  0  0  0  # atno 8010 bound_to 7997
  139.5800  144.1444  152.1503 H   0  0  0  0  0  0  0  0  0  0  0  0  # atno 10167 bound_to 10162
  156.9201  130.9937  151.3006 H   0  0  0  0  0  0  0  0  0  0  0  0  # atno 10718 bound_to 10713
  154.8487  135.3480  154.6116 H   0  0  0  0  0  0  0  0  0  0  0  0  # atno 10763 bound_to 10752
  153.6725  135.6984  153.5147 H   0  0  0  0  0  0  0  0  0  0  0  0  # atno 10764 bound_to 10752
  153.2731  135.4286  155.0964 H   0  0  0  0  0  0  0  0  0  0  0  0  # atno 10765 bound_to 10752
  140.4744  134.0998  155.7739 H   0  0  0  0  0  0  0  0  0  0  0  0  # atno 11005 bound_to 11000
  145.5941  139.1498  143.3166 LP  0  0  0  0  0  0  0  0  0  0  0  0  # atno 17320 bound_to 7965
  146.2080  140.6066  142.9072 LP  0  0  0  0  0  0  0  0  0  0  0  0  # atno 17321 bound_to 7965
  140.0995  144.5551  150.6998 LP  0  0  0  0  0  0  0  0  0  0  0  0  # atno 17342 bound_to 10162
  140.7079  143.2482  151.4669 LP  0  0  0  0  0  0  0  0  0  0  0  0  # atno 17343 bound_to 10162
  157.5913  130.8446  149.8664 LP  0  0  0  0  0  0  0  0  0  0  0  0  # atno 17370 bound_to 10713
  156.0495  130.3720  150.1235 LP  0  0  0  0  0  0  0  0  0  0  0  0  # atno 17371 bound_to 10713
  141.1561  133.8879  157.1972 LP  0  0  0  0  0  0  0  0  0  0  0  0  # atno 17394 bound_to 11000
  139.9865  135.0080  156.9874 LP  0  0  0  0  0  0  0  0  0  0  0  0  # atno 17395 bound_to 11000

$$$$
