#       Name:                AV-unprocessed.smi:1244
#       Creating user name   scv26
#       Creation time:       Fri Mar 27 04:32:04 2020


#       File generated by GOLD software.
#

@<TRIPOS>MOLECULE
AV-unprocessed.smi:1244
    61    63     1
SMALL
NO_CHARGES


@<TRIPOS>ATOM
      1 ****        -3.2601   5.1498  -3.0008 C.3            1 S1                 0.0000
      2 ****        -2.8186   4.7760  -1.5820 C.3            1 S1                 0.0000
      3 ****        -2.3530   3.3103  -1.4828 C.3            1 S1                 0.0000
      4 ****        -2.0144   2.9351  -0.1119 N.3            1 S1                 0.0000
      5 ****        -1.5911   1.5405   0.0018 C.3            1 S1                 0.0000
      6 ****        -0.2399   1.2187  -0.6644 C.3            1 S1                 0.0000
      7 ****         0.1479  -0.1700  -0.4489 N.am           1 S1                 0.0000
      8 ****         0.6800  -0.6537   0.6822 C.2            1 S1                 0.0000
      9 ****         0.8850   0.0293   1.6858 O.2            1 S1                 0.0000
     10 ****         0.9742  -1.9588   0.5627 N.am           1 S1                 0.0000
     11 ****         1.5860  -2.8047   1.5299 C.ar           1 S1                 0.0000
     12 ****         1.3377  -2.6587   2.9161 C.ar           1 S1                 0.0000
     13 ****         1.9426  -3.5500   3.8195 C.ar           1 S1                 0.0000
     14 ****         2.7679  -4.5641   3.3035 C.ar           1 S1                 0.0000
     15 ****         3.0025  -4.7247   1.9854 N.ar           1 S1                 0.0000
     16 ****         2.4221  -3.8729   1.1047 C.ar           1 S1                 0.0000
     17 ****         2.7149  -4.0458  -0.2654 N.3            1 S1                 0.0000
     18 ****         3.6326  -3.0406  -0.7978 C.3            1 S1                 0.0000
     19 ****         4.5664  -3.7701  -1.7666 C.3            1 S1                 0.0000
     20 ****         4.5593  -5.2012  -1.2446 C.3            1 S1                 0.0000
     21 ****         3.1216  -5.3621  -0.7559 C.3            1 S1                 0.0000
     22 ****        -3.1611   3.2044   0.7484 C.3            1 S1                 0.0000
     23 ****        -3.6213   4.6717   0.6553 C.3            1 S1                 0.0000
     24 ****        -4.8712   4.9434   1.4985 C.3            1 S1                 0.0000
     25 ****        -3.9219   4.9775  -0.7033 O.3            1 S1                 0.0000
     26 ****        -2.4420   5.0277  -3.7111 H              1 S1                 0.0000
     27 ****        -3.5869   6.1890  -3.0457 H              1 S1                 0.0000
     28 ****        -4.0897   4.5255  -3.3334 H              1 S1                 0.0000
     29 ****        -2.0040   5.4379  -1.2833 H              1 S1                 0.0000
     30 ****        -3.1375   2.6533  -1.8616 H              1 S1                 0.0000
     31 ****        -1.4906   3.1756  -2.1346 H              1 S1                 0.0000
     32 ****        -1.5106   1.2887   1.0601 H              1 S1                 0.0000
     33 ****        -2.3649   0.8859  -0.4023 H              1 S1                 0.0000
     34 ****        -0.2915   1.3747  -1.7413 H              1 S1                 0.0000
     35 ****         0.5387   1.8846  -0.2884 H              1 S1                 0.0000
     36 ****         0.0166  -0.8046  -1.2229 H              1 S1                 0.0000
     37 ****         0.8503  -2.3652  -0.3531 H              1 S1                 0.0000
     38 ****         0.6824  -1.8897   3.2963 H              1 S1                 0.0000
     39 ****         1.7725  -3.4618   4.8823 H              1 S1                 0.0000
     40 ****         3.2492  -5.2682   3.9659 H              1 S1                 0.0000
     41 ****         3.0897  -2.2392  -1.2994 H              1 S1                 0.0000
     42 ****         4.2128  -2.5929   0.0114 H              1 S1                 0.0000
     43 ****         4.1487  -3.7445  -2.7740 H              1 S1                 0.0000
     44 ****         5.5644  -3.3328  -1.8035 H              1 S1                 0.0000
     45 ****         4.8371  -5.9355  -2.0011 H              1 S1                 0.0000
     46 ****         5.2506  -5.2961  -0.4059 H              1 S1                 0.0000
     47 ****         3.0278  -6.1675  -0.0274 H              1 S1                 0.0000
     48 ****         2.4722  -5.6185  -1.5933 H              1 S1                 0.0000
     49 ****        -3.9879   2.5460   0.4766 H              1 S1                 0.0000
     50 ****        -2.9065   2.9730   1.7835 H              1 S1                 0.0000
     51 ****        -2.8193   5.3287   0.9966 H              1 S1                 0.0000
     52 ****        -4.6863   4.7339   2.5523 H              1 S1                 0.0000
     53 ****        -5.7082   4.3241   1.1748 H              1 S1                 0.0000
     54 ****        -5.1771   5.9866   1.4156 H              1 S1                 0.0000
     55 ****        -1.2319   3.4858   0.1788 LP             1 S1                 0.0000
     56 ****         0.6513   1.0016   1.6852 LP             1 S1                 0.0000
     57 ****         1.2853  -0.3882   2.5015 LP             1 S1                 0.0000
     58 ****         3.5962  -5.4616   1.6620 LP             1 S1                 0.0000
     59 ****         1.7892  -3.9267  -0.6244 LP             1 S1                 0.0000
     60 ****        -4.6762   4.3926  -1.0013 LP             1 S1                 0.0000
     61 ****        -4.2013   5.9361  -0.7589 LP             1 S1                 0.0000
@<TRIPOS>BOND
    1    1    2 1     
    2    1   26 1     
    3    1   27 1     
    4    1   28 1     
    5    2   25 1     
    6    2    3 1     
    7    2   29 1     
    8    3    4 1     
    9    3   30 1     
   10    3   31 1     
   11    4    5 1     
   12    4   22 1     
   13    5    6 1     
   14    5   32 1     
   15    5   33 1     
   16    6    7 1     
   17    6   34 1     
   18    6   35 1     
   19    7    8 am    
   20    7   36 1     
   21    8    9 2     
   22    8   10 am    
   23   10   11 1     
   24   10   37 1     
   25   11   16 ar    
   26   11   12 ar    
   27   12   13 ar    
   28   12   38 1     
   29   13   14 ar    
   30   13   39 1     
   31   14   15 ar    
   32   14   40 1     
   33   15   16 ar    
   34   16   17 1     
   35   17   21 1     
   36   17   18 1     
   37   18   19 1     
   38   18   41 1     
   39   18   42 1     
   40   19   20 1     
   41   19   43 1     
   42   19   44 1     
   43   20   21 1     
   44   20   45 1     
   45   20   46 1     
   46   21   47 1     
   47   21   48 1     
   48   22   23 1     
   49   22   49 1     
   50   22   50 1     
   51   23   24 1     
   52   23   25 1     
   53   23   51 1     
   54   24   52 1     
   55   24   53 1     
   56   24   54 1     
   57    4   55 1     
   58    9   56 1     
   59    9   57 1     
   60   15   58 1     
   61   17   59 1     
   62   25   60 1     
   63   25   61 1     
@<TRIPOS>SUBSTRUCTURE
      1 S1             1
@<TRIPOS>SET
LONE_PAIRS      STATIC     ATOMS    <user>   **** ""
7 55 56 57 58 59 60 61
DONOR_HYDROGENS      STATIC     ATOMS    <user>   **** ""
2 36 37
ATOM$BLUE        STATIC     ATOMS    COLORGROUP SYSTEM
7 55 56 57 58 59 60 61
ATOM$RED        STATIC     ATOMS    COLORGROUP SYSTEM
2 36 37
