AV-unprocessed.smi:1914|AV-procd|sdf|7756|dock9
  -GOLD-   22720 9493D 1   1.00000     0.00000
 Structure written by MMmdl.
 44 45  0  0  0  0  0  0  0  0  2 V2000
  143.8971  143.9583  156.2888 C   0  0  0  0  0  0  0  0  0  0  0  0
  145.3032  143.6651  155.7472 C   0  0  2  0  0  0  0  0  0  0  0  0
  145.2650  143.3037  154.2530 C   0  0  0  0  0  0  0  0  0  0  0  0
  146.6782  142.9900  153.7462 C   0  0  0  0  0  0  0  0  0  0  0  0
  147.3354  141.8906  154.5956 C   0  0  0  0  0  0  0  0  0  0  0  0
  147.3634  142.2686  156.0325 N   0  3  2  0  0  0  0  0  0  0  0  0
  148.1148  141.2861  156.8539 C   0  0  0  0  0  0  0  0  0  0  0  0
  149.5796  141.1336  156.3989 C   0  0  0  0  0  0  0  0  0  0  0  0
  150.4405  142.1242  157.0340 N   0  0  0  0  0  0  0  0  0  0  0  0
  151.2330  141.8880  158.0906 C   0  0  0  0  0  0  0  0  0  0  0  0
  151.3277  140.7825  158.6255 O   0  0  0  0  0  0  0  0  0  0  0  0
  152.0476  143.0826  158.6064 C   0  0  0  0  0  0  0  0  0  0  0  0
  152.4509  142.9431  160.0157 N   0  0  0  0  0  0  0  0  0  0  0  0
  151.9978  143.9285  160.9154 C   0  0  0  0  0  0  0  0  0  0  0  0
  152.3078  143.8939  162.2212 C   0  0  0  0  0  0  0  0  0  0  0  0
  153.1297  142.8076  162.6993 C   0  0  0  0  0  0  0  0  0  0  0  0
  153.5718  141.8620  161.8466 C   0  0  0  0  0  0  0  0  0  0  0  0
  153.2382  141.8975  160.4180 C   0  0  0  0  0  0  0  0  0  0  0  0
  153.6423  141.0413  159.6303 O   0  0  0  0  0  0  0  0  0  0  0  0
  145.9960  142.5456  156.5503 C   0  0  0  0  0  0  0  0  0  0  0  0
  143.2509  143.0834  156.2095 H   0  0  0  0  0  0  0  0  0  0  0  0
  143.4254  144.7715  155.7363 H   0  0  0  0  0  0  0  0  0  0  0  0
  143.9328  144.2518  157.3384 H   0  0  0  0  0  0  0  0  0  0  0  0
  145.8940  144.5756  155.8596 H   0  0  0  0  0  0  0  0  0  0  0  0
  144.6183  142.4395  154.0938 H   0  0  0  0  0  0  0  0  0  0  0  0
  144.8372  144.1239  153.6751 H   0  0  0  0  0  0  0  0  0  0  0  0
  146.6388  142.6799  152.7015 H   0  0  0  0  0  0  0  0  0  0  0  0
  147.2890  143.8932  153.7779 H   0  0  0  0  0  0  0  0  0  0  0  0
  146.7973  140.9485  154.4762 H   0  0  0  0  0  0  0  0  0  0  0  0
  148.3517  141.7239  154.2360 H   0  0  0  0  0  0  0  0  0  0  0  0
  148.0617  141.5649  157.9073 H   0  0  0  0  0  0  0  0  0  0  0  0
  147.6282  140.3133  156.7705 H   0  0  0  0  0  0  0  0  0  0  0  0
  149.9455  140.1284  156.6152 H   0  0  0  0  0  0  0  0  0  0  0  0
  149.6702  141.2722  155.3226 H   0  0  0  0  0  0  0  0  0  0  0  0
  150.4286  143.0579  156.6488 H   0  0  0  0  0  0  0  0  0  0  0  0
  152.9217  143.1985  157.9644 H   0  0  0  0  0  0  0  0  0  0  0  0
  151.4732  144.0020  158.4760 H   0  0  0  0  0  0  0  0  0  0  0  0
  151.3937  144.7103  160.4783 H   0  0  0  0  0  0  0  0  0  0  0  0
  151.9541  144.6601  162.8956 H   0  0  0  0  0  0  0  0  0  0  0  0
  153.3923  142.7535  163.7454 H   0  0  0  0  0  0  0  0  0  0  0  0
  154.1865  141.0573  162.2225 H   0  0  0  0  0  0  0  0  0  0  0  0
  146.0453  142.8433  157.5970 H   0  0  0  0  0  0  0  0  0  0  0  0
  145.4016  141.6310  156.5123 H   0  0  0  0  0  0  0  0  0  0  0  0
  147.8801  143.1351  156.0829 H   0  0  0  0  0  0  0  0  0  0  0  0
  1  2  1  0  0  0  0
  1 21  1  0  0  0  0
  1 22  1  0  0  0  0
  1 23  1  0  0  0  0
  2 20  1  0  0  0  0
  2  3  1  0  0  0  0
  2 24  1  0  0  0  0
  3  4  1  0  0  0  0
  3 25  1  0  0  0  0
  3 26  1  0  0  0  0
  4  5  1  0  0  0  0
  4 27  1  0  0  0  0
  4 28  1  0  0  0  0
  5  6  1  0  0  0  0
  5 29  1  0  0  0  0
  5 30  1  0  0  0  0
  6  7  1  0  0  0  0
  6 20  1  0  0  0  0
  6 44  1  0  0  0  0
  7  8  1  0  0  0  0
  7 31  1  0  0  0  0
  7 32  1  0  0  0  0
  8  9  1  0  0  0  0
  8 33  1  0  0  0  0
  8 34  1  0  0  0  0
  9 10  1  0  0  0  0
  9 35  1  0  0  0  0
 10 11  2  0  0  0  0
 10 12  1  0  0  0  0
 12 13  1  0  0  0  0
 12 36  1  0  0  0  0
 12 37  1  0  0  0  0
 13 18  1  0  0  0  0
 13 14  1  0  0  0  0
 14 15  2  0  0  0  0
 14 38  1  0  0  0  0
 15 16  1  0  0  0  0
 15 39  1  0  0  0  0
 16 17  2  0  0  0  0
 16 40  1  0  0  0  0
 17 18  1  0  0  0  0
 17 41  1  0  0  0  0
 18 19  2  0  0  0  0
 20 42  1  0  0  0  0
 20 43  1  0  0  0  0
M  CHG  1   6   1
M  END
> <s_m_source_file>
AV-unprocessed.smi

> <i_m_source_file_index>
1914

> <i_lp_mmshare_version>
43012

> <i_f3d_flags>
0

> <s_epik_input>
W0NIM11bQ0BASF0xW0NIMl1bQ0gyXVtDSDJdTihbQ0gyXTEpW0NIMl1bQ0gyXVtOSF1DKD1PKVtDSDJdbjJbY0hdW2NIXVtjSF1bY0hdYzI9Tw==

> <s_epik_cmdline>
J2VwaWtfcHl0aG9uJywgJy1waCcsICc3LjAnLCAnLXRuJywgJzgnLCAnLW1hJywgJzIwMCcsICctbWV0YWxfYmluZGluZycsICctaW1hZScsICc8aW5maWxlLm1hZT4nLCAnLW9tYWUnLCAnPG91dGZpbGUubWFlPic=

> <r_lp_tautomer_probability>
1

> <r_epik_Ionization_Penalty>
0.00192477

> <r_epik_Ionization_Penalty_Charging>
0.00192469

> <r_epik_Ionization_Penalty_Neutral>
8.16761e-08

> <r_epik_State_Penalty>
0.00131115

> <r_epik_Charging_Adjusted_Penalty>
0.00323584

> <i_epik_Tot_Q>
1

> <i_epik_Tot_abs_Q>
1

> <r_epik_Metal_State_Penalty>
-0

> <b_epik_Metal_Only>
0

> <s_lp_Force_Field>
OPLS_2005

> <r_lp_Energy>
24.8324

> <b_lp_Chiralities_Consistent>
1

> <s_lp_Variant>
AV-unprocessed.smi:1914-1

> <Gold.Version>
5.8.1

> <Gold.Id.Protein>
6NUR|6NUR_protein|mol2

> <Gold.PLP.Fitness>
49.9781

> <Gold.PLP.PLP>
-45.2331

> <Gold.PLP.part.hbond>
-1.0000

> <Gold.PLP.part.metal>
0.0000

> <Gold.PLP.part.buried>
-6.1509

> <Gold.PLP.part.nonpolar>
-37.9940

> <Gold.PLP.part.repulsive>
0.0463

> <Gold.PLP.ligand.clash>
0.0000

> <Gold.PLP.ligand.torsion>
0.6370

> <Gold.PLP.Chemscore.Hbond>
2.0000

> <Gold.PLP.Chemscore.CHOScore>
0.0000

> <Gold.PLP.Chemscore.Metal>
0.0000

> <Gold.Chemscore.Hbonds>
donor molecule, donor type, donor heavy atom, donor atom, acceptor molecule, acceptor atom, score
      L1  H     6    44       P1  8028  2.00

> <Gold.PLP.Chemscore.Internal.Correction>
0.0191

> <Gold.Rescore>
     Score         DG    S(hbond)    S(metal)    S(lipo)     H(rot)  DE(clash)    DE(int)     intcor
     10.99     -16.44       1.29        0.00      97.40       1.86       2.28       3.16       ----

> <Gold.Chemscore.Fitness>
10.9919

> <Gold.Chemscore.DG>
-16.4376

> <Gold.Chemscore.ZeroCoef>
-5.4800

> <Gold.Chemscore.Hbond>
1.2934

> <Gold.Chemscore.Metal>
0.0000

> <Gold.Chemscore.Lipo>
97.3998

> <Gold.Chemscore.Internal_Hbond>
0.0000

> <Gold.Chemscore.DEClash>
2.2836

> <Gold.Chemscore.DEInternal>
3.1622

> <Gold.Chemscore.Rot>
1.8586

> <Gold.Chemscore.Internal.Correction>
   9.000000E+99

> <Gold.Chemscore.Hbonds>
donor molecule, donor type, donor heavy atom, donor atom, acceptor molecule, acceptor atom, score
      L1  H     6    44       P1  8028  0.30
      L1  H     9    35       P1  8028  0.03

> <Gold.Chemscore.Hbond.Weighted>
-4.3200

> <Gold.Chemscore.Metal.Weighted>
-0.0000

> <Gold.Chemscore.Lipo.Weighted>
-11.3958

> <Gold.Chemscore.Internal_Hbond.Weighted>
0.0000

> <Gold.Chemscore.DEClash.Weighted>
2.2836

> <Gold.Chemscore.DEInternal.Weighted>
3.1622

> <Gold.Chemscore.Rot.Weighted>
4.7581

> <Gold.Chemscore.Internal.Correction.Weighted>
   9.000000E+99

> <Gold.Protein.RotatedTorsions>
[ 6907 6896 6895 6894 ] final  168.51 input  -60.11 | X-H torsion
[ 7974 7965 7964 7962 ] final -133.09 input  175.53 | X-H torsion
[ 8008 7997 7996 7995 ] final  128.88 input   59.86 | X-H torsion
[ 10167 10162 10161 10158 ] final  -95.39 input  -65.29 | X-H torsion
[ 10718 10713 10712 10709 ] final   19.30 input   66.30 | X-H torsion
[ 10763 10752 10751 10750 ] final  113.13 input  -60.55 | X-H torsion
[ 11005 11000 10999 10996 ] final   40.05 input  -57.11 | X-H torsion

> <Gold.Protein.ActiveResidues>
 VAL166  LYS551  ARG553  GLY616  TRP617  ASP618  TYR619  PRO620  LYS621  CYS622 
 ASP623  PHE694  ASN695  SER759  ASP760  ASP761  ALA762  ILE779  LEU786  VAL792 
 PHE793  MET794  SER795  GLU796  ALA797  LYS798  CYS799  TRP800  GLU811  SER814 

> <Gold.Protein.RotatedAtoms>
  151.8466  133.3432  159.3659 H   0  0  0  0  0  0  0  0  0  0  0  0  # atno 6907 bound_to 6896
  150.7219  134.5340  159.5723 H   0  0  0  0  0  0  0  0  0  0  0  0  # atno 6908 bound_to 6896
  152.2825  134.7814  160.0445 H   0  0  0  0  0  0  0  0  0  0  0  0  # atno 6909 bound_to 6896
  144.9225  140.7031  143.4956 H   0  0  0  0  0  0  0  0  0  0  0  0  # atno 7974 bound_to 7965
  156.2924  140.2634  156.2507 H   0  0  0  0  0  0  0  0  0  0  0  0  # atno 8008 bound_to 7997
  154.9885  140.0389  157.2327 H   0  0  0  0  0  0  0  0  0  0  0  0  # atno 8009 bound_to 7997
  154.7707  140.2777  155.6145 H   0  0  0  0  0  0  0  0  0  0  0  0  # atno 8010 bound_to 7997
  140.3046  143.3141  152.0212 H   0  0  0  0  0  0  0  0  0  0  0  0  # atno 10167 bound_to 10162
  157.1085  130.6498  149.5891 H   0  0  0  0  0  0  0  0  0  0  0  0  # atno 10718 bound_to 10713
  153.4880  135.3665  155.2477 H   0  0  0  0  0  0  0  0  0  0  0  0  # atno 10763 bound_to 10752
  154.8753  135.3970  154.3622 H   0  0  0  0  0  0  0  0  0  0  0  0  # atno 10764 bound_to 10752
  153.4237  135.7081  153.6342 H   0  0  0  0  0  0  0  0  0  0  0  0  # atno 10765 bound_to 10752
  140.1968  134.3919  155.8117 H   0  0  0  0  0  0  0  0  0  0  0  0  # atno 11005 bound_to 11000
  145.3272  139.1770  143.4556 LP  0  0  0  0  0  0  0  0  0  0  0  0  # atno 17320 bound_to 7965
  146.3211  140.3297  142.8639 LP  0  0  0  0  0  0  0  0  0  0  0  0  # atno 17321 bound_to 7965
  139.4907  144.6430  151.6837 LP  0  0  0  0  0  0  0  0  0  0  0  0  # atno 17342 bound_to 10162
  140.5621  144.0251  150.6175 LP  0  0  0  0  0  0  0  0  0  0  0  0  # atno 17343 bound_to 10162
  155.9856  130.4887  150.7039 LP  0  0  0  0  0  0  0  0  0  0  0  0  # atno 17370 bound_to 10713
  157.4579  131.0880  151.0777 LP  0  0  0  0  0  0  0  0  0  0  0  0  # atno 17371 bound_to 10713
  141.2227  133.7074  156.8190 LP  0  0  0  0  0  0  0  0  0  0  0  0  # atno 17394 bound_to 11000
  140.2098  134.8836  157.3262 LP  0  0  0  0  0  0  0  0  0  0  0  0  # atno 17395 bound_to 11000

$$$$
