AV-unprocessed.smi:2883|AV-procd|sdf|11079|dock1
  -GOLD-   2272015553D 1   1.00000     0.00000
 Structure written by MMmdl.
 39 41  0  0  0  0  0  0  0  0  1 V2000
  150.0917  144.6463  159.8800 C   0  0  0  0  0  0  0  0  0  0  0  0
  151.6019  144.3149  159.9270 C   0  0  0  0  0  0  0  0  0  0  0  0
  152.2842  145.2813  158.9296 C   0  0  0  0  0  0  0  0  0  0  0  0
  152.1420  144.5712  161.3458 C   0  0  0  0  0  0  0  0  0  0  0  0
  151.8601  142.8494  159.5378 C   0  0  0  0  0  0  0  0  0  0  0  0
  152.5771  142.1043  160.3897 N   0  0  0  0  0  0  0  0  0  0  0  0
  152.9147  140.8580  159.9966 C   0  0  0  0  0  0  0  0  0  0  0  0
  152.5623  140.3594  158.7275 C   0  0  0  0  0  0  0  0  0  0  0  0
  151.8447  141.2336  157.8876 C   0  0  0  0  0  0  0  0  0  0  0  0
  151.4727  140.8084  156.6049 N   0  0  0  0  0  0  0  0  0  0  0  0
  151.1711  139.4062  156.3373 C   0  0  2  0  0  0  0  0  0  0  0  0
  152.2678  138.6969  155.5324 C   0  0  0  0  0  0  0  0  0  0  0  0
  151.4813  138.1577  154.3315 C   0  0  1  0  0  0  0  0  0  0  0  0
  150.5137  137.0335  154.7258 C   0  0  0  0  0  0  0  0  0  0  0  0
  149.4168  137.8075  155.4568 C   0  0  0  0  0  0  0  0  0  0  0  0
  149.9566  139.2434  155.4076 C   0  0  2  0  0  0  0  0  0  0  0  0
  150.5744  139.2271  154.1305 O   0  0  0  0  0  0  0  0  0  0  0  0
  151.5158  142.4806  158.2972 N   0  0  0  0  0  0  0  0  0  0  0  0
  149.9081  145.6964  160.1103 H   0  0  0  0  0  0  0  0  0  0  0  0
  149.5222  144.0623  160.6038 H   0  0  0  0  0  0  0  0  0  0  0  0
  149.6723  144.4496  158.8927 H   0  0  0  0  0  0  0  0  0  0  0  0
  151.9437  145.1038  157.9086 H   0  0  0  0  0  0  0  0  0  0  0  0
  153.3702  145.1787  158.9375 H   0  0  0  0  0  0  0  0  0  0  0  0
  152.0650  146.3217  159.1720 H   0  0  0  0  0  0  0  0  0  0  0  0
  151.9789  145.6046  161.6535 H   0  0  0  0  0  0  0  0  0  0  0  0
  153.2137  144.3766  161.4024 H   0  0  0  0  0  0  0  0  0  0  0  0
  151.6527  143.9280  162.0779 H   0  0  0  0  0  0  0  0  0  0  0  0
  153.4753  140.2568  160.6968 H   0  0  0  0  0  0  0  0  0  0  0  0
  152.8364  139.3619  158.4171 H   0  0  0  0  0  0  0  0  0  0  0  0
  151.5704  141.4391  155.8223 H   0  0  0  0  0  0  0  0  0  0  0  0
  150.9792  138.8974  157.2830 H   0  0  0  0  0  0  0  0  0  0  0  0
  153.0347  139.3955  155.1938 H   0  0  0  0  0  0  0  0  0  0  0  0
  152.7595  137.9057  156.0995 H   0  0  0  0  0  0  0  0  0  0  0  0
  152.1023  137.9259  153.4657 H   0  0  0  0  0  0  0  0  0  0  0  0
  150.1088  136.5390  153.8421 H   0  0  0  0  0  0  0  0  0  0  0  0
  150.9907  136.2794  155.3527 H   0  0  0  0  0  0  0  0  0  0  0  0
  148.4723  137.7318  154.9167 H   0  0  0  0  0  0  0  0  0  0  0  0
  149.2559  137.4554  156.4762 H   0  0  0  0  0  0  0  0  0  0  0  0
  149.1842  140.0034  155.5315 H   0  0  0  0  0  0  0  0  0  0  0  0
  1  2  1  0  0  0  0
  1 19  1  0  0  0  0
  1 20  1  0  0  0  0
  1 21  1  0  0  0  0
  2  3  1  0  0  0  0
  2  4  1  0  0  0  0
  2  5  1  0  0  0  0
  3 22  1  0  0  0  0
  3 23  1  0  0  0  0
  3 24  1  0  0  0  0
  4 25  1  0  0  0  0
  4 26  1  0  0  0  0
  4 27  1  0  0  0  0
  5 18  1  0  0  0  0
  5  6  2  0  0  0  0
  6  7  1  0  0  0  0
  7  8  2  0  0  0  0
  7 28  1  0  0  0  0
  8  9  1  0  0  0  0
  8 29  1  0  0  0  0
  9 10  1  0  0  0  0
  9 18  2  0  0  0  0
 10 11  1  0  0  0  0
 10 30  1  0  0  0  0
 11 16  1  0  0  0  0
 11 12  1  0  0  0  0
 11 31  1  0  0  0  0
 12 13  1  0  0  0  0
 12 32  1  0  0  0  0
 12 33  1  0  0  0  0
 13 17  1  0  0  0  0
 13 14  1  0  0  0  0
 13 34  1  0  0  0  0
 14 15  1  0  0  0  0
 14 35  1  0  0  0  0
 14 36  1  0  0  0  0
 15 16  1  0  0  0  0
 15 37  1  0  0  0  0
 15 38  1  0  0  0  0
 16 17  1  0  0  0  0
 16 39  1  0  0  0  0
M  END
> <s_m_source_file>
AV-unprocessed.smi

> <i_m_source_file_index>
2883

> <i_lp_mmshare_version>
43012

> <i_f3d_flags>
0

> <s_epik_input>
W0NIM11DKFtDSDNdKShbQ0gzXSljMW5bY0hdW2NIXWMobjEpW05IXVtDQEhdKFtDSDJdW0NAQEhdMjMpW0NAQEhdKE8zKVtDSDJdW0NIMl0y

> <s_epik_cmdline>
J2VwaWtfcHl0aG9uJywgJy1waCcsICc3LjAnLCAnLXRuJywgJzgnLCAnLW1hJywgJzIwMCcsICctbWV0YWxfYmluZGluZycsICctaW1hZScsICc8aW5maWxlLm1hZT4nLCAnLW9tYWUnLCAnPG91dGZpbGUubWFlPic=

> <r_lp_tautomer_probability>
1

> <r_epik_Ionization_Penalty>
0.453006

> <r_epik_Ionization_Penalty_Charging>
0

> <r_epik_Ionization_Penalty_Neutral>
0.453006

> <r_epik_State_Penalty>
0.455155

> <r_epik_Charging_Adjusted_Penalty>
0.455155

> <i_epik_Tot_Q>
0

> <i_epik_Tot_abs_Q>
0

> <r_epik_Metal_State_Penalty>
0.255592

> <b_epik_Metal_Only>
0

> <s_lp_Force_Field>
OPLS_2005

> <r_lp_Energy>
33.3258

> <b_lp_Chiralities_Consistent>
1

> <s_lp_Variant>
AV-unprocessed.smi:2883-5

> <Gold.Version>
5.8.1

> <Gold.Id.Protein>
6NUR|6NUR_protein|mol2

> <Gold.PLP.Fitness>
38.2961

> <Gold.PLP.PLP>
-36.1070

> <Gold.PLP.part.hbond>
-1.0000

> <Gold.PLP.part.metal>
0.0000

> <Gold.PLP.part.buried>
-5.0698

> <Gold.PLP.part.nonpolar>
-29.8170

> <Gold.PLP.part.repulsive>
0.3590

> <Gold.PLP.ligand.clash>
0.0000

> <Gold.PLP.ligand.torsion>
0.4818

> <Gold.PLP.Chemscore.Hbond>
1.0000

> <Gold.PLP.Chemscore.CHOScore>
0.0000

> <Gold.PLP.Chemscore.Metal>
0.0000

> <Gold.Chemscore.Hbonds>
donor molecule, donor type, donor heavy atom, donor atom, acceptor molecule, acceptor atom, score
      P1  H  7989  7998       L1    17  0.96

> <Gold.PLP.Chemscore.Internal.Correction>
0.1526

> <Gold.Rescore>
     Score         DG    S(hbond)    S(metal)    S(lipo)     H(rot)  DE(clash)    DE(int)     intcor
     16.00     -16.78       0.91        0.00      95.64       1.15       0.19       0.59       ----

> <Gold.Chemscore.Fitness>
15.9965

> <Gold.Chemscore.DG>
-16.7832

> <Gold.Chemscore.ZeroCoef>
-5.4800

> <Gold.Chemscore.Hbond>
0.9140

> <Gold.Chemscore.Metal>
0.0000

> <Gold.Chemscore.Lipo>
95.6387

> <Gold.Chemscore.Internal_Hbond>
0.0000

> <Gold.Chemscore.DEClash>
0.1949

> <Gold.Chemscore.DEInternal>
0.5918

> <Gold.Chemscore.Rot>
1.1482

> <Gold.Chemscore.Internal.Correction>
   9.000000E+99

> <Gold.Chemscore.Hbonds>
donor molecule, donor type, donor heavy atom, donor atom, acceptor molecule, acceptor atom, score
      P1  H  7989  7998       L1    17  0.58

> <Gold.Chemscore.Hbond.Weighted>
-3.0528

> <Gold.Chemscore.Metal.Weighted>
-0.0000

> <Gold.Chemscore.Lipo.Weighted>
-11.1897

> <Gold.Chemscore.Internal_Hbond.Weighted>
0.0000

> <Gold.Chemscore.DEClash.Weighted>
0.1949

> <Gold.Chemscore.DEInternal.Weighted>
0.5918

> <Gold.Chemscore.Rot.Weighted>
2.9393

> <Gold.Chemscore.Internal.Correction.Weighted>
   9.000000E+99

> <Gold.Protein.RotatedTorsions>
[ 6907 6896 6895 6894 ] final -105.45 input  -60.11 | X-H torsion
[ 7974 7965 7964 7962 ] final  -76.95 input  175.53 | X-H torsion
[ 8008 7997 7996 7995 ] final    3.13 input   59.86 | X-H torsion
[ 10167 10162 10161 10158 ] final   37.84 input  -65.29 | X-H torsion
[ 10718 10713 10712 10709 ] final   70.33 input   66.30 | X-H torsion
[ 10763 10752 10751 10750 ] final  -66.07 input  -60.55 | X-H torsion
[ 11005 11000 10999 10996 ] final  -93.96 input  -57.11 | X-H torsion

> <Gold.Protein.ActiveResidues>
 VAL166  LYS551  ARG553  GLY616  TRP617  ASP618  TYR619  PRO620  LYS621  CYS622 
 ASP623  PHE694  ASN695  SER759  ASP760  ASP761  ALA762  ILE779  LEU786  VAL792 
 PHE793  MET794  SER795  GLU796  ALA797  LYS798  CYS799  TRP800  GLU811  SER814 

> <Gold.Protein.RotatedAtoms>
  150.7338  134.0124  159.3673 H   0  0  0  0  0  0  0  0  0  0  0  0  # atno 6907 bound_to 6896
  151.8085  135.0686  160.0419 H   0  0  0  0  0  0  0  0  0  0  0  0  # atno 6908 bound_to 6896
  152.3090  133.5697  159.5704 H   0  0  0  0  0  0  0  0  0  0  0  0  # atno 6909 bound_to 6896
  145.6061  140.9397  143.1215 H   0  0  0  0  0  0  0  0  0  0  0  0  # atno 7974 bound_to 7965
  154.7000  140.2671  155.6729 H   0  0  0  0  0  0  0  0  0  0  0  0  # atno 8008 bound_to 7997
  156.2761  140.2774  156.1530 H   0  0  0  0  0  0  0  0  0  0  0  0  # atno 8009 bound_to 7997
  155.0778  140.0372  157.2619 H   0  0  0  0  0  0  0  0  0  0  0  0  # atno 8010 bound_to 7997
  140.3994  144.1744  150.6133 H   0  0  0  0  0  0  0  0  0  0  0  0  # atno 10167 bound_to 10162
  157.6394  130.9471  150.0635 H   0  0  0  0  0  0  0  0  0  0  0  0  # atno 10718 bound_to 10713
  154.3544  135.6129  153.5659 H   0  0  0  0  0  0  0  0  0  0  0  0  # atno 10763 bound_to 10752
  152.9796  135.5800  154.4705 H   0  0  0  0  0  0  0  0  0  0  0  0  # atno 10764 bound_to 10752
  154.4432  135.2851  155.1810 H   0  0  0  0  0  0  0  0  0  0  0  0  # atno 10765 bound_to 10752
  141.1483  133.7923  157.0232 H   0  0  0  0  0  0  0  0  0  0  0  0  # atno 11005 bound_to 11000
  144.7289  139.7787  143.7354 LP  0  0  0  0  0  0  0  0  0  0  0  0  # atno 17320 bound_to 7965
  146.1540  139.4632  143.0031 LP  0  0  0  0  0  0  0  0  0  0  0  0  # atno 17321 bound_to 7965
  140.4756  143.2397  151.9028 LP  0  0  0  0  0  0  0  0  0  0  0  0  # atno 17342 bound_to 10162
  139.4785  144.5324  151.8647 LP  0  0  0  0  0  0  0  0  0  0  0  0  # atno 17343 bound_to 10162
  156.1661  130.3645  149.9231 LP  0  0  0  0  0  0  0  0  0  0  0  0  # atno 17370 bound_to 10713
  156.7217  130.9009  151.3618 LP  0  0  0  0  0  0  0  0  0  0  0  0  # atno 17371 bound_to 10713
  140.0802  134.9652  157.1612 LP  0  0  0  0  0  0  0  0  0  0  0  0  # atno 17394 bound_to 11000
  140.3587  134.2518  155.7189 LP  0  0  0  0  0  0  0  0  0  0  0  0  # atno 17395 bound_to 11000

$$$$
