AV-unprocessed.smi:1944|AV-procd|sdf|7855|dock7
  -GOLD-   2272010 03D 1   1.00000     0.00000
 Structure written by MMmdl.
 46 47  0  0  0  0  0  0  0  0  2 V2000
  155.3439  140.0973  160.1991 C   0  0  0  0  0  0  0  0  0  0  0  0
  154.2914  140.0544  159.2413 O   0  0  0  0  0  0  0  0  0  0  0  0
  153.3778  141.0910  159.2185 C   0  0  0  0  0  0  0  0  0  0  0  0
  153.5237  142.0990  160.1150 N   0  0  0  0  0  0  0  0  0  0  0  0
  152.6357  143.1138  160.0919 C   0  0  0  0  0  0  0  0  0  0  0  0
  151.5681  143.1821  159.1782 C   0  0  0  0  0  0  0  0  0  0  0  0
  151.4143  142.1380  158.2476 C   0  0  0  0  0  0  0  0  0  0  0  0
  152.3296  141.0576  158.2690 C   0  0  0  0  0  0  0  0  0  0  0  0
  152.2776  139.9631  157.3617 N   0  0  0  0  0  0  0  0  0  0  0  0
  151.4257  139.7606  156.3425 C   0  0  0  0  0  0  0  0  0  0  0  0
  150.5013  140.5089  156.0252 O   0  0  0  0  0  0  0  0  0  0  0  0
  151.6893  138.6088  155.7092 N   0  0  0  0  0  0  0  0  0  0  0  0
  150.9419  138.0970  154.5663 C   0  0  0  0  0  0  0  0  0  0  0  0
  149.5092  137.6902  154.9652 C   0  0  0  0  0  0  0  0  0  0  0  0
  149.1475  136.3080  154.5490 N   0  3  2  0  0  0  0  0  0  0  0  0
  147.7808  135.9317  155.0028 C   0  0  0  0  0  0  0  0  0  0  0  0
  147.3306  134.5976  154.3870 C   0  0  0  0  0  0  0  0  0  0  0  0
  148.3341  133.4819  154.6966 C   0  0  0  0  0  0  0  0  0  0  0  0
  149.7360  133.9004  154.2333 C   0  0  0  0  0  0  0  0  0  0  0  0
  150.1711  135.2534  154.8363 C   0  0  2  0  0  0  0  0  0  0  0  0
  150.5352  135.1348  156.3320 C   0  0  0  0  0  0  0  0  0  0  0  0
  155.9648  139.2080  160.0927 H   0  0  0  0  0  0  0  0  0  0  0  0
  154.9558  140.1092  161.2189 H   0  0  0  0  0  0  0  0  0  0  0  0
  155.9842  140.9678  160.0492 H   0  0  0  0  0  0  0  0  0  0  0  0
  152.7846  143.8984  160.8188 H   0  0  0  0  0  0  0  0  0  0  0  0
  150.8857  144.0191  159.1871 H   0  0  0  0  0  0  0  0  0  0  0  0
  150.6103  142.1954  157.5304 H   0  0  0  0  0  0  0  0  0  0  0  0
  152.9287  139.2157  157.5542 H   0  0  0  0  0  0  0  0  0  0  0  0
  152.4657  138.0517  156.0360 H   0  0  0  0  0  0  0  0  0  0  0  0
  150.9236  138.8406  153.7675 H   0  0  0  0  0  0  0  0  0  0  0  0
  151.4967  137.2399  154.1861 H   0  0  0  0  0  0  0  0  0  0  0  0
  149.3575  137.8163  156.0374 H   0  0  0  0  0  0  0  0  0  0  0  0
  148.8117  138.3771  154.4839 H   0  0  0  0  0  0  0  0  0  0  0  0
  147.7488  135.8785  156.0915 H   0  0  0  0  0  0  0  0  0  0  0  0
  147.0720  136.7075  154.7105 H   0  0  0  0  0  0  0  0  0  0  0  0
  146.3440  134.3270  154.7647 H   0  0  0  0  0  0  0  0  0  0  0  0
  147.2283  134.7089  153.3065 H   0  0  0  0  0  0  0  0  0  0  0  0
  148.3380  133.2702  155.7662 H   0  0  0  0  0  0  0  0  0  0  0  0
  148.0346  132.5589  154.1992 H   0  0  0  0  0  0  0  0  0  0  0  0
  150.4596  133.1232  154.4822 H   0  0  0  0  0  0  0  0  0  0  0  0
  149.7398  133.9767  153.1449 H   0  0  0  0  0  0  0  0  0  0  0  0
  151.0848  135.5261  154.3095 H   0  0  0  0  0  0  0  0  0  0  0  0
  151.2643  134.3390  156.4877 H   0  0  0  0  0  0  0  0  0  0  0  0
  149.6700  134.9062  156.9534 H   0  0  0  0  0  0  0  0  0  0  0  0
  150.9870  136.0503  156.7128 H   0  0  0  0  0  0  0  0  0  0  0  0
  149.0838  136.3466  153.5415 H   0  0  0  0  0  0  0  0  0  0  0  0
  1  2  1  0  0  0  0
  1 22  1  0  0  0  0
  1 23  1  0  0  0  0
  1 24  1  0  0  0  0
  2  3  1  0  0  0  0
  3  8  1  0  0  0  0
  3  4  2  0  0  0  0
  4  5  1  0  0  0  0
  5  6  2  0  0  0  0
  5 25  1  0  0  0  0
  6  7  1  0  0  0  0
  6 26  1  0  0  0  0
  7  8  2  0  0  0  0
  7 27  1  0  0  0  0
  8  9  1  0  0  0  0
  9 10  1  0  0  0  0
  9 28  1  0  0  0  0
 10 11  2  0  0  0  0
 10 12  1  0  0  0  0
 12 13  1  0  0  0  0
 12 29  1  0  0  0  0
 13 14  1  0  0  0  0
 13 30  1  0  0  0  0
 13 31  1  0  0  0  0
 14 15  1  0  0  0  0
 14 32  1  0  0  0  0
 14 33  1  0  0  0  0
 15 20  1  0  0  0  0
 15 16  1  0  0  0  0
 15 46  1  0  0  0  0
 16 17  1  0  0  0  0
 16 34  1  0  0  0  0
 16 35  1  0  0  0  0
 17 18  1  0  0  0  0
 17 36  1  0  0  0  0
 17 37  1  0  0  0  0
 18 19  1  0  0  0  0
 18 38  1  0  0  0  0
 18 39  1  0  0  0  0
 19 20  1  0  0  0  0
 19 40  1  0  0  0  0
 19 41  1  0  0  0  0
 20 21  1  0  0  0  0
 20 42  1  0  0  0  0
 21 43  1  0  0  0  0
 21 44  1  0  0  0  0
 21 45  1  0  0  0  0
M  CHG  1  15   1
M  END
> <s_m_source_file>
AV-unprocessed.smi

> <i_m_source_file_index>
1944

> <i_lp_mmshare_version>
43012

> <i_f3d_flags>
0

> <s_epik_input>
W0NIM11PYzFuW2NIXVtjSF1bY0hdYzFbTkhdQyg9TylbTkhdW0NIMl1bQ0gyXU4yW0NIMl1bQ0gyXVtDSDJdW0NIMl1bQ0BIXTJbQ0gzXQ==

> <s_epik_cmdline>
J2VwaWtfcHl0aG9uJywgJy1waCcsICc3LjAnLCAnLXRuJywgJzgnLCAnLW1hJywgJzIwMCcsICctbWV0YWxfYmluZGluZycsICctaW1hZScsICc8aW5maWxlLm1hZT4nLCAnLW9tYWUnLCAnPG91dGZpbGUubWFlPic=

> <r_lp_tautomer_probability>
1

> <r_epik_Ionization_Penalty>
0.00219525

> <r_epik_Ionization_Penalty_Charging>
0.00211816

> <r_epik_Ionization_Penalty_Neutral>
7.7088e-05

> <r_epik_State_Penalty>
0.00145254

> <r_epik_Charging_Adjusted_Penalty>
0.0035707

> <i_epik_Tot_Q>
1

> <i_epik_Tot_abs_Q>
1

> <r_epik_Metal_State_Penalty>
-0

> <b_epik_Metal_Only>
0

> <s_lp_Force_Field>
OPLS_2005

> <r_lp_Energy>
23.2027

> <b_lp_Chiralities_Consistent>
1

> <s_lp_Variant>
AV-unprocessed.smi:1944-3

> <Gold.Version>
5.8.1

> <Gold.Id.Protein>
6NUR|6NUR_protein|mol2

> <Gold.PLP.Fitness>
39.9018

> <Gold.PLP.PLP>
-31.7380

> <Gold.PLP.part.hbond>
-2.0000

> <Gold.PLP.part.metal>
0.0000

> <Gold.PLP.part.buried>
-5.8241

> <Gold.PLP.part.nonpolar>
-23.9473

> <Gold.PLP.part.repulsive>
0.2738

> <Gold.PLP.ligand.clash>
0.0000

> <Gold.PLP.ligand.torsion>
0.4415

> <Gold.PLP.Chemscore.Hbond>
2.9920

> <Gold.PLP.Chemscore.CHOScore>
0.0000

> <Gold.PLP.Chemscore.Metal>
0.0000

> <Gold.Chemscore.Hbonds>
donor molecule, donor type, donor heavy atom, donor atom, acceptor molecule, acceptor atom, score
      L1  H    15    46       P1  7948  2.00
      P1  H  7997  8009       L1     2  0.93

> <Gold.PLP.Chemscore.Internal.Correction>
0.0709

> <Gold.Rescore>
     Score         DG    S(hbond)    S(metal)    S(lipo)     H(rot)  DE(clash)    DE(int)     intcor
     14.19     -16.03       1.61        0.00      81.59       1.71       0.05       1.80       ----

> <Gold.Chemscore.Fitness>
14.1927

> <Gold.Chemscore.DG>
-16.0338

> <Gold.Chemscore.ZeroCoef>
-5.4800

> <Gold.Chemscore.Hbond>
1.6129

> <Gold.Chemscore.Metal>
0.0000

> <Gold.Chemscore.Lipo>
81.5913

> <Gold.Chemscore.Internal_Hbond>
0.0000

> <Gold.Chemscore.DEClash>
0.0456

> <Gold.Chemscore.DEInternal>
1.7955

> <Gold.Chemscore.Rot>
1.7107

> <Gold.Chemscore.Internal.Correction>
   9.000000E+99

> <Gold.Chemscore.Hbonds>
donor molecule, donor type, donor heavy atom, donor atom, acceptor molecule, acceptor atom, score
      L1  H    15    46       P1  7948  0.98
      P1  H  7997  8009       L1     2  0.28

> <Gold.Chemscore.Hbond.Weighted>
-5.3870

> <Gold.Chemscore.Metal.Weighted>
-0.0000

> <Gold.Chemscore.Lipo.Weighted>
-9.5462

> <Gold.Chemscore.Internal_Hbond.Weighted>
0.0000

> <Gold.Chemscore.DEClash.Weighted>
0.0456

> <Gold.Chemscore.DEInternal.Weighted>
1.7955

> <Gold.Chemscore.Rot.Weighted>
4.3794

> <Gold.Chemscore.Internal.Correction.Weighted>
   9.000000E+99

> <Gold.Protein.RotatedTorsions>
[ 6907 6896 6895 6894 ] final  130.19 input  -60.11 | X-H torsion
[ 7974 7965 7964 7962 ] final  132.28 input  175.53 | X-H torsion
[ 8008 7997 7996 7995 ] final  121.82 input   59.86 | X-H torsion
[ 10167 10162 10161 10158 ] final   37.42 input  -65.29 | X-H torsion
[ 10718 10713 10712 10709 ] final -119.20 input   66.30 | X-H torsion
[ 10763 10752 10751 10750 ] final  161.56 input  -60.55 | X-H torsion
[ 11005 11000 10999 10996 ] final  -18.07 input  -57.11 | X-H torsion

> <Gold.Protein.ActiveResidues>
 VAL166  LYS551  ARG553  GLY616  TRP617  ASP618  TYR619  PRO620  LYS621  CYS622 
 ASP623  PHE694  ASN695  SER759  ASP760  ASP761  ALA762  ILE779  LEU786  VAL792 
 PHE793  MET794  SER795  GLU796  ALA797  LYS798  CYS799  TRP800  GLU811  SER814 

> <Gold.Protein.RotatedAtoms>
  152.3551  133.6227  159.5973 H   0  0  0  0  0  0  0  0  0  0  0  0  # atno 6907 bound_to 6896
  150.7563  133.9513  159.3495 H   0  0  0  0  0  0  0  0  0  0  0  0  # atno 6908 bound_to 6896
  151.7359  135.0866  160.0359 H   0  0  0  0  0  0  0  0  0  0  0  0  # atno 6909 bound_to 6896
  144.9985  139.4335  143.5304 H   0  0  0  0  0  0  0  0  0  0  0  0  # atno 7974 bound_to 7965
  156.2702  140.2800  156.1369 H   0  0  0  0  0  0  0  0  0  0  0  0  # atno 8008 bound_to 7997
  155.0995  140.0389  157.2710 H   0  0  0  0  0  0  0  0  0  0  0  0  # atno 8009 bound_to 7997
  154.6826  140.2612  155.6898 H   0  0  0  0  0  0  0  0  0  0  0  0  # atno 8010 bound_to 7997
  140.4034  144.1692  150.6135 H   0  0  0  0  0  0  0  0  0  0  0  0  # atno 10167 bound_to 10162
  156.1163  130.6289  150.9387 H   0  0  0  0  0  0  0  0  0  0  0  0  # atno 10718 bound_to 10713
  154.2649  135.2767  155.2763 H   0  0  0  0  0  0  0  0  0  0  0  0  # atno 10763 bound_to 10752
  154.5352  135.5718  153.6796 H   0  0  0  0  0  0  0  0  0  0  0  0  # atno 10764 bound_to 10752
  152.9955  135.6237  154.2801 H   0  0  0  0  0  0  0  0  0  0  0  0  # atno 10765 bound_to 10752
  140.8231  133.8053  155.9680 H   0  0  0  0  0  0  0  0  0  0  0  0  # atno 11005 bound_to 11000
  146.3447  139.9359  142.8747 LP  0  0  0  0  0  0  0  0  0  0  0  0  # atno 17320 bound_to 7965
  145.2186  140.9925  143.4059 LP  0  0  0  0  0  0  0  0  0  0  0  0  # atno 17321 bound_to 7965
  140.4716  143.2411  151.9081 LP  0  0  0  0  0  0  0  0  0  0  0  0  # atno 17342 bound_to 10162
  139.4784  144.5364  151.8592 LP  0  0  0  0  0  0  0  0  0  0  0  0  # atno 17343 bound_to 10162
  157.6347  131.0917  150.8373 LP  0  0  0  0  0  0  0  0  0  0  0  0  # atno 17370 bound_to 10713
  156.8475  130.5069  149.5315 LP  0  0  0  0  0  0  0  0  0  0  0  0  # atno 17371 bound_to 10713
  140.9078  134.2298  157.5004 LP  0  0  0  0  0  0  0  0  0  0  0  0  # atno 17394 bound_to 11000
  139.8707  134.9736  156.4816 LP  0  0  0  0  0  0  0  0  0  0  0  0  # atno 17395 bound_to 11000

$$$$
