#       Name:                AV-unprocessed.smi:1748
#       Creating user name   scv26
#       Creation time:       Fri Mar 27 08:25:59 2020


#       File generated by GOLD software.
#

@<TRIPOS>MOLECULE
AV-unprocessed.smi:1748
    44    45     1
SMALL
NO_CHARGES


@<TRIPOS>ATOM
      1 ****        -3.6521  -1.9896  -2.3073 C.3            1 S1                 0.0000
      2 ****        -3.3007  -1.5559  -0.9380 N.4            1 S1                 1.0000
      3 ****        -3.8789  -2.4444   0.1010 C.3            1 S1                 0.0000
      4 ****        -3.6032  -1.8963   1.5110 C.3            1 S1                 0.0000
      5 ****        -2.0997  -1.6846   1.7371 C.3            1 S1                 0.0000
      6 ****        -1.5186  -0.7871   0.6322 C.3            1 S1                 0.0000
      7 ****        -0.0776  -0.6408   0.8153 N.am           1 S1                 0.0000
      8 ****         0.6647   0.3623   0.3242 C.2            1 S1                 0.0000
      9 ****         0.1936   1.2772  -0.3512 O.2            1 S1                 0.0000
     10 ****         1.9603   0.2073   0.6511 N.am           1 S1                 0.0000
     11 ****         3.0547   1.0414   0.3654 C.2            1 S1                 0.0000
     12 ****         2.9580   2.3529   0.0109 C.2            1 S1                 0.0000
     13 ****         4.1320   3.1755  -0.2552 C.2            1 S1                 0.0000
     14 ****         4.0804   4.6386  -0.6554 C.3            1 S1                 0.0000
     15 ****         4.7484   5.3812   0.2268 F              1 S1                 0.0000
     16 ****         4.6462   4.8095  -1.8497 F              1 S1                 0.0000
     17 ****         2.8254   5.0840  -0.7162 F              1 S1                 0.0000
     18 ****         5.3116   2.4768  -0.0929 C.2            1 S1                 0.0000
     19 ****         5.4940   1.1863   0.2630 N.pl3          1 S1                -1.0000
     20 ****         4.3901   0.4243   0.5053 C.2            1 S1                 0.0000
     21 ****         4.4831  -0.7588   0.8347 O.2            1 S1                 0.0000
     22 ****        -1.8389  -1.3703  -0.7608 C.3            1 S1                 0.0000
     23 ****        -3.2294  -2.9707  -2.5278 H              1 S1                 0.0000
     24 ****        -3.2753  -1.2803  -3.0448 H              1 S1                 0.0000
     25 ****        -4.7345  -2.0485  -2.4267 H              1 S1                 0.0000
     26 ****        -4.9554  -2.5327  -0.0505 H              1 S1                 0.0000
     27 ****        -3.4604  -3.4472  -0.0013 H              1 S1                 0.0000
     28 ****        -4.1309  -0.9510   1.6456 H              1 S1                 0.0000
     29 ****        -3.9997  -2.5809   2.2612 H              1 S1                 0.0000
     30 ****        -1.9305  -1.2377   2.7176 H              1 S1                 0.0000
     31 ****        -1.5917  -2.6502   1.7414 H              1 S1                 0.0000
     32 ****        -1.9829   0.1977   0.7181 H              1 S1                 0.0000
     33 ****         0.3893  -1.3526   1.3582 H              1 S1                 0.0000
     34 ****         2.2047  -0.6412   1.1406 H              1 S1                 0.0000
     35 ****         1.9962   2.8332  -0.0620 H              1 S1                 0.0000
     36 ****         6.2497   3.0437  -0.2756 H              1 S1                 0.0000
     37 ****        -1.3308  -2.3264  -0.9002 H              1 S1                 0.0000
     38 ****        -1.4691  -0.6995  -1.5375 H              1 S1                 0.0000
     39 ****        -3.7222  -0.6471  -0.8088 H              1 S1                 0.0000
     40 ****        -0.7850   1.2947  -0.5562 LP             1 S1                 0.0000
     41 ****         0.7895   2.0031  -0.6949 LP             1 S1                 0.0000
     42 ****         6.4130   0.8010   0.3464 LP             1 S1                 0.0000
     43 ****         3.6576  -1.2965   1.0060 LP             1 S1                 0.0000
     44 ****         5.3842  -1.1816   0.9309 LP             1 S1                 0.0000
@<TRIPOS>BOND
    1    1    2 1     
    2    1   23 1     
    3    1   24 1     
    4    1   25 1     
    5    2   22 1     
    6    2    3 1     
    7    2   39 1     
    8    3    4 1     
    9    3   26 1     
   10    3   27 1     
   11    4    5 1     
   12    4   28 1     
   13    4   29 1     
   14    5    6 1     
   15    5   30 1     
   16    5   31 1     
   17    6    7 1     
   18    6   22 1     
   19    6   32 1     
   20    7    8 am    
   21    7   33 1     
   22    8    9 2     
   23    8   10 am    
   24   10   11 1     
   25   10   34 1     
   26   11   20 1     
   27   11   12 2     
   28   12   13 1     
   29   12   35 1     
   30   13   14 1     
   31   13   18 2     
   32   14   15 1     
   33   14   16 1     
   34   14   17 1     
   35   18   19 1     
   36   18   36 1     
   37   19   20 1     
   38   20   21 2     
   39   22   37 1     
   40   22   38 1     
   41    9   40 1     
   42    9   41 1     
   43   19   42 1     
   44   21   43 1     
   45   21   44 1     
@<TRIPOS>SUBSTRUCTURE
      1 S1             1
@<TRIPOS>SET
LONE_PAIRS      STATIC     ATOMS    <user>   **** ""
5 40 41 42 43 44
DONOR_HYDROGENS      STATIC     ATOMS    <user>   **** ""
3 39 33 34
ATOM$BLUE        STATIC     ATOMS    COLORGROUP SYSTEM
5 40 41 42 43 44
ATOM$RED        STATIC     ATOMS    COLORGROUP SYSTEM
3 39 33 34
