AV-unprocessed.smi:407|AV-procd|sdf|2501|dock4
  -GOLD-   2262022443D 1   1.00000     0.00000
 Structure written by MMmdl.
 45 47  0  0  0  0  0  0  0  0  1 V2000
  144.3148  143.6900  155.4984 C   0  0  0  0  0  0  0  0  0  0  0  0
  145.3454  143.0807  156.4475 C   0  0  0  0  0  0  0  0  0  0  0  0
  145.1689  143.1902  157.6606 O   0  0  0  0  0  0  0  0  0  0  0  0
  146.5187  142.3850  155.8466 C   0  0  0  0  0  0  0  0  0  0  0  0
  147.4962  141.8144  156.6918 C   0  0  0  0  0  0  0  0  0  0  0  0
  148.6143  141.1528  156.1497 C   0  0  0  0  0  0  0  0  0  0  0  0
  148.7842  141.0441  154.7558 C   0  0  0  0  0  0  0  0  0  0  0  0
  149.9093  140.3834  154.3115 O   0  0  0  0  0  0  0  0  0  0  0  0
  150.4549  139.3558  155.1286 C   0  0  0  0  0  0  0  0  0  0  0  0
  151.4694  139.9826  156.0995 C   0  0  2  0  0  0  0  0  0  0  0  0
  152.7139  139.3509  155.8720 O   0  0  0  0  0  0  0  0  0  0  0  0
  151.0810  139.7389  157.5721 C   0  0  0  0  0  0  0  0  0  0  0  0
  151.8631  140.5720  158.4850 N   0  0  0  0  0  0  0  0  0  0  0  0
  152.6844  140.1362  159.4699 C   0  0  0  0  0  0  0  0  0  0  0  0
  152.9090  138.9597  159.7536 O   0  0  0  0  0  0  0  0  0  0  0  0
  153.2114  141.2195  160.0866 N   0  0  0  0  0  0  0  0  0  0  0  0
  154.1476  141.2236  161.2040 C   0  0  0  0  0  0  0  0  0  0  0  0
  152.7178  142.3804  159.4785 C   0  0  0  0  0  0  0  0  0  0  0  0
  152.9614  143.7379  159.7485 C   0  0  0  0  0  0  0  0  0  0  0  0
  152.2913  144.6871  158.9416 C   0  0  0  0  0  0  0  0  0  0  0  0
  151.4128  144.2710  157.9076 C   0  0  0  0  0  0  0  0  0  0  0  0
  151.1868  142.8972  157.6569 C   0  0  0  0  0  0  0  0  0  0  0  0
  151.8670  141.9748  158.4716 C   0  0  0  0  0  0  0  0  0  0  0  0
  147.8033  141.6114  153.9057 C   0  0  0  0  0  0  0  0  0  0  0  0
  146.6839  142.2737  154.4463 C   0  0  0  0  0  0  0  0  0  0  0  0
  144.7856  144.4220  154.8419 H   0  0  0  0  0  0  0  0  0  0  0  0
  143.5291  144.1942  156.0616 H   0  0  0  0  0  0  0  0  0  0  0  0
  143.8519  142.9146  154.8876 H   0  0  0  0  0  0  0  0  0  0  0  0
  147.4010  141.8790  157.7663 H   0  0  0  0  0  0  0  0  0  0  0  0
  149.3517  140.7249  156.8130 H   0  0  0  0  0  0  0  0  0  0  0  0
  149.6388  138.9044  155.6951 H   0  0  0  0  0  0  0  0  0  0  0  0
  150.9227  138.5691  154.5336 H   0  0  0  0  0  0  0  0  0  0  0  0
  151.5501  141.0524  155.9011 H   0  0  0  0  0  0  0  0  0  0  0  0
  152.5569  138.4368  155.6917 H   0  0  0  0  0  0  0  0  0  0  0  0
  150.0296  139.9895  157.7209 H   0  0  0  0  0  0  0  0  0  0  0  0
  151.1678  138.6835  157.8322 H   0  0  0  0  0  0  0  0  0  0  0  0
  153.8081  141.9082  161.9818 H   0  0  0  0  0  0  0  0  0  0  0  0
  155.1321  141.5489  160.8671 H   0  0  0  0  0  0  0  0  0  0  0  0
  154.2515  140.2350  161.6533 H   0  0  0  0  0  0  0  0  0  0  0  0
  153.6304  144.0463  160.5383 H   0  0  0  0  0  0  0  0  0  0  0  0
  152.4493  145.7414  159.1151 H   0  0  0  0  0  0  0  0  0  0  0  0
  150.9102  145.0126  157.3043 H   0  0  0  0  0  0  0  0  0  0  0  0
  150.5177  142.5771  156.8722 H   0  0  0  0  0  0  0  0  0  0  0  0
  147.8854  141.5523  152.8311 H   0  0  0  0  0  0  0  0  0  0  0  0
  145.9604  142.6908  153.7620 H   0  0  0  0  0  0  0  0  0  0  0  0
  1  2  1  0  0  0  0
  1 26  1  0  0  0  0
  1 27  1  0  0  0  0
  1 28  1  0  0  0  0
  2  3  2  0  0  0  0
  2  4  1  0  0  0  0
  4 25  1  0  0  0  0
  4  5  2  0  0  0  0
  5  6  1  0  0  0  0
  5 29  1  0  0  0  0
  6  7  2  0  0  0  0
  6 30  1  0  0  0  0
  7  8  1  0  0  0  0
  7 24  1  0  0  0  0
  8  9  1  0  0  0  0
  9 10  1  0  0  0  0
  9 31  1  0  0  0  0
  9 32  1  0  0  0  0
 10 11  1  0  0  0  0
 10 12  1  0  0  0  0
 10 33  1  0  0  0  0
 11 34  1  0  0  0  0
 12 13  1  0  0  0  0
 12 35  1  0  0  0  0
 12 36  1  0  0  0  0
 13 23  1  0  0  0  0
 13 14  1  0  0  0  0
 14 15  2  0  0  0  0
 14 16  1  0  0  0  0
 16 17  1  0  0  0  0
 16 18  1  0  0  0  0
 17 37  1  0  0  0  0
 17 38  1  0  0  0  0
 17 39  1  0  0  0  0
 18 23  2  0  0  0  0
 18 19  1  0  0  0  0
 19 20  2  0  0  0  0
 19 40  1  0  0  0  0
 20 21  1  0  0  0  0
 20 41  1  0  0  0  0
 21 22  2  0  0  0  0
 21 42  1  0  0  0  0
 22 23  1  0  0  0  0
 22 43  1  0  0  0  0
 24 25  2  0  0  0  0
 24 44  1  0  0  0  0
 25 45  1  0  0  0  0
M  END
> <s_m_source_file>
AV-unprocessed.smi

> <i_m_source_file_index>
407

> <i_lp_mmshare_version>
43012

> <i_f3d_flags>
0

> <s_epik_input>
W0NIM11DKD1PKWMxW2NIXVtjSF1jKFtjSF1bY0hdMSlPW0NIMl1bQ0BIXShbT0hdKVtDSDJdbihjKD1PKW4yW0NIM10pYyhjMjMpW2NIXVtjSF1bY0hdW2NIXTM=

> <s_epik_cmdline>
J2VwaWtfcHl0aG9uJywgJy1waCcsICc3LjAnLCAnLXRuJywgJzgnLCAnLW1hJywgJzIwMCcsICctbWV0YWxfYmluZGluZycsICctaW1hZScsICc8aW5maWxlLm1hZT4nLCAnLW9tYWUnLCAnPG91dGZpbGUubWFlPic=

> <r_lp_tautomer_probability>
1

> <r_epik_Ionization_Penalty>
2.40123e-06

> <r_epik_Ionization_Penalty_Charging>
1.9356e-09

> <r_epik_Ionization_Penalty_Neutral>
2.3993e-06

> <r_epik_State_Penalty>
-0

> <r_epik_Charging_Adjusted_Penalty>
1.9356e-09

> <i_epik_Tot_Q>
0

> <i_epik_Tot_abs_Q>
0

> <r_epik_Metal_State_Penalty>
-0

> <b_epik_Metal_Only>
0

> <s_lp_Force_Field>
OPLS_2005

> <r_lp_Energy>
53.6429

> <b_lp_Chiralities_Consistent>
1

> <s_lp_Variant>
AV-unprocessed.smi:407-1

> <Gold.Version>
5.8.1

> <Gold.Id.Protein>
6NUR|6NUR_protein|mol2

> <Gold.PLP.Fitness>
59.9484

> <Gold.PLP.PLP>
-56.7081

> <Gold.PLP.part.hbond>
-2.0000

> <Gold.PLP.part.metal>
0.0000

> <Gold.PLP.part.buried>
-5.9170

> <Gold.PLP.part.nonpolar>
-49.0493

> <Gold.PLP.part.repulsive>
0.4921

> <Gold.PLP.ligand.clash>
0.0000

> <Gold.PLP.ligand.torsion>
1.3968

> <Gold.PLP.Chemscore.Hbond>
1.9920

> <Gold.PLP.Chemscore.CHOScore>
0.0000

> <Gold.PLP.Chemscore.Metal>
0.0000

> <Gold.Chemscore.Hbonds>
donor molecule, donor type, donor heavy atom, donor atom, acceptor molecule, acceptor atom, score
      P1  H  7989  7998       L1     8  0.68
      P1  H  7997  8008       L1    11  1.00

> <Gold.PLP.Chemscore.Internal.Correction>
0.0580

> <Gold.Rescore>
     Score         DG    S(hbond)    S(metal)    S(lipo)     H(rot)  DE(clash)    DE(int)     intcor
     19.59     -21.07       1.78        0.00     132.81       2.30       0.04       1.45       ----

> <Gold.Chemscore.Fitness>
19.5880

> <Gold.Chemscore.DG>
-21.0744

> <Gold.Chemscore.ZeroCoef>
-5.4800

> <Gold.Chemscore.Hbond>
1.7785

> <Gold.Chemscore.Metal>
0.0000

> <Gold.Chemscore.Lipo>
132.8051

> <Gold.Chemscore.Internal_Hbond>
0.0000

> <Gold.Chemscore.DEClash>
0.0358

> <Gold.Chemscore.DEInternal>
1.4507

> <Gold.Chemscore.Rot>
2.2984

> <Gold.Chemscore.Internal.Correction>
   9.000000E+99

> <Gold.Chemscore.Hbonds>
donor molecule, donor type, donor heavy atom, donor atom, acceptor molecule, acceptor atom, score
      P1  H  7989  7998       L1     8  0.10
      P1  H  7997  8008       L1    11  0.99

> <Gold.Chemscore.Hbond.Weighted>
-5.9401

> <Gold.Chemscore.Metal.Weighted>
-0.0000

> <Gold.Chemscore.Lipo.Weighted>
-15.5382

> <Gold.Chemscore.Internal_Hbond.Weighted>
0.0000

> <Gold.Chemscore.DEClash.Weighted>
0.0358

> <Gold.Chemscore.DEInternal.Weighted>
1.4507

> <Gold.Chemscore.Rot.Weighted>
5.8839

> <Gold.Chemscore.Internal.Correction.Weighted>
   9.000000E+99

> <Gold.Protein.RotatedTorsions>
[ 6907 6896 6895 6894 ] final    4.70 input  -60.11 | X-H torsion
[ 7974 7965 7964 7962 ] final   35.30 input  175.53 | X-H torsion
[ 8008 7997 7996 7995 ] final  -21.34 input   59.86 | X-H torsion
[ 10167 10162 10161 10158 ] final  103.45 input  -65.29 | X-H torsion
[ 10718 10713 10712 10709 ] final  115.65 input   66.30 | X-H torsion
[ 10763 10752 10751 10750 ] final -112.30 input  -60.55 | X-H torsion
[ 11005 11000 10999 10996 ] final -119.46 input  -57.11 | X-H torsion

> <Gold.Protein.ActiveResidues>
 VAL166  LYS551  ARG553  GLY616  TRP617  ASP618  TYR619  PRO620  LYS621  CYS622 
 ASP623  PHE694  ASN695  SER759  ASP760  ASP761  ALA762  ILE779  LEU786  VAL792 
 PHE793  MET794  SER795  GLU796  ALA797  LYS798  CYS799  TRP800  GLU811  SER814 

> <Gold.Protein.RotatedAtoms>
  151.6455  135.1008  160.0149 H   0  0  0  0  0  0  0  0  0  0  0  0  # atno 6907 bound_to 6896
  152.4030  133.6842  159.6341 H   0  0  0  0  0  0  0  0  0  0  0  0  # atno 6908 bound_to 6896
  150.7928  133.8675  159.3290 H   0  0  0  0  0  0  0  0  0  0  0  0  # atno 6909 bound_to 6896
  146.1293  139.6160  142.9237 H   0  0  0  0  0  0  0  0  0  0  0  0  # atno 7974 bound_to 7965
  154.4712  140.2037  155.9990 H   0  0  0  0  0  0  0  0  0  0  0  0  # atno 8008 bound_to 7997
  156.1014  140.3243  155.7917 H   0  0  0  0  0  0  0  0  0  0  0  0  # atno 8009 bound_to 7997
  155.4792  140.0537  157.2960 H   0  0  0  0  0  0  0  0  0  0  0  0  # atno 8010 bound_to 7997
  139.7262  144.7047  151.0794 H   0  0  0  0  0  0  0  0  0  0  0  0  # atno 10167 bound_to 10162
  157.6209  131.1015  150.7360 H   0  0  0  0  0  0  0  0  0  0  0  0  # atno 10718 bound_to 10713
  154.8343  135.4496  154.1173 H   0  0  0  0  0  0  0  0  0  0  0  0  # atno 10763 bound_to 10752
  153.2419  135.6917  153.7780 H   0  0  0  0  0  0  0  0  0  0  0  0  # atno 10764 bound_to 10752
  153.7125  135.3354  155.3225 H   0  0  0  0  0  0  0  0  0  0  0  0  # atno 10765 bound_to 10752
  141.0214  134.0119  157.3277 H   0  0  0  0  0  0  0  0  0  0  0  0  # atno 11005 bound_to 11000
  145.5296  141.0428  143.2390 LP  0  0  0  0  0  0  0  0  0  0  0  0  # atno 17320 bound_to 7965
  144.7674  139.6814  143.7209 LP  0  0  0  0  0  0  0  0  0  0  0  0  # atno 17321 bound_to 7965
  140.7763  143.5102  150.9662 LP  0  0  0  0  0  0  0  0  0  0  0  0  # atno 17342 bound_to 10162
  139.8790  143.7096  152.3159 LP  0  0  0  0  0  0  0  0  0  0  0  0  # atno 17343 bound_to 10162
  156.7718  130.4831  149.5417 LP  0  0  0  0  0  0  0  0  0  0  0  0  # atno 17370 bound_to 10713
  156.1354  130.6207  151.0392 LP  0  0  0  0  0  0  0  0  0  0  0  0  # atno 17371 bound_to 10713
  139.9148  135.0195  156.7838 LP  0  0  0  0  0  0  0  0  0  0  0  0  # atno 17394 bound_to 11000
  140.6567  133.9682  155.7783 LP  0  0  0  0  0  0  0  0  0  0  0  0  # atno 17395 bound_to 11000

$$$$
