AV-unprocessed.smi:2682|AV-procd|sdf|10374|dock2
  -GOLD-   2272014403D 1   1.00000     0.00000
 Structure written by MMmdl.
 30 30  0  0  0  0  0  0  0  0  1 V2000
  150.2205  134.3797  155.4091 C   0  0  0  0  0  0  0  0  0  0  0  0
  151.1049  135.4254  155.0459 O   0  0  0  0  0  0  0  0  0  0  0  0
  150.4293  136.6514  154.8208 C   0  0  0  0  0  0  0  0  0  0  0  0
  151.4199  137.6753  154.2594 C   0  0  0  0  0  0  0  0  0  0  0  0
  152.5695  137.7093  155.0885 O   0  0  0  0  0  0  0  0  0  0  0  0
  152.2837  138.1670  156.4008 C   0  0  0  0  0  0  0  0  0  0  0  0
  152.0956  139.6827  156.3698 C   0  0  0  0  0  0  0  0  0  0  0  0
  151.9918  140.2504  155.2835 O   0  0  0  0  0  0  0  0  0  0  0  0
  152.0600  140.2853  157.5753 N   0  0  0  0  0  0  0  0  0  0  0  0
  151.9383  141.6480  157.8984 C   0  0  0  0  0  0  0  0  0  0  0  0
  152.6063  142.2766  158.9017 C   0  0  0  0  0  0  0  0  0  0  0  0
  152.4050  143.6857  159.1659 C   0  0  0  0  0  0  0  0  0  0  0  0
  151.5339  144.3581  158.3991 C   0  0  0  0  0  0  0  0  0  0  0  0
  150.8411  143.7130  157.3718 N   0  0  0  0  0  0  0  0  0  0  0  0
  150.9805  142.4010  157.0662 C   0  0  0  0  0  0  0  0  0  0  0  0
  150.3298  141.9083  156.1451 O   0  0  0  0  0  0  0  0  0  0  0  0
  150.7852  133.4618  155.5708 H   0  0  0  0  0  0  0  0  0  0  0  0
  149.4887  134.1910  154.6227 H   0  0  0  0  0  0  0  0  0  0  0  0
  149.6897  134.6159  156.3323 H   0  0  0  0  0  0  0  0  0  0  0  0
  149.6260  136.4899  154.1005 H   0  0  0  0  0  0  0  0  0  0  0  0
  149.9756  137.0243  155.7405 H   0  0  0  0  0  0  0  0  0  0  0  0
  151.6856  137.4266  153.2309 H   0  0  0  0  0  0  0  0  0  0  0  0
  150.9545  138.6619  154.2489 H   0  0  0  0  0  0  0  0  0  0  0  0
  151.3721  137.7025  156.7800 H   0  0  0  0  0  0  0  0  0  0  0  0
  153.0987  137.9072  157.0787 H   0  0  0  0  0  0  0  0  0  0  0  0
  152.1035  139.6700  158.3753 H   0  0  0  0  0  0  0  0  0  0  0  0
  153.2954  141.7546  159.5444 H   0  0  0  0  0  0  0  0  0  0  0  0
  152.9422  144.1820  159.9606 H   0  0  0  0  0  0  0  0  0  0  0  0
  151.3053  145.4081  158.5070 H   0  0  0  0  0  0  0  0  0  0  0  0
  150.1981  144.2725  156.8302 H   0  0  0  0  0  0  0  0  0  0  0  0
  1  2  1  0  0  0  0
  1 17  1  0  0  0  0
  1 18  1  0  0  0  0
  1 19  1  0  0  0  0
  2  3  1  0  0  0  0
  3  4  1  0  0  0  0
  3 20  1  0  0  0  0
  3 21  1  0  0  0  0
  4  5  1  0  0  0  0
  4 22  1  0  0  0  0
  4 23  1  0  0  0  0
  5  6  1  0  0  0  0
  6  7  1  0  0  0  0
  6 24  1  0  0  0  0
  6 25  1  0  0  0  0
  7  8  2  0  0  0  0
  7  9  1  0  0  0  0
  9 26  1  0  0  0  0
  9 10  1  0  0  0  0
 10 11  2  0  0  0  0
 10 15  1  0  0  0  0
 11 12  1  0  0  0  0
 11 27  1  0  0  0  0
 12 13  2  0  0  0  0
 12 28  1  0  0  0  0
 13 14  1  0  0  0  0
 13 29  1  0  0  0  0
 14 15  1  0  0  0  0
 14 30  1  0  0  0  0
 15 16  2  0  0  0  0
M  END
> <s_m_source_file>
AV-unprocessed.smi

> <i_m_source_file_index>
2682

> <i_lp_mmshare_version>
43012

> <i_f3d_flags>
0

> <s_epik_input>
W0NIM11PW0NIMl1bQ0gyXU9bQ0gyXUMoPU8pW05IXWMxW2NIXVtjSF1bY0hdbmMxW09IXQ==

> <s_epik_cmdline>
J2VwaWtfcHl0aG9uJywgJy1waCcsICc3LjAnLCAnLXRuJywgJzgnLCAnLW1hJywgJzIwMCcsICctbWV0YWxfYmluZGluZycsICctaW1hZScsICc8aW5maWxlLm1hZT4nLCAnLW9tYWUnLCAnPG91dGZpbGUubWFlPic=

> <r_lp_tautomer_probability>
1

> <r_epik_Ionization_Penalty>
0.000101939

> <r_epik_Ionization_Penalty_Charging>
0.000101884

> <r_epik_Ionization_Penalty_Neutral>
5.41789e-08

> <r_epik_State_Penalty>
-0

> <r_epik_Charging_Adjusted_Penalty>
0.000101884

> <i_epik_Tot_Q>
0

> <i_epik_Tot_abs_Q>
0

> <r_epik_Metal_State_Penalty>
0.0807852

> <b_epik_Metal_Only>
0

> <s_lp_Force_Field>
OPLS_2005

> <r_lp_Energy>
15.1735

> <b_lp_Chiralities_Consistent>
1

> <s_lp_Variant>
AV-unprocessed.smi:2682-1

> <Gold.Version>
5.8.1

> <Gold.Id.Protein>
6NUR|6NUR_protein|mol2

> <Gold.PLP.Fitness>
38.5262

> <Gold.PLP.PLP>
-31.0550

> <Gold.PLP.part.hbond>
-4.0000

> <Gold.PLP.part.metal>
0.0000

> <Gold.PLP.part.buried>
-5.8002

> <Gold.PLP.part.nonpolar>
-22.2079

> <Gold.PLP.part.repulsive>
0.3595

> <Gold.PLP.ligand.clash>
0.0000

> <Gold.PLP.ligand.torsion>
0.5300

> <Gold.PLP.Chemscore.Hbond>
2.8000

> <Gold.PLP.Chemscore.CHOScore>
0.0000

> <Gold.PLP.Chemscore.Metal>
0.0000

> <Gold.Chemscore.Hbonds>
donor molecule, donor type, donor heavy atom, donor atom, acceptor molecule, acceptor atom, score
      L1  H    14    30       P1  8028  1.00
      P1  H  7989  7998       L1     8  0.75
      P1  H 10752 10764       L1     2  1.00

> <Gold.PLP.Chemscore.Internal.Correction>
0.1311

> <Gold.Rescore>
     Score         DG    S(hbond)    S(metal)    S(lipo)     H(rot)  DE(clash)    DE(int)     intcor
     10.77     -16.79       2.58        0.00      70.53       2.17       0.16       5.86       ----

> <Gold.Chemscore.Fitness>
10.7702

> <Gold.Chemscore.DG>
-16.7935

> <Gold.Chemscore.ZeroCoef>
-5.4800

> <Gold.Chemscore.Hbond>
2.5833

> <Gold.Chemscore.Metal>
0.0000

> <Gold.Chemscore.Lipo>
70.5329

> <Gold.Chemscore.Internal_Hbond>
0.0000

> <Gold.Chemscore.DEClash>
0.1599

> <Gold.Chemscore.DEInternal>
5.8634

> <Gold.Chemscore.Rot>
2.1746

> <Gold.Chemscore.Internal.Correction>
   9.000000E+99

> <Gold.Chemscore.Hbonds>
donor molecule, donor type, donor heavy atom, donor atom, acceptor molecule, acceptor atom, score
      L1  H    14    30       P1  8028  0.94
      P1  H  7989  7998       L1     8  0.76
      P1  H 10752 10764       L1     2  0.85

> <Gold.Chemscore.Hbond.Weighted>
-8.6281

> <Gold.Chemscore.Metal.Weighted>
-0.0000

> <Gold.Chemscore.Lipo.Weighted>
-8.2523

> <Gold.Chemscore.Internal_Hbond.Weighted>
0.0000

> <Gold.Chemscore.DEClash.Weighted>
0.1599

> <Gold.Chemscore.DEInternal.Weighted>
5.8634

> <Gold.Chemscore.Rot.Weighted>
5.5669

> <Gold.Chemscore.Internal.Correction.Weighted>
   9.000000E+99

> <Gold.Protein.RotatedTorsions>
[ 6907 6896 6895 6894 ] final  111.49 input  -60.11 | X-H torsion
[ 7974 7965 7964 7962 ] final   89.18 input  175.53 | X-H torsion
[ 8008 7997 7996 7995 ] final  -16.86 input   59.86 | X-H torsion
[ 10167 10162 10161 10158 ] final  -20.06 input  -65.29 | X-H torsion
[ 10718 10713 10712 10709 ] final   -3.30 input   66.30 | X-H torsion
[ 10763 10752 10751 10750 ] final  -48.23 input  -60.55 | X-H torsion
[ 11005 11000 10999 10996 ] final   27.65 input  -57.11 | X-H torsion

> <Gold.Protein.ActiveResidues>
 VAL166  LYS551  ARG553  GLY616  TRP617  ASP618  TYR619  PRO620  LYS621  CYS622 
 ASP623  PHE694  ASN695  SER759  ASP760  ASP761  ALA762  ILE779  LEU786  VAL792 
 PHE793  MET794  SER795  GLU796  ALA797  LYS798  CYS799  TRP800  GLU811  SER814 

> <Gold.Protein.RotatedAtoms>
  152.4966  133.8650  159.7269 H   0  0  0  0  0  0  0  0  0  0  0  0  # atno 6907 bound_to 6896
  150.9152  133.6939  159.2852 H   0  0  0  0  0  0  0  0  0  0  0  0  # atno 6908 bound_to 6896
  151.4335  135.1016  159.9701 H   0  0  0  0  0  0  0  0  0  0  0  0  # atno 6909 bound_to 6896
  145.5358  139.2285  143.2593 H   0  0  0  0  0  0  0  0  0  0  0  0  # atno 7974 bound_to 7965
  154.5021  140.2158  155.9325 H   0  0  0  0  0  0  0  0  0  0  0  0  # atno 8008 bound_to 7997
  156.1447  140.3173  155.8518 H   0  0  0  0  0  0  0  0  0  0  0  0  # atno 8009 bound_to 7997
  155.4053  140.0487  157.3025 H   0  0  0  0  0  0  0  0  0  0  0  0  # atno 8010 bound_to 7997
  140.7273  143.4758  151.0184 H   0  0  0  0  0  0  0  0  0  0  0  0  # atno 10167 bound_to 10162
  156.7781  130.5321  149.5755 H   0  0  0  0  0  0  0  0  0  0  0  0  # atno 10718 bound_to 10713
  154.0743  135.6600  153.4828 H   0  0  0  0  0  0  0  0  0  0  0  0  # atno 10763 bound_to 10752
  153.0379  135.5164  154.7536 H   0  0  0  0  0  0  0  0  0  0  0  0  # atno 10764 bound_to 10752
  154.6612  135.3015  154.9832 H   0  0  0  0  0  0  0  0  0  0  0  0  # atno 10765 bound_to 10752
  140.3240  134.2512  155.7712 H   0  0  0  0  0  0  0  0  0  0  0  0  # atno 11005 bound_to 11000
  146.2014  140.6176  142.9101 LP  0  0  0  0  0  0  0  0  0  0  0  0  # atno 17320 bound_to 7965
  144.7602  140.5404  143.6741 LP  0  0  0  0  0  0  0  0  0  0  0  0  # atno 17321 bound_to 7965
  139.8453  143.7509  152.3179 LP  0  0  0  0  0  0  0  0  0  0  0  0  # atno 17342 bound_to 10162
  139.7672  144.7488  151.0277 LP  0  0  0  0  0  0  0  0  0  0  0  0  # atno 17343 bound_to 10162
  156.1235  130.6127  151.0229 LP  0  0  0  0  0  0  0  0  0  0  0  0  # atno 17370 bound_to 10713
  157.6659  131.0871  150.7728 LP  0  0  0  0  0  0  0  0  0  0  0  0  # atno 17371 bound_to 10713
  141.2080  133.7791  157.0087 LP  0  0  0  0  0  0  0  0  0  0  0  0  # atno 17394 bound_to 11000
  140.0918  134.9588  157.1787 LP  0  0  0  0  0  0  0  0  0  0  0  0  # atno 17395 bound_to 11000

$$$$
