AV-unprocessed.smi:2068|AV-procd|sdf|8428|dock1
  -GOLD-   2272011123D 1   1.00000     0.00000
 Structure written by MMmdl.
 33 34  0  0  0  0  0  0  0  0  1 V2000
  145.0371  137.9019  152.2177 N   0  0  0  0  0  0  0  0  0  0  0  0
  146.2920  138.3561  152.1608 C   0  0  0  0  0  0  0  0  0  0  0  0
  146.8049  138.7434  151.1127 O   0  0  0  0  0  0  0  0  0  0  0  0
  147.0854  138.3820  153.4685 C   0  0  0  0  0  0  0  0  0  0  0  0
  147.3498  139.7986  153.8886 C   0  0  0  0  0  0  0  0  0  0  0  0
  146.5687  140.8975  153.6222 C   0  0  0  0  0  0  0  0  0  0  0  0
  147.2418  142.3582  154.2948 S   0  0  0  0  0  0  0  0  0  0  0  0
  148.5787  141.4070  154.9221 C   0  0  0  0  0  0  0  0  0  0  0  0
  149.6407  141.9954  155.6571 N   0  0  0  0  0  0  0  0  0  0  0  0
  150.8776  141.5084  155.8698 C   0  0  0  0  0  0  0  0  0  0  0  0
  151.2822  140.4209  155.4574 O   0  0  0  0  0  0  0  0  0  0  0  0
  151.8148  142.4017  156.6907 C   0  0  0  0  0  0  0  0  0  0  0  0
  151.4028  142.5313  158.1735 C   0  0  1  0  0  0  0  0  0  0  0  0
  152.5293  142.9724  159.0770 C   0  0  0  0  0  0  0  0  0  0  0  0
  152.2235  144.0528  159.7912 C   0  0  0  0  0  0  0  0  0  0  0  0
  150.8345  144.5549  159.5106 C   0  0  0  0  0  0  0  0  0  0  0  0
  150.3104  143.6060  158.4093 C   0  0  0  0  0  0  0  0  0  0  0  0
  148.4915  140.1030  154.6376 N   0  0  0  0  0  0  0  0  0  0  0  0
  144.4810  137.8560  151.3763 H   0  0  0  0  0  0  0  0  0  0  0  0
  144.6526  137.5946  153.0996 H   0  0  0  0  0  0  0  0  0  0  0  0
  146.5229  137.8526  154.2387 H   0  0  0  0  0  0  0  0  0  0  0  0
  148.0191  137.8324  153.3390 H   0  0  0  0  0  0  0  0  0  0  0  0
  145.6421  140.9351  153.0687 H   0  0  0  0  0  0  0  0  0  0  0  0
  149.4438  142.9032  156.0526 H   0  0  0  0  0  0  0  0  0  0  0  0
  152.8353  142.0198  156.6262 H   0  0  0  0  0  0  0  0  0  0  0  0
  151.8275  143.3890  156.2279 H   0  0  0  0  0  0  0  0  0  0  0  0
  151.0450  141.5688  158.5427 H   0  0  0  0  0  0  0  0  0  0  0  0
  153.4684  142.4413  159.1315 H   0  0  0  0  0  0  0  0  0  0  0  0
  152.8755  144.5314  160.5069 H   0  0  0  0  0  0  0  0  0  0  0  0
  150.2277  144.4994  160.4149 H   0  0  0  0  0  0  0  0  0  0  0  0
  150.8639  145.5911  159.1724 H   0  0  0  0  0  0  0  0  0  0  0  0
  150.1124  144.1717  157.4980 H   0  0  0  0  0  0  0  0  0  0  0  0
  149.3677  143.1449  158.7065 H   0  0  0  0  0  0  0  0  0  0  0  0
  1  2  1  0  0  0  0
  1 19  1  0  0  0  0
  1 20  1  0  0  0  0
  2  3  2  0  0  0  0
  2  4  1  0  0  0  0
  4  5  1  0  0  0  0
  4 21  1  0  0  0  0
  4 22  1  0  0  0  0
  5 18  1  0  0  0  0
  5  6  2  0  0  0  0
  6  7  1  0  0  0  0
  6 23  1  0  0  0  0
  7  8  1  0  0  0  0
  8  9  1  0  0  0  0
  8 18  2  0  0  0  0
  9 10  1  0  0  0  0
  9 24  1  0  0  0  0
 10 11  2  0  0  0  0
 10 12  1  0  0  0  0
 12 13  1  0  0  0  0
 12 25  1  0  0  0  0
 12 26  1  0  0  0  0
 13 17  1  0  0  0  0
 13 14  1  0  0  0  0
 13 27  1  0  0  0  0
 14 15  2  0  0  0  0
 14 28  1  0  0  0  0
 15 16  1  0  0  0  0
 15 29  1  0  0  0  0
 16 17  1  0  0  0  0
 16 30  1  0  0  0  0
 16 31  1  0  0  0  0
 17 32  1  0  0  0  0
 17 33  1  0  0  0  0
M  END
> <s_m_source_file>
AV-unprocessed.smi

> <i_m_source_file_index>
2068

> <i_lp_mmshare_version>
43012

> <i_f3d_flags>
0

> <s_epik_input>
W05IMl1DKD1PKVtDSDJdYzFbY0hdc2MobjEpW05IXUMoPU8pW0NIMl1bQ0BASF0yW0NIXT1bQ0hdW0NIMl1bQ0gyXTI=

> <s_epik_cmdline>
J2VwaWtfcHl0aG9uJywgJy1waCcsICc3LjAnLCAnLXRuJywgJzgnLCAnLW1hJywgJzIwMCcsICctbWV0YWxfYmluZGluZycsICctaW1hZScsICc8aW5maWxlLm1hZT4nLCAnLW9tYWUnLCAnPG91dGZpbGUubWFlPic=

> <r_lp_tautomer_probability>
1

> <r_epik_Ionization_Penalty>
0.000253249

> <r_epik_Ionization_Penalty_Charging>
0

> <r_epik_Ionization_Penalty_Neutral>
0.000253249

> <r_epik_State_Penalty>
-0

> <r_epik_Charging_Adjusted_Penalty>
0

> <i_epik_Tot_Q>
0

> <i_epik_Tot_abs_Q>
0

> <r_epik_Metal_State_Penalty>
0.148671

> <b_epik_Metal_Only>
0

> <s_lp_Force_Field>
OPLS_2005

> <r_lp_Energy>
16.4011

> <b_lp_Chiralities_Consistent>
1

> <s_lp_Variant>
AV-unprocessed.smi:2068-2

> <Gold.Version>
5.8.1

> <Gold.Id.Protein>
6NUR|6NUR_protein|mol2

> <Gold.PLP.Fitness>
46.2010

> <Gold.PLP.PLP>
-33.3575

> <Gold.PLP.part.hbond>
-5.0000

> <Gold.PLP.part.metal>
0.0000

> <Gold.PLP.part.buried>
-4.9367

> <Gold.PLP.part.nonpolar>
-24.8939

> <Gold.PLP.part.repulsive>
1.1616

> <Gold.PLP.ligand.clash>
0.0000

> <Gold.PLP.ligand.torsion>
0.8183

> <Gold.PLP.Chemscore.Hbond>
3.8079

> <Gold.PLP.Chemscore.CHOScore>
1.0000

> <Gold.PLP.Chemscore.Metal>
0.0000

> <Gold.Chemscore.Hbonds>
donor molecule, donor type, donor heavy atom, donor atom, acceptor molecule, acceptor atom, score
      L1  H     1    19       P1 10171  1.00
      L1  H     9    24       P1  8028  0.90
      P1  H  7954  7966       L1     3  0.96
      P1  H  7989  7998       L1    11  0.92
      L1  C     6    23       P1 10175  1.00

> <Gold.PLP.Chemscore.Internal.Correction>
0.0564

> <Gold.Rescore>
     Score         DG    S(hbond)    S(metal)    S(lipo)     H(rot)  DE(clash)    DE(int)     intcor
     14.88     -19.60       2.89        0.00      86.36       2.21       2.79       1.93       ----

> <Gold.Chemscore.Fitness>
14.8772

> <Gold.Chemscore.DG>
-19.5952

> <Gold.Chemscore.ZeroCoef>
-5.4800

> <Gold.Chemscore.Hbond>
2.8911

> <Gold.Chemscore.Metal>
0.0000

> <Gold.Chemscore.Lipo>
86.3627

> <Gold.Chemscore.Internal_Hbond>
0.0000

> <Gold.Chemscore.DEClash>
2.7911

> <Gold.Chemscore.DEInternal>
1.9269

> <Gold.Chemscore.Rot>
2.2053

> <Gold.Chemscore.Internal.Correction>
   9.000000E+99

> <Gold.Chemscore.Hbonds>
donor molecule, donor type, donor heavy atom, donor atom, acceptor molecule, acceptor atom, score
      L1  H     1    19       P1 10171  0.95
      L1  H     9    24       P1  8028  0.87
      P1  H  7954  7966       L1     3  0.87
      P1  H  7989  7998       L1    11  0.21

> <Gold.Chemscore.Hbond.Weighted>
-9.6564

> <Gold.Chemscore.Metal.Weighted>
-0.0000

> <Gold.Chemscore.Lipo.Weighted>
-10.1044

> <Gold.Chemscore.Internal_Hbond.Weighted>
0.0000

> <Gold.Chemscore.DEClash.Weighted>
2.7911

> <Gold.Chemscore.DEInternal.Weighted>
1.9269

> <Gold.Chemscore.Rot.Weighted>
5.6456

> <Gold.Chemscore.Internal.Correction.Weighted>
   9.000000E+99

> <Gold.Protein.RotatedTorsions>
[ 6907 6896 6895 6894 ] final   82.63 input  -60.11 | X-H torsion
[ 7974 7965 7964 7962 ] final  153.59 input  175.53 | X-H torsion
[ 8008 7997 7996 7995 ] final  -43.71 input   59.86 | X-H torsion
[ 10167 10162 10161 10158 ] final -171.63 input  -65.29 | X-H torsion
[ 10718 10713 10712 10709 ] final  -96.92 input   66.30 | X-H torsion
[ 10763 10752 10751 10750 ] final -128.10 input  -60.55 | X-H torsion
[ 11005 11000 10999 10996 ] final  127.98 input  -57.11 | X-H torsion

> <Gold.Protein.ActiveResidues>
 VAL166  LYS551  ARG553  GLY616  TRP617  ASP618  TYR619  PRO620  LYS621  CYS622 
 ASP623  PHE694  ASN695  SER759  ASP760  ASP761  ALA762  ILE779  LEU786  VAL792 
 PHE793  MET794  SER795  GLU796  ALA797  LYS798  CYS799  TRP800  GLU811  SER814 

> <Gold.Protein.RotatedAtoms>
  152.5305  134.3020  159.9081 H   0  0  0  0  0  0  0  0  0  0  0  0  # atno 6907 bound_to 6896
  151.2970  133.4133  159.2644 H   0  0  0  0  0  0  0  0  0  0  0  0  # atno 6908 bound_to 6896
  151.0151  134.9443  159.8086 H   0  0  0  0  0  0  0  0  0  0  0  0  # atno 6909 bound_to 6896
  144.8145  139.6820  143.6127 H   0  0  0  0  0  0  0  0  0  0  0  0  # atno 7974 bound_to 7965
  154.3997  140.1441  156.3563 H   0  0  0  0  0  0  0  0  0  0  0  0  # atno 8008 bound_to 7997
  155.8222  140.3469  155.5500 H   0  0  0  0  0  0  0  0  0  0  0  0  # atno 8009 bound_to 7997
  155.8276  140.0907  157.1802 H   0  0  0  0  0  0  0  0  0  0  0  0  # atno 8010 bound_to 7997
  139.5791  144.1464  152.1491 H   0  0  0  0  0  0  0  0  0  0  0  0  # atno 10167 bound_to 10162
  156.0072  130.5172  150.6298 H   0  0  0  0  0  0  0  0  0  0  0  0  # atno 10718 bound_to 10713
  154.8755  135.3940  154.3701 H   0  0  0  0  0  0  0  0  0  0  0  0  # atno 10763 bound_to 10752
  153.4462  135.7027  153.6143 H   0  0  0  0  0  0  0  0  0  0  0  0  # atno 10764 bound_to 10752
  153.4702  135.3792  155.2356 H   0  0  0  0  0  0  0  0  0  0  0  0  # atno 10765 bound_to 10752
  139.9536  134.9617  156.8934 H   0  0  0  0  0  0  0  0  0  0  0  0  # atno 11005 bound_to 11000
  146.2446  139.6072  142.9468 LP  0  0  0  0  0  0  0  0  0  0  0  0  # atno 17320 bound_to 7965
  145.5247  141.0430  143.2416 LP  0  0  0  0  0  0  0  0  0  0  0  0  # atno 17321 bound_to 7965
  140.1013  144.5537  150.6987 LP  0  0  0  0  0  0  0  0  0  0  0  0  # atno 17342 bound_to 10162
  140.7071  143.2476  151.4693 LP  0  0  0  0  0  0  0  0  0  0  0  0  # atno 17343 bound_to 10162
  157.4098  131.0822  151.1231 LP  0  0  0  0  0  0  0  0  0  0  0  0  # atno 17370 bound_to 10713
  157.1866  130.6333  149.5690 LP  0  0  0  0  0  0  0  0  0  0  0  0  # atno 17371 bound_to 10713
  140.5661  134.0488  155.7415 LP  0  0  0  0  0  0  0  0  0  0  0  0  # atno 17394 bound_to 11000
  141.1203  133.9472  157.2742 LP  0  0  0  0  0  0  0  0  0  0  0  0  # atno 17395 bound_to 11000

$$$$
