AV-unprocessed.smi:149|AV-procd|sdf|1238|dock4
  -GOLD-   2262018453D 1   1.00000     0.00000
 Structure written by MMmdl.
 59 63  0  0  0  0  0  0  0  0  1 V2000
  154.3974  140.3531  160.5791 C   0  0  0  0  0  0  0  0  0  0  0  0
  153.0738  140.3525  159.7930 C   0  0  2  0  0  0  0  0  0  0  0  0
  153.0017  139.1354  158.8529 C   0  0  0  0  0  0  0  0  0  0  0  0
  152.7854  139.6546  157.5155 N   0  0  0  0  0  0  0  0  0  0  0  0
  152.3907  138.8319  156.5067 C   0  0  0  0  0  0  0  0  0  0  0  0
  152.8841  139.0516  155.2582 N   0  0  0  0  0  0  0  0  0  0  0  0
  152.5335  138.2650  154.2377 C   0  0  0  0  0  0  0  0  0  0  0  0
  151.7203  137.2087  154.2411 N   0  0  0  0  0  0  0  0  0  0  0  0
  151.2282  136.9690  155.4898 C   0  0  0  0  0  0  0  0  0  0  0  0
  151.5021  137.7257  156.6666 C   0  0  0  0  0  0  0  0  0  0  0  0
  150.8077  137.1771  157.7402 N   0  0  0  0  0  0  0  0  0  0  0  0
  150.1585  136.1682  157.2280 C   0  0  0  0  0  0  0  0  0  0  0  0
  150.3782  135.9517  155.8875 N   0  0  0  0  0  0  0  0  0  0  0  0
  149.7761  134.9406  155.0685 C   0  0  0  0  0  0  0  0  0  0  0  0
  148.2570  134.7423  155.0336 C   0  0  0  0  0  0  0  0  0  0  0  0
  148.4728  133.2257  154.8182 C   0  0  0  0  0  0  0  0  0  0  0  0
  147.5295  132.2608  155.5639 C   0  0  0  0  0  0  0  0  0  0  0  0
  146.2657  132.1457  154.9410 O   0  0  0  0  0  0  0  0  0  0  0  0
  148.5243  132.7649  153.3491 C   0  0  0  0  0  0  0  0  0  0  0  0
  148.8577  131.3956  153.2462 O   0  0  0  0  0  0  0  0  0  0  0  0
  149.8619  133.4603  155.4540 C   0  0  0  0  0  0  0  0  0  0  0  0
  152.2551  140.9997  157.6230 C   0  0  0  0  0  0  0  0  0  0  0  0
  152.8804  141.5989  158.8915 C   0  0  1  0  0  0  0  0  0  0  0  0
  152.0744  142.6932  159.4590 N   0  0  0  0  0  0  0  0  0  0  0  0
  151.9744  143.8260  158.5361 C   0  0  0  0  0  0  0  0  0  0  0  0
  151.1417  144.9822  159.1157 C   0  0  0  0  0  0  0  0  0  0  0  0
  151.7079  145.4021  160.3511 O   0  0  0  0  0  0  0  0  0  0  0  0
  151.7724  144.3469  161.3026 C   0  0  0  0  0  0  0  0  0  0  0  0
  152.6009  143.1824  160.7327 C   0  0  0  0  0  0  0  0  0  0  0  0
  155.2548  140.3912  159.9061 H   0  0  0  0  0  0  0  0  0  0  0  0
  154.4905  139.4485  161.1807 H   0  0  0  0  0  0  0  0  0  0  0  0
  154.4772  141.2012  161.2566 H   0  0  0  0  0  0  0  0  0  0  0  0
  152.2407  140.2793  160.4935 H   0  0  0  0  0  0  0  0  0  0  0  0
  153.9299  138.5640  158.8770 H   0  0  0  0  0  0  0  0  0  0  0  0
  152.1871  138.4697  159.1416 H   0  0  0  0  0  0  0  0  0  0  0  0
  152.9712  138.5152  153.2824 H   0  0  0  0  0  0  0  0  0  0  0  0
  149.5050  135.5463  157.8225 H   0  0  0  0  0  0  0  0  0  0  0  0
  150.1663  135.0995  154.0617 H   0  0  0  0  0  0  0  0  0  0  0  0
  147.7854  134.9829  155.9879 H   0  0  0  0  0  0  0  0  0  0  0  0
  147.7565  135.2600  154.2149 H   0  0  0  0  0  0  0  0  0  0  0  0
  147.9566  131.2594  155.6232 H   0  0  0  0  0  0  0  0  0  0  0  0
  147.3667  132.5943  156.5894 H   0  0  0  0  0  0  0  0  0  0  0  0
  145.9470  131.2652  155.0691 H   0  0  0  0  0  0  0  0  0  0  0  0
  147.5658  132.9126  152.8511 H   0  0  0  0  0  0  0  0  0  0  0  0
  149.2530  133.3449  152.7818 H   0  0  0  0  0  0  0  0  0  0  0  0
  149.1208  131.2165  152.3563 H   0  0  0  0  0  0  0  0  0  0  0  0
  150.6814  132.9200  154.9789 H   0  0  0  0  0  0  0  0  0  0  0  0
  149.8822  133.3183  156.5357 H   0  0  0  0  0  0  0  0  0  0  0  0
  152.5015  141.5929  156.7415 H   0  0  0  0  0  0  0  0  0  0  0  0
  151.1685  140.9480  157.7113 H   0  0  0  0  0  0  0  0  0  0  0  0
  153.8680  141.9787  158.6236 H   0  0  0  0  0  0  0  0  0  0  0  0
  152.9728  144.1907  158.2898 H   0  0  0  0  0  0  0  0  0  0  0  0
  151.5171  143.5133  157.5975 H   0  0  0  0  0  0  0  0  0  0  0  0
  151.1301  145.8250  158.4247 H   0  0  0  0  0  0  0  0  0  0  0  0
  150.1053  144.6759  159.2659 H   0  0  0  0  0  0  0  0  0  0  0  0
  152.2271  144.7214  162.2196 H   0  0  0  0  0  0  0  0  0  0  0  0
  150.7647  144.0149  161.5570 H   0  0  0  0  0  0  0  0  0  0  0  0
  152.5993  142.3816  161.4706 H   0  0  0  0  0  0  0  0  0  0  0  0
  153.6370  143.5010  160.6085 H   0  0  0  0  0  0  0  0  0  0  0  0
  1  2  1  0  0  0  0
  1 30  1  0  0  0  0
  1 31  1  0  0  0  0
  1 32  1  0  0  0  0
  2 23  1  0  0  0  0
  2  3  1  0  0  0  0
  2 33  1  0  0  0  0
  3  4  1  0  0  0  0
  3 34  1  0  0  0  0
  3 35  1  0  0  0  0
  4  5  1  0  0  0  0
  4 22  1  0  0  0  0
  5 10  1  0  0  0  0
  5  6  2  0  0  0  0
  6  7  1  0  0  0  0
  7  8  2  0  0  0  0
  7 36  1  0  0  0  0
  8  9  1  0  0  0  0
  9 13  1  0  0  0  0
  9 10  2  0  0  0  0
 10 11  1  0  0  0  0
 11 12  2  0  0  0  0
 12 13  1  0  0  0  0
 12 37  1  0  0  0  0
 13 14  1  0  0  0  0
 14 21  1  0  0  0  0
 14 15  1  0  0  0  0
 14 38  1  0  0  0  0
 15 16  1  0  0  0  0
 15 39  1  0  0  0  0
 15 40  1  0  0  0  0
 16 17  1  0  0  0  0
 16 19  1  0  0  0  0
 16 21  1  0  0  0  0
 17 18  1  0  0  0  0
 17 41  1  0  0  0  0
 17 42  1  0  0  0  0
 18 43  1  0  0  0  0
 19 20  1  0  0  0  0
 19 44  1  0  0  0  0
 19 45  1  0  0  0  0
 20 46  1  0  0  0  0
 21 47  1  0  0  0  0
 21 48  1  0  0  0  0
 22 23  1  0  0  0  0
 22 49  1  0  0  0  0
 22 50  1  0  0  0  0
 23 24  1  0  0  0  0
 23 51  1  0  0  0  0
 24 29  1  0  0  0  0
 24 25  1  0  0  0  0
 25 26  1  0  0  0  0
 25 52  1  0  0  0  0
 25 53  1  0  0  0  0
 26 27  1  0  0  0  0
 26 54  1  0  0  0  0
 26 55  1  0  0  0  0
 27 28  1  0  0  0  0
 28 29  1  0  0  0  0
 28 56  1  0  0  0  0
 28 57  1  0  0  0  0
 29 58  1  0  0  0  0
 29 59  1  0  0  0  0
M  END
> <s_m_source_file>
AV-unprocessed.smi

> <i_m_source_file_index>
149

> <i_lp_mmshare_version>
43012

> <i_f3d_flags>
0

> <s_epik_input>
W0NIMl0xW0NIMl1PW0NIMl1bQ0gyXU4xW0NAQEhdMltDSDJdTihbQ0gyXVtDQEhdMltDSDNdKWMobltjSF1uMyljKGMzNCluW2NIXW40W0NIXShbQ0gyXTUpW0NIMl1DNShbQ0gyXVtPSF0pW0NIMl1bT0hd

> <s_epik_cmdline>
J2VwaWtfcHl0aG9uJywgJy1waCcsICc3LjAnLCAnLXRuJywgJzgnLCAnLW1hJywgJzIwMCcsICctbWV0YWxfYmluZGluZycsICctaW1hZScsICc8aW5maWxlLm1hZT4nLCAnLW9tYWUnLCAnPG91dGZpbGUubWFlPic=

> <r_lp_tautomer_probability>
1

> <r_epik_Ionization_Penalty>
0.41918

> <r_epik_Ionization_Penalty_Charging>
0

> <r_epik_Ionization_Penalty_Neutral>
0.41918

> <r_epik_State_Penalty>
0.654916

> <r_epik_Charging_Adjusted_Penalty>
0.654916

> <i_epik_Tot_Q>
0

> <i_epik_Tot_abs_Q>
0

> <r_epik_Metal_State_Penalty>
0.653217

> <b_epik_Metal_Only>
0

> <s_lp_Force_Field>
OPLS_2005

> <r_lp_Energy>
75.7626

> <b_lp_Chiralities_Consistent>
1

> <s_lp_Variant>
AV-unprocessed.smi:149-5

> <Gold.Version>
5.8.1

> <Gold.Id.Protein>
6NUR|6NUR_protein|mol2

> <Gold.PLP.Fitness>
51.7023

> <Gold.PLP.PLP>
-45.6496

> <Gold.PLP.part.hbond>
-4.0000

> <Gold.PLP.part.metal>
0.0000

> <Gold.PLP.part.buried>
-7.5285

> <Gold.PLP.part.nonpolar>
-34.1930

> <Gold.PLP.part.repulsive>
0.8645

> <Gold.PLP.ligand.clash>
0.0000

> <Gold.PLP.ligand.torsion>
0.8237

> <Gold.PLP.Chemscore.Hbond>
2.2452

> <Gold.PLP.Chemscore.CHOScore>
0.0000

> <Gold.PLP.Chemscore.Metal>
0.0000

> <Gold.Chemscore.Hbonds>
donor molecule, donor type, donor heavy atom, donor atom, acceptor molecule, acceptor atom, score
      L1  H    20    46       P1 10747  0.86
      P1  H  7997  8010       L1     4  1.00
      P1  H 10752 10765       L1     8  0.23

> <Gold.PLP.Chemscore.Internal.Correction>
0.9645

> <Gold.Rescore>
     Score         DG    S(hbond)    S(metal)    S(lipo)     H(rot)  DE(clash)    DE(int)     intcor
     12.59     -13.47       0.97        0.00     113.67       3.34       0.03       0.85       ----

> <Gold.Chemscore.Fitness>
12.5867

> <Gold.Chemscore.DG>
-13.4724

> <Gold.Chemscore.ZeroCoef>
-5.4800

> <Gold.Chemscore.Hbond>
0.9723

> <Gold.Chemscore.Metal>
0.0000

> <Gold.Chemscore.Lipo>
113.6710

> <Gold.Chemscore.Internal_Hbond>
0.0000

> <Gold.Chemscore.DEClash>
0.0343

> <Gold.Chemscore.DEInternal>
0.8515

> <Gold.Chemscore.Rot>
3.3416

> <Gold.Chemscore.Internal.Correction>
   9.000000E+99

> <Gold.Chemscore.Hbonds>
donor molecule, donor type, donor heavy atom, donor atom, acceptor molecule, acceptor atom, score
      L1  H    20    46       P1 10747  0.33
      P1  H  7997  8010       L1     4  0.02
      P1  H 10752 10765       L1     8  0.02

> <Gold.Chemscore.Hbond.Weighted>
-3.2474

> <Gold.Chemscore.Metal.Weighted>
-0.0000

> <Gold.Chemscore.Lipo.Weighted>
-13.2995

> <Gold.Chemscore.Internal_Hbond.Weighted>
0.0000

> <Gold.Chemscore.DEClash.Weighted>
0.0343

> <Gold.Chemscore.DEInternal.Weighted>
0.8515

> <Gold.Chemscore.Rot.Weighted>
8.5545

> <Gold.Chemscore.Internal.Correction.Weighted>
   9.000000E+99

> <Gold.Protein.RotatedTorsions>
[ 6907 6896 6895 6894 ] final -153.65 input  -60.11 | X-H torsion
[ 7974 7965 7964 7962 ] final  171.74 input  175.53 | X-H torsion
[ 8008 7997 7996 7995 ] final   39.17 input   59.86 | X-H torsion
[ 10167 10162 10161 10158 ] final  123.31 input  -65.29 | X-H torsion
[ 10718 10713 10712 10709 ] final  134.45 input   66.30 | X-H torsion
[ 10763 10752 10751 10750 ] final  119.46 input  -60.55 | X-H torsion
[ 11005 11000 10999 10996 ] final   71.07 input  -57.11 | X-H torsion

> <Gold.Protein.ActiveResidues>
 VAL166  LYS551  ARG553  GLY616  TRP617  ASP618  TYR619  PRO620  LYS621  CYS622 
 ASP623  PHE694  ASN695  SER759  ASP760  ASP761  ALA762  ILE779  LEU786  VAL792 
 PHE793  MET794  SER795  GLU796  ALA797  LYS798  CYS799  TRP800  GLU811  SER814 

> <Gold.Protein.RotatedAtoms>
  151.2457  133.4376  159.2608 H   0  0  0  0  0  0  0  0  0  0  0  0  # atno 6907 bound_to 6896
  151.0664  134.9770  159.8296 H   0  0  0  0  0  0  0  0  0  0  0  0  # atno 6908 bound_to 6896
  152.5406  134.2404  159.8912 H   0  0  0  0  0  0  0  0  0  0  0  0  # atno 6909 bound_to 6896
  144.7286  139.9395  143.6428 H   0  0  0  0  0  0  0  0  0  0  0  0  # atno 7974 bound_to 7965
  155.2322  140.3339  155.4302 H   0  0  0  0  0  0  0  0  0  0  0  0  # atno 8008 bound_to 7997
  156.2290  140.1842  156.7336 H   0  0  0  0  0  0  0  0  0  0  0  0  # atno 8009 bound_to 7997
  154.5946  140.0632  156.9272 H   0  0  0  0  0  0  0  0  0  0  0  0  # atno 8010 bound_to 7997
  139.5807  144.6984  151.3537 H   0  0  0  0  0  0  0  0  0  0  0  0  # atno 10167 bound_to 10162
  157.4671  131.1077  150.9848 H   0  0  0  0  0  0  0  0  0  0  0  0  # atno 10718 bound_to 10713
  153.5834  135.3479  155.2883 H   0  0  0  0  0  0  0  0  0  0  0  0  # atno 10763 bound_to 10752
  154.8664  135.4187  154.2596 H   0  0  0  0  0  0  0  0  0  0  0  0  # atno 10764 bound_to 10752
  153.3387  135.7048  153.6956 H   0  0  0  0  0  0  0  0  0  0  0  0  # atno 10765 bound_to 10752
  139.9563  134.7138  156.0745 H   0  0  0  0  0  0  0  0  0  0  0  0  # atno 11005 bound_to 11000
  146.0796  139.3784  143.0473 LP  0  0  0  0  0  0  0  0  0  0  0  0  # atno 17320 bound_to 7965
  145.7859  140.9836  143.1075 LP  0  0  0  0  0  0  0  0  0  0  0  0  # atno 17321 bound_to 7965
  140.7085  143.7451  150.7525 LP  0  0  0  0  0  0  0  0  0  0  0  0  # atno 17342 bound_to 10162
  140.0983  143.4812  152.2440 LP  0  0  0  0  0  0  0  0  0  0  0  0  # atno 17343 bound_to 10162
  157.0626  130.5831  149.5388 LP  0  0  0  0  0  0  0  0  0  0  0  0  # atno 17370 bound_to 10713
  156.0056  130.5142  150.7816 LP  0  0  0  0  0  0  0  0  0  0  0  0  # atno 17371 bound_to 10713
  141.1235  133.6606  156.3276 LP  0  0  0  0  0  0  0  0  0  0  0  0  # atno 17394 bound_to 11000
  140.5601  134.5942  157.5431 LP  0  0  0  0  0  0  0  0  0  0  0  0  # atno 17395 bound_to 11000

$$$$
