#       Name:                AV-unprocessed.smi:2562
#       Creating user name   scv26
#       Creation time:       Fri Mar 27 14:09:04 2020


#       File generated by GOLD software.
#

@<TRIPOS>MOLECULE
AV-unprocessed.smi:2562
    35    36     1
SMALL
NO_CHARGES


@<TRIPOS>ATOM
      1 ****        -3.0897   4.3705  -0.5279 C.3            1 S1                 0.0000
      2 ****        -2.5208   2.9480  -0.5587 C.3            1 S1                 0.0000
      3 ****        -0.9874   2.9286  -0.6370 C.3            1 S1                 0.0000
      4 ****        -0.4311   1.5427  -0.6587 C.2            1 S1                 0.0000
      5 ****        -0.0930   0.9259  -1.7928 N.pl3          1 S1                 0.0000
      6 ****         0.3693  -0.3094  -1.5077 N.2            1 S1                 0.0000
      7 ****         0.2481  -0.3535  -0.1798 C.2            1 S1                 0.0000
      8 ****         0.6869  -1.5433   0.6172 C.3            1 S1                 0.0000
      9 ****         2.1926  -1.4996   0.9436 C.3            1 S1                 0.0000
     10 ****         2.5958  -2.7208   1.6395 N.3            1 S1                 0.0000
     11 ****         2.2291  -3.9114   0.8738 C.3            1 S1                 0.0000
     12 ****         0.7250  -3.8962   0.5460 C.3            1 S1                 0.0000
     13 ****         0.4020  -2.7038  -0.1616 O.3            1 S1                 0.0000
     14 ****        -0.2335   0.7816   0.4121 N.2            1 S1                 0.0000
     15 ****        -0.1494   1.2905  -2.7331 H              1 S1                 0.0000
     16 ****        -4.1784   4.3522  -0.4721 H              1 S1                 0.0000
     17 ****        -2.8114   4.9253  -1.4243 H              1 S1                 0.0000
     18 ****        -2.7215   4.9228   0.3371 H              1 S1                 0.0000
     19 ****        -2.8485   2.4118   0.3328 H              1 S1                 0.0000
     20 ****        -2.9381   2.4118  -1.4118 H              1 S1                 0.0000
     21 ****        -0.6496   3.4591  -1.5284 H              1 S1                 0.0000
     22 ****        -0.5634   3.4570   0.2178 H              1 S1                 0.0000
     23 ****         0.1034  -1.5753   1.5394 H              1 S1                 0.0000
     24 ****         2.7676  -1.3931   0.0228 H              1 S1                 0.0000
     25 ****         2.4185  -0.6273   1.5572 H              1 S1                 0.0000
     26 ****         3.5995  -2.7096   1.7913 H              1 S1                 0.0000
     27 ****         2.8043  -3.9491  -0.0519 H              1 S1                 0.0000
     28 ****         2.4811  -4.8107   1.4360 H              1 S1                 0.0000
     29 ****         0.4683  -4.7544  -0.0750 H              1 S1                 0.0000
     30 ****         0.1253  -3.9710   1.4547 H              1 S1                 0.0000
     31 ****         0.7139  -1.0111  -2.1312 LP             1 S1                 0.0000
     32 ****         2.1185  -2.7538   2.5176 LP             1 S1                 0.0000
     33 ****         0.9391  -2.6699  -1.0045 LP             1 S1                 0.0000
     34 ****        -0.5722  -2.7131  -0.3873 LP             1 S1                 0.0000
     35 ****        -0.3923   0.9822   1.3788 LP             1 S1                 0.0000
@<TRIPOS>BOND
    1    1    2 1     
    2    1   16 1     
    3    1   17 1     
    4    1   18 1     
    5    2    3 1     
    6    2   19 1     
    7    2   20 1     
    8    3   21 1     
    9    3   22 1     
   10    3    4 1     
   11    4   14 2     
   12    4    5 1     
   13    5    6 1     
   14    5   15 1     
   15    6    7 2     
   16    7   14 1     
   17    7    8 1     
   18    8   13 1     
   19    8    9 1     
   20    8   23 1     
   21    9   10 1     
   22    9   24 1     
   23    9   25 1     
   24   10   11 1     
   25   10   26 1     
   26   11   12 1     
   27   11   27 1     
   28   11   28 1     
   29   12   13 1     
   30   12   29 1     
   31   12   30 1     
   32    6   31 1     
   33   10   32 1     
   34   13   33 1     
   35   13   34 1     
   36   14   35 1     
@<TRIPOS>SUBSTRUCTURE
      1 S1             1
@<TRIPOS>SET
LONE_PAIRS      STATIC     ATOMS    <user>   **** ""
5 31 32 33 34 35
DONOR_HYDROGENS      STATIC     ATOMS    <user>   **** ""
2 15 26
ATOM$BLUE        STATIC     ATOMS    COLORGROUP SYSTEM
5 31 32 33 34 35
ATOM$RED        STATIC     ATOMS    COLORGROUP SYSTEM
2 15 26
