AV-unprocessed.smi:2999|AV-procd|sdf|11425|dock6
  -GOLD-   2272016353D 1   1.00000     0.00000
 Structure written by MMmdl.
 37 39  0  0  0  0  0  0  0  0  3 V2000
  147.1930  135.4169  158.0091 O   0  0  0  0  0  0  0  0  0  0  0  0
  148.3932  135.3254  158.2761 C   0  0  0  0  0  0  0  0  0  0  0  0
  149.2360  134.7889  157.3856 N   0  0  0  0  0  0  0  0  0  0  0  0
  148.8669  134.2942  156.0655 C   0  0  0  0  0  0  0  0  0  0  0  0
  148.7136  135.4519  155.0682 C   0  0  2  0  0  0  0  0  0  0  0  0
  149.8961  136.4436  155.1135 C   0  0  0  0  0  0  0  0  0  0  0  0
  149.6584  137.5732  154.1871 N   0  3  2  0  0  0  0  0  0  0  0  0
  150.7852  138.5302  154.1633 C   0  0  0  0  0  0  0  0  0  0  0  0
  152.1383  137.8795  154.3328 C   0  0  0  0  0  0  0  0  0  0  0  0
  151.5146  138.6409  155.4817 C   0  0  0  0  0  0  0  0  0  0  0  0
  148.3652  138.2283  154.4855 C   0  0  0  0  0  0  0  0  0  0  0  0
  147.2286  137.1936  154.4635 C   0  0  0  0  0  0  0  0  0  0  0  0
  147.5149  136.1517  155.3889 O   0  0  0  0  0  0  0  0  0  0  0  0
  148.9971  135.7223  159.4187 N   0  5  0  0  0  0  0  0  0  0  0  0
  148.2904  135.8099  160.5575 C   0  0  0  0  0  0  0  0  0  0  0  0
  148.2125  136.9318  161.2823 N   0  0  0  0  0  0  0  0  0  0  0  0
  147.4329  136.7963  162.4326 C   0  0  0  0  0  0  0  0  0  0  0  0
  146.9121  135.5395  162.5917 C   0  0  0  0  0  0  0  0  0  0  0  0
  147.3865  134.4826  161.2929 S   0  0  0  0  0  0  0  0  0  0  0  0
  150.2088  134.7272  157.6477 H   0  0  0  0  0  0  0  0  0  0  0  0
  149.6392  133.6046  155.7223 H   0  0  0  0  0  0  0  0  0  0  0  0
  147.9352  133.7288  156.1236 H   0  0  0  0  0  0  0  0  0  0  0  0
  148.6207  135.0365  154.0625 H   0  0  0  0  0  0  0  0  0  0  0  0
  150.0305  136.8247  156.1273 H   0  0  0  0  0  0  0  0  0  0  0  0
  150.8236  135.9413  154.8359 H   0  0  0  0  0  0  0  0  0  0  0  0
  150.6666  139.4031  153.5235 H   0  0  0  0  0  0  0  0  0  0  0  0
  152.1830  136.7949  154.4154 H   0  0  0  0  0  0  0  0  0  0  0  0
  152.9845  138.3425  153.8294 H   0  0  0  0  0  0  0  0  0  0  0  0
  151.9490  139.6059  155.7348 H   0  0  0  0  0  0  0  0  0  0  0  0
  151.1436  138.0627  156.3262 H   0  0  0  0  0  0  0  0  0  0  0  0
  148.4146  138.7084  155.4642 H   0  0  0  0  0  0  0  0  0  0  0  0
  148.1692  139.0117  153.7528 H   0  0  0  0  0  0  0  0  0  0  0  0
  146.2859  137.6645  154.7423 H   0  0  0  0  0  0  0  0  0  0  0  0
  147.0948  136.7816  153.4620 H   0  0  0  0  0  0  0  0  0  0  0  0
  147.3043  137.6477  163.0840 H   0  0  0  0  0  0  0  0  0  0  0  0
  146.2837  135.1720  163.3890 H   0  0  0  0  0  0  0  0  0  0  0  0
  149.5844  137.1811  153.2592 H   0  0  0  0  0  0  0  0  0  0  0  0
  1  2  2  0  0  0  0
  2  3  1  0  0  0  0
  2 14  1  0  0  0  0
  3  4  1  0  0  0  0
  3 20  1  0  0  0  0
  4  5  1  0  0  0  0
  4 21  1  0  0  0  0
  4 22  1  0  0  0  0
  5 13  1  0  0  0  0
  5  6  1  0  0  0  0
  5 23  1  0  0  0  0
  6  7  1  0  0  0  0
  6 24  1  0  0  0  0
  6 25  1  0  0  0  0
  7  8  1  0  0  0  0
  7 11  1  0  0  0  0
  7 37  1  0  0  0  0
  8 10  1  0  0  0  0
  8  9  1  0  0  0  0
  8 26  1  0  0  0  0
  9 10  1  0  0  0  0
  9 27  1  0  0  0  0
  9 28  1  0  0  0  0
 10 29  1  0  0  0  0
 10 30  1  0  0  0  0
 11 12  1  0  0  0  0
 11 31  1  0  0  0  0
 11 32  1  0  0  0  0
 12 13  1  0  0  0  0
 12 33  1  0  0  0  0
 12 34  1  0  0  0  0
 14 15  1  0  0  0  0
 15 19  1  0  0  0  0
 15 16  2  0  0  0  0
 16 17  1  0  0  0  0
 17 18  2  0  0  0  0
 17 35  1  0  0  0  0
 18 19  1  0  0  0  0
 18 36  1  0  0  0  0
M  CHG  1   7   1
M  CHG  1  14  -1
M  END
> <s_m_source_file>
AV-unprocessed.smi

> <i_m_source_file_index>
2999

> <i_lp_mmshare_version>
43012

> <i_f3d_flags>
0

> <s_epik_input>
czFbY0hdW2NIXW5jMVtOSF1DKD1PKVtOSF1bQ0gyXVtDQEBIXTJbQ0gyXU4oW0NIMl1bQ0gyXU8yKVtDSF0zW0NIMl1bQ0gyXTM=

> <s_epik_cmdline>
J2VwaWtfcHl0aG9uJywgJy1waCcsICc3LjAnLCAnLXRuJywgJzgnLCAnLW1hJywgJzIwMCcsICctbWV0YWxfYmluZGluZycsICctaW1hZScsICc8aW5maWxlLm1hZT4nLCAnLW9tYWUnLCAnPG91dGZpbGUubWFlPic=

> <r_lp_tautomer_probability>
0.999

> <r_epik_Ionization_Penalty>
7.79196

> <r_epik_Ionization_Penalty_Charging>
6.93299

> <r_epik_Ionization_Penalty_Neutral>
0.858963

> <r_epik_State_Penalty>
7.05108

> <r_epik_Charging_Adjusted_Penalty>
13.9841

> <i_epik_Tot_Q>
0

> <i_epik_Tot_abs_Q>
2

> <r_epik_Metal_State_Penalty>
3.05936

> <b_epik_Metal_Only>
1

> <s_lp_Force_Field>
OPLS_2005

> <r_lp_Energy>
14.1159

> <b_lp_Chiralities_Consistent>
1

> <s_lp_Variant>
AV-unprocessed.smi:2999-9

> <Gold.Version>
5.8.1

> <Gold.Id.Protein>
6NUR|6NUR_protein|mol2

> <Gold.PLP.Fitness>
43.6662

> <Gold.PLP.PLP>
-29.6278

> <Gold.PLP.part.hbond>
-3.9038

> <Gold.PLP.part.metal>
0.0000

> <Gold.PLP.part.buried>
-4.6523

> <Gold.PLP.part.nonpolar>
-21.9620

> <Gold.PLP.part.repulsive>
0.1600

> <Gold.PLP.ligand.clash>
0.0000

> <Gold.PLP.ligand.torsion>
1.4942

> <Gold.PLP.Chemscore.Hbond>
5.2527

> <Gold.PLP.Chemscore.CHOScore>
0.0000

> <Gold.PLP.Chemscore.Metal>
0.0000

> <Gold.Chemscore.Hbonds>
donor molecule, donor type, donor heavy atom, donor atom, acceptor molecule, acceptor atom, score
      L1  H     7    37       P1  7948  2.00
      P1  H  6896  6909       L1    14  2.00
      P1  H  6931  6943       L1    16  0.65
      P1  H  6934  6947       L1    16  0.06

> <Gold.PLP.Chemscore.Internal.Correction>
1.2687

> <Gold.Rescore>
     Score         DG    S(hbond)    S(metal)    S(lipo)     H(rot)  DE(clash)    DE(int)     intcor
     12.99     -15.92       2.12        0.00      62.68       1.55       0.01       2.92       ----

> <Gold.Chemscore.Fitness>
12.9884

> <Gold.Chemscore.DG>
-15.9150

> <Gold.Chemscore.ZeroCoef>
-5.4800

> <Gold.Chemscore.Hbond>
2.1170

> <Gold.Chemscore.Metal>
0.0000

> <Gold.Chemscore.Lipo>
62.6764

> <Gold.Chemscore.Internal_Hbond>
0.0000

> <Gold.Chemscore.DEClash>
0.0064

> <Gold.Chemscore.DEInternal>
2.9202

> <Gold.Chemscore.Rot>
1.5504

> <Gold.Chemscore.Internal.Correction>
   9.000000E+99

> <Gold.Chemscore.Hbonds>
donor molecule, donor type, donor heavy atom, donor atom, acceptor molecule, acceptor atom, score
      L1  H     7    37       P1  7948  0.78
      P1  H  6896  6909       L1    14  0.64
      P1  H  6931  6943       L1    16  0.06

> <Gold.Chemscore.Hbond.Weighted>
-7.0709

> <Gold.Chemscore.Metal.Weighted>
-0.0000

> <Gold.Chemscore.Lipo.Weighted>
-7.3331

> <Gold.Chemscore.Internal_Hbond.Weighted>
0.0000

> <Gold.Chemscore.DEClash.Weighted>
0.0064

> <Gold.Chemscore.DEInternal.Weighted>
2.9202

> <Gold.Chemscore.Rot.Weighted>
3.9690

> <Gold.Chemscore.Internal.Correction.Weighted>
   9.000000E+99

> <Gold.Protein.RotatedTorsions>
[ 6907 6896 6895 6894 ] final   63.21 input  -60.11 | X-H torsion
[ 7974 7965 7964 7962 ] final -113.87 input  175.53 | X-H torsion
[ 8008 7997 7996 7995 ] final   70.92 input   59.86 | X-H torsion
[ 10167 10162 10161 10158 ] final   47.43 input  -65.29 | X-H torsion
[ 10718 10713 10712 10709 ] final -177.08 input   66.30 | X-H torsion
[ 10763 10752 10751 10750 ] final  172.94 input  -60.55 | X-H torsion
[ 11005 11000 10999 10996 ] final   21.98 input  -57.11 | X-H torsion

> <Gold.Protein.ActiveResidues>
 VAL166  LYS551  ARG553  GLY616  TRP617  ASP618  TYR619  PRO620  LYS621  CYS622 
 ASP623  PHE694  ASN695  SER759  ASP760  ASP761  ALA762  ILE779  LEU786  VAL792 
 PHE793  MET794  SER795  GLU796  ALA797  LYS798  CYS799  TRP800  GLU811  SER814 

> <Gold.Protein.RotatedAtoms>
  152.4235  134.5912  159.9974 H   0  0  0  0  0  0  0  0  0  0  0  0  # atno 6907 bound_to 6896
  151.6055  133.3346  159.3064 H   0  0  0  0  0  0  0  0  0  0  0  0  # atno 6908 bound_to 6896
  150.8123  134.7323  159.6765 H   0  0  0  0  0  0  0  0  0  0  0  0  # atno 6909 bound_to 6896
  145.1269  140.8702  143.3781 H   0  0  0  0  0  0  0  0  0  0  0  0  # atno 7974 bound_to 7965
  155.7461  140.3489  155.5127 H   0  0  0  0  0  0  0  0  0  0  0  0  # atno 8008 bound_to 7997
  155.9049  140.1040  157.1344 H   0  0  0  0  0  0  0  0  0  0  0  0  # atno 8009 bound_to 7997
  154.4048  140.1279  156.4470 H   0  0  0  0  0  0  0  0  0  0  0  0  # atno 8010 bound_to 7997
  140.3037  144.2904  150.6214 H   0  0  0  0  0  0  0  0  0  0  0  0  # atno 10167 bound_to 10162
  156.8242  130.9630  151.3110 H   0  0  0  0  0  0  0  0  0  0  0  0  # atno 10718 bound_to 10713
  154.4331  135.2760  155.1899 H   0  0  0  0  0  0  0  0  0  0  0  0  # atno 10763 bound_to 10752
  154.3796  135.6090  153.5787 H   0  0  0  0  0  0  0  0  0  0  0  0  # atno 10764 bound_to 10752
  152.9837  135.5877  154.4646 H   0  0  0  0  0  0  0  0  0  0  0  0  # atno 10765 bound_to 10752
  140.3856  134.1873  155.7663 H   0  0  0  0  0  0  0  0  0  0  0  0  # atno 11005 bound_to 11000
  145.0679  139.3054  143.5847 LP  0  0  0  0  0  0  0  0  0  0  0  0  # atno 17320 bound_to 7965
  146.3517  140.0143  142.8664 LP  0  0  0  0  0  0  0  0  0  0  0  0  # atno 17321 bound_to 7965
  140.5629  143.2190  151.7734 LP  0  0  0  0  0  0  0  0  0  0  0  0  # atno 17342 bound_to 10162
  139.4909  144.4324  151.9857 LP  0  0  0  0  0  0  0  0  0  0  0  0  # atno 17343 bound_to 10162
  157.6441  130.8829  149.9504 LP  0  0  0  0  0  0  0  0  0  0  0  0  # atno 17370 bound_to 10713
  156.0971  130.3658  150.0286 LP  0  0  0  0  0  0  0  0  0  0  0  0  # atno 17371 bound_to 10713
  141.1908  133.8208  157.0902 LP  0  0  0  0  0  0  0  0  0  0  0  0  # atno 17394 bound_to 11000
  140.0445  134.9837  157.1023 LP  0  0  0  0  0  0  0  0  0  0  0  0  # atno 17395 bound_to 11000

$$$$
