AV-unprocessed.smi:824|AV-procd|sdf|3848|dock10
  -GOLD-   22720 1293D 1   1.00000     0.00000
 Structure written by MMmdl.
 52 53  0  0  0  0  0  0  0  0  1 V2000
  151.1950  138.2072  155.0114 C   0  0  0  0  0  0  0  0  0  0  0  0
  150.5728  139.5801  155.1964 C   0  0  0  0  0  0  0  0  0  0  0  0
  151.1623  140.3851  156.1790 N   0  0  0  0  0  0  0  0  0  0  0  0
  150.6999  141.5727  156.4158 C   0  0  0  0  0  0  0  0  0  0  0  0
  151.1997  142.4720  157.3608 N   0  0  0  0  0  0  0  0  0  0  0  0
  151.5368  142.0499  158.7230 C   0  0  0  0  0  0  0  0  0  0  0  0
  151.5292  143.2405  159.6965 C   0  0  0  0  0  0  0  0  0  0  0  0
  152.4065  144.2529  159.2230 O   0  0  0  0  0  0  0  0  0  0  0  0
  151.9914  144.7458  157.9569 C   0  0  0  0  0  0  0  0  0  0  0  0
  152.0140  143.6063  156.9245 C   0  0  0  0  0  0  0  0  0  0  0  0
  149.6150  142.0625  155.6804 N   0  0  0  0  0  0  0  0  0  0  0  0
  148.9815  141.3682  154.7097 C   0  0  0  0  0  0  0  0  0  0  0  0
  148.0364  141.8680  154.1014 O   0  0  0  0  0  0  0  0  0  0  0  0
  149.5142  140.0190  154.4599 C   0  0  0  0  0  0  0  0  0  0  0  0
  148.8306  139.1713  153.3906 C   0  0  0  0  0  0  0  0  0  0  0  0
  147.2942  139.2606  153.4776 C   0  0  0  0  0  0  0  0  0  0  0  0
  146.5590  138.4591  152.3877 C   0  0  0  0  0  0  0  0  0  0  0  0
  146.9474  138.5330  151.2203 O   0  0  0  0  0  0  0  0  0  0  0  0
  145.5030  137.6904  152.7490 N   0  0  0  0  0  0  0  0  0  0  0  0
  145.0111  137.6201  154.1289 C   0  0  0  0  0  0  0  0  0  0  0  0
  144.7470  136.9074  151.7586 C   0  0  0  0  0  0  0  0  0  0  0  0
  145.3934  135.5375  151.4468 C   0  0  0  0  0  0  0  0  0  0  0  0
  144.4326  134.6587  150.6329 C   0  0  0  0  0  0  0  0  0  0  0  0
  145.8577  134.7990  152.7140 C   0  0  0  0  0  0  0  0  0  0  0  0
  149.2812  142.9944  155.8784 H   0  0  0  0  0  0  0  0  0  0  0  0
  151.4439  138.0346  153.9642 H   0  0  0  0  0  0  0  0  0  0  0  0
  150.5036  137.4299  155.3377 H   0  0  0  0  0  0  0  0  0  0  0  0
  152.1125  138.1062  155.5928 H   0  0  0  0  0  0  0  0  0  0  0  0
  150.8471  141.2925  159.0951 H   0  0  0  0  0  0  0  0  0  0  0  0
  152.5261  141.5907  158.7091 H   0  0  0  0  0  0  0  0  0  0  0  0
  150.5206  143.6399  159.8144 H   0  0  0  0  0  0  0  0  0  0  0  0
  151.8605  142.9192  160.6842 H   0  0  0  0  0  0  0  0  0  0  0  0
  150.9942  145.1833  158.0311 H   0  0  0  0  0  0  0  0  0  0  0  0
  152.6662  145.5442  157.6487 H   0  0  0  0  0  0  0  0  0  0  0  0
  153.0378  143.2650  156.7667 H   0  0  0  0  0  0  0  0  0  0  0  0
  151.6553  143.9894  155.9681 H   0  0  0  0  0  0  0  0  0  0  0  0
  149.1637  139.4827  152.4005 H   0  0  0  0  0  0  0  0  0  0  0  0
  149.1579  138.1349  153.4889 H   0  0  0  0  0  0  0  0  0  0  0  0
  146.9679  138.8970  154.4526 H   0  0  0  0  0  0  0  0  0  0  0  0
  146.9970  140.3076  153.4101 H   0  0  0  0  0  0  0  0  0  0  0  0
  144.5773  138.5742  154.4302 H   0  0  0  0  0  0  0  0  0  0  0  0
  145.8145  137.3700  154.8225 H   0  0  0  0  0  0  0  0  0  0  0  0
  144.2436  136.8566  154.2579 H   0  0  0  0  0  0  0  0  0  0  0  0
  143.7191  136.7593  152.0924 H   0  0  0  0  0  0  0  0  0  0  0  0
  144.6559  137.4875  150.8382 H   0  0  0  0  0  0  0  0  0  0  0  0
  146.2740  135.7070  150.8261 H   0  0  0  0  0  0  0  0  0  0  0  0
  143.5254  134.4365  151.1961 H   0  0  0  0  0  0  0  0  0  0  0  0
  144.8987  133.7103  150.3648 H   0  0  0  0  0  0  0  0  0  0  0  0
  144.1368  135.1517  149.7063 H   0  0  0  0  0  0  0  0  0  0  0  0
  145.0262  134.6245  153.3975 H   0  0  0  0  0  0  0  0  0  0  0  0
  146.6194  135.3646  153.2511 H   0  0  0  0  0  0  0  0  0  0  0  0
  146.2924  133.8305  152.4661 H   0  0  0  0  0  0  0  0  0  0  0  0
  1  2  1  0  0  0  0
  1 26  1  0  0  0  0
  1 27  1  0  0  0  0
  1 28  1  0  0  0  0
  2 14  2  0  0  0  0
  2  3  1  0  0  0  0
  3  4  2  0  0  0  0
  4  5  1  0  0  0  0
  4 11  1  0  0  0  0
  5 10  1  0  0  0  0
  5  6  1  0  0  0  0
  6  7  1  0  0  0  0
  6 29  1  0  0  0  0
  6 30  1  0  0  0  0
  7  8  1  0  0  0  0
  7 31  1  0  0  0  0
  7 32  1  0  0  0  0
  8  9  1  0  0  0  0
  9 10  1  0  0  0  0
  9 33  1  0  0  0  0
  9 34  1  0  0  0  0
 10 35  1  0  0  0  0
 10 36  1  0  0  0  0
 11 25  1  0  0  0  0
 11 12  1  0  0  0  0
 12 13  2  0  0  0  0
 12 14  1  0  0  0  0
 14 15  1  0  0  0  0
 15 16  1  0  0  0  0
 15 37  1  0  0  0  0
 15 38  1  0  0  0  0
 16 17  1  0  0  0  0
 16 39  1  0  0  0  0
 16 40  1  0  0  0  0
 17 18  2  0  0  0  0
 17 19  1  0  0  0  0
 19 20  1  0  0  0  0
 19 21  1  0  0  0  0
 20 41  1  0  0  0  0
 20 42  1  0  0  0  0
 20 43  1  0  0  0  0
 21 22  1  0  0  0  0
 21 44  1  0  0  0  0
 21 45  1  0  0  0  0
 22 23  1  0  0  0  0
 22 24  1  0  0  0  0
 22 46  1  0  0  0  0
 23 47  1  0  0  0  0
 23 48  1  0  0  0  0
 23 49  1  0  0  0  0
 24 50  1  0  0  0  0
 24 51  1  0  0  0  0
 24 52  1  0  0  0  0
M  END
> <s_m_source_file>
AV-unprocessed.smi

> <i_m_source_file_index>
824

> <i_lp_mmshare_version>
43012

> <i_f3d_flags>
0

> <s_epik_input>
W0NIMl0xW0NIMl1PW0NIMl1bQ0gyXU4xYyhuYzJbQ0gzXSlbbkhdYyg9TyljMltDSDJdW0NIMl1DKD1PKU4oW0NIM10pW0NIMl1bQ0hdKFtDSDNdKVtDSDNd

> <s_epik_cmdline>
J2VwaWtfcHl0aG9uJywgJy1waCcsICc3LjAnLCAnLXRuJywgJzgnLCAnLW1hJywgJzIwMCcsICctbWV0YWxfYmluZGluZycsICctaW1hZScsICc8aW5maWxlLm1hZT4nLCAnLW9tYWUnLCAnPG91dGZpbGUubWFlPic=

> <r_lp_tautomer_probability>
0.878553

> <r_epik_Ionization_Penalty>
0.00115806

> <r_epik_Ionization_Penalty_Charging>
0.00113132

> <r_epik_Ionization_Penalty_Neutral>
2.67354e-05

> <r_epik_State_Penalty>
0.0423856

> <r_epik_Charging_Adjusted_Penalty>
0.0435169

> <i_epik_Tot_Q>
0

> <i_epik_Tot_abs_Q>
0

> <r_epik_Metal_State_Penalty>
1.05917

> <b_epik_Metal_Only>
0

> <s_lp_Force_Field>
OPLS_2005

> <r_lp_Energy>
33.2944

> <b_lp_Chiralities_Consistent>
1

> <s_lp_Variant>
AV-unprocessed.smi:824-1

> <Gold.Version>
5.8.1

> <Gold.Id.Protein>
6NUR|6NUR_protein|mol2

> <Gold.PLP.Fitness>
45.5751

> <Gold.PLP.PLP>
-43.1529

> <Gold.PLP.part.hbond>
-2.0000

> <Gold.PLP.part.metal>
0.0000

> <Gold.PLP.part.buried>
0.1469

> <Gold.PLP.part.nonpolar>
-41.7189

> <Gold.PLP.part.repulsive>
1.1351

> <Gold.PLP.ligand.clash>
0.0000

> <Gold.PLP.ligand.torsion>
1.8934

> <Gold.PLP.Chemscore.Hbond>
1.9600

> <Gold.PLP.Chemscore.CHOScore>
0.0000

> <Gold.PLP.Chemscore.Metal>
0.0000

> <Gold.Chemscore.Hbonds>
donor molecule, donor type, donor heavy atom, donor atom, acceptor molecule, acceptor atom, score
      L1  H    11    25       P1  8028  1.00
      P1  H  7954  7966       L1    18  1.00

> <Gold.PLP.Chemscore.Internal.Correction>
0.3290

> <Gold.Rescore>
     Score         DG    S(hbond)    S(metal)    S(lipo)     H(rot)  DE(clash)    DE(int)     intcor
     11.79     -19.19       1.73        0.00     105.26       1.71       4.30       3.09       ----

> <Gold.Chemscore.Fitness>
11.7894

> <Gold.Chemscore.DG>
-19.1855

> <Gold.Chemscore.ZeroCoef>
-5.4800

> <Gold.Chemscore.Hbond>
1.7263

> <Gold.Chemscore.Metal>
0.0000

> <Gold.Chemscore.Lipo>
105.2599

> <Gold.Chemscore.Internal_Hbond>
0.0000

> <Gold.Chemscore.DEClash>
4.3024

> <Gold.Chemscore.DEInternal>
3.0937

> <Gold.Chemscore.Rot>
1.7093

> <Gold.Chemscore.Internal.Correction>
   9.000000E+99

> <Gold.Chemscore.Hbonds>
donor molecule, donor type, donor heavy atom, donor atom, acceptor molecule, acceptor atom, score
      L1  H    11    25       P1  8028  1.00
      P1  H  7954  7966       L1    18  0.97

> <Gold.Chemscore.Hbond.Weighted>
-5.7660

> <Gold.Chemscore.Metal.Weighted>
-0.0000

> <Gold.Chemscore.Lipo.Weighted>
-12.3154

> <Gold.Chemscore.Internal_Hbond.Weighted>
0.0000

> <Gold.Chemscore.DEClash.Weighted>
4.3024

> <Gold.Chemscore.DEInternal.Weighted>
3.0937

> <Gold.Chemscore.Rot.Weighted>
4.3759

> <Gold.Chemscore.Internal.Correction.Weighted>
   9.000000E+99

> <Gold.Protein.RotatedTorsions>
[ 6907 6896 6895 6894 ] final   31.12 input  -60.11 | X-H torsion
[ 7974 7965 7964 7962 ] final -120.79 input  175.53 | X-H torsion
[ 8008 7997 7996 7995 ] final   65.29 input   59.86 | X-H torsion
[ 10167 10162 10161 10158 ] final   44.71 input  -65.29 | X-H torsion
[ 10718 10713 10712 10709 ] final -143.84 input   66.30 | X-H torsion
[ 10763 10752 10751 10750 ] final -174.02 input  -60.55 | X-H torsion
[ 11005 11000 10999 10996 ] final   39.11 input  -57.11 | X-H torsion

> <Gold.Protein.ActiveResidues>
 VAL166  LYS551  ARG553  GLY616  TRP617  ASP618  TYR619  PRO620  LYS621  CYS622 
 ASP623  PHE694  ASN695  SER759  ASP760  ASP761  ALA762  ILE779  LEU786  VAL792 
 PHE793  MET794  SER795  GLU796  ALA797  LYS798  CYS799  TRP800  GLU811  SER814 

> <Gold.Protein.RotatedAtoms>
  152.0557  134.9626  160.0574 H   0  0  0  0  0  0  0  0  0  0  0  0  # atno 6907 bound_to 6896
  152.1009  133.4244  159.4595 H   0  0  0  0  0  0  0  0  0  0  0  0  # atno 6908 bound_to 6896
  150.6839  134.2681  159.4620 H   0  0  0  0  0  0  0  0  0  0  0  0  # atno 6909 bound_to 6896
  145.0475  140.8192  143.4229 H   0  0  0  0  0  0  0  0  0  0  0  0  # atno 7974 bound_to 7965
  155.6594  140.3497  155.4777 H   0  0  0  0  0  0  0  0  0  0  0  0  # atno 8008 bound_to 7997
  155.9781  140.1169  157.0775 H   0  0  0  0  0  0  0  0  0  0  0  0  # atno 8009 bound_to 7997
  154.4184  140.1143  156.5384 H   0  0  0  0  0  0  0  0  0  0  0  0  # atno 8010 bound_to 7997
  140.3315  144.2582  150.6167 H   0  0  0  0  0  0  0  0  0  0  0  0  # atno 10167 bound_to 10162
  156.3628  130.7747  151.1917 H   0  0  0  0  0  0  0  0  0  0  0  0  # atno 10718 bound_to 10713
  154.6011  135.2854  155.0534 H   0  0  0  0  0  0  0  0  0  0  0  0  # atno 10763 bound_to 10752
  154.1799  135.6458  153.5035 H   0  0  0  0  0  0  0  0  0  0  0  0  # atno 10764 bound_to 10752
  153.0157  135.5421  154.6730 H   0  0  0  0  0  0  0  0  0  0  0  0  # atno 10765 bound_to 10752
  140.2060  134.3812  155.8072 H   0  0  0  0  0  0  0  0  0  0  0  0  # atno 11005 bound_to 11000
  145.1570  139.2481  143.5411 LP  0  0  0  0  0  0  0  0  0  0  0  0  # atno 17320 bound_to 7965
  146.3515  140.1287  142.8598 LP  0  0  0  0  0  0  0  0  0  0  0  0  # atno 17321 bound_to 7965
  140.5393  143.2227  151.8112 LP  0  0  0  0  0  0  0  0  0  0  0  0  # atno 17342 bound_to 10162
  139.4855  144.4621  151.9528 LP  0  0  0  0  0  0  0  0  0  0  0  0  # atno 17343 bound_to 10162
  157.7475  131.0395  150.4553 LP  0  0  0  0  0  0  0  0  0  0  0  0  # atno 17370 bound_to 10713
  156.4767  130.4064  149.6486 LP  0  0  0  0  0  0  0  0  0  0  0  0  # atno 17371 bound_to 10713
  141.2227  133.7118  156.8338 LP  0  0  0  0  0  0  0  0  0  0  0  0  # atno 17394 bound_to 11000
  140.2002  134.8902  157.3160 LP  0  0  0  0  0  0  0  0  0  0  0  0  # atno 17395 bound_to 11000

$$$$
