AV-unprocessed.smi:2445|AV-procd|sdf|9633|dock10
  -GOLD-   2272013263D 1   1.00000     0.00000
 Structure written by MMmdl.
 40 41  0  0  0  0  0  0  0  0  1 V2000
  144.4136  133.3896  150.2551 C   0  0  0  0  0  0  0  0  0  0  0  0
  145.3470  133.0980  151.3806 C   0  0  0  0  0  0  0  0  0  0  0  0
  145.0265  132.7532  152.6701 C   0  0  0  0  0  0  0  0  0  0  0  0
  146.1365  132.5437  153.4913 N   0  0  0  0  0  0  0  0  0  0  0  0
  147.2921  132.7229  152.8459 C   0  0  0  0  0  0  0  0  0  0  0  0
  148.6342  132.5638  153.4958 C   0  0  2  0  0  0  0  0  0  0  0  0
  148.9068  131.1025  153.8793 C   0  0  0  0  0  0  0  0  0  0  0  0
  148.8411  133.5260  154.6819 C   0  0  0  0  0  0  0  0  0  0  0  0
  149.0050  134.9047  154.2346 N   0  0  0  0  0  0  0  0  0  0  0  0
  149.1712  135.9536  155.0498 C   0  0  0  0  0  0  0  0  0  0  0  0
  149.2303  135.8707  156.2767 O   0  0  0  0  0  0  0  0  0  0  0  0
  149.2601  137.1027  154.3674 N   0  0  0  0  0  0  0  0  0  0  0  0
  149.4319  138.4220  154.9678 C   0  0  2  0  0  0  0  0  0  0  0  0
  148.4658  139.4308  154.3824 C   0  0  0  0  0  0  0  0  0  0  0  0
  149.1804  140.7468  154.6640 C   0  0  0  0  0  0  0  0  0  0  0  0
  150.5699  140.4569  154.5649 O   0  0  0  0  0  0  0  0  0  0  0  0
  150.7899  139.0493  154.6198 C   0  0  1  0  0  0  0  0  0  0  0  0
  151.9069  138.7315  155.6214 C   0  0  0  0  0  0  0  0  0  0  0  0
  147.0747  133.1751  151.1568 S   0  0  0  0  0  0  0  0  0  0  0  0
  143.3760  133.2460  150.5574 H   0  0  0  0  0  0  0  0  0  0  0  0
  144.6111  132.7322  149.4082 H   0  0  0  0  0  0  0  0  0  0  0  0
  144.5259  134.4197  149.9168 H   0  0  0  0  0  0  0  0  0  0  0  0
  144.0377  132.6351  153.0885 H   0  0  0  0  0  0  0  0  0  0  0  0
  149.3793  132.8307  152.7443 H   0  0  0  0  0  0  0  0  0  0  0  0
  148.8339  130.4487  153.0096 H   0  0  0  0  0  0  0  0  0  0  0  0
  148.1929  130.7475  154.6233 H   0  0  0  0  0  0  0  0  0  0  0  0
  149.9071  130.9862  154.2969 H   0  0  0  0  0  0  0  0  0  0  0  0
  147.9838  133.4617  155.3546 H   0  0  0  0  0  0  0  0  0  0  0  0
  149.7184  133.2325  155.2600 H   0  0  0  0  0  0  0  0  0  0  0  0
  148.9694  135.0709  153.2393 H   0  0  0  0  0  0  0  0  0  0  0  0
  149.2016  137.0650  153.3602 H   0  0  0  0  0  0  0  0  0  0  0  0
  149.2911  138.3893  156.0503 H   0  0  0  0  0  0  0  0  0  0  0  0
  148.3656  139.2898  153.3049 H   0  0  0  0  0  0  0  0  0  0  0  0
  147.4716  139.3827  154.8281 H   0  0  0  0  0  0  0  0  0  0  0  0
  148.8864  141.5398  153.9762 H   0  0  0  0  0  0  0  0  0  0  0  0
  148.9683  141.0829  155.6797 H   0  0  0  0  0  0  0  0  0  0  0  0
  151.0966  138.7395  153.6195 H   0  0  0  0  0  0  0  0  0  0  0  0
  152.1160  137.6622  155.6510 H   0  0  0  0  0  0  0  0  0  0  0  0
  151.6364  139.0486  156.6287 H   0  0  0  0  0  0  0  0  0  0  0  0
  152.8305  139.2419  155.3480 H   0  0  0  0  0  0  0  0  0  0  0  0
  1  2  1  0  0  0  0
  1 20  1  0  0  0  0
  1 21  1  0  0  0  0
  1 22  1  0  0  0  0
  2 19  1  0  0  0  0
  2  3  2  0  0  0  0
  3  4  1  0  0  0  0
  3 23  1  0  0  0  0
  4  5  2  0  0  0  0
  5  6  1  0  0  0  0
  5 19  1  0  0  0  0
  6  7  1  0  0  0  0
  6  8  1  0  0  0  0
  6 24  1  0  0  0  0
  7 25  1  0  0  0  0
  7 26  1  0  0  0  0
  7 27  1  0  0  0  0
  8  9  1  0  0  0  0
  8 28  1  0  0  0  0
  8 29  1  0  0  0  0
  9 10  1  0  0  0  0
  9 30  1  0  0  0  0
 10 11  2  0  0  0  0
 10 12  1  0  0  0  0
 12 13  1  0  0  0  0
 12 31  1  0  0  0  0
 13 17  1  0  0  0  0
 13 14  1  0  0  0  0
 13 32  1  0  0  0  0
 14 15  1  0  0  0  0
 14 33  1  0  0  0  0
 14 34  1  0  0  0  0
 15 16  1  0  0  0  0
 15 35  1  0  0  0  0
 15 36  1  0  0  0  0
 16 17  1  0  0  0  0
 17 18  1  0  0  0  0
 17 37  1  0  0  0  0
 18 38  1  0  0  0  0
 18 39  1  0  0  0  0
 18 40  1  0  0  0  0
M  END
> <s_m_source_file>
AV-unprocessed.smi

> <i_m_source_file_index>
2445

> <i_lp_mmshare_version>
43012

> <i_f3d_flags>
0

> <s_epik_input>
W0NIM11jMVtjSF1uYyhzMSlbQ0BIXShbQ0gzXSlbQ0gyXVtOSF1DKD1PKVtOSF1bQ0BASF0yW0NIMl1bQ0gyXU9bQ0BIXTJbQ0gzXQ==

> <s_epik_cmdline>
J2VwaWtfcHl0aG9uJywgJy1waCcsICc3LjAnLCAnLXRuJywgJzgnLCAnLW1hJywgJzIwMCcsICctbWV0YWxfYmluZGluZycsICctaW1hZScsICc8aW5maWxlLm1hZT4nLCAnLW9tYWUnLCAnPG91dGZpbGUubWFlPic=

> <r_epik_Ionization_Penalty>
0.000649483

> <r_epik_Ionization_Penalty_Charging>
0

> <r_epik_Ionization_Penalty_Neutral>
0.000649483

> <r_epik_State_Penalty>
0.000379895

> <r_epik_Charging_Adjusted_Penalty>
0.000379895

> <i_epik_Tot_Q>
0

> <i_epik_Tot_abs_Q>
0

> <r_epik_Metal_State_Penalty>
-0

> <b_epik_Metal_Only>
0

> <s_lp_Force_Field>
OPLS_2005

> <r_lp_Energy>
5.96994

> <b_lp_Chiralities_Consistent>
1

> <s_lp_Variant>
AV-unprocessed.smi:2445-1

> <Gold.Version>
5.8.1

> <Gold.Id.Protein>
6NUR|6NUR_protein|mol2

> <Gold.PLP.Fitness>
42.4470

> <Gold.PLP.PLP>
-30.8756

> <Gold.PLP.part.hbond>
-2.8146

> <Gold.PLP.part.metal>
0.0000

> <Gold.PLP.part.buried>
-1.9680

> <Gold.PLP.part.nonpolar>
-26.2496

> <Gold.PLP.part.repulsive>
0.2616

> <Gold.PLP.ligand.clash>
0.0000

> <Gold.PLP.ligand.torsion>
0.2535

> <Gold.PLP.Chemscore.Hbond>
2.9920

> <Gold.PLP.Chemscore.CHOScore>
1.0000

> <Gold.PLP.Chemscore.Metal>
0.0000

> <Gold.Chemscore.Hbonds>
donor molecule, donor type, donor heavy atom, donor atom, acceptor molecule, acceptor atom, score
      L1  H     9    30       P1  7948  1.00
      L1  H    12    31       P1  7948  1.00
      P1  H  7989  7998       L1    16  1.00
      L1  C     3    23       P1 10957  0.94

> <Gold.PLP.Chemscore.Internal.Correction>
0.1023

> <Gold.Rescore>
     Score         DG    S(hbond)    S(metal)    S(lipo)     H(rot)  DE(clash)    DE(int)     intcor
     17.67     -18.11       2.26        0.00      77.13       1.53       0.06       0.38       ----

> <Gold.Chemscore.Fitness>
17.6736

> <Gold.Chemscore.DG>
-18.1136

> <Gold.Chemscore.ZeroCoef>
-5.4800

> <Gold.Chemscore.Hbond>
2.2553

> <Gold.Chemscore.Metal>
0.0000

> <Gold.Chemscore.Lipo>
77.1298

> <Gold.Chemscore.Internal_Hbond>
0.0000

> <Gold.Chemscore.DEClash>
0.0551

> <Gold.Chemscore.DEInternal>
0.3849

> <Gold.Chemscore.Rot>
1.5325

> <Gold.Chemscore.Internal.Correction>
   9.000000E+99

> <Gold.Chemscore.Hbonds>
donor molecule, donor type, donor heavy atom, donor atom, acceptor molecule, acceptor atom, score
      L1  H     9    30       P1  7948  0.29
      L1  H    12    31       P1  7948  0.96
      P1  H  7989  7998       L1    16  0.28

> <Gold.Chemscore.Hbond.Weighted>
-7.5327

> <Gold.Chemscore.Metal.Weighted>
-0.0000

> <Gold.Chemscore.Lipo.Weighted>
-9.0242

> <Gold.Chemscore.Internal_Hbond.Weighted>
0.0000

> <Gold.Chemscore.DEClash.Weighted>
0.0551

> <Gold.Chemscore.DEInternal.Weighted>
0.3849

> <Gold.Chemscore.Rot.Weighted>
3.9233

> <Gold.Chemscore.Internal.Correction.Weighted>
   9.000000E+99

> <Gold.Protein.RotatedTorsions>
[ 6907 6896 6895 6894 ] final   29.88 input  -60.11 | X-H torsion
[ 7974 7965 7964 7962 ] final -106.74 input  175.53 | X-H torsion
[ 8008 7997 7996 7995 ] final  128.48 input   59.86 | X-H torsion
[ 10167 10162 10161 10158 ] final  108.86 input  -65.29 | X-H torsion
[ 10718 10713 10712 10709 ] final  121.02 input   66.30 | X-H torsion
[ 10763 10752 10751 10750 ] final -173.89 input  -60.55 | X-H torsion
[ 11005 11000 10999 10996 ] final  139.66 input  -57.11 | X-H torsion

> <Gold.Protein.ActiveResidues>
 VAL166  LYS551  ARG553  GLY616  TRP617  ASP618  TYR619  PRO620  LYS621  CYS622 
 ASP623  PHE694  ASN695  SER759  ASP760  ASP761  ALA762  ILE779  LEU786  VAL792 
 PHE793  MET794  SER795  GLU796  ALA797  LYS798  CYS799  TRP800  GLU811  SER814 

> <Gold.Protein.RotatedAtoms>
  152.0380  134.9729  160.0573 H   0  0  0  0  0  0  0  0  0  0  0  0  # atno 6907 bound_to 6896
  152.1179  133.4332  159.4670 H   0  0  0  0  0  0  0  0  0  0  0  0  # atno 6908 bound_to 6896
  150.6847  134.2489  159.4546 H   0  0  0  0  0  0  0  0  0  0  0  0  # atno 6909 bound_to 6896
  145.2141  140.9108  143.3297 H   0  0  0  0  0  0  0  0  0  0  0  0  # atno 7974 bound_to 7965
  156.2916  140.2644  156.2443 H   0  0  0  0  0  0  0  0  0  0  0  0  # atno 8008 bound_to 7997
  154.9946  140.0388  157.2352 H   0  0  0  0  0  0  0  0  0  0  0  0  # atno 8009 bound_to 7997
  154.7655  140.2768  155.6184 H   0  0  0  0  0  0  0  0  0  0  0  0  # atno 8010 bound_to 7997
  139.6813  144.7118  151.1511 H   0  0  0  0  0  0  0  0  0  0  0  0  # atno 10167 bound_to 10162
  157.5848  131.1071  150.8115 H   0  0  0  0  0  0  0  0  0  0  0  0  # atno 10718 bound_to 10713
  154.6026  135.2856  155.0518 H   0  0  0  0  0  0  0  0  0  0  0  0  # atno 10763 bound_to 10752
  154.1778  135.6462  153.5030 H   0  0  0  0  0  0  0  0  0  0  0  0  # atno 10764 bound_to 10752
  153.0163  135.5416  154.6751 H   0  0  0  0  0  0  0  0  0  0  0  0  # atno 10765 bound_to 10752
  140.0271  134.9370  157.0589 H   0  0  0  0  0  0  0  0  0  0  0  0  # atno 11005 bound_to 11000
  144.9828  139.3767  143.6254 LP  0  0  0  0  0  0  0  0  0  0  0  0  # atno 17320 bound_to 7965
  146.3391  139.8976  142.8799 LP  0  0  0  0  0  0  0  0  0  0  0  0  # atno 17321 bound_to 7965
  140.7653  143.5696  150.9010 LP  0  0  0  0  0  0  0  0  0  0  0  0  # atno 17342 bound_to 10162
  139.9368  143.6429  152.3063 LP  0  0  0  0  0  0  0  0  0  0  0  0  # atno 17343 bound_to 10162
  156.8552  130.5094  149.5308 LP  0  0  0  0  0  0  0  0  0  0  0  0  # atno 17370 bound_to 10713
  156.0897  130.5886  150.9711 LP  0  0  0  0  0  0  0  0  0  0  0  0  # atno 17371 bound_to 10713
  140.4289  134.1802  155.7167 LP  0  0  0  0  0  0  0  0  0  0  0  0  # atno 17394 bound_to 11000
  141.1809  133.8416  157.1261 LP  0  0  0  0  0  0  0  0  0  0  0  0  # atno 17395 bound_to 11000

$$$$
