AV-unprocessed.smi:14|AV-procd|sdf|78|dock2
  -GOLD-   2262015203D 1   1.00000     0.00000
 Structure written by MMmdl.
 57 60  0  0  0  0  0  0  0  0  1 V2000
  150.6792  139.6373  154.0894 N   0  0  0  0  0  0  0  0  0  0  0  0
  149.9192  140.2998  154.6571 C   0  0  0  0  0  0  0  0  0  0  0  0
  148.9530  141.1410  155.3783 C   0  0  0  0  0  0  0  0  0  0  0  0
  149.0889  141.0074  156.9030 C   0  0  0  0  0  0  0  0  0  0  0  0
  150.4340  140.6074  157.3228 N   0  0  0  0  0  0  0  0  0  0  0  0
  151.3809  141.6829  157.6257 C   0  0  0  0  0  0  0  0  0  0  0  0
  151.4865  142.0224  159.1275 C   0  0  1  0  0  0  0  0  0  0  0  0
  152.7061  141.4595  159.8351 C   0  0  0  0  0  0  0  0  0  0  0  0
  152.8144  142.3567  161.0643 C   0  0  0  0  0  0  0  0  0  0  0  0
  152.2564  143.6114  160.6860 O   0  0  0  0  0  0  0  0  0  0  0  0
  151.6825  143.5156  159.3871 C   0  0  0  0  0  0  0  0  0  0  0  0
  150.5780  139.4636  158.0460 C   0  0  0  0  0  0  0  0  0  0  0  0
  151.8122  139.1023  158.4905 N   0  0  0  0  0  0  0  0  0  0  0  0
  151.9835  137.9656  159.1699 C   0  0  0  0  0  0  0  0  0  0  0  0
  151.0722  137.0550  159.5125 N   0  0  0  0  0  0  0  0  0  0  0  0
  149.8284  137.4136  159.0859 C   0  0  0  0  0  0  0  0  0  0  0  0
  149.4955  138.5881  158.3514 C   0  0  0  0  0  0  0  0  0  0  0  0
  148.1295  138.6085  158.0958 N   0  0  0  0  0  0  0  0  0  0  0  0
  147.6857  137.5041  158.6293 C   0  0  0  0  0  0  0  0  0  0  0  0
  148.6349  136.7334  159.2621 N   0  0  0  0  0  0  0  0  0  0  0  0
  148.4140  135.4582  159.9314 C   0  0  0  0  0  0  0  0  0  0  0  0
  147.0801  135.3469  160.7369 C   0  0  0  0  0  0  0  0  0  0  0  0
  146.8179  136.6967  161.4628 C   0  0  0  0  0  0  0  0  0  0  0  0
  147.8268  137.0443  162.3905 O   0  0  0  0  0  0  0  0  0  0  0  0
  145.9233  135.0389  159.7503 C   0  0  0  0  0  0  0  0  0  0  0  0
  145.9793  133.6025  159.1978 C   0  0  0  0  0  0  0  0  0  0  0  0
  145.9863  132.6694  160.2709 O   0  0  0  0  0  0  0  0  0  0  0  0
  147.1247  132.8039  161.1125 C   0  0  0  0  0  0  0  0  0  0  0  0
  147.1278  134.1948  161.7740 C   0  0  0  0  0  0  0  0  0  0  0  0
  149.1061  142.1680  155.0489 H   0  0  0  0  0  0  0  0  0  0  0  0
  147.9529  140.8453  155.0602 H   0  0  0  0  0  0  0  0  0  0  0  0
  148.8456  141.9659  157.3625 H   0  0  0  0  0  0  0  0  0  0  0  0
  148.3553  140.2962  157.2852 H   0  0  0  0  0  0  0  0  0  0  0  0
  152.3688  141.4695  157.2219 H   0  0  0  0  0  0  0  0  0  0  0  0
  151.0436  142.5707  157.0896 H   0  0  0  0  0  0  0  0  0  0  0  0
  150.5863  141.6994  159.6524 H   0  0  0  0  0  0  0  0  0  0  0  0
  152.6067  140.4071  160.0999 H   0  0  0  0  0  0  0  0  0  0  0  0
  153.5938  141.5708  159.2102 H   0  0  0  0  0  0  0  0  0  0  0  0
  152.2238  141.9497  161.8859 H   0  0  0  0  0  0  0  0  0  0  0  0
  153.8434  142.4655  161.4078 H   0  0  0  0  0  0  0  0  0  0  0  0
  152.3844  143.9432  158.6693 H   0  0  0  0  0  0  0  0  0  0  0  0
  150.7505  144.0776  159.3225 H   0  0  0  0  0  0  0  0  0  0  0  0
  152.9960  137.7534  159.4801 H   0  0  0  0  0  0  0  0  0  0  0  0
  146.6436  137.2228  158.5831 H   0  0  0  0  0  0  0  0  0  0  0  0
  148.4416  134.6820  159.1652 H   0  0  0  0  0  0  0  0  0  0  0  0
  149.2800  135.2665  160.5631 H   0  0  0  0  0  0  0  0  0  0  0  0
  146.7493  137.5159  160.7473 H   0  0  0  0  0  0  0  0  0  0  0  0
  145.8681  136.6612  161.9975 H   0  0  0  0  0  0  0  0  0  0  0  0
  147.9471  136.3224  162.9885 H   0  0  0  0  0  0  0  0  0  0  0  0
  144.9597  135.1554  160.2468 H   0  0  0  0  0  0  0  0  0  0  0  0
  145.9223  135.7547  158.9275 H   0  0  0  0  0  0  0  0  0  0  0  0
  145.1022  133.4114  158.5794 H   0  0  0  0  0  0  0  0  0  0  0  0
  146.8475  133.4481  158.5568 H   0  0  0  0  0  0  0  0  0  0  0  0
  147.0822  132.0304  161.8792 H   0  0  0  0  0  0  0  0  0  0  0  0
  148.0352  132.6238  160.5413 H   0  0  0  0  0  0  0  0  0  0  0  0
  147.9876  134.2979  162.4352 H   0  0  0  0  0  0  0  0  0  0  0  0
  146.2535  134.2456  162.4232 H   0  0  0  0  0  0  0  0  0  0  0  0
  1  2  3  0  0  0  0
  2  3  1  0  0  0  0
  3  4  1  0  0  0  0
  3 30  1  0  0  0  0
  3 31  1  0  0  0  0
  4  5  1  0  0  0  0
  4 32  1  0  0  0  0
  4 33  1  0  0  0  0
  5  6  1  0  0  0  0
  5 12  1  0  0  0  0
  6  7  1  0  0  0  0
  6 34  1  0  0  0  0
  6 35  1  0  0  0  0
  7 11  1  0  0  0  0
  7  8  1  0  0  0  0
  7 36  1  0  0  0  0
  8  9  1  0  0  0  0
  8 37  1  0  0  0  0
  8 38  1  0  0  0  0
  9 10  1  0  0  0  0
  9 39  1  0  0  0  0
  9 40  1  0  0  0  0
 10 11  1  0  0  0  0
 11 41  1  0  0  0  0
 11 42  1  0  0  0  0
 12 17  1  0  0  0  0
 12 13  2  0  0  0  0
 13 14  1  0  0  0  0
 14 15  2  0  0  0  0
 14 43  1  0  0  0  0
 15 16  1  0  0  0  0
 16 20  1  0  0  0  0
 16 17  2  0  0  0  0
 17 18  1  0  0  0  0
 18 19  2  0  0  0  0
 19 20  1  0  0  0  0
 19 44  1  0  0  0  0
 20 21  1  0  0  0  0
 21 22  1  0  0  0  0
 21 45  1  0  0  0  0
 21 46  1  0  0  0  0
 22 29  1  0  0  0  0
 22 23  1  0  0  0  0
 22 25  1  0  0  0  0
 23 24  1  0  0  0  0
 23 47  1  0  0  0  0
 23 48  1  0  0  0  0
 24 49  1  0  0  0  0
 25 26  1  0  0  0  0
 25 50  1  0  0  0  0
 25 51  1  0  0  0  0
 26 27  1  0  0  0  0
 26 52  1  0  0  0  0
 26 53  1  0  0  0  0
 27 28  1  0  0  0  0
 28 29  1  0  0  0  0
 28 54  1  0  0  0  0
 28 55  1  0  0  0  0
 29 56  1  0  0  0  0
 29 57  1  0  0  0  0
M  END
> <s_m_source_file>
AV-unprocessed.smi

> <i_m_source_file_index>
14

> <i_lp_mmshare_version>
43012

> <i_f3d_flags>
0

> <s_epik_input>
W0NIMl0xT1tDSDJdW0NIMl1bQ0BIXTFbQ0gyXU4oW0NIMl1bQ0gyXUMjTiljKG5bY0hdbjIpYyhjMjMpbltjSF1uM1tDSDJdQzQoW0NIMl1bT0hdKVtDSDJdW0NIMl1PW0NIMl1bQ0gyXTQ=

> <s_epik_cmdline>
J2VwaWtfcHl0aG9uJywgJy1waCcsICc3LjAnLCAnLXRuJywgJzgnLCAnLW1hJywgJzIwMCcsICctbWV0YWxfYmluZGluZycsICctaW1hZScsICc8aW5maWxlLm1hZT4nLCAnLW9tYWUnLCAnPG91dGZpbGUubWFlPic=

> <r_lp_tautomer_probability>
1

> <r_epik_Ionization_Penalty>
0.000542547

> <r_epik_Ionization_Penalty_Charging>
0

> <r_epik_Ionization_Penalty_Neutral>
0.000542547

> <r_epik_State_Penalty>
0.000265709

> <r_epik_Charging_Adjusted_Penalty>
0.000265709

> <i_epik_Tot_Q>
0

> <i_epik_Tot_abs_Q>
0

> <r_epik_Metal_State_Penalty>
-0

> <b_epik_Metal_Only>
0

> <s_lp_Force_Field>
OPLS_2005

> <r_lp_Energy>
43.0361

> <b_lp_Chiralities_Consistent>
1

> <s_lp_Variant>
AV-unprocessed.smi:14-2

> <Gold.Version>
5.8.1

> <Gold.Id.Protein>
6NUR|6NUR_protein|mol2

> <Gold.PLP.Fitness>
52.9313

> <Gold.PLP.PLP>
-46.9897

> <Gold.PLP.part.hbond>
-3.7421

> <Gold.PLP.part.metal>
0.0000

> <Gold.PLP.part.buried>
-5.4848

> <Gold.PLP.part.nonpolar>
-36.9881

> <Gold.PLP.part.repulsive>
0.5475

> <Gold.PLP.ligand.clash>
0.0000

> <Gold.PLP.ligand.torsion>
1.9455

> <Gold.PLP.Chemscore.Hbond>
2.9120

> <Gold.PLP.Chemscore.CHOScore>
0.0000

> <Gold.PLP.Chemscore.Metal>
0.0000

> <Gold.Chemscore.Hbonds>
donor molecule, donor type, donor heavy atom, donor atom, acceptor molecule, acceptor atom, score
      P1  H  6896  6907       L1    15  1.00
      P1  H  6931  6943       L1    24  0.99
      P1  H  7989  7998       L1     1  0.90

> <Gold.PLP.Chemscore.Internal.Correction>
1.0966

> <Gold.Rescore>
     Score         DG    S(hbond)    S(metal)    S(lipo)     H(rot)  DE(clash)    DE(int)     intcor
     13.73     -17.30       2.78        0.00      92.83       3.26       0.10       3.46       ----

> <Gold.Chemscore.Fitness>
13.7327

> <Gold.Chemscore.DG>
-17.2956

> <Gold.Chemscore.ZeroCoef>
-5.4800

> <Gold.Chemscore.Hbond>
2.7808

> <Gold.Chemscore.Metal>
0.0000

> <Gold.Chemscore.Lipo>
92.8311

> <Gold.Chemscore.Internal_Hbond>
0.0000

> <Gold.Chemscore.DEClash>
0.1027

> <Gold.Chemscore.DEInternal>
3.4602

> <Gold.Chemscore.Rot>
3.2553

> <Gold.Chemscore.Internal.Correction>
   9.000000E+99

> <Gold.Chemscore.Hbonds>
donor molecule, donor type, donor heavy atom, donor atom, acceptor molecule, acceptor atom, score
      P1  H  6896  6907       L1    15  0.95
      P1  H  6931  6943       L1    24  0.91
      P1  H  7989  7998       L1     1  0.18

> <Gold.Chemscore.Hbond.Weighted>
-9.2879

> <Gold.Chemscore.Metal.Weighted>
-0.0000

> <Gold.Chemscore.Lipo.Weighted>
-10.8612

> <Gold.Chemscore.Internal_Hbond.Weighted>
0.0000

> <Gold.Chemscore.DEClash.Weighted>
0.1027

> <Gold.Chemscore.DEInternal.Weighted>
3.4602

> <Gold.Chemscore.Rot.Weighted>
8.3336

> <Gold.Chemscore.Internal.Correction.Weighted>
   9.000000E+99

> <Gold.Protein.RotatedTorsions>
[ 6907 6896 6895 6894 ] final   -8.84 input  -60.11 | X-H torsion
[ 7974 7965 7964 7962 ] final    1.63 input  175.53 | X-H torsion
[ 8008 7997 7996 7995 ] final  -91.20 input   59.86 | X-H torsion
[ 10167 10162 10161 10158 ] final   89.59 input  -65.29 | X-H torsion
[ 10718 10713 10712 10709 ] final  -61.91 input   66.30 | X-H torsion
[ 10763 10752 10751 10750 ] final    8.07 input  -60.55 | X-H torsion
[ 11005 11000 10999 10996 ] final   29.01 input  -57.11 | X-H torsion

> <Gold.Protein.ActiveResidues>
 VAL166  LYS551  ARG553  GLY616  TRP617  ASP618  TYR619  PRO620  LYS621  CYS622 
 ASP623  PHE694  ASN695  SER759  ASP760  ASP761  ALA762  ILE779  LEU786  VAL792 
 PHE793  MET794  SER795  GLU796  ALA797  LYS798  CYS799  TRP800  GLU811  SER814 

> <Gold.Protein.RotatedAtoms>
  151.4273  135.1005  159.9631 H   0  0  0  0  0  0  0  0  0  0  0  0  # atno 6907 bound_to 6896
  152.4968  133.8651  159.7280 H   0  0  0  0  0  0  0  0  0  0  0  0  # atno 6908 bound_to 6896
  150.9180  133.6857  159.2866 H   0  0  0  0  0  0  0  0  0  0  0  0  # atno 6909 bound_to 6896
  146.2441  140.0958  142.8350 H   0  0  0  0  0  0  0  0  0  0  0  0  # atno 7974 bound_to 7965
  154.7078  140.0522  157.0521 H   0  0  0  0  0  0  0  0  0  0  0  0  # atno 8008 bound_to 7997
  155.0596  140.3188  155.4646 H   0  0  0  0  0  0  0  0  0  0  0  0  # atno 8009 bound_to 7997
  156.2780  140.2101  156.5722 H   0  0  0  0  0  0  0  0  0  0  0  0  # atno 8010 bound_to 7997
  139.8558  144.6570  150.9116 H   0  0  0  0  0  0  0  0  0  0  0  0  # atno 10167 bound_to 10162
  156.0890  130.4203  150.1061 H   0  0  0  0  0  0  0  0  0  0  0  0  # atno 10718 bound_to 10713
  153.2291  135.6890  153.7910 H   0  0  0  0  0  0  0  0  0  0  0  0  # atno 10763 bound_to 10752
  153.7081  135.3286  155.3241 H   0  0  0  0  0  0  0  0  0  0  0  0  # atno 10764 bound_to 10752
  154.8306  135.4584  154.1170 H   0  0  0  0  0  0  0  0  0  0  0  0  # atno 10765 bound_to 10752
  140.3095  134.2666  155.7737 H   0  0  0  0  0  0  0  0  0  0  0  0  # atno 11005 bound_to 11000
  145.0611  140.9088  143.4938 LP  0  0  0  0  0  0  0  0  0  0  0  0  # atno 17320 bound_to 7965
  145.1074  139.2781  143.5655 LP  0  0  0  0  0  0  0  0  0  0  0  0  # atno 17321 bound_to 7965
  140.7782  143.3787  151.1515 LP  0  0  0  0  0  0  0  0  0  0  0  0  # atno 17342 bound_to 10162
  139.7421  143.8908  152.3053 LP  0  0  0  0  0  0  0  0  0  0  0  0  # atno 17343 bound_to 10162
  156.9076  130.9641  151.3567 LP  0  0  0  0  0  0  0  0  0  0  0  0  # atno 17370 bound_to 10713
  157.6033  130.8528  149.8836 LP  0  0  0  0  0  0  0  0  0  0  0  0  # atno 17371 bound_to 10713
  141.2111  133.7699  156.9886 LP  0  0  0  0  0  0  0  0  0  0  0  0  # atno 17394 bound_to 11000
  140.1037  134.9519  157.1962 LP  0  0  0  0  0  0  0  0  0  0  0  0  # atno 17395 bound_to 11000

$$$$
