AV-unprocessed.smi:1879|AV-procd|sdf|7633|dock1
  -GOLD-   22720 9353D 1   1.00000     0.00000
 Structure written by MMmdl.
 47 49  0  0  0  0  0  0  0  0  2 V2000
  148.1126  137.3643  156.1647 O   0  0  0  0  0  0  0  0  0  0  0  0
  148.1996  137.0053  154.9905 C   0  0  0  0  0  0  0  0  0  0  0  0
  147.6966  135.8635  154.4913 N   0  0  0  0  0  0  0  0  0  0  0  0
  146.9835  134.8388  155.1774 C   0  0  0  0  0  0  0  0  0  0  0  0
  147.3264  134.4567  156.5004 C   0  0  0  0  0  0  0  0  0  0  0  0
  146.6167  133.4238  157.1409 C   0  0  0  0  0  0  0  0  0  0  0  0
  145.5697  132.7891  156.4517 C   0  0  0  0  0  0  0  0  0  0  0  0
  145.2528  133.1892  155.2031 N   0  3  0  0  0  0  0  0  0  0  0  0
  145.8879  134.1872  154.5389 C   0  0  0  0  0  0  0  0  0  0  0  0
  145.4326  134.5091  153.2398 N   0  0  0  0  0  0  0  0  0  0  0  0
  145.8827  133.7368  152.0873 C   0  0  0  0  0  0  0  0  0  0  0  0
  144.9282  134.1174  150.9588 C   0  0  0  0  0  0  0  0  0  0  0  0
  143.6079  134.3093  151.6990 C   0  0  0  0  0  0  0  0  0  0  0  0
  144.0333  134.8815  153.0553 C   0  0  0  0  0  0  0  0  0  0  0  0
  148.8366  137.7094  154.0441 N   0  0  0  0  0  0  0  0  0  0  0  0
  149.4986  138.9943  154.2506 C   0  0  2  0  0  0  0  0  0  0  0  0
  150.4126  138.9092  155.4879 C   0  0  0  0  0  0  0  0  0  0  0  0
  151.0891  140.2579  155.7827 C   0  0  0  0  0  0  0  0  0  0  0  0
  150.0457  141.3763  155.9473 C   0  0  1  0  0  0  0  0  0  0  0  0
  150.7024  142.6099  156.1483 O   0  0  0  0  0  0  0  0  0  0  0  0
  149.1380  141.4721  154.7091 C   0  0  0  0  0  0  0  0  0  0  0  0
  148.4602  140.1244  154.4130 C   0  0  0  0  0  0  0  0  0  0  0  0
  147.9326  135.6600  153.5313 H   0  0  0  0  0  0  0  0  0  0  0  0
  148.1226  134.9452  157.0411 H   0  0  0  0  0  0  0  0  0  0  0  0
  146.8744  133.1229  158.1460 H   0  0  0  0  0  0  0  0  0  0  0  0
  144.9731  131.9864  156.8605 H   0  0  0  0  0  0  0  0  0  0  0  0
  146.9190  133.9635  151.8351 H   0  0  0  0  0  0  0  0  0  0  0  0
  145.8020  132.6676  152.2874 H   0  0  0  0  0  0  0  0  0  0  0  0
  145.2409  135.0591  150.5051 H   0  0  0  0  0  0  0  0  0  0  0  0
  144.8744  133.3624  150.1740 H   0  0  0  0  0  0  0  0  0  0  0  0
  142.9098  134.9556  151.1662 H   0  0  0  0  0  0  0  0  0  0  0  0
  143.1259  133.3413  151.8435 H   0  0  0  0  0  0  0  0  0  0  0  0
  143.3979  134.5079  153.8593 H   0  0  0  0  0  0  0  0  0  0  0  0
  143.9595  135.9692  153.0392 H   0  0  0  0  0  0  0  0  0  0  0  0
  148.8639  137.3337  153.1076 H   0  0  0  0  0  0  0  0  0  0  0  0
  150.1245  139.2135  153.3832 H   0  0  0  0  0  0  0  0  0  0  0  0
  149.8309  138.6009  156.3579 H   0  0  0  0  0  0  0  0  0  0  0  0
  151.1741  138.1428  155.3384 H   0  0  0  0  0  0  0  0  0  0  0  0
  151.6964  140.1760  156.6849 H   0  0  0  0  0  0  0  0  0  0  0  0
  151.7734  140.5038  154.9694 H   0  0  0  0  0  0  0  0  0  0  0  0
  149.4356  141.1745  156.8286 H   0  0  0  0  0  0  0  0  0  0  0  0
  150.1345  143.3048  155.8520 H   0  0  0  0  0  0  0  0  0  0  0  0
  148.3797  142.2417  154.8584 H   0  0  0  0  0  0  0  0  0  0  0  0
  149.7240  141.7789  153.8414 H   0  0  0  0  0  0  0  0  0  0  0  0
  147.8541  140.2138  153.5108 H   0  0  0  0  0  0  0  0  0  0  0  0
  147.7722  139.8806  155.2238 H   0  0  0  0  0  0  0  0  0  0  0  0
  144.4805  132.7166  154.7333 H   0  0  0  0  0  0  0  0  0  0  0  0
  1  2  2  0  0  0  0
  2  3  1  0  0  0  0
  2 15  1  0  0  0  0
  3  4  1  0  0  0  0
  3 23  1  0  0  0  0
  4  9  1  0  0  0  0
  4  5  2  0  0  0  0
  5  6  1  0  0  0  0
  5 24  1  0  0  0  0
  6  7  2  0  0  0  0
  6 25  1  0  0  0  0
  7  8  1  0  0  0  0
  7 26  1  0  0  0  0
  8  9  2  0  0  0  0
  8 47  1  0  0  0  0
  9 10  1  0  0  0  0
 10 14  1  0  0  0  0
 10 11  1  0  0  0  0
 11 12  1  0  0  0  0
 11 27  1  0  0  0  0
 11 28  1  0  0  0  0
 12 13  1  0  0  0  0
 12 29  1  0  0  0  0
 12 30  1  0  0  0  0
 13 14  1  0  0  0  0
 13 31  1  0  0  0  0
 13 32  1  0  0  0  0
 14 33  1  0  0  0  0
 14 34  1  0  0  0  0
 15 16  1  0  0  0  0
 15 35  1  0  0  0  0
 16 22  1  0  0  0  0
 16 17  1  0  0  0  0
 16 36  1  0  0  0  0
 17 18  1  0  0  0  0
 17 37  1  0  0  0  0
 17 38  1  0  0  0  0
 18 19  1  0  0  0  0
 18 39  1  0  0  0  0
 18 40  1  0  0  0  0
 19 20  1  0  0  0  0
 19 21  1  0  0  0  0
 19 41  1  0  0  0  0
 20 42  1  0  0  0  0
 21 22  1  0  0  0  0
 21 43  1  0  0  0  0
 21 44  1  0  0  0  0
 22 45  1  0  0  0  0
 22 46  1  0  0  0  0
M  CHG  1   8   1
M  END
> <s_m_source_file>
AV-unprocessed.smi

> <i_m_source_file_index>
1879

> <i_lp_mmshare_version>
43012

> <i_f3d_flags>
0

> <s_epik_input>
W0NIMl0xW0NIMl1bQ0BIXShbT0hdKVtDSDJdW0NIMl1bQ0BIXTFbTkhdQyg9TylbTkhdYzJbY0hdW2NIXVtjSF1uYzJOM1tDSDJdW0NIMl1bQ0gyXVtDSDJdMw==

> <s_epik_cmdline>
J2VwaWtfcHl0aG9uJywgJy1waCcsICc3LjAnLCAnLXRuJywgJzgnLCAnLW1hJywgJzIwMCcsICctbWV0YWxfYmluZGluZycsICctaW1hZScsICc8aW5maWxlLm1hZT4nLCAnLW9tYWUnLCAnPG91dGZpbGUubWFlPic=

> <r_lp_tautomer_probability>
0.999994

> <r_epik_Ionization_Penalty>
1.08454

> <r_epik_Ionization_Penalty_Charging>
1.08452

> <r_epik_Ionization_Penalty_Neutral>
2.17987e-05

> <r_epik_State_Penalty>
1.14025

> <r_epik_Charging_Adjusted_Penalty>
2.22477

> <i_epik_Tot_Q>
1

> <i_epik_Tot_abs_Q>
1

> <r_epik_Metal_State_Penalty>
1.22973

> <b_epik_Metal_Only>
0

> <s_lp_Force_Field>
OPLS_2005

> <r_lp_Energy>
43.9381

> <b_lp_Chiralities_Consistent>
1

> <s_lp_Variant>
AV-unprocessed.smi:1879-3

> <Gold.Version>
5.8.1

> <Gold.Id.Protein>
6NUR|6NUR_protein|mol2

> <Gold.PLP.Fitness>
40.8078

> <Gold.PLP.PLP>
-27.1367

> <Gold.PLP.part.hbond>
-4.0000

> <Gold.PLP.part.metal>
0.0000

> <Gold.PLP.part.buried>
-4.2865

> <Gold.PLP.part.nonpolar>
-20.7005

> <Gold.PLP.part.repulsive>
0.1082

> <Gold.PLP.ligand.clash>
0.0000

> <Gold.PLP.ligand.torsion>
0.7682

> <Gold.PLP.Chemscore.Hbond>
4.9425

> <Gold.PLP.Chemscore.CHOScore>
0.0000

> <Gold.PLP.Chemscore.Metal>
0.0000

> <Gold.Chemscore.Hbonds>
donor molecule, donor type, donor heavy atom, donor atom, acceptor molecule, acceptor atom, score
      L1  H     3    23       P1  7948  0.96
      L1  H     8    47       P1 10957  1.98
      L1  H    15    35       P1  7948  1.00
      L1  H    20    42       P1  8028  1.00

> <Gold.PLP.Chemscore.Internal.Correction>
0.3799

> <Gold.Rescore>
     Score         DG    S(hbond)    S(metal)    S(lipo)     H(rot)  DE(clash)    DE(int)     intcor
     18.23     -20.88       3.78        0.00      60.83       1.69       0.05       2.59       ----

> <Gold.Chemscore.Fitness>
18.2343

> <Gold.Chemscore.DG>
-20.8786

> <Gold.Chemscore.ZeroCoef>
-5.4800

> <Gold.Chemscore.Hbond>
3.7769

> <Gold.Chemscore.Metal>
0.0000

> <Gold.Chemscore.Lipo>
60.8346

> <Gold.Chemscore.Internal_Hbond>
0.0000

> <Gold.Chemscore.DEClash>
0.0526

> <Gold.Chemscore.DEInternal>
2.5917

> <Gold.Chemscore.Rot>
1.6929

> <Gold.Chemscore.Internal.Correction>
   9.000000E+99

> <Gold.Chemscore.Hbonds>
donor molecule, donor type, donor heavy atom, donor atom, acceptor molecule, acceptor atom, score
      L1  H     3    23       P1  7948  0.86
      L1  H     8    47       P1 10957  0.86
      L1  H    15    35       P1  7948  0.99
      L1  H    20    42       P1  8028  1.00

> <Gold.Chemscore.Hbond.Weighted>
-12.6147

> <Gold.Chemscore.Metal.Weighted>
-0.0000

> <Gold.Chemscore.Lipo.Weighted>
-7.1176

> <Gold.Chemscore.Internal_Hbond.Weighted>
0.0000

> <Gold.Chemscore.DEClash.Weighted>
0.0526

> <Gold.Chemscore.DEInternal.Weighted>
2.5917

> <Gold.Chemscore.Rot.Weighted>
4.3338

> <Gold.Chemscore.Internal.Correction.Weighted>
   9.000000E+99

> <Gold.Protein.RotatedTorsions>
[ 6907 6896 6895 6894 ] final  148.23 input  -60.11 | X-H torsion
[ 7974 7965 7964 7962 ] final   81.15 input  175.53 | X-H torsion
[ 8008 7997 7996 7995 ] final  136.84 input   59.86 | X-H torsion
[ 10167 10162 10161 10158 ] final   86.13 input  -65.29 | X-H torsion
[ 10718 10713 10712 10709 ] final  -50.85 input   66.30 | X-H torsion
[ 10763 10752 10751 10750 ] final   62.83 input  -60.55 | X-H torsion
[ 11005 11000 10999 10996 ] final   38.18 input  -57.11 | X-H torsion

> <Gold.Protein.ActiveResidues>
 VAL166  LYS551  ARG553  GLY616  TRP617  ASP618  TYR619  PRO620  LYS621  CYS622 
 ASP623  PHE694  ASN695  SER759  ASP760  ASP761  ALA762  ILE779  LEU786  VAL792 
 PHE793  MET794  SER795  GLU796  ALA797  LYS798  CYS799  TRP800  GLU811  SER814 

> <Gold.Protein.RotatedAtoms>
  152.1442  133.4482  159.4781 H   0  0  0  0  0  0  0  0  0  0  0  0  # atno 6907 bound_to 6896
  150.6889  134.2268  159.4427 H   0  0  0  0  0  0  0  0  0  0  0  0  # atno 6908 bound_to 6896
  152.0160  134.9849  160.0620 H   0  0  0  0  0  0  0  0  0  0  0  0  # atno 6909 bound_to 6896
  145.6419  139.2427  143.2026 H   0  0  0  0  0  0  0  0  0  0  0  0  # atno 7974 bound_to 7965
  156.3003  140.2435  156.3811 H   0  0  0  0  0  0  0  0  0  0  0  0  # atno 8008 bound_to 7997
  154.8700  140.0416  157.1738 H   0  0  0  0  0  0  0  0  0  0  0  0  # atno 8009 bound_to 7997
  154.8805  140.2948  155.5432 H   0  0  0  0  0  0  0  0  0  0  0  0  # atno 8010 bound_to 7997
  139.8906  144.6387  150.8742 H   0  0  0  0  0  0  0  0  0  0  0  0  # atno 10167 bound_to 10162
  156.1763  130.4150  149.9572 H   0  0  0  0  0  0  0  0  0  0  0  0  # atno 10718 bound_to 10713
  152.9996  135.5451  154.6255 H   0  0  0  0  0  0  0  0  0  0  0  0  # atno 10763 bound_to 10752
  154.5545  135.2829  155.0980 H   0  0  0  0  0  0  0  0  0  0  0  0  # atno 10764 bound_to 10752
  154.2206  135.6451  153.5196 H   0  0  0  0  0  0  0  0  0  0  0  0  # atno 10765 bound_to 10752
  140.2151  134.3708  155.8030 H   0  0  0  0  0  0  0  0  0  0  0  0  # atno 11005 bound_to 11000
  146.1274  140.7231  142.9428 LP  0  0  0  0  0  0  0  0  0  0  0  0  # atno 17320 bound_to 7965
  144.7154  140.4191  143.7048 LP  0  0  0  0  0  0  0  0  0  0  0  0  # atno 17321 bound_to 7965
  140.7727  143.3513  151.2009 LP  0  0  0  0  0  0  0  0  0  0  0  0  # atno 17342 bound_to 10162
  139.7113  143.9372  152.2948 LP  0  0  0  0  0  0  0  0  0  0  0  0  # atno 17343 bound_to 10162
  156.7356  130.9060  151.3629 LP  0  0  0  0  0  0  0  0  0  0  0  0  # atno 17370 bound_to 10713
  157.6838  130.9165  150.0334 LP  0  0  0  0  0  0  0  0  0  0  0  0  # atno 17371 bound_to 10713
  141.2225  133.7164  156.8483 LP  0  0  0  0  0  0  0  0  0  0  0  0  # atno 17394 bound_to 11000
  140.1909  134.8966  157.3059 LP  0  0  0  0  0  0  0  0  0  0  0  0  # atno 17395 bound_to 11000

$$$$
