AV-unprocessed.smi:72|AV-procd|sdf|711|dock4
  -GOLD-   2262017 33D 1   1.00000     0.00000
 Structure written by MMmdl.
 28 29  0  0  0  0  0  0  0  0  2 V2000
  151.1401  134.7179  156.6626 N   0  0  0  0  0  0  0  0  0  0  0  0
  151.0748  135.9054  156.2448 C   0  0  0  0  0  0  0  0  0  0  0  0
  149.7946  136.4855  155.9018 N   0  0  0  0  0  0  0  0  0  0  0  0
  149.7788  137.7185  155.4977 C   0  0  0  0  0  0  0  0  0  0  0  0
  150.9969  138.5112  155.4011 N   0  0  0  0  0  0  0  0  0  0  0  0
  150.9692  139.9457  154.9181 C   0  0  2  0  0  0  0  0  0  0  0  0
  151.4287  140.7901  155.9363 O   0  0  0  0  0  0  0  0  0  0  0  0
  150.4942  141.8420  156.1418 C   0  0  2  0  0  0  0  0  0  0  0  0
  150.6121  142.4138  157.5667 C   0  0  0  0  0  0  0  0  0  0  0  0
  149.6303  143.3938  157.8348 O   0  0  0  0  0  0  0  0  0  0  0  0
  149.1448  141.2472  155.7354 C   0  0  1  0  0  0  0  0  0  0  0  0
  148.1795  142.2288  155.4067 O   0  0  0  0  0  0  0  0  0  0  0  0
  149.5297  140.3590  154.5565 C   0  0  1  0  0  0  0  0  0  0  0  0
  149.4996  141.0406  153.3159 O   0  0  0  0  0  0  0  0  0  0  0  0
  152.2435  137.9042  155.7077 C   0  0  0  0  0  0  0  0  0  0  0  0
  153.2669  138.5747  155.5679 O   0  0  0  0  0  0  0  0  0  0  0  0
  152.2537  136.6088  156.1301 N   0  5  0  0  0  0  0  0  0  0  0  0
  151.6707  139.9975  154.0837 H   0  0  0  0  0  0  0  0  0  0  0  0
  150.7635  142.6262  155.4317 H   0  0  0  0  0  0  0  0  0  0  0  0
  148.7498  140.6133  156.5298 H   0  0  0  0  0  0  0  0  0  0  0  0
  148.8763  139.4885  154.4797 H   0  0  0  0  0  0  0  0  0  0  0  0
  152.0881  134.4346  156.8639 H   0  0  0  0  0  0  0  0  0  0  0  0
  148.8622  138.2304  155.2039 H   0  0  0  0  0  0  0  0  0  0  0  0
  150.5432  141.6156  158.3060 H   0  0  0  0  0  0  0  0  0  0  0  0
  151.5890  142.8810  157.6929 H   0  0  0  0  0  0  0  0  0  0  0  0
  149.5726  143.9735  157.0908 H   0  0  0  0  0  0  0  0  0  0  0  0
  148.6025  143.0737  155.4092 H   0  0  0  0  0  0  0  0  0  0  0  0
  149.4075  140.3987  152.6280 H   0  0  0  0  0  0  0  0  0  0  0  0
  1  2  2  0  0  0  0
  1 22  1  0  0  0  0
  2 17  1  0  0  0  0
  2  3  1  0  0  0  0
  3  4  2  0  0  0  0
  4  5  1  0  0  0  0
  4 23  1  0  0  0  0
  5  6  1  0  0  0  0
  5 15  1  0  0  0  0
  6 18  1  0  0  0  0
  6 13  1  0  0  0  0
  6  7  1  0  0  0  0
  7  8  1  0  0  0  0
  8 19  1  0  0  0  0
  8  9  1  0  0  0  0
  8 11  1  0  0  0  0
  9 10  1  0  0  0  0
  9 24  1  0  0  0  0
  9 25  1  0  0  0  0
 10 26  1  0  0  0  0
 11 20  1  0  0  0  0
 11 12  1  0  0  0  0
 11 13  1  0  0  0  0
 12 27  1  0  0  0  0
 13 21  1  0  0  0  0
 13 14  1  0  0  0  0
 14 28  1  0  0  0  0
 15 16  2  0  0  0  0
 15 17  1  0  0  0  0
M  CHG  1  17  -1
M  END
> <s_m_source_file>
AV-unprocessed.smi

> <i_m_source_file_index>
72

> <i_lp_mmshare_version>
43012

> <i_f3d_flags>
0

> <s_epik_input>
W05IMl1jMW5bY0hdbihjKD1PKW4xKVtDQEBIXTJPW0NASF0oW0NIMl1bT0hdKVtDQEBIXShbT0hdKVtDQEhdMltPSF0=

> <s_epik_cmdline>
J2VwaWtfcHl0aG9uJywgJy1waCcsICc3LjAnLCAnLXRuJywgJzgnLCAnLW1hJywgJzIwMCcsICctbWV0YWxfYmluZGluZycsICctaW1hZScsICc8aW5maWxlLm1hZT4nLCAnLW9tYWUnLCAnPG91dGZpbGUubWFlPic=

> <r_lp_tautomer_probability>
7.17554e-07

> <r_epik_Ionization_Penalty>
12.8705

> <r_epik_Ionization_Penalty_Charging>
5.64144

> <r_epik_Ionization_Penalty_Neutral>
7.22905

> <r_epik_State_Penalty>
3.30104

> <r_epik_Charging_Adjusted_Penalty>
8.94249

> <i_epik_Tot_Q>
-1

> <i_epik_Tot_abs_Q>
1

> <r_epik_Metal_State_Penalty>
0.529074

> <b_epik_Metal_Only>
1

> <s_epik_Chemistry_Notes>
This compound contains an acetal/aminal-like group ( X-CH(R)-Y where X, Y are N, S, or O) that may be acid/base labile, releasing an aldehyde.

> <s_lp_Force_Field>
OPLS_2005

> <r_lp_Energy>
37.3105

> <b_lp_Chiralities_Consistent>
1

> <s_lp_Variant>
AV-unprocessed.smi:72-49

> <Gold.Version>
5.8.1

> <Gold.Id.Protein>
6NUR|6NUR_protein|mol2

> <Gold.PLP.Fitness>
46.4110

> <Gold.PLP.PLP>
-25.8440

> <Gold.PLP.part.hbond>
-7.8579

> <Gold.PLP.part.metal>
0.0000

> <Gold.PLP.part.buried>
-1.8018

> <Gold.PLP.part.nonpolar>
-16.8149

> <Gold.PLP.part.repulsive>
0.0788

> <Gold.PLP.ligand.clash>
0.0000

> <Gold.PLP.ligand.torsion>
0.0299

> <Gold.PLP.Chemscore.Hbond>
6.8723

> <Gold.PLP.Chemscore.CHOScore>
0.0000

> <Gold.PLP.Chemscore.Metal>
0.0000

> <Gold.Chemscore.Hbonds>
donor molecule, donor type, donor heavy atom, donor atom, acceptor molecule, acceptor atom, score
      L1  H    10    26       P1  8028  1.00
      L1  H    12    27       P1  8028  1.00
      L1  H    14    28       P1  7957  0.92
      P1  H  7989  7998       L1    14  0.02
      P1  H  7997  8008       L1    16  0.96
      P1  H  8011  8017       L1    14  0.90
      P1  H 10752 10765       L1    17  2.00

> <Gold.PLP.Chemscore.Internal.Correction>
0.0099

> <Gold.Rescore>
     Score         DG    S(hbond)    S(metal)    S(lipo)     H(rot)  DE(clash)    DE(int)     intcor
     10.10     -12.69       4.22        0.00      29.46       4.04       1.35       1.24       ----

> <Gold.Chemscore.Fitness>
10.1023

> <Gold.Chemscore.DG>
-12.6886

> <Gold.Chemscore.ZeroCoef>
-5.4800

> <Gold.Chemscore.Hbond>
4.2230

> <Gold.Chemscore.Metal>
0.0000

> <Gold.Chemscore.Lipo>
29.4615

> <Gold.Chemscore.Internal_Hbond>
0.0000

> <Gold.Chemscore.DEClash>
1.3465

> <Gold.Chemscore.DEInternal>
1.2398

> <Gold.Chemscore.Rot>
4.0403

> <Gold.Chemscore.Internal.Correction>
   9.000000E+99

> <Gold.Chemscore.Hbonds>
donor molecule, donor type, donor heavy atom, donor atom, acceptor molecule, acceptor atom, score
      L1  H    10    26       P1  8028  0.70
      L1  H    12    27       P1  8028  1.00
      L1  H    14    28       P1  7957  0.84
      P1  H  7997  8008       L1    16  0.89
      P1  H  8011  8017       L1    14  0.18
      P1  H 10752 10765       L1    17  0.32

> <Gold.Chemscore.Hbond.Weighted>
-14.1047

> <Gold.Chemscore.Metal.Weighted>
-0.0000

> <Gold.Chemscore.Lipo.Weighted>
-3.4470

> <Gold.Chemscore.Internal_Hbond.Weighted>
0.0000

> <Gold.Chemscore.DEClash.Weighted>
1.3465

> <Gold.Chemscore.DEInternal.Weighted>
1.2398

> <Gold.Chemscore.Rot.Weighted>
10.3431

> <Gold.Chemscore.Internal.Correction.Weighted>
   9.000000E+99

> <Gold.Protein.RotatedTorsions>
[ 6907 6896 6895 6894 ] final    7.05 input  -60.11 | X-H torsion
[ 7974 7965 7964 7962 ] final -111.92 input  175.53 | X-H torsion
[ 8008 7997 7996 7995 ] final  -29.99 input   59.86 | X-H torsion
[ 10167 10162 10161 10158 ] final   66.08 input  -65.29 | X-H torsion
[ 10718 10713 10712 10709 ] final   17.58 input   66.30 | X-H torsion
[ 10763 10752 10751 10750 ] final -137.34 input  -60.55 | X-H torsion
[ 11005 11000 10999 10996 ] final  -44.78 input  -57.11 | X-H torsion

> <Gold.Protein.ActiveResidues>
 VAL166  LYS551  ARG553  GLY616  TRP617  ASP618  TYR619  PRO620  LYS621  CYS622 
 ASP623  PHE694  ASN695  SER759  ASP760  ASP761  ALA762  ILE779  LEU786  VAL792 
 PHE793  MET794  SER795  GLU796  ALA797  LYS798  CYS799  TRP800  GLU811  SER814 

> <Gold.Protein.RotatedAtoms>
  151.6836  135.0958  160.0220 H   0  0  0  0  0  0  0  0  0  0  0  0  # atno 6907 bound_to 6896
  152.3820  133.6555  159.6177 H   0  0  0  0  0  0  0  0  0  0  0  0  # atno 6908 bound_to 6896
  150.7755  133.9014  159.3383 H   0  0  0  0  0  0  0  0  0  0  0  0  # atno 6909 bound_to 6896
  145.1502  140.8825  143.3650 H   0  0  0  0  0  0  0  0  0  0  0  0  # atno 7974 bound_to 7965
  154.4268  140.1803  156.1336 H   0  0  0  0  0  0  0  0  0  0  0  0  # atno 8008 bound_to 7997
  156.0048  140.3356  155.6856 H   0  0  0  0  0  0  0  0  0  0  0  0  # atno 8009 bound_to 7997
  155.6193  140.0658  157.2673 H   0  0  0  0  0  0  0  0  0  0  0  0  # atno 8010 bound_to 7997
  140.1043  144.4876  150.7018 H   0  0  0  0  0  0  0  0  0  0  0  0  # atno 10167 bound_to 10162
  157.0841  130.6400  149.5833 H   0  0  0  0  0  0  0  0  0  0  0  0  # atno 10718 bound_to 10713
  154.8664  135.3645  154.5208 H   0  0  0  0  0  0  0  0  0  0  0  0  # atno 10763 bound_to 10752
  153.5838  135.7017  153.5457 H   0  0  0  0  0  0  0  0  0  0  0  0  # atno 10764 bound_to 10752
  153.3433  135.4092  155.1551 H   0  0  0  0  0  0  0  0  0  0  0  0  # atno 10765 bound_to 10752
  141.0473  133.6756  156.2921 H   0  0  0  0  0  0  0  0  0  0  0  0  # atno 11005 bound_to 11000
  145.0438  139.3237  143.5963 LP  0  0  0  0  0  0  0  0  0  0  0  0  # atno 17320 bound_to 7965
  146.3495  139.9822  142.8694 LP  0  0  0  0  0  0  0  0  0  0  0  0  # atno 17321 bound_to 7965
  140.6961  143.2405  151.4997 LP  0  0  0  0  0  0  0  0  0  0  0  0  # atno 17342 bound_to 10162
  139.5654  144.2055  152.1757 LP  0  0  0  0  0  0  0  0  0  0  0  0  # atno 17343 bound_to 10162
  155.9915  130.4970  150.7304 LP  0  0  0  0  0  0  0  0  0  0  0  0  # atno 17370 bound_to 10713
  157.4776  131.0899  151.0573 LP  0  0  0  0  0  0  0  0  0  0  0  0  # atno 17371 bound_to 10713
  140.6123  134.5446  157.5535 LP  0  0  0  0  0  0  0  0  0  0  0  0  # atno 17394 bound_to 11000
  139.9322  134.7943  156.0900 LP  0  0  0  0  0  0  0  0  0  0  0  0  # atno 17395 bound_to 11000

$$$$
