AV-unprocessed.smi:970|AV-procd|sdf|4294|dock7
  -GOLD-   22720 2203D 1   1.00000     0.00000
 Structure written by MMmdl.
 31 31  0  0  0  0  0  0  0  0  1 V2000
  151.0052  136.8969  154.9269 C   0  0  0  0  0  0  0  0  0  0  0  0
  151.1400  138.3398  155.0526 N   0  0  0  0  0  0  0  0  0  0  0  0
  150.3647  139.1053  155.8338 C   0  0  0  0  0  0  0  0  0  0  0  0
  149.4481  138.6530  156.5222 O   0  0  0  0  0  0  0  0  0  0  0  0
  150.6633  140.6136  155.8200 C   0  0  1  0  0  0  0  0  0  0  0  0
  149.4029  141.3460  155.3300 C   0  0  0  0  0  0  0  0  0  0  0  0
  150.9649  141.0924  157.1676 N   0  0  0  0  0  0  0  0  0  0  0  0
  151.9916  140.6768  157.9277 C   0  0  0  0  0  0  0  0  0  0  0  0
  152.8055  139.8318  157.5526 O   0  0  0  0  0  0  0  0  0  0  0  0
  152.1099  141.3183  159.3186 C   0  0  1  0  0  0  0  0  0  0  0  0
  153.3396  140.8143  160.1014 C   0  0  0  0  0  0  0  0  0  0  0  0
  152.0829  142.7716  159.2039 N   0  0  0  0  0  0  0  0  0  0  0  0
  152.2146  143.7082  160.1461 C   0  0  0  0  0  0  0  0  0  0  0  0
  152.0862  144.9482  159.6955 N   0  0  0  0  0  0  0  0  0  0  0  0
  151.8482  144.6875  158.3761 C   0  0  0  0  0  0  0  0  0  0  0  0
  151.8244  143.4007  158.0301 N   0  0  0  0  0  0  0  0  0  0  0  0
  151.7982  136.5031  154.2914 H   0  0  0  0  0  0  0  0  0  0  0  0
  150.0462  136.6364  154.4773 H   0  0  0  0  0  0  0  0  0  0  0  0
  151.0769  136.4118  155.9014 H   0  0  0  0  0  0  0  0  0  0  0  0
  151.8719  138.7845  154.5176 H   0  0  0  0  0  0  0  0  0  0  0  0
  151.4976  140.8302  155.1497 H   0  0  0  0  0  0  0  0  0  0  0  0
  149.1270  141.0306  154.3228 H   0  0  0  0  0  0  0  0  0  0  0  0
  149.5676  142.4234  155.2974 H   0  0  0  0  0  0  0  0  0  0  0  0
  148.5470  141.1642  155.9819 H   0  0  0  0  0  0  0  0  0  0  0  0
  150.3373  141.7822  157.5542 H   0  0  0  0  0  0  0  0  0  0  0  0
  151.2262  141.0272  159.8892 H   0  0  0  0  0  0  0  0  0  0  0  0
  153.3072  139.7316  160.2270 H   0  0  0  0  0  0  0  0  0  0  0  0
  153.3747  141.2570  161.0971 H   0  0  0  0  0  0  0  0  0  0  0  0
  154.2760  141.0596  159.5985 H   0  0  0  0  0  0  0  0  0  0  0  0
  152.4035  143.4779  161.1844 H   0  0  0  0  0  0  0  0  0  0  0  0
  151.6804  145.4691  157.6497 H   0  0  0  0  0  0  0  0  0  0  0  0
  1  2  1  0  0  0  0
  1 17  1  0  0  0  0
  1 18  1  0  0  0  0
  1 19  1  0  0  0  0
  2  3  1  0  0  0  0
  2 20  1  0  0  0  0
  3  4  2  0  0  0  0
  3  5  1  0  0  0  0
  5  6  1  0  0  0  0
  5  7  1  0  0  0  0
  5 21  1  0  0  0  0
  6 22  1  0  0  0  0
  6 23  1  0  0  0  0
  6 24  1  0  0  0  0
  7  8  1  0  0  0  0
  7 25  1  0  0  0  0
  8  9  2  0  0  0  0
  8 10  1  0  0  0  0
 10 11  1  0  0  0  0
 10 12  1  0  0  0  0
 10 26  1  0  0  0  0
 11 27  1  0  0  0  0
 11 28  1  0  0  0  0
 11 29  1  0  0  0  0
 12 16  1  0  0  0  0
 12 13  1  0  0  0  0
 13 14  2  0  0  0  0
 13 30  1  0  0  0  0
 14 15  1  0  0  0  0
 15 16  2  0  0  0  0
 15 31  1  0  0  0  0
M  END
> <s_m_source_file>
AV-unprocessed.smi

> <i_m_source_file_index>
970

> <i_lp_mmshare_version>
43012

> <i_f3d_flags>
0

> <s_epik_input>
W0NIM11bTkhdQyg9TylbQ0BIXShbQ0gzXSlbTkhdQyg9TylbQ0BIXShbQ0gzXSluMVtjSF1uW2NIXW4x

> <s_epik_cmdline>
J2VwaWtfcHl0aG9uJywgJy1waCcsICc3LjAnLCAnLXRuJywgJzgnLCAnLW1hJywgJzIwMCcsICctbWV0YWxfYmluZGluZycsICctaW1hZScsICc8aW5maWxlLm1hZT4nLCAnLW9tYWUnLCAnPG91dGZpbGUubWFlPic=

> <r_lp_tautomer_probability>
1

> <r_epik_Ionization_Penalty>
1.07271e-05

> <r_epik_Ionization_Penalty_Charging>
0

> <r_epik_Ionization_Penalty_Neutral>
1.07271e-05

> <r_epik_State_Penalty>
-0

> <r_epik_Charging_Adjusted_Penalty>
0

> <i_epik_Tot_Q>
0

> <i_epik_Tot_abs_Q>
0

> <r_epik_Metal_State_Penalty>
-0

> <b_epik_Metal_Only>
0

> <s_lp_Force_Field>
OPLS_2005

> <r_lp_Energy>
8.70478

> <b_lp_Chiralities_Consistent>
1

> <s_lp_Variant>
AV-unprocessed.smi:970-4

> <Gold.Version>
5.8.1

> <Gold.Id.Protein>
6NUR|6NUR_protein|mol2

> <Gold.PLP.Fitness>
32.8551

> <Gold.PLP.PLP>
-30.1879

> <Gold.PLP.part.hbond>
-1.0000

> <Gold.PLP.part.metal>
0.0000

> <Gold.PLP.part.buried>
-4.1281

> <Gold.PLP.part.nonpolar>
-25.5024

> <Gold.PLP.part.repulsive>
0.2962

> <Gold.PLP.ligand.clash>
0.0000

> <Gold.PLP.ligand.torsion>
0.2214

> <Gold.PLP.Chemscore.Hbond>
1.0000

> <Gold.PLP.Chemscore.CHOScore>
0.0000

> <Gold.PLP.Chemscore.Metal>
0.0000

> <Gold.Chemscore.Hbonds>
donor molecule, donor type, donor heavy atom, donor atom, acceptor molecule, acceptor atom, score
      P1  H  7997  8009       L1     9  0.98

> <Gold.PLP.Chemscore.Internal.Correction>
0.1101

> <Gold.Rescore>
     Score         DG    S(hbond)    S(metal)    S(lipo)     H(rot)  DE(clash)    DE(int)     intcor
      4.93      -6.65       1.00        0.00      38.10       2.59       0.04       1.68       ----

> <Gold.Chemscore.Fitness>
4.9282

> <Gold.Chemscore.DG>
-6.6523

> <Gold.Chemscore.ZeroCoef>
-5.4800

> <Gold.Chemscore.Hbond>
0.9977

> <Gold.Chemscore.Metal>
0.0000

> <Gold.Chemscore.Lipo>
38.1032

> <Gold.Chemscore.Internal_Hbond>
0.0000

> <Gold.Chemscore.DEClash>
0.0396

> <Gold.Chemscore.DEInternal>
1.6845

> <Gold.Chemscore.Rot>
2.5852

> <Gold.Chemscore.Internal.Correction>
   9.000000E+99

> <Gold.Chemscore.Hbonds>
donor molecule, donor type, donor heavy atom, donor atom, acceptor molecule, acceptor atom, score
      P1  H  7997  8009       L1     9  0.93

> <Gold.Chemscore.Hbond.Weighted>
-3.3324

> <Gold.Chemscore.Metal.Weighted>
-0.0000

> <Gold.Chemscore.Lipo.Weighted>
-4.4581

> <Gold.Chemscore.Internal_Hbond.Weighted>
0.0000

> <Gold.Chemscore.DEClash.Weighted>
0.0396

> <Gold.Chemscore.DEInternal.Weighted>
1.6845

> <Gold.Chemscore.Rot.Weighted>
6.6182

> <Gold.Chemscore.Internal.Correction.Weighted>
   9.000000E+99

> <Gold.Protein.RotatedTorsions>
[ 6907 6896 6895 6894 ] final  -92.19 input  -60.11 | X-H torsion
[ 7974 7965 7964 7962 ] final  140.17 input  175.53 | X-H torsion
[ 8008 7997 7996 7995 ] final -172.03 input   59.86 | X-H torsion
[ 10167 10162 10161 10158 ] final -177.21 input  -65.29 | X-H torsion
[ 10718 10713 10712 10709 ] final -171.21 input   66.30 | X-H torsion
[ 10763 10752 10751 10750 ] final   96.69 input  -60.55 | X-H torsion
[ 11005 11000 10999 10996 ] final -138.58 input  -57.11 | X-H torsion

> <Gold.Protein.ActiveResidues>
 VAL166  LYS551  ARG553  GLY616  TRP617  ASP618  TYR619  PRO620  LYS621  CYS622 
 ASP623  PHE694  ASN695  SER759  ASP760  ASP761  ALA762  ILE779  LEU786  VAL792 
 PHE793  MET794  SER795  GLU796  ALA797  LYS798  CYS799  TRP800  GLU811  SER814 

> <Gold.Protein.RotatedAtoms>
  150.6902  134.2161  159.4378 H   0  0  0  0  0  0  0  0  0  0  0  0  # atno 6907 bound_to 6896
  152.0120  134.9868  160.0577 H   0  0  0  0  0  0  0  0  0  0  0  0  # atno 6908 bound_to 6896
  152.1479  133.4469  159.4836 H   0  0  0  0  0  0  0  0  0  0  0  0  # atno 6909 bound_to 6896
  144.9211  139.5166  143.5662 H   0  0  0  0  0  0  0  0  0  0  0  0  # atno 7974 bound_to 7965
  155.9392  140.1105  157.1069 H   0  0  0  0  0  0  0  0  0  0  0  0  # atno 8008 bound_to 7997
  154.4086  140.1222  156.4971 H   0  0  0  0  0  0  0  0  0  0  0  0  # atno 8009 bound_to 7997
  155.6983  140.3472  155.4924 H   0  0  0  0  0  0  0  0  0  0  0  0  # atno 8010 bound_to 7997
  139.5491  144.2156  152.1044 H   0  0  0  0  0  0  0  0  0  0  0  0  # atno 10167 bound_to 10162
  156.7375  130.9329  151.3108 H   0  0  0  0  0  0  0  0  0  0  0  0  # atno 10718 bound_to 10713
  153.2679  135.4210  155.0959 H   0  0  0  0  0  0  0  0  0  0  0  0  # atno 10763 bound_to 10752
  154.8445  135.3465  154.6285 H   0  0  0  0  0  0  0  0  0  0  0  0  # atno 10764 bound_to 10752
  153.6705  135.7044  153.5206 H   0  0  0  0  0  0  0  0  0  0  0  0  # atno 10765 bound_to 10752
  140.8602  134.2178  157.4712 H   0  0  0  0  0  0  0  0  0  0  0  0  # atno 11005 bound_to 11000
  146.3205  139.8092  142.8949 LP  0  0  0  0  0  0  0  0  0  0  0  0  # atno 17320 bound_to 7965
  145.3294  141.0263  143.3455 LP  0  0  0  0  0  0  0  0  0  0  0  0  # atno 17321 bound_to 7965
  140.1648  144.4991  150.6612 LP  0  0  0  0  0  0  0  0  0  0  0  0  # atno 17342 bound_to 10162
  140.6749  143.2301  151.5533 LP  0  0  0  0  0  0  0  0  0  0  0  0  # atno 17343 bound_to 10162
  157.6833  130.9161  150.0321 LP  0  0  0  0  0  0  0  0  0  0  0  0  # atno 17370 bound_to 10713
  156.1487  130.3642  149.9471 LP  0  0  0  0  0  0  0  0  0  0  0  0  # atno 17371 bound_to 10713
  139.8706  134.9726  156.4777 LP  0  0  0  0  0  0  0  0  0  0  0  0  # atno 17394 bound_to 11000
  140.8692  133.8001  155.9346 LP  0  0  0  0  0  0  0  0  0  0  0  0  # atno 17395 bound_to 11000

$$$$
