AV-unprocessed.smi:99|AV-procd|sdf|887|dock8
  -GOLD-   2262017373D 1   1.00000     0.00000
 Structure written by MMmdl.
 52 55  0  0  0  0  0  0  0  0  2 V2000
  147.7127  137.4041  160.8274 O   0  0  0  0  0  0  0  0  0  0  0  0
  147.5756  136.2159  160.5280 C   0  0  0  0  0  0  0  0  0  0  0  0
  148.1706  135.6423  159.4646 O   0  0  0  0  0  0  0  0  0  0  0  0
  148.6526  136.4480  158.4022 C   0  0  0  0  0  0  0  0  0  0  0  0
  150.1817  136.3719  158.3638 C   0  0  2  0  0  0  0  0  0  0  0  0
  150.7452  137.5576  158.8982 O   0  0  0  0  0  0  0  0  0  0  0  0
  152.0519  137.6790  158.4314 C   0  0  2  0  0  0  0  0  0  0  0  0
  152.3785  139.1505  158.2989 N   0  0  0  0  0  0  0  0  0  0  0  0
  151.5123  140.0024  157.6350 C   0  0  0  0  0  0  0  0  0  0  0  0
  151.7866  141.3163  157.5003 C   0  0  0  0  0  0  0  0  0  0  0  0
  153.0232  141.8514  158.0633 C   0  0  0  0  0  0  0  0  0  0  0  0
  153.2598  143.0526  157.9470 O   0  0  0  0  0  0  0  0  0  0  0  0
  153.8679  140.9868  158.6970 N   0  5  0  0  0  0  0  0  0  0  0  0
  153.5974  139.6549  158.8275 C   0  0  0  0  0  0  0  0  0  0  0  0
  154.3638  138.8629  159.3771 O   0  0  0  0  0  0  0  0  0  0  0  0
  152.1479  136.9028  157.0980 C   0  0  2  0  0  0  0  0  0  0  0  0
  152.4780  137.6947  155.9710 O   0  0  0  0  0  0  0  0  0  0  0  0
  150.7447  136.3219  156.9434 C   0  0  1  0  0  0  0  0  0  0  0  0
  150.7870  134.9690  156.5054 O   0  0  0  0  0  0  0  0  0  0  0  0
  151.4292  134.0284  157.2301 C   0  0  0  0  0  0  0  0  0  0  0  0
  152.1521  134.2838  158.1950 O   0  0  0  0  0  0  0  0  0  0  0  0
  151.1698  132.6434  156.7419 C   0  0  0  0  0  0  0  0  0  0  0  0
  150.6218  132.4549  155.4515 C   0  0  0  0  0  0  0  0  0  0  0  0
  150.3638  131.1592  154.9637 C   0  0  0  0  0  0  0  0  0  0  0  0
  150.6495  130.0356  155.7609 C   0  0  0  0  0  0  0  0  0  0  0  0
  151.1943  130.2095  157.0465 C   0  0  0  0  0  0  0  0  0  0  0  0
  151.4542  131.5046  157.5357 C   0  0  0  0  0  0  0  0  0  0  0  0
  146.7309  135.2634  161.3049 C   0  0  0  0  0  0  0  0  0  0  0  0
  147.1682  133.9288  161.4741 C   0  0  0  0  0  0  0  0  0  0  0  0
  146.3928  133.0068  162.2036 C   0  0  0  0  0  0  0  0  0  0  0  0
  145.1698  133.4080  162.7721 C   0  0  0  0  0  0  0  0  0  0  0  0
  144.7230  134.7322  162.6097 C   0  0  0  0  0  0  0  0  0  0  0  0
  145.4976  135.6560  161.8813 C   0  0  0  0  0  0  0  0  0  0  0  0
  148.2406  136.0739  157.4638 H   0  0  0  0  0  0  0  0  0  0  0  0
  148.3240  137.4820  158.5179 H   0  0  0  0  0  0  0  0  0  0  0  0
  150.5460  135.5186  158.9398 H   0  0  0  0  0  0  0  0  0  0  0  0
  152.7102  137.2748  159.2020 H   0  0  0  0  0  0  0  0  0  0  0  0
  150.6005  139.6134  157.2067 H   0  0  0  0  0  0  0  0  0  0  0  0
  151.1009  141.9665  156.9770 H   0  0  0  0  0  0  0  0  0  0  0  0
  152.8939  136.1166  157.2237 H   0  0  0  0  0  0  0  0  0  0  0  0
  153.1235  137.2334  155.4574 H   0  0  0  0  0  0  0  0  0  0  0  0
  150.1334  136.9520  156.2944 H   0  0  0  0  0  0  0  0  0  0  0  0
  150.3932  133.3022  154.8210 H   0  0  0  0  0  0  0  0  0  0  0  0
  149.9455  131.0278  153.9765 H   0  0  0  0  0  0  0  0  0  0  0  0
  150.4509  129.0418  155.3871 H   0  0  0  0  0  0  0  0  0  0  0  0
  151.4130  129.3477  157.6598 H   0  0  0  0  0  0  0  0  0  0  0  0
  151.8714  131.6024  158.5273 H   0  0  0  0  0  0  0  0  0  0  0  0
  148.1040  133.5976  161.0467 H   0  0  0  0  0  0  0  0  0  0  0  0
  146.7373  131.9906  162.3268 H   0  0  0  0  0  0  0  0  0  0  0  0
  144.5753  132.7012  163.3318 H   0  0  0  0  0  0  0  0  0  0  0  0
  143.7839  135.0413  163.0443 H   0  0  0  0  0  0  0  0  0  0  0  0
  145.1248  136.6643  161.7755 H   0  0  0  0  0  0  0  0  0  0  0  0
  1  2  2  0  0  0  0
  2  3  1  0  0  0  0
  2 28  1  0  0  0  0
  3  4  1  0  0  0  0
  4  5  1  0  0  0  0
  4 34  1  0  0  0  0
  4 35  1  0  0  0  0
  5 18  1  0  0  0  0
  5  6  1  0  0  0  0
  5 36  1  0  0  0  0
  6  7  1  0  0  0  0
  7  8  1  0  0  0  0
  7 16  1  0  0  0  0
  7 37  1  0  0  0  0
  8 14  1  0  0  0  0
  8  9  1  0  0  0  0
  9 10  2  0  0  0  0
  9 38  1  0  0  0  0
 10 11  1  0  0  0  0
 10 39  1  0  0  0  0
 11 12  2  0  0  0  0
 11 13  1  0  0  0  0
 13 14  1  0  0  0  0
 14 15  2  0  0  0  0
 16 17  1  0  0  0  0
 16 18  1  0  0  0  0
 16 40  1  0  0  0  0
 17 41  1  0  0  0  0
 18 19  1  0  0  0  0
 18 42  1  0  0  0  0
 19 20  1  0  0  0  0
 20 21  2  0  0  0  0
 20 22  1  0  0  0  0
 22 27  1  0  0  0  0
 22 23  2  0  0  0  0
 23 24  1  0  0  0  0
 23 43  1  0  0  0  0
 24 25  2  0  0  0  0
 24 44  1  0  0  0  0
 25 26  1  0  0  0  0
 25 45  1  0  0  0  0
 26 27  2  0  0  0  0
 26 46  1  0  0  0  0
 27 47  1  0  0  0  0
 28 33  1  0  0  0  0
 28 29  2  0  0  0  0
 29 30  1  0  0  0  0
 29 48  1  0  0  0  0
 30 31  2  0  0  0  0
 30 49  1  0  0  0  0
 31 32  1  0  0  0  0
 31 50  1  0  0  0  0
 32 33  2  0  0  0  0
 32 51  1  0  0  0  0
 33 52  1  0  0  0  0
M  CHG  1  13  -1
M  END
> <s_m_source_file>
AV-unprocessed.smi

> <i_m_source_file_index>
99

> <i_lp_mmshare_version>
43012

> <i_f3d_flags>
0

> <s_epik_input>
W2NIXTFbY0hdW2NIXVtjSF1bY0hdYzFDKD1PKU9bQ0gyXVtDQEBIXTJPW0NAQEhdKG4zW2NIXVtjSF1jKD1PKVtuSF1jMz1PKVtDQEBIXShbT0hdKVtDQEhdMk9DKD1PKWM0W2NIXVtjSF1bY0hdW2NIXVtjSF00

> <s_epik_cmdline>
J2VwaWtfcHl0aG9uJywgJy1waCcsICc3LjAnLCAnLXRuJywgJzgnLCAnLW1hJywgJzIwMCcsICctbWV0YWxfYmluZGluZycsICctaW1hZScsICc8aW5maWxlLm1hZT4nLCAnLW9tYWUnLCAnPG91dGZpbGUubWFlPic=

> <r_lp_tautomer_probability>
1

> <r_epik_Ionization_Penalty>
2.89159

> <r_epik_Ionization_Penalty_Charging>
2.1077e-08

> <r_epik_Ionization_Penalty_Neutral>
2.89159

> <r_epik_State_Penalty>
2.88671

> <r_epik_Charging_Adjusted_Penalty>
2.88671

> <i_epik_Tot_Q>
-1

> <i_epik_Tot_abs_Q>
1

> <r_epik_Metal_State_Penalty>
0.0727308

> <b_epik_Metal_Only>
1

> <s_epik_Chemistry_Notes>
This compound has an ester and may undergo hydrolysis at high or low pH. This compound contains an acetal/aminal-like group ( X-CH(R)-Y where X, Y are N, S, or O) that may be acid/base labile, releasing an aldehyde.

> <s_lp_Force_Field>
OPLS_2005

> <r_lp_Energy>
47.3257

> <b_lp_Chiralities_Consistent>
1

> <s_lp_Variant>
AV-unprocessed.smi:99-23

> <Gold.Version>
5.8.1

> <Gold.Id.Protein>
6NUR|6NUR_protein|mol2

> <Gold.PLP.Fitness>
53.1556

> <Gold.PLP.PLP>
-52.0085

> <Gold.PLP.part.hbond>
-3.6307

> <Gold.PLP.part.metal>
0.0000

> <Gold.PLP.part.buried>
-8.2975

> <Gold.PLP.part.nonpolar>
-39.8037

> <Gold.PLP.part.repulsive>
0.0283

> <Gold.PLP.ligand.clash>
0.0000

> <Gold.PLP.ligand.torsion>
2.2280

> <Gold.PLP.Chemscore.Hbond>
1.7040

> <Gold.PLP.Chemscore.CHOScore>
0.0000

> <Gold.PLP.Chemscore.Metal>
0.0000

> <Gold.Chemscore.Hbonds>
donor molecule, donor type, donor heavy atom, donor atom, acceptor molecule, acceptor atom, score
      P1  H  6931  6943       L1     1  0.74
      P1  H  6934  6947       L1     1  0.86

> <Gold.PLP.Chemscore.Internal.Correction>
0.4910

> <Gold.Rescore>
     Score         DG    S(hbond)    S(metal)    S(lipo)     H(rot)  DE(clash)    DE(int)     intcor
      9.35     -15.16       1.70        0.00     102.71       3.13       0.06       5.75       ----

> <Gold.Chemscore.Fitness>
9.3511

> <Gold.Chemscore.DG>
-15.1625

> <Gold.Chemscore.ZeroCoef>
-5.4800

> <Gold.Chemscore.Hbond>
1.7035

> <Gold.Chemscore.Metal>
0.0000

> <Gold.Chemscore.Lipo>
102.7108

> <Gold.Chemscore.Internal_Hbond>
0.0000

> <Gold.Chemscore.DEClash>
0.0593

> <Gold.Chemscore.DEInternal>
5.7521

> <Gold.Chemscore.Rot>
3.1346

> <Gold.Chemscore.Internal.Correction>
   9.000000E+99

> <Gold.Chemscore.Hbonds>
donor molecule, donor type, donor heavy atom, donor atom, acceptor molecule, acceptor atom, score
      P1  H  6931  6943       L1     1  0.74
      P1  H  6934  6947       L1     1  0.85

> <Gold.Chemscore.Hbond.Weighted>
-5.6898

> <Gold.Chemscore.Metal.Weighted>
-0.0000

> <Gold.Chemscore.Lipo.Weighted>
-12.0172

> <Gold.Chemscore.Internal_Hbond.Weighted>
0.0000

> <Gold.Chemscore.DEClash.Weighted>
0.0593

> <Gold.Chemscore.DEInternal.Weighted>
5.7521

> <Gold.Chemscore.Rot.Weighted>
8.0246

> <Gold.Chemscore.Internal.Correction.Weighted>
   9.000000E+99

> <Gold.Protein.RotatedTorsions>
[ 6907 6896 6895 6894 ] final -161.73 input  -60.11 | X-H torsion
[ 7974 7965 7964 7962 ] final  -38.81 input  175.53 | X-H torsion
[ 8008 7997 7996 7995 ] final -121.76 input   59.86 | X-H torsion
[ 10167 10162 10161 10158 ] final   64.09 input  -65.29 | X-H torsion
[ 10718 10713 10712 10709 ] final  -21.66 input   66.30 | X-H torsion
[ 10763 10752 10751 10750 ] final  -70.90 input  -60.55 | X-H torsion
[ 11005 11000 10999 10996 ] final  104.29 input  -57.11 | X-H torsion

> <Gold.Protein.ActiveResidues>
 VAL166  LYS551  ARG553  GLY616  TRP617  ASP618  TYR619  PRO620  LYS621  CYS622 
 ASP623  PHE694  ASN695  SER759  ASP760  ASP761  ALA762  ILE779  LEU786  VAL792 
 PHE793  MET794  SER795  GLU796  ALA797  LYS798  CYS799  TRP800  GLU811  SER814 

> <Gold.Protein.RotatedAtoms>
  151.3692  133.3861  159.2697 H   0  0  0  0  0  0  0  0  0  0  0  0  # atno 6907 bound_to 6896
  150.9664  134.9045  159.7772 H   0  0  0  0  0  0  0  0  0  0  0  0  # atno 6908 bound_to 6896
  152.5169  134.3652  159.9351 H   0  0  0  0  0  0  0  0  0  0  0  0  # atno 6909 bound_to 6896
  146.0453  140.6555  142.9068 H   0  0  0  0  0  0  0  0  0  0  0  0  # atno 7974 bound_to 7965
  155.1533  140.0404  157.2826 H   0  0  0  0  0  0  0  0  0  0  0  0  # atno 8008 bound_to 7997
  154.6389  140.2542  155.7319 H   0  0  0  0  0  0  0  0  0  0  0  0  # atno 8009 bound_to 7997
  156.2522  140.2860  156.0773 H   0  0  0  0  0  0  0  0  0  0  0  0  # atno 8010 bound_to 7997
  140.1259  144.4688  150.6893 H   0  0  0  0  0  0  0  0  0  0  0  0  # atno 10167 bound_to 10162
  156.5151  130.4619  149.6627 H   0  0  0  0  0  0  0  0  0  0  0  0  # atno 10718 bound_to 10713
  154.4241  135.5979  153.6028 H   0  0  0  0  0  0  0  0  0  0  0  0  # atno 10763 bound_to 10752
  152.9795  135.5959  154.3919 H   0  0  0  0  0  0  0  0  0  0  0  0  # atno 10764 bound_to 10752
  154.3748  135.2841  155.2224 H   0  0  0  0  0  0  0  0  0  0  0  0  # atno 10765 bound_to 10752
  139.8790  134.9295  156.5339 H   0  0  0  0  0  0  0  0  0  0  0  0  # atno 11005 bound_to 11000
  144.7094  140.3982  143.7092 LP  0  0  0  0  0  0  0  0  0  0  0  0  # atno 17320 bound_to 7965
  145.6816  139.1620  143.2697 LP  0  0  0  0  0  0  0  0  0  0  0  0  # atno 17321 bound_to 7965
  140.6845  143.2343  151.5297 LP  0  0  0  0  0  0  0  0  0  0  0  0  # atno 17342 bound_to 10162
  139.5544  144.2312  152.1587 LP  0  0  0  0  0  0  0  0  0  0  0  0  # atno 17343 bound_to 10162
  156.3203  130.7277  151.2187 LP  0  0  0  0  0  0  0  0  0  0  0  0  # atno 17370 bound_to 10713
  157.7445  131.0457  150.4858 LP  0  0  0  0  0  0  0  0  0  0  0  0  # atno 17371 bound_to 10713
  140.8360  133.8242  155.9029 LP  0  0  0  0  0  0  0  0  0  0  0  0  # atno 17394 bound_to 11000
  140.9283  134.2054  157.4881 LP  0  0  0  0  0  0  0  0  0  0  0  0  # atno 17395 bound_to 11000

$$$$
