AV-unprocessed.smi:777|AV-procd|sdf|3702|dock7
  -GOLD-   22720 1123D 1   1.00000     0.00000
 Structure written by MMmdl.
 37 38  0  0  0  0  0  0  0  0  2 V2000
  152.3973  138.5466  154.4037 C   0  0  0  0  0  0  0  0  0  0  0  0
  150.9108  138.1394  154.3322 C   0  0  1  0  0  0  0  0  0  0  0  0
  150.5186  137.0850  155.3809 C   0  0  0  0  0  0  0  0  0  0  0  0
  150.7543  137.2775  156.5733 O   0  0  0  0  0  0  0  0  0  0  0  0
  149.9225  135.9839  154.8859 N   0  0  0  0  0  0  0  0  0  0  0  0
  149.2513  134.8440  155.5316 C   0  0  0  0  0  0  0  0  0  0  0  0
  149.9895  134.6278  156.8754 C   0  0  0  0  0  0  0  0  0  0  0  0
  149.3164  134.6727  157.9295 O   0  0  0  0  0  0  0  0  0  0  0  0
  151.2299  134.4604  156.8402 O   0  5  0  0  0  0  0  0  0  0  0  0
  147.7140  134.9968  155.7761 C   0  0  0  0  0  0  0  0  0  0  0  0
  146.8706  134.9829  154.4849 C   0  0  0  0  0  0  0  0  0  0  0  0
  147.1586  133.7381  153.6384 C   0  0  0  0  0  0  0  0  0  0  0  0
  148.6560  133.6276  153.3310 C   0  0  0  0  0  0  0  0  0  0  0  0
  149.4872  133.6006  154.6256 C   0  0  0  0  0  0  0  0  0  0  0  0
  150.0211  139.2929  154.4228 N   0  0  0  0  0  0  0  0  0  0  0  0
  148.6455  139.3132  154.3073 C   0  0  0  0  0  0  0  0  0  0  0  0
  148.2339  140.5980  154.5161 C   0  0  0  0  0  0  0  0  0  0  0  0
  149.4430  141.3026  154.7693 C   0  0  0  0  0  0  0  0  0  0  0  0
  150.5083  140.5204  154.7198 N   0  0  0  0  0  0  0  0  0  0  0  0
  153.0489  137.6834  154.2632 H   0  0  0  0  0  0  0  0  0  0  0  0
  152.6522  139.0001  155.3625 H   0  0  0  0  0  0  0  0  0  0  0  0
  152.6404  139.2676  153.6228 H   0  0  0  0  0  0  0  0  0  0  0  0
  150.7483  137.6855  153.3532 H   0  0  0  0  0  0  0  0  0  0  0  0
  149.8601  135.9588  153.8790 H   0  0  0  0  0  0  0  0  0  0  0  0
  147.3745  134.1638  156.3940 H   0  0  0  0  0  0  0  0  0  0  0  0
  147.4837  135.8869  156.3611 H   0  0  0  0  0  0  0  0  0  0  0  0
  145.8112  135.0185  154.7394 H   0  0  0  0  0  0  0  0  0  0  0  0
  147.0677  135.8737  153.8896 H   0  0  0  0  0  0  0  0  0  0  0  0
  146.8254  132.8459  154.1701 H   0  0  0  0  0  0  0  0  0  0  0  0
  146.5884  133.7791  152.7099 H   0  0  0  0  0  0  0  0  0  0  0  0
  148.8472  132.7241  152.7517 H   0  0  0  0  0  0  0  0  0  0  0  0
  148.9676  134.4657  152.7059 H   0  0  0  0  0  0  0  0  0  0  0  0
  150.5417  133.5104  154.3590 H   0  0  0  0  0  0  0  0  0  0  0  0
  149.2385  132.6910  155.1757 H   0  0  0  0  0  0  0  0  0  0  0  0
  148.0796  138.4187  154.0927 H   0  0  0  0  0  0  0  0  0  0  0  0
  147.2222  140.9752  154.4986 H   0  0  0  0  0  0  0  0  0  0  0  0
  149.5770  142.3509  154.9913 H   0  0  0  0  0  0  0  0  0  0  0  0
  1  2  1  0  0  0  0
  1 20  1  0  0  0  0
  1 21  1  0  0  0  0
  1 22  1  0  0  0  0
  2  3  1  0  0  0  0
  2 15  1  0  0  0  0
  2 23  1  0  0  0  0
  3  4  2  0  0  0  0
  3  5  1  0  0  0  0
  5  6  1  0  0  0  0
  5 24  1  0  0  0  0
  6 14  1  0  0  0  0
  6  7  1  0  0  0  0
  6 10  1  0  0  0  0
  7  8  2  0  0  0  0
  7  9  1  0  0  0  0
 10 11  1  0  0  0  0
 10 25  1  0  0  0  0
 10 26  1  0  0  0  0
 11 12  1  0  0  0  0
 11 27  1  0  0  0  0
 11 28  1  0  0  0  0
 12 13  1  0  0  0  0
 12 29  1  0  0  0  0
 12 30  1  0  0  0  0
 13 14  1  0  0  0  0
 13 31  1  0  0  0  0
 13 32  1  0  0  0  0
 14 33  1  0  0  0  0
 14 34  1  0  0  0  0
 15 19  1  0  0  0  0
 15 16  1  0  0  0  0
 16 17  2  0  0  0  0
 16 35  1  0  0  0  0
 17 18  1  0  0  0  0
 17 36  1  0  0  0  0
 18 19  2  0  0  0  0
 18 37  1  0  0  0  0
M  CHG  1   9  -1
M  END
> <s_m_source_file>
AV-unprocessed.smi

> <i_m_source_file_index>
777

> <i_lp_mmshare_version>
43012

> <i_f3d_flags>
0

> <s_epik_input>
bjFbY0hdW2NIXVtjSF1uMVtDQEhdKFtDSDNdKUMoPU8pW05IXUMyKEMoPU8pW09IXSlbQ0gyXVtDSDJdW0NIMl1bQ0gyXVtDSDJdMg==

> <s_epik_cmdline>
J2VwaWtfcHl0aG9uJywgJy1waCcsICc3LjAnLCAnLXRuJywgJzgnLCAnLW1hJywgJzIwMCcsICctbWV0YWxfYmluZGluZycsICctaW1hZScsICc8aW5maWxlLm1hZT4nLCAnLW9tYWUnLCAnPG91dGZpbGUubWFlPic=

> <r_lp_tautomer_probability>
1

> <r_epik_Ionization_Penalty>
0.000371068

> <r_epik_Ionization_Penalty_Charging>
0.000323848

> <r_epik_Ionization_Penalty_Neutral>
4.72198e-05

> <r_epik_State_Penalty>
0.000195685

> <r_epik_Charging_Adjusted_Penalty>
0.000519533

> <i_epik_Tot_Q>
-1

> <i_epik_Tot_abs_Q>
1

> <r_epik_Metal_State_Penalty>
-0

> <b_epik_Metal_Only>
0

> <s_lp_Force_Field>
OPLS_2005

> <r_lp_Energy>
12.5044

> <b_lp_Chiralities_Consistent>
1

> <s_lp_Variant>
AV-unprocessed.smi:777-2

> <Gold.Version>
5.8.1

> <Gold.Id.Protein>
6NUR|6NUR_protein|mol2

> <Gold.PLP.Fitness>
41.8156

> <Gold.PLP.PLP>
-30.0728

> <Gold.PLP.part.hbond>
-3.3624

> <Gold.PLP.part.metal>
0.0000

> <Gold.PLP.part.buried>
-3.3205

> <Gold.PLP.part.nonpolar>
-23.2009

> <Gold.PLP.part.repulsive>
0.1505

> <Gold.PLP.ligand.clash>
0.0000

> <Gold.PLP.ligand.torsion>
0.8128

> <Gold.PLP.Chemscore.Hbond>
3.5200

> <Gold.PLP.Chemscore.CHOScore>
0.8777

> <Gold.PLP.Chemscore.Metal>
0.0000

> <Gold.Chemscore.Hbonds>
donor molecule, donor type, donor heavy atom, donor atom, acceptor molecule, acceptor atom, score
      L1  H     5    24       P1  7948  0.54
      P1  H  6896  6909       L1     8  1.92
      P1  H  7989  7998       L1    19  1.00
      L1  C    18    37       P1  8028  0.95

> <Gold.PLP.Chemscore.Internal.Correction>
0.1755

> <Gold.Rescore>
     Score         DG    S(hbond)    S(metal)    S(lipo)     H(rot)  DE(clash)    DE(int)     intcor
     11.08     -14.42       2.24        0.00      55.77       1.98       1.40       1.94       ----

> <Gold.Chemscore.Fitness>
11.0844

> <Gold.Chemscore.DG>
-14.4189

> <Gold.Chemscore.ZeroCoef>
-5.4800

> <Gold.Chemscore.Hbond>
2.2381

> <Gold.Chemscore.Metal>
0.0000

> <Gold.Chemscore.Lipo>
55.7744

> <Gold.Chemscore.Internal_Hbond>
0.0000

> <Gold.Chemscore.DEClash>
1.3953

> <Gold.Chemscore.DEInternal>
1.9392

> <Gold.Chemscore.Rot>
1.9774

> <Gold.Chemscore.Internal.Correction>
   9.000000E+99

> <Gold.Chemscore.Hbonds>
donor molecule, donor type, donor heavy atom, donor atom, acceptor molecule, acceptor atom, score
      L1  H     5    24       P1  7948  0.11
      P1  H  6896  6909       L1     8  0.31
      P1  H  7989  7998       L1    19  0.47

> <Gold.Chemscore.Hbond.Weighted>
-7.4753

> <Gold.Chemscore.Metal.Weighted>
-0.0000

> <Gold.Chemscore.Lipo.Weighted>
-6.5256

> <Gold.Chemscore.Internal_Hbond.Weighted>
0.0000

> <Gold.Chemscore.DEClash.Weighted>
1.3953

> <Gold.Chemscore.DEInternal.Weighted>
1.9392

> <Gold.Chemscore.Rot.Weighted>
5.0620

> <Gold.Chemscore.Internal.Correction.Weighted>
   9.000000E+99

> <Gold.Protein.RotatedTorsions>
[ 6907 6896 6895 6894 ] final   15.71 input  -60.11 | X-H torsion
[ 7974 7965 7964 7962 ] final  152.78 input  175.53 | X-H torsion
[ 8008 7997 7996 7995 ] final  -17.40 input   59.86 | X-H torsion
[ 10167 10162 10161 10158 ] final  -83.68 input  -65.29 | X-H torsion
[ 10718 10713 10712 10709 ] final -124.73 input   66.30 | X-H torsion
[ 10763 10752 10751 10750 ] final  140.53 input  -60.55 | X-H torsion
[ 11005 11000 10999 10996 ] final  -95.86 input  -57.11 | X-H torsion

> <Gold.Protein.ActiveResidues>
 VAL166  LYS551  ARG553  GLY616  TRP617  ASP618  TYR619  PRO620  LYS621  CYS622 
 ASP623  PHE694  ASN695  SER759  ASP760  ASP761  ALA762  ILE779  LEU786  VAL792 
 PHE793  MET794  SER795  GLU796  ALA797  LYS798  CYS799  TRP800  GLU811  SER814 

> <Gold.Protein.RotatedAtoms>
  151.8224  135.0647  160.0426 H   0  0  0  0  0  0  0  0  0  0  0  0  # atno 6907 bound_to 6896
  152.2941  133.5585  159.5584 H   0  0  0  0  0  0  0  0  0  0  0  0  # atno 6908 bound_to 6896
  150.7243  134.0303  159.3773 H   0  0  0  0  0  0  0  0  0  0  0  0  # atno 6909 bound_to 6896
  144.8199  139.6713  143.6105 H   0  0  0  0  0  0  0  0  0  0  0  0  # atno 7974 bound_to 7965
  154.4981  140.2143  155.9404 H   0  0  0  0  0  0  0  0  0  0  0  0  # atno 8008 bound_to 7997
  156.1397  140.3182  155.8444 H   0  0  0  0  0  0  0  0  0  0  0  0  # atno 8009 bound_to 7997
  155.4143  140.0492  157.3020 H   0  0  0  0  0  0  0  0  0  0  0  0  # atno 8010 bound_to 7997
  140.4204  143.2587  151.8897 H   0  0  0  0  0  0  0  0  0  0  0  0  # atno 10167 bound_to 10162
  156.1613  130.6604  151.0054 H   0  0  0  0  0  0  0  0  0  0  0  0  # atno 10718 bound_to 10713
  153.9242  135.2997  155.3447 H   0  0  0  0  0  0  0  0  0  0  0  0  # atno 10763 bound_to 10752
  154.7560  135.4957  153.9379 H   0  0  0  0  0  0  0  0  0  0  0  0  # atno 10764 bound_to 10752
  153.1126  135.6763  153.9578 H   0  0  0  0  0  0  0  0  0  0  0  0  # atno 10765 bound_to 10752
  141.1429  133.8056  157.0493 H   0  0  0  0  0  0  0  0  0  0  0  0  # atno 11005 bound_to 11000
  146.2504  139.6188  142.9431 LP  0  0  0  0  0  0  0  0  0  0  0  0  # atno 17320 bound_to 7965
  145.5128  141.0435  143.2478 LP  0  0  0  0  0  0  0  0  0  0  0  0  # atno 17321 bound_to 7965
  139.4782  144.5443  151.8481 LP  0  0  0  0  0  0  0  0  0  0  0  0  # atno 17342 bound_to 10162
  140.4540  144.1816  150.5900 LP  0  0  0  0  0  0  0  0  0  0  0  0  # atno 17343 bound_to 10162
  157.6735  131.0856  150.7554 LP  0  0  0  0  0  0  0  0  0  0  0  0  # atno 17370 bound_to 10713
  156.7616  130.4800  149.5436 LP  0  0  0  0  0  0  0  0  0  0  0  0  # atno 17371 bound_to 10713
  140.0642  134.9738  157.1357 LP  0  0  0  0  0  0  0  0  0  0  0  0  # atno 17394 bound_to 11000
  140.3804  134.2293  155.7171 LP  0  0  0  0  0  0  0  0  0  0  0  0  # atno 17395 bound_to 11000

$$$$
