#       Name:                AV-unprocessed.smi:21
#       Creating user name   scv26
#       Creation time:       Thu Mar 26 15:39:07 2020


#       File generated by GOLD software.
#

@<TRIPOS>MOLECULE
AV-unprocessed.smi:21
    71    74     1
SMALL
NO_CHARGES


@<TRIPOS>ATOM
      1 ****        -3.4015   0.2169  -6.0160 C.3            1 S1                 0.0000
      2 ****        -3.0573  -0.8106  -5.1004 O.3            1 S1                 0.0000
      3 ****        -3.8393  -0.7950  -3.9146 C.3            1 S1                 0.0000
      4 ****        -3.4109   0.3047  -2.9252 C.3            1 S1                 0.0000
      5 ****        -2.9861  -0.4551  -1.6583 C.3            1 S1                 0.0000
      6 ****        -3.2201   0.3409  -0.3546 C.3            1 S1                 0.0000
      7 ****        -2.4182   1.5620  -0.2747 N.pl3          1 S1                 0.0000
      8 ****        -3.0403   2.8163  -0.6965 C.3            1 S1                 0.0000
      9 ****        -1.0553   1.4918  -0.2101 C.ar           1 S1                 0.0000
     10 ****        -0.3324   2.5522  -0.6638 N.ar           1 S1                 0.0000
     11 ****         1.0021   2.5373  -0.6405 C.ar           1 S1                 0.0000
     12 ****         1.8158   1.5765  -0.2055 N.ar           1 S1                 0.0000
     13 ****         1.1101   0.5098   0.2643 C.ar           1 S1                 0.0000
     14 ****        -0.3105   0.3821   0.3009 C.ar           1 S1                 0.0000
     15 ****        -0.6426  -0.8493   0.8584 N.2            1 S1                 0.0000
     16 ****         0.5022  -1.4126   1.1259 C.2            1 S1                 0.0000
     17 ****         1.6081  -0.6608   0.8097 N.pl3          1 S1                 0.0000
     18 ****         2.9961  -1.0416   1.0099 C.3            1 S1                 0.0000
     19 ****         3.4160  -1.0433   2.5000 C.3            1 S1                 0.0000
     20 ****         4.8541  -1.5892   2.6627 C.3            1 S1                 0.0000
     21 ****         4.8924  -2.9740   2.3871 O.3            1 S1                 0.0000
     22 ****         3.1938   0.3349   3.1848 C.3            1 S1                 0.0000
     23 ****         4.1030   1.4666   2.7117 C.3            1 S1                 0.0000
     24 ****         4.2567   2.3184   3.9639 C.3            1 S1                 0.0000
     25 ****         4.3403   1.3439   4.9891 O.3            1 S1                 0.0000
     26 ****         3.3689   0.3423   4.7145 C.3            1 S1                 0.0000
     27 ****        -3.6935  -1.7231  -1.7280 N.3            1 S1                 0.0000
     28 ****        -3.1384  -2.7525  -0.8590 C.3            1 S1                 0.0000
     29 ****        -3.6098  -2.0881  -3.1284 C.3            1 S1                 0.0000
     30 ****        -4.9016  -0.7013  -4.1481 H              1 S1                 0.0000
     31 ****        -1.9194  -0.6645  -1.7543 H              1 S1                 0.0000
     32 ****        -2.7654   0.1468  -6.8982 H              1 S1                 0.0000
     33 ****        -3.2628   1.2076  -5.5826 H              1 S1                 0.0000
     34 ****        -4.4378   0.1216  -6.3423 H              1 S1                 0.0000
     35 ****        -2.5932   0.9206  -3.3011 H              1 S1                 0.0000
     36 ****        -4.2568   0.9634  -2.7244 H              1 S1                 0.0000
     37 ****        -4.2762   0.6038  -0.2867 H              1 S1                 0.0000
     38 ****        -3.0371  -0.2702   0.5263 H              1 S1                 0.0000
     39 ****        -2.7108   3.6427  -0.0656 H              1 S1                 0.0000
     40 ****        -4.1265   2.7628  -0.6232 H              1 S1                 0.0000
     41 ****        -2.7859   3.0461  -1.7318 H              1 S1                 0.0000
     42 ****         1.4867   3.4220  -1.0265 H              1 S1                 0.0000
     43 ****         0.5721  -2.3943   1.5716 H              1 S1                 0.0000
     44 ****         3.1298  -2.0324   0.5745 H              1 S1                 0.0000
     45 ****         3.6338  -0.3679   0.4366 H              1 S1                 0.0000
     46 ****         2.7546  -1.7404   3.0172 H              1 S1                 0.0000
     47 ****         5.5492  -1.0813   1.9941 H              1 S1                 0.0000
     48 ****         5.2259  -1.4445   3.6764 H              1 S1                 0.0000
     49 ****         5.7770  -3.2817   2.5145 H              1 S1                 0.0000
     50 ****         2.1649   0.6498   3.0070 H              1 S1                 0.0000
     51 ****         5.0831   1.0987   2.4115 H              1 S1                 0.0000
     52 ****         3.6862   2.0250   1.8738 H              1 S1                 0.0000
     53 ****         5.1418   2.9542   3.9374 H              1 S1                 0.0000
     54 ****         3.3793   2.9478   4.1222 H              1 S1                 0.0000
     55 ****         2.4310   0.6136   5.2014 H              1 S1                 0.0000
     56 ****         3.6814  -0.6170   5.1262 H              1 S1                 0.0000
     57 ****        -3.6721  -3.6940  -0.9920 H              1 S1                 0.0000
     58 ****        -3.2275  -2.4700   0.1897 H              1 S1                 0.0000
     59 ****        -2.0835  -2.9275  -1.0749 H              1 S1                 0.0000
     60 ****        -4.3300  -2.8649  -3.3873 H              1 S1                 0.0000
     61 ****        -2.6130  -2.4742  -3.3500 H              1 S1                 0.0000
     62 ****        -2.0960  -0.7010  -4.8476 LP             1 S1                 0.0000
     63 ****        -3.1845  -1.6936  -5.5523 LP             1 S1                 0.0000
     64 ****        -0.8090   3.3557  -1.0205 LP             1 S1                 0.0000
     65 ****         2.8142   1.6309  -0.2216 LP             1 S1                 0.0000
     66 ****        -1.5575  -1.2201   1.0184 LP             1 S1                 0.0000
     67 ****         4.6116  -3.1374   1.4414 LP             1 S1                 0.0000
     68 ****         4.2745  -3.4582   3.0066 LP             1 S1                 0.0000
     69 ****         4.1529   1.7659   5.8761 LP             1 S1                 0.0000
     70 ****         5.2542   0.9381   4.9995 LP             1 S1                 0.0000
     71 ****        -4.6344  -1.6357  -1.4009 LP             1 S1                 0.0000
@<TRIPOS>BOND
    1    1    2 1     
    2    1   32 1     
    3    1   33 1     
    4    1   34 1     
    5    2    3 1     
    6    3   30 1     
    7    3   29 1     
    8    3    4 1     
    9    4    5 1     
   10    4   35 1     
   11    4   36 1     
   12    5   31 1     
   13    5    6 1     
   14    5   27 1     
   15    6    7 1     
   16    6   37 1     
   17    6   38 1     
   18    7    8 1     
   19    7    9 1     
   20    8   39 1     
   21    8   40 1     
   22    8   41 1     
   23    9   14 ar    
   24    9   10 ar    
   25   10   11 ar    
   26   11   12 ar    
   27   11   42 1     
   28   12   13 ar    
   29   13   17 1     
   30   13   14 ar    
   31   14   15 1     
   32   15   16 2     
   33   16   17 1     
   34   16   43 1     
   35   17   18 1     
   36   18   19 1     
   37   18   44 1     
   38   18   45 1     
   39   19   20 1     
   40   19   22 1     
   41   19   46 1     
   42   20   21 1     
   43   20   47 1     
   44   20   48 1     
   45   21   49 1     
   46   22   26 1     
   47   22   23 1     
   48   22   50 1     
   49   23   24 1     
   50   23   51 1     
   51   23   52 1     
   52   24   25 1     
   53   24   53 1     
   54   24   54 1     
   55   25   26 1     
   56   26   55 1     
   57   26   56 1     
   58   27   28 1     
   59   27   29 1     
   60   28   57 1     
   61   28   58 1     
   62   28   59 1     
   63   29   60 1     
   64   29   61 1     
   65    2   62 1     
   66    2   63 1     
   67   10   64 1     
   68   12   65 1     
   69   15   66 1     
   70   21   67 1     
   71   21   68 1     
   72   25   69 1     
   73   25   70 1     
   74   27   71 1     
@<TRIPOS>SUBSTRUCTURE
      1 S1             1
@<TRIPOS>SET
LONE_PAIRS      STATIC     ATOMS    <user>   **** ""
10 62 63 64 65 66 67 68 69 70 71
DONOR_HYDROGENS      STATIC     ATOMS    <user>   **** ""
1 49
ATOM$BLUE        STATIC     ATOMS    COLORGROUP SYSTEM
10 62 63 64 65 66 67 68 69 70 71
ATOM$RED        STATIC     ATOMS    COLORGROUP SYSTEM
1 49
