AV-unprocessed.smi:499|AV-procd|sdf|2733|dock7
  -GOLD-   2262023183D 1   1.00000     0.00000
 Structure written by MMmdl.
 36 37  0  0  0  0  0  0  0  0  1 V2000
  146.2757  141.4261  157.4658 C   0  0  0  0  0  0  0  0  0  0  0  0
  146.6833  141.5815  155.9869 C   0  0  2  0  0  0  0  0  0  0  0  0
  146.4619  140.2810  155.3279 C   0  0  0  0  0  0  0  0  0  0  0  0
  146.2898  139.2587  154.8129 N   0  0  0  0  0  0  0  0  0  0  0  0
  148.1163  141.8740  155.8975 N   0  0  0  0  0  0  0  0  0  0  0  0
  149.1463  141.0956  156.2702 C   0  0  0  0  0  0  0  0  0  0  0  0
  149.0127  139.9629  156.7335 O   0  0  0  0  0  0  0  0  0  0  0  0
  150.5446  141.6941  156.0618 C   0  0  0  0  0  0  0  0  0  0  0  0
  151.2524  141.9666  157.3239 N   0  0  0  0  0  0  0  0  0  0  0  0
  150.8454  143.0982  158.0574 C   0  0  0  0  0  0  0  0  0  0  0  0
  151.4039  143.4510  159.2312 C   0  0  0  0  0  0  0  0  0  0  0  0
  150.9827  144.7129  159.9681 C   0  0  0  0  0  0  0  0  0  0  0  0
  151.3922  145.7875  159.2955 F   0  0  0  0  0  0  0  0  0  0  0  0
  149.6567  144.7793  160.0904 F   0  0  0  0  0  0  0  0  0  0  0  0
  151.5189  144.7587  161.1882 F   0  0  0  0  0  0  0  0  0  0  0  0
  152.4891  142.6153  159.7060 C   0  0  0  0  0  0  0  0  0  0  0  0
  152.9007  141.5377  159.0094 C   0  0  0  0  0  0  0  0  0  0  0  0
  152.2718  141.1580  157.7424 C   0  0  0  0  0  0  0  0  0  0  0  0
  152.6386  140.1758  157.0967 O   0  0  0  0  0  0  0  0  0  0  0  0
  145.8059  142.6464  155.3192 C   0  0  0  0  0  0  0  0  0  0  0  0
  144.4504  142.3293  154.7268 C   0  0  0  0  0  0  0  0  0  0  0  0
  145.6018  142.7120  153.8225 C   0  0  0  0  0  0  0  0  0  0  0  0
  145.2350  141.1115  157.5507 H   0  0  0  0  0  0  0  0  0  0  0  0
  146.3751  142.3589  158.0208 H   0  0  0  0  0  0  0  0  0  0  0  0
  146.8854  140.6742  157.9684 H   0  0  0  0  0  0  0  0  0  0  0  0
  148.3487  142.7822  155.5219 H   0  0  0  0  0  0  0  0  0  0  0  0
  151.1192  141.0051  155.4415 H   0  0  0  0  0  0  0  0  0  0  0  0
  150.4658  142.6097  155.4723 H   0  0  0  0  0  0  0  0  0  0  0  0
  150.0529  143.6708  157.5975 H   0  0  0  0  0  0  0  0  0  0  0  0
  152.9798  142.8549  160.6378 H   0  0  0  0  0  0  0  0  0  0  0  0
  153.7119  140.9371  159.3943 H   0  0  0  0  0  0  0  0  0  0  0  0
  145.8520  143.6116  155.8192 H   0  0  0  0  0  0  0  0  0  0  0  0
  144.1207  141.2927  154.7089 H   0  0  0  0  0  0  0  0  0  0  0  0
  143.6597  143.0630  154.8696 H   0  0  0  0  0  0  0  0  0  0  0  0
  145.5765  143.6993  153.3658 H   0  0  0  0  0  0  0  0  0  0  0  0
  146.0397  141.9293  153.2068 H   0  0  0  0  0  0  0  0  0  0  0  0
  1  2  1  0  0  0  0
  1 23  1  0  0  0  0
  1 24  1  0  0  0  0
  1 25  1  0  0  0  0
  2  3  1  0  0  0  0
  2  5  1  0  0  0  0
  2 20  1  0  0  0  0
  3  4  3  0  0  0  0
  5  6  1  0  0  0  0
  5 26  1  0  0  0  0
  6  7  2  0  0  0  0
  6  8  1  0  0  0  0
  8  9  1  0  0  0  0
  8 27  1  0  0  0  0
  8 28  1  0  0  0  0
  9 18  1  0  0  0  0
  9 10  1  0  0  0  0
 10 11  2  0  0  0  0
 10 29  1  0  0  0  0
 11 12  1  0  0  0  0
 11 16  1  0  0  0  0
 12 13  1  0  0  0  0
 12 14  1  0  0  0  0
 12 15  1  0  0  0  0
 16 17  2  0  0  0  0
 16 30  1  0  0  0  0
 17 18  1  0  0  0  0
 17 31  1  0  0  0  0
 18 19  2  0  0  0  0
 20 22  1  0  0  0  0
 20 21  1  0  0  0  0
 20 32  1  0  0  0  0
 21 22  1  0  0  0  0
 21 33  1  0  0  0  0
 21 34  1  0  0  0  0
 22 35  1  0  0  0  0
 22 36  1  0  0  0  0
M  END
> <s_m_source_file>
AV-unprocessed.smi

> <i_m_source_file_index>
499

> <i_lp_mmshare_version>
43012

> <i_f3d_flags>
0

> <s_epik_input>
W0NIMl0xW0NIMl1bQ0hdMVtDQF0oW0NIM10pKEMjTilbTkhdQyg9TylbQ0gyXW4yW2NIXWMoQyhGKShGKUYpW2NIXVtjSF1jMj1P

> <s_epik_cmdline>
J2VwaWtfcHl0aG9uJywgJy1waCcsICc3LjAnLCAnLXRuJywgJzgnLCAnLW1hJywgJzIwMCcsICctbWV0YWxfYmluZGluZycsICctaW1hZScsICc8aW5maWxlLm1hZT4nLCAnLW9tYWUnLCAnPG91dGZpbGUubWFlPic=

> <r_lp_tautomer_probability>
1

> <r_epik_Ionization_Penalty>
4.79953e-07

> <r_epik_Ionization_Penalty_Charging>
1.46911e-08

> <r_epik_Ionization_Penalty_Neutral>
4.65262e-07

> <r_epik_State_Penalty>
-0

> <r_epik_Charging_Adjusted_Penalty>
1.46911e-08

> <i_epik_Tot_Q>
0

> <i_epik_Tot_abs_Q>
0

> <r_epik_Metal_State_Penalty>
-0

> <b_epik_Metal_Only>
0

> <s_lp_Force_Field>
OPLS_2005

> <r_lp_Energy>
23.9412

> <b_lp_Chiralities_Consistent>
1

> <s_lp_Variant>
AV-unprocessed.smi:499-2

> <Gold.Version>
5.8.1

> <Gold.Id.Protein>
6NUR|6NUR_protein|mol2

> <Gold.PLP.Fitness>
49.4149

> <Gold.PLP.PLP>
-43.1616

> <Gold.PLP.part.hbond>
-2.0000

> <Gold.PLP.part.metal>
0.0000

> <Gold.PLP.part.buried>
-4.6360

> <Gold.PLP.part.nonpolar>
-36.1897

> <Gold.PLP.part.repulsive>
0.1584

> <Gold.PLP.ligand.clash>
0.0000

> <Gold.PLP.ligand.torsion>
1.4402

> <Gold.PLP.Chemscore.Hbond>
1.6497

> <Gold.PLP.Chemscore.CHOScore>
0.8581

> <Gold.PLP.Chemscore.Metal>
0.0000

> <Gold.Chemscore.Hbonds>
donor molecule, donor type, donor heavy atom, donor atom, acceptor molecule, acceptor atom, score
      L1  H     5    26       P1  8028  1.00
      P1  H  7997  8008       L1    19  0.69
      L1  C    10    29       P1  8028  1.00

> <Gold.PLP.Chemscore.Internal.Correction>
1.6102

> <Gold.Rescore>
     Score         DG    S(hbond)    S(metal)    S(lipo)     H(rot)  DE(clash)    DE(int)     intcor
      9.17     -11.35       0.83        0.00      68.03       1.90       0.04       2.14       ----

> <Gold.Chemscore.Fitness>
9.1700

> <Gold.Chemscore.DG>
-11.3484

> <Gold.Chemscore.ZeroCoef>
-5.4800

> <Gold.Chemscore.Hbond>
0.8326

> <Gold.Chemscore.Metal>
0.0000

> <Gold.Chemscore.Lipo>
68.0278

> <Gold.Chemscore.Internal_Hbond>
0.0000

> <Gold.Chemscore.DEClash>
0.0418

> <Gold.Chemscore.DEInternal>
2.1365

> <Gold.Chemscore.Rot>
1.9030

> <Gold.Chemscore.Internal.Correction>
   9.000000E+99

> <Gold.Chemscore.Hbonds>
donor molecule, donor type, donor heavy atom, donor atom, acceptor molecule, acceptor atom, score
      L1  H     5    26       P1  8028  0.93
      P1  H  7997  8008       L1    19  0.57

> <Gold.Chemscore.Hbond.Weighted>
-2.7809

> <Gold.Chemscore.Metal.Weighted>
-0.0000

> <Gold.Chemscore.Lipo.Weighted>
-7.9593

> <Gold.Chemscore.Internal_Hbond.Weighted>
0.0000

> <Gold.Chemscore.DEClash.Weighted>
0.0418

> <Gold.Chemscore.DEInternal.Weighted>
2.1365

> <Gold.Chemscore.Rot.Weighted>
4.8718

> <Gold.Chemscore.Internal.Correction.Weighted>
   9.000000E+99

> <Gold.Protein.RotatedTorsions>
[ 6907 6896 6895 6894 ] final   48.35 input  -60.11 | X-H torsion
[ 7974 7965 7964 7962 ] final  -26.05 input  175.53 | X-H torsion
[ 8008 7997 7996 7995 ] final  -84.18 input   59.86 | X-H torsion
[ 10167 10162 10161 10158 ] final  -52.43 input  -65.29 | X-H torsion
[ 10718 10713 10712 10709 ] final  144.73 input   66.30 | X-H torsion
[ 10763 10752 10751 10750 ] final  -88.95 input  -60.55 | X-H torsion
[ 11005 11000 10999 10996 ] final   32.89 input  -57.11 | X-H torsion

> <Gold.Protein.ActiveResidues>
 VAL166  LYS551  ARG553  GLY616  TRP617  ASP618  TYR619  PRO620  LYS621  CYS622 
 ASP623  PHE694  ASN695  SER759  ASP760  ASP761  ALA762  ILE779  LEU786  VAL792 
 PHE793  MET794  SER795  GLU796  ALA797  LYS798  CYS799  TRP800  GLU811  SER814 

> <Gold.Protein.RotatedAtoms>
  152.2785  134.7854  160.0400 H   0  0  0  0  0  0  0  0  0  0  0  0  # atno 6907 bound_to 6896
  151.8442  133.3423  159.3661 H   0  0  0  0  0  0  0  0  0  0  0  0  # atno 6908 bound_to 6896
  150.7180  134.5290  159.5735 H   0  0  0  0  0  0  0  0  0  0  0  0  # atno 6909 bound_to 6896
  146.1451  140.4968  142.8635 H   0  0  0  0  0  0  0  0  0  0  0  0  # atno 7974 bound_to 7965
  154.6270  140.0608  156.9686 H   0  0  0  0  0  0  0  0  0  0  0  0  # atno 8008 bound_to 7997
  155.1726  140.3292  155.4371 H   0  0  0  0  0  0  0  0  0  0  0  0  # atno 8009 bound_to 7997
  156.2463  140.1911  156.6827 H   0  0  0  0  0  0  0  0  0  0  0  0  # atno 8010 bound_to 7997
  140.6538  143.2584  151.4646 H   0  0  0  0  0  0  0  0  0  0  0  0  # atno 10167 bound_to 10162
  157.3537  131.0954  151.0977 H   0  0  0  0  0  0  0  0  0  0  0  0  # atno 10718 bound_to 10713
  154.6501  135.5358  153.7891 H   0  0  0  0  0  0  0  0  0  0  0  0  # atno 10763 bound_to 10752
  153.0381  135.6480  154.1030 H   0  0  0  0  0  0  0  0  0  0  0  0  # atno 10764 bound_to 10752
  154.0948  135.2937  155.3244 H   0  0  0  0  0  0  0  0  0  0  0  0  # atno 10765 bound_to 10752
  140.2688  134.3106  155.7834 H   0  0  0  0  0  0  0  0  0  0  0  0  # atno 11005 bound_to 11000
  144.7837  140.5892  143.6588 LP  0  0  0  0  0  0  0  0  0  0  0  0  # atno 17320 bound_to 7965
  145.4956  139.1486  143.3685 LP  0  0  0  0  0  0  0  0  0  0  0  0  # atno 17321 bound_to 7965
  139.5757  144.1825  152.1899 LP  0  0  0  0  0  0  0  0  0  0  0  0  # atno 17342 bound_to 10162
  140.1135  144.5436  150.6909 LP  0  0  0  0  0  0  0  0  0  0  0  0  # atno 17343 bound_to 10162
  157.2143  130.6452  149.5786 LP  0  0  0  0  0  0  0  0  0  0  0  0  # atno 17370 bound_to 10713
  155.9725  130.4650  150.6237 LP  0  0  0  0  0  0  0  0  0  0  0  0  # atno 17371 bound_to 10713
  141.2180  133.7454  156.9302 LP  0  0  0  0  0  0  0  0  0  0  0  0  # atno 17394 bound_to 11000
  140.1393  134.9304  157.2445 LP  0  0  0  0  0  0  0  0  0  0  0  0  # atno 17395 bound_to 11000

$$$$
