AV-unprocessed.smi:2735|AV-procd|sdf|10544|dock8
  -GOLD-   2272014593D 1   1.00000     0.00000
 Structure written by MMmdl.
 42 42  0  0  0  0  0  0  0  0  2 V2000
  146.8926  137.2143  163.2737 C   0  0  0  0  0  0  0  0  0  0  0  0
  147.2649  136.5711  161.9708 C   0  0  0  0  0  0  0  0  0  0  0  0
  147.1222  135.2100  161.5861 C   0  0  0  0  0  0  0  0  0  0  0  0
  147.6210  135.1638  160.3146 C   0  0  0  0  0  0  0  0  0  0  0  0
  147.7580  133.9992  159.3883 C   0  0  0  0  0  0  0  0  0  0  0  0
  148.0127  136.4521  159.9832 N   0  0  0  0  0  0  0  0  0  0  0  0
  148.6506  136.9302  158.7561 C   0  0  1  0  0  0  0  0  0  0  0  0
  147.7199  137.8154  157.9008 C   0  0  0  0  0  0  0  0  0  0  0  0
  149.9719  137.6383  159.0902 C   0  0  0  0  0  0  0  0  0  0  0  0
  150.8378  137.0683  159.7549 O   0  0  0  0  0  0  0  0  0  0  0  0
  150.1066  138.8857  158.6134 N   0  0  0  0  0  0  0  0  0  0  0  0
  151.2754  139.7531  158.7461 C   0  0  2  0  0  0  0  0  0  0  0  0
  151.0207  141.1409  158.1106 C   0  0  0  0  0  0  0  0  0  0  0  0
  152.1127  142.2095  158.3466 C   0  0  0  0  0  0  0  0  0  0  0  0
  152.4968  142.2668  159.8331 C   0  0  0  0  0  0  0  0  0  0  0  0
  151.6875  143.6030  157.8534 C   0  0  0  0  0  0  0  0  0  0  0  0
  152.4933  139.0462  158.1402 C   0  0  0  0  0  0  0  0  0  0  0  0
  152.2858  137.9907  157.4998 O   0  0  0  0  0  0  0  0  0  0  0  0
  153.6130  139.5714  158.3249 O   0  5  0  0  0  0  0  0  0  0  0  0
  147.8055  137.3054  161.0141 N   0  0  0  0  0  0  0  0  0  0  0  0
  151.5026  139.8886  159.8044 H   0  0  0  0  0  0  0  0  0  0  0  0
  146.4494  136.4905  163.9579 H   0  0  0  0  0  0  0  0  0  0  0  0
  146.1686  138.0154  163.1234 H   0  0  0  0  0  0  0  0  0  0  0  0
  147.7675  137.6419  163.7642 H   0  0  0  0  0  0  0  0  0  0  0  0
  146.7223  134.3879  162.1609 H   0  0  0  0  0  0  0  0  0  0  0  0
  147.3171  133.1024  159.8244 H   0  0  0  0  0  0  0  0  0  0  0  0
  148.8064  133.7845  159.1821 H   0  0  0  0  0  0  0  0  0  0  0  0
  147.2542  134.1900  158.4410 H   0  0  0  0  0  0  0  0  0  0  0  0
  148.8857  136.0546  158.1499 H   0  0  0  0  0  0  0  0  0  0  0  0
  148.2039  138.1001  156.9660 H   0  0  0  0  0  0  0  0  0  0  0  0
  147.4346  138.7346  158.4144 H   0  0  0  0  0  0  0  0  0  0  0  0
  146.8046  137.2816  157.6443 H   0  0  0  0  0  0  0  0  0  0  0  0
  149.3440  139.2639  158.0703 H   0  0  0  0  0  0  0  0  0  0  0  0
  150.8797  141.0224  157.0350 H   0  0  0  0  0  0  0  0  0  0  0  0
  150.0694  141.5197  158.4880 H   0  0  0  0  0  0  0  0  0  0  0  0
  153.0112  141.9190  157.8028 H   0  0  0  0  0  0  0  0  0  0  0  0
  151.6460  142.5544  160.4518 H   0  0  0  0  0  0  0  0  0  0  0  0
  153.2939  142.9902  160.0063 H   0  0  0  0  0  0  0  0  0  0  0  0
  152.8526  141.2984  160.1858 H   0  0  0  0  0  0  0  0  0  0  0  0
  150.7764  143.9385  158.3497 H   0  0  0  0  0  0  0  0  0  0  0  0
  151.5050  143.6145  156.7794 H   0  0  0  0  0  0  0  0  0  0  0  0
  152.4643  144.3419  158.0524 H   0  0  0  0  0  0  0  0  0  0  0  0
  1  2  1  0  0  0  0
  1 22  1  0  0  0  0
  1 23  1  0  0  0  0
  1 24  1  0  0  0  0
  2 20  2  0  0  0  0
  2  3  1  0  0  0  0
  3  4  2  0  0  0  0
  3 25  1  0  0  0  0
  4  5  1  0  0  0  0
  4  6  1  0  0  0  0
  5 26  1  0  0  0  0
  5 27  1  0  0  0  0
  5 28  1  0  0  0  0
  6  7  1  0  0  0  0
  6 20  1  0  0  0  0
  7  8  1  0  0  0  0
  7  9  1  0  0  0  0
  7 29  1  0  0  0  0
  8 30  1  0  0  0  0
  8 31  1  0  0  0  0
  8 32  1  0  0  0  0
  9 10  2  0  0  0  0
  9 11  1  0  0  0  0
 11 12  1  0  0  0  0
 11 33  1  0  0  0  0
 12 21  1  0  0  0  0
 12 13  1  0  0  0  0
 12 17  1  0  0  0  0
 13 14  1  0  0  0  0
 13 34  1  0  0  0  0
 13 35  1  0  0  0  0
 14 15  1  0  0  0  0
 14 16  1  0  0  0  0
 14 36  1  0  0  0  0
 15 37  1  0  0  0  0
 15 38  1  0  0  0  0
 15 39  1  0  0  0  0
 16 40  1  0  0  0  0
 16 41  1  0  0  0  0
 16 42  1  0  0  0  0
 17 18  2  0  0  0  0
 17 19  1  0  0  0  0
M  CHG  1  19  -1
M  END
> <s_m_source_file>
AV-unprocessed.smi

> <i_m_source_file_index>
2735

> <i_lp_mmshare_version>
43012

> <i_f3d_flags>
0

> <s_epik_input>
W0NIM11jMVtjSF1jKFtDSDNdKW4objEpW0NASF0oW0NIM10pQyg9TylbTkhdW0NASF0oQyg9TylbT0hdKVtDSDJdW0NIXShbQ0gzXSlbQ0gzXQ==

> <s_epik_cmdline>
J2VwaWtfcHl0aG9uJywgJy1waCcsICc3LjAnLCAnLXRuJywgJzgnLCAnLW1hJywgJzIwMCcsICctbWV0YWxfYmluZGluZycsICctaW1hZScsICc8aW5maWxlLm1hZT4nLCAnLW9tYWUnLCAnPG91dGZpbGUubWFlPic=

> <r_lp_tautomer_probability>
1

> <r_epik_Ionization_Penalty>
0.0012303

> <r_epik_Ionization_Penalty_Charging>
0.000186407

> <r_epik_Ionization_Penalty_Neutral>
0.0010439

> <r_epik_State_Penalty>
-0

> <r_epik_Charging_Adjusted_Penalty>
0.000186407

> <i_epik_Tot_Q>
-1

> <i_epik_Tot_abs_Q>
1

> <r_epik_Metal_State_Penalty>
-0

> <b_epik_Metal_Only>
0

> <s_lp_Force_Field>
OPLS_2005

> <r_lp_Energy>
6.63837

> <b_lp_Chiralities_Consistent>
1

> <s_lp_Variant>
AV-unprocessed.smi:2735-4

> <Gold.Version>
5.8.1

> <Gold.Id.Protein>
6NUR|6NUR_protein|mol2

> <Gold.PLP.Fitness>
46.2667

> <Gold.PLP.PLP>
-34.1225

> <Gold.PLP.part.hbond>
-4.0000

> <Gold.PLP.part.metal>
0.0000

> <Gold.PLP.part.buried>
-3.9196

> <Gold.PLP.part.nonpolar>
-26.7588

> <Gold.PLP.part.repulsive>
0.1871

> <Gold.PLP.ligand.clash>
1.4049

> <Gold.PLP.ligand.torsion>
0.3709

> <Gold.PLP.Chemscore.Hbond>
4.7120

> <Gold.PLP.Chemscore.CHOScore>
0.0000

> <Gold.PLP.Chemscore.Metal>
0.0000

> <Gold.Chemscore.Hbonds>
donor molecule, donor type, donor heavy atom, donor atom, acceptor molecule, acceptor atom, score
      P1  H  6896  6908       L1    10  1.00
      P1  H  6931  6943       L1    20  0.86
      P1  H  6934  6947       L1    20  0.82
      P1  H  7997  8009       L1    19  2.00

> <Gold.PLP.Chemscore.Internal.Correction>
0.1550

> <Gold.Rescore>
     Score         DG    S(hbond)    S(metal)    S(lipo)     H(rot)  DE(clash)    DE(int)     intcor
     17.71     -19.82       3.14        0.00      82.02       2.24       0.21       1.91       ----

> <Gold.Chemscore.Fitness>
17.7051

> <Gold.Chemscore.DG>
-19.8238

> <Gold.Chemscore.ZeroCoef>
-5.4800

> <Gold.Chemscore.Hbond>
3.1375

> <Gold.Chemscore.Metal>
0.0000

> <Gold.Chemscore.Lipo>
82.0156

> <Gold.Chemscore.Internal_Hbond>
0.0000

> <Gold.Chemscore.DEClash>
0.2062

> <Gold.Chemscore.DEInternal>
1.9125

> <Gold.Chemscore.Rot>
2.2388

> <Gold.Chemscore.Internal.Correction>
   9.000000E+99

> <Gold.Chemscore.Hbonds>
donor molecule, donor type, donor heavy atom, donor atom, acceptor molecule, acceptor atom, score
      P1  H  6896  6908       L1    10  0.96
      P1  H  6931  6943       L1    20  0.34
      P1  H  6934  6947       L1    20  0.72
      P1  H  7997  8009       L1    19  0.93

> <Gold.Chemscore.Hbond.Weighted>
-10.4793

> <Gold.Chemscore.Metal.Weighted>
-0.0000

> <Gold.Chemscore.Lipo.Weighted>
-9.5958

> <Gold.Chemscore.Internal_Hbond.Weighted>
0.0000

> <Gold.Chemscore.DEClash.Weighted>
0.2062

> <Gold.Chemscore.DEInternal.Weighted>
1.9125

> <Gold.Chemscore.Rot.Weighted>
5.7314

> <Gold.Chemscore.Internal.Correction.Weighted>
   9.000000E+99

> <Gold.Protein.RotatedTorsions>
[ 6907 6896 6895 6894 ] final -126.70 input  -60.11 | X-H torsion
[ 7974 7965 7964 7962 ] final  153.52 input  175.53 | X-H torsion
[ 8008 7997 7996 7995 ] final  162.74 input   59.86 | X-H torsion
[ 10167 10162 10161 10158 ] final -131.20 input  -65.29 | X-H torsion
[ 10718 10713 10712 10709 ] final -113.39 input   66.30 | X-H torsion
[ 10763 10752 10751 10750 ] final  133.36 input  -60.55 | X-H torsion
[ 11005 11000 10999 10996 ] final -171.98 input  -57.11 | X-H torsion

> <Gold.Protein.ActiveResidues>
 VAL166  LYS551  ARG553  GLY616  TRP617  ASP618  TYR619  PRO620  LYS621  CYS622 
 ASP623  PHE694  ASN695  SER759  ASP760  ASP761  ALA762  ILE779  LEU786  VAL792 
 PHE793  MET794  SER795  GLU796  ALA797  LYS798  CYS799  TRP800  GLU811  SER814 

> <Gold.Protein.RotatedAtoms>
  150.8996  133.7136  159.2882 H   0  0  0  0  0  0  0  0  0  0  0  0  # atno 6907 bound_to 6896
  151.4659  135.1040  159.9747 H   0  0  0  0  0  0  0  0  0  0  0  0  # atno 6908 bound_to 6896
  152.4869  133.8348  159.7177 H   0  0  0  0  0  0  0  0  0  0  0  0  # atno 6909 bound_to 6896
  144.8149  139.6812  143.6126 H   0  0  0  0  0  0  0  0  0  0  0  0  # atno 7974 bound_to 7965
  156.2009  140.1742  156.7901 H   0  0  0  0  0  0  0  0  0  0  0  0  # atno 8008 bound_to 7997
  154.5590  140.0703  156.8820 H   0  0  0  0  0  0  0  0  0  0  0  0  # atno 8009 bound_to 7997
  155.2883  140.3353  155.4256 H   0  0  0  0  0  0  0  0  0  0  0  0  # atno 8010 bound_to 7997
  139.9214  143.6378  152.2553 H   0  0  0  0  0  0  0  0  0  0  0  0  # atno 10167 bound_to 10162
  156.0763  130.5970  150.8635 H   0  0  0  0  0  0  0  0  0  0  0  0  # atno 10718 bound_to 10713
  153.8058  135.3135  155.3395 H   0  0  0  0  0  0  0  0  0  0  0  0  # atno 10763 bound_to 10752
  154.8071  135.4691  154.0423 H   0  0  0  0  0  0  0  0  0  0  0  0  # atno 10764 bound_to 10752
  153.1785  135.6889  153.8598 H   0  0  0  0  0  0  0  0  0  0  0  0  # atno 10765 bound_to 10752
  140.5021  134.5883  157.4991 H   0  0  0  0  0  0  0  0  0  0  0  0  # atno 11005 bound_to 11000
  146.2451  139.6081  142.9465 LP  0  0  0  0  0  0  0  0  0  0  0  0  # atno 17320 bound_to 7965
  145.5238  141.0430  143.2421 LP  0  0  0  0  0  0  0  0  0  0  0  0  # atno 17321 bound_to 7965
  139.6859  144.7651  151.1525 LP  0  0  0  0  0  0  0  0  0  0  0  0  # atno 17342 bound_to 10162
  140.7661  143.5658  150.9049 LP  0  0  0  0  0  0  0  0  0  0  0  0  # atno 17343 bound_to 10162
  157.5860  131.0945  150.9195 LP  0  0  0  0  0  0  0  0  0  0  0  0  # atno 17370 bound_to 10713
  156.9381  130.5374  149.5280 LP  0  0  0  0  0  0  0  0  0  0  0  0  # atno 17371 bound_to 10713
  139.9707  134.7298  156.0047 LP  0  0  0  0  0  0  0  0  0  0  0  0  # atno 17394 bound_to 11000
  141.1430  133.6561  156.3784 LP  0  0  0  0  0  0  0  0  0  0  0  0  # atno 17395 bound_to 11000

$$$$
