AV-unprocessed.smi:1770|AV-procd|sdf|7155|dock8
  -GOLD-   22720 8393D 1   1.00000     0.00000
 Structure written by MMmdl.
 37 38  0  0  0  0  0  0  0  0  1 V2000
  150.4128  138.7455  154.7776 C   0  0  0  0  0  0  0  0  0  0  0  0
  150.6789  140.1235  154.5869 O   0  0  0  0  0  0  0  0  0  0  0  0
  150.7046  140.8480  155.8100 C   0  0  0  0  0  0  0  0  0  0  0  0
  151.7926  140.2912  156.7339 C   0  0  0  0  0  0  0  0  0  0  0  0
  152.6280  139.5176  156.2688 O   0  0  0  0  0  0  0  0  0  0  0  0
  151.7704  140.7218  158.0091 N   0  0  0  0  0  0  0  0  0  0  0  0
  152.6357  140.4131  159.0989 C   0  0  0  0  0  0  0  0  0  0  0  0
  153.1683  139.1207  159.3300 C   0  0  0  0  0  0  0  0  0  0  0  0
  154.0210  138.9162  160.4297 C   0  0  0  0  0  0  0  0  0  0  0  0
  154.3096  140.0092  161.2651 C   0  0  0  0  0  0  0  0  0  0  0  0
  153.7997  141.2417  161.0692 N   0  0  0  0  0  0  0  0  0  0  0  0
  152.9737  141.4469  160.0144 C   0  0  0  0  0  0  0  0  0  0  0  0
  152.4384  142.7409  159.8569 N   0  0  0  0  0  0  0  0  0  0  0  0
  152.4577  143.5396  161.0810 C   0  0  0  0  0  0  0  0  0  0  0  0
  151.5365  144.7637  160.9453 C   0  0  0  0  0  0  0  0  0  0  0  0
  151.8955  145.5869  159.6974 C   0  0  0  0  0  0  0  0  0  0  0  0
  151.8923  144.6910  158.4475 C   0  0  0  0  0  0  0  0  0  0  0  0
  152.8059  143.4685  158.6428 C   0  0  0  0  0  0  0  0  0  0  0  0
  150.4029  138.2378  153.8131 H   0  0  0  0  0  0  0  0  0  0  0  0
  149.4412  138.5931  155.2491 H   0  0  0  0  0  0  0  0  0  0  0  0
  151.1797  138.2780  155.3965 H   0  0  0  0  0  0  0  0  0  0  0  0
  150.9017  141.9038  155.6183 H   0  0  0  0  0  0  0  0  0  0  0  0
  149.7408  140.7731  156.3158 H   0  0  0  0  0  0  0  0  0  0  0  0
  151.0592  141.4088  158.2156 H   0  0  0  0  0  0  0  0  0  0  0  0
  152.9361  138.2790  158.6976 H   0  0  0  0  0  0  0  0  0  0  0  0
  154.4427  137.9421  160.6283 H   0  0  0  0  0  0  0  0  0  0  0  0
  154.9612  139.8896  162.1180 H   0  0  0  0  0  0  0  0  0  0  0  0
  152.1514  142.9429  161.9405 H   0  0  0  0  0  0  0  0  0  0  0  0
  153.4814  143.8632  161.2731 H   0  0  0  0  0  0  0  0  0  0  0  0
  150.4990  144.4322  160.8798 H   0  0  0  0  0  0  0  0  0  0  0  0
  151.6075  145.3855  161.8380 H   0  0  0  0  0  0  0  0  0  0  0  0
  151.1916  146.4103  159.5736 H   0  0  0  0  0  0  0  0  0  0  0  0
  152.8817  146.0349  159.8250 H   0  0  0  0  0  0  0  0  0  0  0  0
  150.8748  144.3553  158.2426 H   0  0  0  0  0  0  0  0  0  0  0  0
  152.2121  145.2614  157.5752 H   0  0  0  0  0  0  0  0  0  0  0  0
  153.8456  143.7911  158.7132 H   0  0  0  0  0  0  0  0  0  0  0  0
  152.7301  142.8080  157.7780 H   0  0  0  0  0  0  0  0  0  0  0  0
  1  2  1  0  0  0  0
  1 19  1  0  0  0  0
  1 20  1  0  0  0  0
  1 21  1  0  0  0  0
  2  3  1  0  0  0  0
  3  4  1  0  0  0  0
  3 22  1  0  0  0  0
  3 23  1  0  0  0  0
  4  5  2  0  0  0  0
  4  6  1  0  0  0  0
  6  7  1  0  0  0  0
  6 24  1  0  0  0  0
  7 12  1  0  0  0  0
  7  8  2  0  0  0  0
  8  9  1  0  0  0  0
  8 25  1  0  0  0  0
  9 10  2  0  0  0  0
  9 26  1  0  0  0  0
 10 11  1  0  0  0  0
 10 27  1  0  0  0  0
 11 12  2  0  0  0  0
 12 13  1  0  0  0  0
 13 18  1  0  0  0  0
 13 14  1  0  0  0  0
 14 15  1  0  0  0  0
 14 28  1  0  0  0  0
 14 29  1  0  0  0  0
 15 16  1  0  0  0  0
 15 30  1  0  0  0  0
 15 31  1  0  0  0  0
 16 17  1  0  0  0  0
 16 32  1  0  0  0  0
 16 33  1  0  0  0  0
 17 18  1  0  0  0  0
 17 34  1  0  0  0  0
 17 35  1  0  0  0  0
 18 36  1  0  0  0  0
 18 37  1  0  0  0  0
M  END
> <s_m_source_file>
AV-unprocessed.smi

> <i_m_source_file_index>
1770

> <i_lp_mmshare_version>
43012

> <i_f3d_flags>
0

> <s_epik_input>
W0NIM11PW0NIMl1DKD1PKVtOSF1jMVtjSF1bY0hdW2NIXW5jMU4yW0NIMl1bQ0gyXVtDSDJdW0NIMl1bQ0gyXTI=

> <s_epik_cmdline>
J2VwaWtfcHl0aG9uJywgJy1waCcsICc3LjAnLCAnLXRuJywgJzgnLCAnLW1hJywgJzIwMCcsICctbWV0YWxfYmluZGluZycsICctaW1hZScsICc8aW5maWxlLm1hZT4nLCAnLW9tYWUnLCAnPG91dGZpbGUubWFlPic=

> <r_lp_tautomer_probability>
1

> <r_epik_Ionization_Penalty>
0.0272113

> <r_epik_Ionization_Penalty_Charging>
0

> <r_epik_Ionization_Penalty_Neutral>
0.0272113

> <r_epik_State_Penalty>
0.0213264

> <r_epik_Charging_Adjusted_Penalty>
0.0213264

> <i_epik_Tot_Q>
0

> <i_epik_Tot_abs_Q>
0

> <r_epik_Metal_State_Penalty>
0.0203232

> <b_epik_Metal_Only>
0

> <s_lp_Force_Field>
OPLS_2005

> <r_lp_Energy>
23.4593

> <b_lp_Chiralities_Consistent>
1

> <s_lp_Variant>
AV-unprocessed.smi:1770-1

> <Gold.Version>
5.8.1

> <Gold.Id.Protein>
6NUR|6NUR_protein|mol2

> <Gold.PLP.Fitness>
47.1555

> <Gold.PLP.PLP>
-42.3050

> <Gold.PLP.part.hbond>
-1.9496

> <Gold.PLP.part.metal>
0.0000

> <Gold.PLP.part.buried>
-5.4225

> <Gold.PLP.part.nonpolar>
-34.4421

> <Gold.PLP.part.repulsive>
0.1756

> <Gold.PLP.ligand.clash>
0.0000

> <Gold.PLP.ligand.torsion>
0.7285

> <Gold.PLP.Chemscore.Hbond>
2.0000

> <Gold.PLP.Chemscore.CHOScore>
0.0000

> <Gold.PLP.Chemscore.Metal>
0.0000

> <Gold.Chemscore.Hbonds>
donor molecule, donor type, donor heavy atom, donor atom, acceptor molecule, acceptor atom, score
      P1  H  7989  7998       L1     2  1.00
      P1  H  7997  8010       L1     5  1.00

> <Gold.PLP.Chemscore.Internal.Correction>
0.3075

> <Gold.Rescore>
     Score         DG    S(hbond)    S(metal)    S(lipo)     H(rot)  DE(clash)    DE(int)     intcor
     17.94     -20.49       1.89        0.00     104.84       1.39       0.17       2.38       ----

> <Gold.Chemscore.Fitness>
17.9369

> <Gold.Chemscore.DG>
-20.4890

> <Gold.Chemscore.ZeroCoef>
-5.4800

> <Gold.Chemscore.Hbond>
1.8894

> <Gold.Chemscore.Metal>
0.0000

> <Gold.Chemscore.Lipo>
104.8390

> <Gold.Chemscore.Internal_Hbond>
0.0000

> <Gold.Chemscore.DEClash>
0.1739

> <Gold.Chemscore.DEInternal>
2.3783

> <Gold.Chemscore.Rot>
1.3937

> <Gold.Chemscore.Internal.Correction>
   9.000000E+99

> <Gold.Chemscore.Hbonds>
donor molecule, donor type, donor heavy atom, donor atom, acceptor molecule, acceptor atom, score
      P1  H  7989  7998       L1     2  0.70
      P1  H  7997  8010       L1     5  0.91

> <Gold.Chemscore.Hbond.Weighted>
-6.3106

> <Gold.Chemscore.Metal.Weighted>
-0.0000

> <Gold.Chemscore.Lipo.Weighted>
-12.2662

> <Gold.Chemscore.Internal_Hbond.Weighted>
0.0000

> <Gold.Chemscore.DEClash.Weighted>
0.1739

> <Gold.Chemscore.DEInternal.Weighted>
2.3783

> <Gold.Chemscore.Rot.Weighted>
3.5678

> <Gold.Chemscore.Internal.Correction.Weighted>
   9.000000E+99

> <Gold.Protein.RotatedTorsions>
[ 6907 6896 6895 6894 ] final  120.14 input  -60.11 | X-H torsion
[ 7974 7965 7964 7962 ] final -164.86 input  175.53 | X-H torsion
[ 8008 7997 7996 7995 ] final   79.83 input   59.86 | X-H torsion
[ 10167 10162 10161 10158 ] final -105.57 input  -65.29 | X-H torsion
[ 10718 10713 10712 10709 ] final  -49.93 input   66.30 | X-H torsion
[ 10763 10752 10751 10750 ] final   48.36 input  -60.55 | X-H torsion
[ 11005 11000 10999 10996 ] final   94.65 input  -57.11 | X-H torsion

> <Gold.Protein.ActiveResidues>
 VAL166  LYS551  ARG553  GLY616  TRP617  ASP618  TYR619  PRO620  LYS621  CYS622 
 ASP623  PHE694  ASN695  SER759  ASP760  ASP761  ALA762  ILE779  LEU786  VAL792 
 PHE793  MET794  SER795  GLU796  ALA797  LYS798  CYS799  TRP800  GLU811  SER814 

> <Gold.Protein.RotatedAtoms>
  152.4420  133.7466  159.6670 H   0  0  0  0  0  0  0  0  0  0  0  0  # atno 6907 bound_to 6896
  150.8313  133.8076  159.3103 H   0  0  0  0  0  0  0  0  0  0  0  0  # atno 6908 bound_to 6896
  151.5729  135.1064  160.0051 H   0  0  0  0  0  0  0  0  0  0  0  0  # atno 6909 bound_to 6896
  144.7285  140.2899  143.6222 H   0  0  0  0  0  0  0  0  0  0  0  0  # atno 7974 bound_to 7965
  155.8751  140.3447  155.5848 H   0  0  0  0  0  0  0  0  0  0  0  0  # atno 8008 bound_to 7997
  155.7783  140.0855  157.2091 H   0  0  0  0  0  0  0  0  0  0  0  0  # atno 8009 bound_to 7997
  154.4020  140.1505  156.3010 H   0  0  0  0  0  0  0  0  0  0  0  0  # atno 8010 bound_to 7997
  140.1971  143.3847  152.1159 H   0  0  0  0  0  0  0  0  0  0  0  0  # atno 10167 bound_to 10162
  156.1847  130.4151  149.9456 H   0  0  0  0  0  0  0  0  0  0  0  0  # atno 10718 bound_to 10713
  152.9792  135.5946  154.3913 H   0  0  0  0  0  0  0  0  0  0  0  0  # atno 10763 bound_to 10752
  154.3568  135.2767  155.2344 H   0  0  0  0  0  0  0  0  0  0  0  0  # atno 10764 bound_to 10752
  154.4358  135.6025  153.6153 H   0  0  0  0  0  0  0  0  0  0  0  0  # atno 10765 bound_to 10752
  139.8796  134.8857  156.3895 H   0  0  0  0  0  0  0  0  0  0  0  0  # atno 11005 bound_to 11000
  145.7866  139.1911  143.2127 LP  0  0  0  0  0  0  0  0  0  0  0  0  # atno 17320 bound_to 7965
  146.0790  140.7785  142.9651 LP  0  0  0  0  0  0  0  0  0  0  0  0  # atno 17321 bound_to 7965
  139.5232  144.7068  151.5329 LP  0  0  0  0  0  0  0  0  0  0  0  0  # atno 17342 bound_to 10162
  140.6416  143.8878  150.6697 LP  0  0  0  0  0  0  0  0  0  0  0  0  # atno 17343 bound_to 10162
  156.7215  130.9009  151.3618 LP  0  0  0  0  0  0  0  0  0  0  0  0  # atno 17370 bound_to 10713
  157.6891  130.9215  150.0465 LP  0  0  0  0  0  0  0  0  0  0  0  0  # atno 17371 bound_to 10713
  140.9343  133.7558  156.0064 LP  0  0  0  0  0  0  0  0  0  0  0  0  # atno 17394 bound_to 11000
  140.8294  134.3196  157.5354 LP  0  0  0  0  0  0  0  0  0  0  0  0  # atno 17395 bound_to 11000

$$$$
