AV-unprocessed.smi:228|AV-procd|sdf|1743|dock4
  -GOLD-   2262020253D 1   1.00000     0.00000
 Structure written by MMmdl.
 60 63  0  0  0  0  0  0  0  0  2 V2000
  146.2574  140.0471  154.9674 C   0  0  0  0  0  0  0  0  0  0  0  0
  147.4553  139.2395  154.7667 N   0  0  0  0  0  0  0  0  0  0  0  0
  148.6503  139.6011  155.5330 C   0  0  0  0  0  0  0  0  0  0  0  0
  149.5533  140.6648  154.8638 C   0  0  2  0  0  0  0  0  0  0  0  0
  150.1340  140.0498  153.7336 O   0  0  0  0  0  0  0  0  0  0  0  0
  150.7071  141.1730  155.7582 C   0  0  0  0  0  0  0  0  0  0  0  0
  150.3004  142.2598  156.6876 N   0  3  0  0  0  0  0  0  0  0  0  0
  149.2447  141.8227  157.6318 C   0  0  0  0  0  0  0  0  0  0  0  0
  148.8286  142.9775  158.5581 C   0  0  0  0  0  0  0  0  0  0  0  0
  149.9681  143.4625  159.2558 O   0  0  0  0  0  0  0  0  0  0  0  0
  150.9501  143.9806  158.3687 C   0  0  0  0  0  0  0  0  0  0  0  0
  151.4382  142.8692  157.4233 C   0  0  0  0  0  0  0  0  0  0  0  0
  147.2010  137.9374  154.4773 C   0  0  0  0  0  0  0  0  0  0  0  0
  147.9820  136.9557  154.9997 N   0  0  0  0  0  0  0  0  0  0  0  0
  147.7487  135.6750  154.6980 C   0  0  0  0  0  0  0  0  0  0  0  0
  146.8086  135.1646  153.9009 N   0  0  0  0  0  0  0  0  0  0  0  0
  146.0174  136.1436  153.3773 C   0  0  0  0  0  0  0  0  0  0  0  0
  146.1356  137.5406  153.6214 C   0  0  0  0  0  0  0  0  0  0  0  0
  145.1550  138.2284  152.9171 N   0  0  0  0  0  0  0  0  0  0  0  0
  144.4879  137.2911  152.3011 C   0  0  0  0  0  0  0  0  0  0  0  0
  144.9642  136.0132  152.4890 N   0  0  0  0  0  0  0  0  0  0  0  0
  144.4206  134.8031  151.9460 C   0  0  0  0  0  0  0  0  0  0  0  0
  144.8756  133.4377  152.4689 C   0  0  0  0  0  0  0  0  0  0  0  0
  144.7803  132.8455  151.0457 C   0  0  0  0  0  0  0  0  0  0  0  0
  145.9855  131.9978  150.6091 C   0  0  0  0  0  0  0  0  0  0  0  0
  147.2059  132.5969  150.9945 O   0  0  0  0  0  0  0  0  0  0  0  0
  143.5083  132.0374  150.7036 C   0  0  0  0  0  0  0  0  0  0  0  0
  143.3438  131.8122  149.3182 O   0  0  0  0  0  0  0  0  0  0  0  0
  144.8173  134.3089  150.5506 C   0  0  0  0  0  0  0  0  0  0  0  0
  145.9340  140.4840  154.0225 H   0  0  0  0  0  0  0  0  0  0  0  0
  146.4423  140.8646  155.6647 H   0  0  0  0  0  0  0  0  0  0  0  0
  145.4364  139.4516  155.3698 H   0  0  0  0  0  0  0  0  0  0  0  0
  148.3335  139.9740  156.5079 H   0  0  0  0  0  0  0  0  0  0  0  0
  149.2252  138.6949  155.7304 H   0  0  0  0  0  0  0  0  0  0  0  0
  148.9660  141.4951  154.4780 H   0  0  0  0  0  0  0  0  0  0  0  0
  149.6249  140.2777  152.9702 H   0  0  0  0  0  0  0  0  0  0  0  0
  151.1055  140.3293  156.3242 H   0  0  0  0  0  0  0  0  0  0  0  0
  151.5324  141.5399  155.1452 H   0  0  0  0  0  0  0  0  0  0  0  0
  148.3754  141.4700  157.0756 H   0  0  0  0  0  0  0  0  0  0  0  0
  149.6101  140.9828  158.2249 H   0  0  0  0  0  0  0  0  0  0  0  0
  148.3595  143.7841  157.9938 H   0  0  0  0  0  0  0  0  0  0  0  0
  148.0934  142.6293  159.2835 H   0  0  0  0  0  0  0  0  0  0  0  0
  150.5410  144.8216  157.8101 H   0  0  0  0  0  0  0  0  0  0  0  0
  151.7846  144.3683  158.9531 H   0  0  0  0  0  0  0  0  0  0  0  0
  151.9554  142.0996  157.9984 H   0  0  0  0  0  0  0  0  0  0  0  0
  152.1638  143.2900  156.7283 H   0  0  0  0  0  0  0  0  0  0  0  0
  148.4141  134.9573  155.1551 H   0  0  0  0  0  0  0  0  0  0  0  0
  143.6352  137.5121  151.6755 H   0  0  0  0  0  0  0  0  0  0  0  0
  143.3376  134.9038  152.0262 H   0  0  0  0  0  0  0  0  0  0  0  0
  145.8982  133.4605  152.8500 H   0  0  0  0  0  0  0  0  0  0  0  0
  144.1999  132.9886  153.1975 H   0  0  0  0  0  0  0  0  0  0  0  0
  145.9349  130.9935  151.0308 H   0  0  0  0  0  0  0  0  0  0  0  0
  146.0045  131.8764  149.5255 H   0  0  0  0  0  0  0  0  0  0  0  0
  147.9172  132.0565  150.6862 H   0  0  0  0  0  0  0  0  0  0  0  0
  143.5243  131.0647  151.1961 H   0  0  0  0  0  0  0  0  0  0  0  0
  142.6133  132.5504  151.0567 H   0  0  0  0  0  0  0  0  0  0  0  0
  142.7369  132.4527  148.9797 H   0  0  0  0  0  0  0  0  0  0  0  0
  144.0961  134.5478  149.7683 H   0  0  0  0  0  0  0  0  0  0  0  0
  145.8194  134.6324  150.2641 H   0  0  0  0  0  0  0  0  0  0  0  0
  149.8875  142.9869  156.1204 H   0  0  0  0  0  0  0  0  0  0  0  0
  1  2  1  0  0  0  0
  1 30  1  0  0  0  0
  1 31  1  0  0  0  0
  1 32  1  0  0  0  0
  2  3  1  0  0  0  0
  2 13  1  0  0  0  0
  3  4  1  0  0  0  0
  3 33  1  0  0  0  0
  3 34  1  0  0  0  0
  4  5  1  0  0  0  0
  4  6  1  0  0  0  0
  4 35  1  0  0  0  0
  5 36  1  0  0  0  0
  6  7  1  0  0  0  0
  6 37  1  0  0  0  0
  6 38  1  0  0  0  0
  7 12  1  0  0  0  0
  7  8  1  0  0  0  0
  7 60  1  0  0  0  0
  8  9  1  0  0  0  0
  8 39  1  0  0  0  0
  8 40  1  0  0  0  0
  9 10  1  0  0  0  0
  9 41  1  0  0  0  0
  9 42  1  0  0  0  0
 10 11  1  0  0  0  0
 11 12  1  0  0  0  0
 11 43  1  0  0  0  0
 11 44  1  0  0  0  0
 12 45  1  0  0  0  0
 12 46  1  0  0  0  0
 13 18  1  0  0  0  0
 13 14  2  0  0  0  0
 14 15  1  0  0  0  0
 15 16  2  0  0  0  0
 15 47  1  0  0  0  0
 16 17  1  0  0  0  0
 17 21  1  0  0  0  0
 17 18  2  0  0  0  0
 18 19  1  0  0  0  0
 19 20  2  0  0  0  0
 20 21  1  0  0  0  0
 20 48  1  0  0  0  0
 21 22  1  0  0  0  0
 22 29  1  0  0  0  0
 22 23  1  0  0  0  0
 22 49  1  0  0  0  0
 23 24  1  0  0  0  0
 23 50  1  0  0  0  0
 23 51  1  0  0  0  0
 24 25  1  0  0  0  0
 24 27  1  0  0  0  0
 24 29  1  0  0  0  0
 25 26  1  0  0  0  0
 25 52  1  0  0  0  0
 25 53  1  0  0  0  0
 26 54  1  0  0  0  0
 27 28  1  0  0  0  0
 27 55  1  0  0  0  0
 27 56  1  0  0  0  0
 28 57  1  0  0  0  0
 29 58  1  0  0  0  0
 29 59  1  0  0  0  0
M  CHG  1   7   1
M  END
> <s_m_source_file>
AV-unprocessed.smi

> <i_m_source_file_index>
228

> <i_lp_mmshare_version>
43012

> <i_f3d_flags>
0

> <s_epik_input>
W0NIMl0xW0NIMl1PW0NIMl1bQ0gyXU4xW0NIMl1bQ0BASF0oW09IXSlbQ0gyXU4oW0NIM10pYyhuW2NIXW4yKWMoYzIzKW5bY0hdbjNbQ0hdKFtDSDJdNClbQ0gyXUM0KFtDSDJdW09IXSlbQ0gyXVtPSF0=

> <s_epik_cmdline>
J2VwaWtfcHl0aG9uJywgJy1waCcsICc3LjAnLCAnLXRuJywgJzgnLCAnLW1hJywgJzIwMCcsICctbWV0YWxfYmluZGluZycsICctaW1hZScsICc8aW5maWxlLm1hZT4nLCAnLW9tYWUnLCAnPG91dGZpbGUubWFlPic=

> <r_lp_tautomer_probability>
1

> <r_epik_Ionization_Penalty>
0.403032

> <r_epik_Ionization_Penalty_Charging>
0.40072

> <r_epik_Ionization_Penalty_Neutral>
0.00231206

> <r_epik_State_Penalty>
0.387266

> <r_epik_Charging_Adjusted_Penalty>
0.787986

> <i_epik_Tot_Q>
1

> <i_epik_Tot_abs_Q>
1

> <r_epik_Metal_State_Penalty>
0.385845

> <b_epik_Metal_Only>
0

> <s_lp_Force_Field>
OPLS_2005

> <r_lp_Energy>
45.878

> <b_lp_Chiralities_Consistent>
1

> <s_lp_Variant>
AV-unprocessed.smi:228-1

> <Gold.Version>
5.8.1

> <Gold.Id.Protein>
6NUR|6NUR_protein|mol2

> <Gold.PLP.Fitness>
55.0081

> <Gold.PLP.PLP>
-36.9262

> <Gold.PLP.part.hbond>
-6.6698

> <Gold.PLP.part.metal>
0.0000

> <Gold.PLP.part.buried>
-4.6738

> <Gold.PLP.part.nonpolar>
-28.8493

> <Gold.PLP.part.repulsive>
3.3897

> <Gold.PLP.ligand.clash>
0.0000

> <Gold.PLP.ligand.torsion>
1.3886

> <Gold.PLP.Chemscore.Hbond>
5.6640

> <Gold.PLP.Chemscore.CHOScore>
0.8573

> <Gold.PLP.Chemscore.Metal>
0.0000

> <Gold.Chemscore.Hbonds>
donor molecule, donor type, donor heavy atom, donor atom, acceptor molecule, acceptor atom, score
      L1  H     5    36       P1  7957  0.82
      L1  H     7    60       P1  8028  1.89
      L1  H    26    54       P1 10747  1.00
      P1  H  7989  7998       L1     5  0.80
      P1  H 10785 10796       L1    28  1.00
      L1  C    20    48       P1 10171  0.84

> <Gold.PLP.Chemscore.Internal.Correction>
1.2951

> <Gold.Rescore>
     Score         DG    S(hbond)    S(metal)    S(lipo)     H(rot)  DE(clash)    DE(int)     intcor
     11.97     -17.40       4.18        0.00      86.90       4.77       1.74       3.69       ----

> <Gold.Chemscore.Fitness>
11.9662

> <Gold.Chemscore.DG>
-17.3972

> <Gold.Chemscore.ZeroCoef>
-5.4800

> <Gold.Chemscore.Hbond>
4.1827

> <Gold.Chemscore.Metal>
0.0000

> <Gold.Chemscore.Lipo>
86.9039

> <Gold.Chemscore.Internal_Hbond>
0.0000

> <Gold.Chemscore.DEClash>
1.7370

> <Gold.Chemscore.DEInternal>
3.6940

> <Gold.Chemscore.Rot>
4.7738

> <Gold.Chemscore.Internal.Correction>
   9.000000E+99

> <Gold.Chemscore.Hbonds>
donor molecule, donor type, donor heavy atom, donor atom, acceptor molecule, acceptor atom, score
      L1  H     5    36       P1  7957  0.80
      L1  H     7    60       P1  8028  0.89
      L1  H    26    54       P1 10747  1.00
      P1  H  7989  7998       L1     5  0.17
      P1  H 10785 10796       L1    28  0.90

> <Gold.Chemscore.Hbond.Weighted>
-13.9703

> <Gold.Chemscore.Metal.Weighted>
-0.0000

> <Gold.Chemscore.Lipo.Weighted>
-10.1678

> <Gold.Chemscore.Internal_Hbond.Weighted>
0.0000

> <Gold.Chemscore.DEClash.Weighted>
1.7370

> <Gold.Chemscore.DEInternal.Weighted>
3.6940

> <Gold.Chemscore.Rot.Weighted>
12.2208

> <Gold.Chemscore.Internal.Correction.Weighted>
   9.000000E+99

> <Gold.Protein.RotatedTorsions>
[ 6907 6896 6895 6894 ] final  -10.14 input  -60.11 | X-H torsion
[ 7974 7965 7964 7962 ] final  -24.92 input  175.53 | X-H torsion
[ 8008 7997 7996 7995 ] final -146.89 input   59.86 | X-H torsion
[ 10167 10162 10161 10158 ] final  -29.46 input  -65.29 | X-H torsion
[ 10718 10713 10712 10709 ] final   50.42 input   66.30 | X-H torsion
[ 10763 10752 10751 10750 ] final  -58.64 input  -60.55 | X-H torsion
[ 11005 11000 10999 10996 ] final   92.17 input  -57.11 | X-H torsion

> <Gold.Protein.ActiveResidues>
 VAL166  LYS551  ARG553  GLY616  TRP617  ASP618  TYR619  PRO620  LYS621  CYS622 
 ASP623  PHE694  ASN695  SER759  ASP760  ASP761  ALA762  ILE779  LEU786  VAL792 
 PHE793  MET794  SER795  GLU796  ALA797  LYS798  CYS799  TRP800  GLU811  SER814 

> <Gold.Protein.RotatedAtoms>
  151.4067  135.0979  159.9572 H   0  0  0  0  0  0  0  0  0  0  0  0  # atno 6907 bound_to 6896
  152.5033  133.8836  159.7369 H   0  0  0  0  0  0  0  0  0  0  0  0  # atno 6908 bound_to 6896
  150.9322  133.6696  159.2836 H   0  0  0  0  0  0  0  0  0  0  0  0  # atno 6909 bound_to 6896
  146.1524  140.4817  142.8606 H   0  0  0  0  0  0  0  0  0  0  0  0  # atno 7974 bound_to 7965
  155.5667  140.0630  157.2816 H   0  0  0  0  0  0  0  0  0  0  0  0  # atno 8008 bound_to 7997
  154.4373  140.1876  156.0883 H   0  0  0  0  0  0  0  0  0  0  0  0  # atno 8009 bound_to 7997
  156.0406  140.3296  155.7244 H   0  0  0  0  0  0  0  0  0  0  0  0  # atno 8010 bound_to 7997
  140.7260  143.3926  151.1402 H   0  0  0  0  0  0  0  0  0  0  0  0  # atno 10167 bound_to 10162
  157.4883  130.8359  149.8172 H   0  0  0  0  0  0  0  0  0  0  0  0  # atno 10718 bound_to 10713
  154.2413  135.6343  153.5208 H   0  0  0  0  0  0  0  0  0  0  0  0  # atno 10763 bound_to 10752
  152.9929  135.5543  154.5907 H   0  0  0  0  0  0  0  0  0  0  0  0  # atno 10764 bound_to 10752
  154.5413  135.2895  155.1067 H   0  0  0  0  0  0  0  0  0  0  0  0  # atno 10765 bound_to 10752
  139.8827  134.8717  156.3534 H   0  0  0  0  0  0  0  0  0  0  0  0  # atno 11005 bound_to 11000
  144.7920  140.6051  143.6535 LP  0  0  0  0  0  0  0  0  0  0  0  0  # atno 17320 bound_to 7965
  145.4791  139.1497  143.3772 LP  0  0  0  0  0  0  0  0  0  0  0  0  # atno 17321 bound_to 7965
  139.7534  143.8744  152.3082 LP  0  0  0  0  0  0  0  0  0  0  0  0  # atno 17342 bound_to 10162
  139.8605  144.7119  150.9105 LP  0  0  0  0  0  0  0  0  0  0  0  0  # atno 17343 bound_to 10162
  156.0159  130.3814  150.2113 LP  0  0  0  0  0  0  0  0  0  0  0  0  # atno 17370 bound_to 10713
  157.0301  131.0005  151.3314 LP  0  0  0  0  0  0  0  0  0  0  0  0  # atno 17371 bound_to 10713
  140.9579  133.7408  156.0360 LP  0  0  0  0  0  0  0  0  0  0  0  0  # atno 17394 bound_to 11000
  140.8026  134.3491  157.5435 LP  0  0  0  0  0  0  0  0  0  0  0  0  # atno 17395 bound_to 11000

$$$$
