AV-unprocessed.smi:2486|AV-procd|sdf|9790|dock4
  -GOLD-   2272013423D 1   1.00000     0.00000
 Structure written by MMmdl.
 42 43  0  0  0  0  0  0  0  0  1 V2000
  151.2020  138.1686  154.3587 C   0  0  0  0  0  0  0  0  0  0  0  0
  150.1832  139.1965  154.4517 N   0  0  0  0  0  0  0  0  0  0  0  0
  150.4910  140.4470  154.8690 N   0  0  0  0  0  0  0  0  0  0  0  0
  149.3144  141.0720  154.8159 C   0  0  0  0  0  0  0  0  0  0  0  0
  148.2553  140.3200  154.3935 N   0  0  0  0  0  0  0  0  0  0  0  0
  148.8743  139.1621  154.1853 C   0  0  0  0  0  0  0  0  0  0  0  0
  148.2709  137.9602  153.7274 N   0  0  0  0  0  0  0  0  0  0  0  0
  147.1150  137.4113  154.1373 C   0  0  0  0  0  0  0  0  0  0  0  0
  146.3662  137.8850  154.9922 O   0  0  0  0  0  0  0  0  0  0  0  0
  146.8661  136.2646  153.4920 N   0  0  0  0  0  0  0  0  0  0  0  0
  145.6868  135.4328  153.7117 C   0  0  0  0  0  0  0  0  0  0  0  0
  144.9021  135.1430  152.4036 C   0  0  0  0  0  0  0  0  0  0  0  0
  144.0045  136.3595  152.0785 C   0  0  0  0  0  0  0  0  0  0  0  0
  145.9202  134.9844  151.2415 C   0  0  0  0  0  0  0  0  0  0  0  0
  146.6109  133.6134  151.1172 C   0  0  0  0  0  0  0  0  0  0  0  0
  145.8288  132.6303  150.2300 C   0  0  0  0  0  0  0  0  0  0  0  0
  144.5416  132.0823  150.8623 C   0  0  0  0  0  0  0  0  0  0  0  0
  143.5459  133.1589  151.3277 C   0  0  0  0  0  0  0  0  0  0  0  0
  144.0070  133.8870  152.6041 C   0  0  0  0  0  0  0  0  0  0  0  0
  151.2387  137.7810  153.3403 H   0  0  0  0  0  0  0  0  0  0  0  0
  150.9634  137.3539  155.0431 H   0  0  0  0  0  0  0  0  0  0  0  0
  152.1813  138.5737  154.6177 H   0  0  0  0  0  0  0  0  0  0  0  0
  149.2154  142.1111  155.0932 H   0  0  0  0  0  0  0  0  0  0  0  0
  148.7781  137.4632  153.0105 H   0  0  0  0  0  0  0  0  0  0  0  0
  147.5306  135.9438  152.8032 H   0  0  0  0  0  0  0  0  0  0  0  0
  146.0017  134.4962  154.1756 H   0  0  0  0  0  0  0  0  0  0  0  0
  145.0436  135.9341  154.4363 H   0  0  0  0  0  0  0  0  0  0  0  0
  143.4504  136.2119  151.1514 H   0  0  0  0  0  0  0  0  0  0  0  0
  144.5977  137.2673  151.9618 H   0  0  0  0  0  0  0  0  0  0  0  0
  143.2701  136.5498  152.8618 H   0  0  0  0  0  0  0  0  0  0  0  0
  145.4405  135.2147  150.2892 H   0  0  0  0  0  0  0  0  0  0  0  0
  146.6898  135.7502  151.3467 H   0  0  0  0  0  0  0  0  0  0  0  0
  147.5844  133.7704  150.6512 H   0  0  0  0  0  0  0  0  0  0  0  0
  146.8191  133.1785  152.0949 H   0  0  0  0  0  0  0  0  0  0  0  0
  145.5956  133.1025  149.2748 H   0  0  0  0  0  0  0  0  0  0  0  0
  146.4762  131.7863  149.9899 H   0  0  0  0  0  0  0  0  0  0  0  0
  144.0480  131.4433  150.1294 H   0  0  0  0  0  0  0  0  0  0  0  0
  144.7938  131.4284  151.6979 H   0  0  0  0  0  0  0  0  0  0  0  0
  143.3202  133.8611  150.5250 H   0  0  0  0  0  0  0  0  0  0  0  0
  142.6043  132.6566  151.5520 H   0  0  0  0  0  0  0  0  0  0  0  0
  144.5170  133.1672  153.2461 H   0  0  0  0  0  0  0  0  0  0  0  0
  143.1202  134.1756  153.1700 H   0  0  0  0  0  0  0  0  0  0  0  0
  1  2  1  0  0  0  0
  1 20  1  0  0  0  0
  1 21  1  0  0  0  0
  1 22  1  0  0  0  0
  2  6  1  0  0  0  0
  2  3  1  0  0  0  0
  3  4  2  0  0  0  0
  4  5  1  0  0  0  0
  4 23  1  0  0  0  0
  5  6  2  0  0  0  0
  6  7  1  0  0  0  0
  7  8  1  0  0  0  0
  7 24  1  0  0  0  0
  8  9  2  0  0  0  0
  8 10  1  0  0  0  0
 10 11  1  0  0  0  0
 10 25  1  0  0  0  0
 11 12  1  0  0  0  0
 11 26  1  0  0  0  0
 11 27  1  0  0  0  0
 12 19  1  0  0  0  0
 12 13  1  0  0  0  0
 12 14  1  0  0  0  0
 13 28  1  0  0  0  0
 13 29  1  0  0  0  0
 13 30  1  0  0  0  0
 14 15  1  0  0  0  0
 14 31  1  0  0  0  0
 14 32  1  0  0  0  0
 15 16  1  0  0  0  0
 15 33  1  0  0  0  0
 15 34  1  0  0  0  0
 16 17  1  0  0  0  0
 16 35  1  0  0  0  0
 16 36  1  0  0  0  0
 17 18  1  0  0  0  0
 17 37  1  0  0  0  0
 17 38  1  0  0  0  0
 18 19  1  0  0  0  0
 18 39  1  0  0  0  0
 18 40  1  0  0  0  0
 19 41  1  0  0  0  0
 19 42  1  0  0  0  0
M  END
> <s_m_source_file>
AV-unprocessed.smi

> <i_m_source_file_index>
2486

> <i_lp_mmshare_version>
43012

> <i_f3d_flags>
0

> <s_epik_input>
W0NIM11uMW5bY0hdbmMxW05IXUMoPU8pW05IXVtDSDJdQzIoW0NIM10pW0NIMl1bQ0gyXVtDSDJdW0NIMl1bQ0gyXVtDSDJdMg==

> <s_epik_cmdline>
J2VwaWtfcHl0aG9uJywgJy1waCcsICc3LjAnLCAnLXRuJywgJzgnLCAnLW1hJywgJzIwMCcsICctbWV0YWxfYmluZGluZycsICctaW1hZScsICc8aW5maWxlLm1hZT4nLCAnLW9tYWUnLCAnPG91dGZpbGUubWFlPic=

> <r_lp_tautomer_probability>
1

> <r_epik_Ionization_Penalty>
2.33289e-05

> <r_epik_Ionization_Penalty_Charging>
0

> <r_epik_Ionization_Penalty_Neutral>
2.33289e-05

> <r_epik_State_Penalty>
-0

> <r_epik_Charging_Adjusted_Penalty>
0

> <i_epik_Tot_Q>
0

> <i_epik_Tot_abs_Q>
0

> <r_epik_Metal_State_Penalty>
-0

> <b_epik_Metal_Only>
0

> <s_lp_Force_Field>
OPLS_2005

> <r_lp_Energy>
21.4414

> <b_lp_Chiralities_Consistent>
1

> <s_lp_Variant>
AV-unprocessed.smi:2486-1

> <Gold.Version>
5.8.1

> <Gold.Id.Protein>
6NUR|6NUR_protein|mol2

> <Gold.PLP.Fitness>
42.2214

> <Gold.PLP.PLP>
-32.5877

> <Gold.PLP.part.hbond>
-3.0000

> <Gold.PLP.part.metal>
0.0000

> <Gold.PLP.part.buried>
-3.3512

> <Gold.PLP.part.nonpolar>
-26.5110

> <Gold.PLP.part.repulsive>
0.2869

> <Gold.PLP.ligand.clash>
0.0000

> <Gold.PLP.ligand.torsion>
0.7142

> <Gold.PLP.Chemscore.Hbond>
2.8784

> <Gold.PLP.Chemscore.CHOScore>
0.8066

> <Gold.PLP.Chemscore.Metal>
0.0000

> <Gold.Chemscore.Hbonds>
donor molecule, donor type, donor heavy atom, donor atom, acceptor molecule, acceptor atom, score
      L1  H     7    24       P1  7948  1.00
      L1  H    10    25       P1  7948  1.00
      P1  H  7989  7998       L1     3  0.90
      L1  C     4    23       P1  8028  0.62

> <Gold.PLP.Chemscore.Internal.Correction>
0.0072

> <Gold.Rescore>
     Score         DG    S(hbond)    S(metal)    S(lipo)     H(rot)  DE(clash)    DE(int)     intcor
     16.12     -17.02       2.36        0.00      60.73       1.35       0.19       0.71       ----

> <Gold.Chemscore.Fitness>
16.1213

> <Gold.Chemscore.DG>
-17.0186

> <Gold.Chemscore.ZeroCoef>
-5.4800

> <Gold.Chemscore.Hbond>
2.3586

> <Gold.Chemscore.Metal>
0.0000

> <Gold.Chemscore.Lipo>
60.7278

> <Gold.Chemscore.Internal_Hbond>
0.0000

> <Gold.Chemscore.DEClash>
0.1906

> <Gold.Chemscore.DEInternal>
0.7067

> <Gold.Chemscore.Rot>
1.3454

> <Gold.Chemscore.Internal.Correction>
   9.000000E+99

> <Gold.Chemscore.Hbonds>
donor molecule, donor type, donor heavy atom, donor atom, acceptor molecule, acceptor atom, score
      L1  H     7    24       P1  7948  0.98
      L1  H    10    25       P1  7948  0.94
      P1  H  7989  7998       L1     3  0.15

> <Gold.Chemscore.Hbond.Weighted>
-7.8777

> <Gold.Chemscore.Metal.Weighted>
-0.0000

> <Gold.Chemscore.Lipo.Weighted>
-7.1052

> <Gold.Chemscore.Internal_Hbond.Weighted>
0.0000

> <Gold.Chemscore.DEClash.Weighted>
0.1906

> <Gold.Chemscore.DEInternal.Weighted>
0.7067

> <Gold.Chemscore.Rot.Weighted>
3.4442

> <Gold.Chemscore.Internal.Correction.Weighted>
   9.000000E+99

> <Gold.Protein.RotatedTorsions>
[ 6907 6896 6895 6894 ] final  150.55 input  -60.11 | X-H torsion
[ 7974 7965 7964 7962 ] final -157.57 input  175.53 | X-H torsion
[ 8008 7997 7996 7995 ] final  152.89 input   59.86 | X-H torsion
[ 10167 10162 10161 10158 ] final  -57.01 input  -65.29 | X-H torsion
[ 10718 10713 10712 10709 ] final  153.28 input   66.30 | X-H torsion
[ 10763 10752 10751 10750 ] final   74.43 input  -60.55 | X-H torsion
[ 11005 11000 10999 10996 ] final  -21.94 input  -57.11 | X-H torsion

> <Gold.Protein.ActiveResidues>
 VAL166  LYS551  ARG553  GLY616  TRP617  ASP618  TYR619  PRO620  LYS621  CYS622 
 ASP623  PHE694  ASN695  SER759  ASP760  ASP761  ALA762  ILE779  LEU786  VAL792 
 PHE793  MET794  SER795  GLU796  ALA797  LYS798  CYS799  TRP800  GLU811  SER814 

> <Gold.Protein.RotatedAtoms>
  152.1129  133.4310  159.4639 H   0  0  0  0  0  0  0  0  0  0  0  0  # atno 6907 bound_to 6896
  150.6868  134.2627  159.4565 H   0  0  0  0  0  0  0  0  0  0  0  0  # atno 6908 bound_to 6896
  152.0497  134.9661  160.0625 H   0  0  0  0  0  0  0  0  0  0  0  0  # atno 6909 bound_to 6896
  144.7542  140.3950  143.6024 H   0  0  0  0  0  0  0  0  0  0  0  0  # atno 7974 bound_to 7965
  156.2607  140.2008  156.6405 H   0  0  0  0  0  0  0  0  0  0  0  0  # atno 8008 bound_to 7997
  154.6613  140.0560  157.0090 H   0  0  0  0  0  0  0  0  0  0  0  0  # atno 8009 bound_to 7997
  155.1272  140.3230  155.4486 H   0  0  0  0  0  0  0  0  0  0  0  0  # atno 8010 bound_to 7997
  140.6283  143.2448  151.5306 H   0  0  0  0  0  0  0  0  0  0  0  0  # atno 10167 bound_to 10162
  157.2468  131.0770  151.1756 H   0  0  0  0  0  0  0  0  0  0  0  0  # atno 10718 bound_to 10713
  153.0586  135.5026  154.8041 H   0  0  0  0  0  0  0  0  0  0  0  0  # atno 10763 bound_to 10752
  154.6847  135.2974  154.9566 H   0  0  0  0  0  0  0  0  0  0  0  0  # atno 10764 bound_to 10752
  154.0340  135.6726  153.4836 H   0  0  0  0  0  0  0  0  0  0  0  0  # atno 10765 bound_to 10752
  140.8609  133.7789  156.0074 H   0  0  0  0  0  0  0  0  0  0  0  0  # atno 11005 bound_to 11000
  145.6835  139.1623  143.2687 LP  0  0  0  0  0  0  0  0  0  0  0  0  # atno 17320 bound_to 7965
  146.1533  140.6894  142.9312 LP  0  0  0  0  0  0  0  0  0  0  0  0  # atno 17321 bound_to 7965
  139.5501  144.2419  152.1514 LP  0  0  0  0  0  0  0  0  0  0  0  0  # atno 17342 bound_to 10162
  140.1656  144.4984  150.6608 LP  0  0  0  0  0  0  0  0  0  0  0  0  # atno 17343 bound_to 10162
  157.3321  130.6990  149.6330 LP  0  0  0  0  0  0  0  0  0  0  0  0  # atno 17370 bound_to 10713
  155.9667  130.4304  150.4877 LP  0  0  0  0  0  0  0  0  0  0  0  0  # atno 17371 bound_to 10713
  140.8684  134.2757  157.5202 LP  0  0  0  0  0  0  0  0  0  0  0  0  # atno 17394 bound_to 11000
  139.8707  134.9554  156.4206 LP  0  0  0  0  0  0  0  0  0  0  0  0  # atno 17395 bound_to 11000

$$$$
