AV-unprocessed.smi:3253|AV-procd|sdf|12449|dock6
  -GOLD-   2272018343D 1   1.00000     0.00000
 Structure written by MMmdl.
 36 37  0  0  0  0  0  0  0  0  1 V2000
  146.9369  136.6894  154.1835 C   0  0  0  0  0  0  0  0  0  0  0  0
  146.7340  138.0615  153.5140 C   0  0  2  0  0  0  0  0  0  0  0  0
  146.2281  137.9557  152.0617 C   0  0  0  0  0  0  0  0  0  0  0  0
  145.4251  136.7696  151.8303 N   0  0  0  0  0  0  0  0  0  0  0  0
  144.1298  136.5316  152.2717 C   0  0  0  0  0  0  0  0  0  0  0  0
  143.7837  135.2793  151.8165 C   0  0  0  0  0  0  0  0  0  0  0  0
  144.8460  134.7298  151.1025 N   0  0  0  0  0  0  0  0  0  0  0  0
  145.7820  135.6682  151.1556 C   0  0  0  0  0  0  0  0  0  0  0  0
  147.9808  138.8217  153.5299 N   0  0  0  0  0  0  0  0  0  0  0  0
  148.6624  139.1757  154.6309 C   0  0  0  0  0  0  0  0  0  0  0  0
  148.3031  138.8826  155.7717 O   0  0  0  0  0  0  0  0  0  0  0  0
  149.9489  139.9866  154.4092 C   0  0  2  0  0  0  0  0  0  0  0  0
  151.1830  139.2489  154.9675 C   0  0  0  0  0  0  0  0  0  0  0  0
  151.6304  140.1113  156.1362 C   0  0  0  0  0  0  0  0  0  0  0  0
  152.5425  139.7872  156.8952 O   0  0  0  0  0  0  0  0  0  0  0  0
  150.9013  141.2278  156.2131 N   0  0  0  0  0  0  0  0  0  0  0  0
  151.0478  142.2727  157.2173 C   0  0  0  0  0  0  0  0  0  0  0  0
  149.9241  141.3453  155.1442 C   0  0  0  0  0  0  0  0  0  0  0  0
  146.0024  136.1314  154.2427 H   0  0  0  0  0  0  0  0  0  0  0  0
  147.3095  136.7975  155.2026 H   0  0  0  0  0  0  0  0  0  0  0  0
  147.6532  136.0812  153.6306 H   0  0  0  0  0  0  0  0  0  0  0  0
  145.9860  138.6129  154.0873 H   0  0  0  0  0  0  0  0  0  0  0  0
  145.6239  138.8277  151.8073 H   0  0  0  0  0  0  0  0  0  0  0  0
  147.0691  137.9446  151.3666 H   0  0  0  0  0  0  0  0  0  0  0  0
  143.5754  137.2532  152.8535 H   0  0  0  0  0  0  0  0  0  0  0  0
  142.8601  134.7350  151.9480 H   0  0  0  0  0  0  0  0  0  0  0  0
  146.7503  135.5529  150.6908 H   0  0  0  0  0  0  0  0  0  0  0  0
  148.3521  139.1042  152.6344 H   0  0  0  0  0  0  0  0  0  0  0  0
  150.0793  140.1591  153.3393 H   0  0  0  0  0  0  0  0  0  0  0  0
  150.9731  138.2314  155.3027 H   0  0  0  0  0  0  0  0  0  0  0  0
  151.9805  139.2001  154.2255 H   0  0  0  0  0  0  0  0  0  0  0  0
  152.0639  142.6683  157.2145 H   0  0  0  0  0  0  0  0  0  0  0  0
  150.8344  141.8780  158.2113 H   0  0  0  0  0  0  0  0  0  0  0  0
  150.3632  143.0999  157.0273 H   0  0  0  0  0  0  0  0  0  0  0  0
  150.2184  142.1538  154.4738 H   0  0  0  0  0  0  0  0  0  0  0  0
  148.9420  141.5956  155.5499 H   0  0  0  0  0  0  0  0  0  0  0  0
  1  2  1  0  0  0  0
  1 19  1  0  0  0  0
  1 20  1  0  0  0  0
  1 21  1  0  0  0  0
  2  3  1  0  0  0  0
  2  9  1  0  0  0  0
  2 22  1  0  0  0  0
  3  4  1  0  0  0  0
  3 23  1  0  0  0  0
  3 24  1  0  0  0  0
  4  8  1  0  0  0  0
  4  5  1  0  0  0  0
  5  6  2  0  0  0  0
  5 25  1  0  0  0  0
  6  7  1  0  0  0  0
  6 26  1  0  0  0  0
  7  8  2  0  0  0  0
  8 27  1  0  0  0  0
  9 10  1  0  0  0  0
  9 28  1  0  0  0  0
 10 11  2  0  0  0  0
 10 12  1  0  0  0  0
 12 18  1  0  0  0  0
 12 13  1  0  0  0  0
 12 29  1  0  0  0  0
 13 14  1  0  0  0  0
 13 30  1  0  0  0  0
 13 31  1  0  0  0  0
 14 15  2  0  0  0  0
 14 16  1  0  0  0  0
 16 17  1  0  0  0  0
 16 18  1  0  0  0  0
 17 32  1  0  0  0  0
 17 33  1  0  0  0  0
 17 34  1  0  0  0  0
 18 35  1  0  0  0  0
 18 36  1  0  0  0  0
M  END
> <s_m_source_file>
AV-unprocessed.smi

> <i_m_source_file_index>
3253

> <i_lp_mmshare_version>
43012

> <i_f3d_flags>
0

> <s_epik_input>
W2NIXTFuW2NIXVtjSF1uMVtDSDJdW0NAQEhdKFtDSDNdKVtOSF1DKD1PKVtDQEBIXTJbQ0gyXUMoPU8pTihbQ0gzXSlbQ0gyXTI=

> <s_epik_cmdline>
J2VwaWtfcHl0aG9uJywgJy1waCcsICc3LjAnLCAnLXRuJywgJzgnLCAnLW1hJywgJzIwMCcsICctbWV0YWxfYmluZGluZycsICctaW1hZScsICc8aW5maWxlLm1hZT4nLCAnLW9tYWUnLCAnPG91dGZpbGUubWFlPic=

> <r_lp_tautomer_probability>
1

> <r_epik_Ionization_Penalty>
0.628884

> <r_epik_Ionization_Penalty_Charging>
0.628884

> <r_epik_Ionization_Penalty_Neutral>
2.35084e-08

> <r_epik_State_Penalty>
0.64556

> <r_epik_Charging_Adjusted_Penalty>
1.27444

> <i_epik_Tot_Q>
0

> <i_epik_Tot_abs_Q>
0

> <r_epik_Metal_State_Penalty>
0.308736

> <b_epik_Metal_Only>
0

> <s_lp_Force_Field>
OPLS_2005

> <r_lp_Energy>
13.4006

> <b_lp_Chiralities_Consistent>
1

> <s_lp_Variant>
AV-unprocessed.smi:3253-5

> <Gold.Version>
5.8.1

> <Gold.Id.Protein>
6NUR|6NUR_protein|mol2

> <Gold.PLP.Fitness>
37.9602

> <Gold.PLP.PLP>
-31.1165

> <Gold.PLP.part.hbond>
-1.9789

> <Gold.PLP.part.metal>
0.0000

> <Gold.PLP.part.buried>
1.7056

> <Gold.PLP.part.nonpolar>
-29.7879

> <Gold.PLP.part.repulsive>
0.2004

> <Gold.PLP.ligand.clash>
0.0000

> <Gold.PLP.ligand.torsion>
0.5194

> <Gold.PLP.Chemscore.Hbond>
1.6988

> <Gold.PLP.Chemscore.CHOScore>
0.9153

> <Gold.PLP.Chemscore.Metal>
0.0000

> <Gold.Chemscore.Hbonds>
donor molecule, donor type, donor heavy atom, donor atom, acceptor molecule, acceptor atom, score
      L1  H     9    28       P1  7957  0.73
      P1  H  7997  8008       L1    15  1.00
      L1  C     8    27       P1  7948  0.89

> <Gold.PLP.Chemscore.Internal.Correction>
0.0403

> <Gold.Rescore>
     Score         DG    S(hbond)    S(metal)    S(lipo)     H(rot)  DE(clash)    DE(int)     intcor
     10.94     -12.94       1.83        0.00      54.48       1.97       0.57       1.43       ----

> <Gold.Chemscore.Fitness>
10.9410

> <Gold.Chemscore.DG>
-12.9419

> <Gold.Chemscore.ZeroCoef>
-5.4800

> <Gold.Chemscore.Hbond>
1.8333

> <Gold.Chemscore.Metal>
0.0000

> <Gold.Chemscore.Lipo>
54.4764

> <Gold.Chemscore.Internal_Hbond>
0.0000

> <Gold.Chemscore.DEClash>
0.5707

> <Gold.Chemscore.DEInternal>
1.4302

> <Gold.Chemscore.Rot>
1.9669

> <Gold.Chemscore.Internal.Correction>
   9.000000E+99

> <Gold.Chemscore.Hbonds>
donor molecule, donor type, donor heavy atom, donor atom, acceptor molecule, acceptor atom, score
      L1  H     9    28       P1  7957  0.73
      P1  H  7997  8008       L1    15  0.94

> <Gold.Chemscore.Hbond.Weighted>
-6.1234

> <Gold.Chemscore.Metal.Weighted>
-0.0000

> <Gold.Chemscore.Lipo.Weighted>
-6.3737

> <Gold.Chemscore.Internal_Hbond.Weighted>
0.0000

> <Gold.Chemscore.DEClash.Weighted>
0.5707

> <Gold.Chemscore.DEInternal.Weighted>
1.4302

> <Gold.Chemscore.Rot.Weighted>
5.0352

> <Gold.Chemscore.Internal.Correction.Weighted>
   9.000000E+99

> <Gold.Protein.RotatedTorsions>
[ 6907 6896 6895 6894 ] final   43.95 input  -60.11 | X-H torsion
[ 7974 7965 7964 7962 ] final    0.34 input  175.53 | X-H torsion
[ 8008 7997 7996 7995 ] final  -42.31 input   59.86 | X-H torsion
[ 10167 10162 10161 10158 ] final  101.25 input  -65.29 | X-H torsion
[ 10718 10713 10712 10709 ] final    2.34 input   66.30 | X-H torsion
[ 10763 10752 10751 10750 ] final   18.90 input  -60.55 | X-H torsion
[ 11005 11000 10999 10996 ] final  130.09 input  -57.11 | X-H torsion

> <Gold.Protein.ActiveResidues>
 VAL166  LYS551  ARG553  GLY616  TRP617  ASP618  TYR619  PRO620  LYS621  CYS622 
 ASP623  PHE694  ASN695  SER759  ASP760  ASP761  ALA762  ILE779  LEU786  VAL792 
 PHE793  MET794  SER795  GLU796  ALA797  LYS798  CYS799  TRP800  GLU811  SER814 

> <Gold.Protein.RotatedAtoms>
  152.2266  134.8362  160.0478 H   0  0  0  0  0  0  0  0  0  0  0  0  # atno 6907 bound_to 6896
  151.9126  133.3560  159.3877 H   0  0  0  0  0  0  0  0  0  0  0  0  # atno 6908 bound_to 6896
  150.7014  134.4642  159.5439 H   0  0  0  0  0  0  0  0  0  0  0  0  # atno 6909 bound_to 6896
  146.2433  140.1152  142.8342 H   0  0  0  0  0  0  0  0  0  0  0  0  # atno 7974 bound_to 7965
  154.3999  140.1477  156.3333 H   0  0  0  0  0  0  0  0  0  0  0  0  # atno 8008 bound_to 7997
  155.8423  140.3461  155.5618 H   0  0  0  0  0  0  0  0  0  0  0  0  # atno 8009 bound_to 7997
  155.8074  140.0879  157.1914 H   0  0  0  0  0  0  0  0  0  0  0  0  # atno 8010 bound_to 7997
  139.7455  144.6999  151.0511 H   0  0  0  0  0  0  0  0  0  0  0  0  # atno 10167 bound_to 10162
  156.8616  130.5588  149.5662 H   0  0  0  0  0  0  0  0  0  0  0  0  # atno 10718 bound_to 10713
  153.1209  135.6719  153.9338 H   0  0  0  0  0  0  0  0  0  0  0  0  # atno 10763 bound_to 10752
  153.8854  135.3053  155.3447 H   0  0  0  0  0  0  0  0  0  0  0  0  # atno 10764 bound_to 10752
  154.7620  135.4983  153.9562 H   0  0  0  0  0  0  0  0  0  0  0  0  # atno 10765 bound_to 10752
  139.9652  134.9592  156.9243 H   0  0  0  0  0  0  0  0  0  0  0  0  # atno 11005 bound_to 11000
  145.0453  140.8976  143.5028 LP  0  0  0  0  0  0  0  0  0  0  0  0  # atno 17320 bound_to 7965
  145.1240  139.2675  143.5573 LP  0  0  0  0  0  0  0  0  0  0  0  0  # atno 17321 bound_to 7965
  140.7791  143.4873  150.9940 LP  0  0  0  0  0  0  0  0  0  0  0  0  # atno 17342 bound_to 10162
  139.8561  143.7375  152.3176 LP  0  0  0  0  0  0  0  0  0  0  0  0  # atno 17343 bound_to 10162
  156.0774  130.5793  150.9499 LP  0  0  0  0  0  0  0  0  0  0  0  0  # atno 17370 bound_to 10713
  157.6247  131.0927  150.8556 LP  0  0  0  0  0  0  0  0  0  0  0  0  # atno 17371 bound_to 10713
  140.5412  134.0718  155.7342 LP  0  0  0  0  0  0  0  0  0  0  0  0  # atno 17394 bound_to 11000
  141.1332  133.9267  157.2491 LP  0  0  0  0  0  0  0  0  0  0  0  0  # atno 17395 bound_to 11000

$$$$
