AV-unprocessed.smi:2032|AV-procd|sdf|8234|dock8
  -GOLD-   2272010503D 1   1.00000     0.00000
 Structure written by MMmdl.
 42 43  0  0  0  0  0  0  0  0  1 V2000
  151.8831  144.9406  158.9522 C   0  0  0  0  0  0  0  0  0  0  0  0
  151.6738  143.4769  159.3545 C   0  0  1  0  0  0  0  0  0  0  0  0
  151.1827  142.6149  158.1758 C   0  0  0  0  0  0  0  0  0  0  0  0
  151.0490  141.1948  158.5194 N   0  0  0  0  0  0  0  0  0  0  0  0
  150.6091  140.3677  157.3711 C   0  0  1  0  0  0  0  0  0  0  0  0
  151.3328  140.7408  156.0523 C   0  0  0  0  0  0  0  0  0  0  0  0
  150.7700  138.8384  157.6123 C   0  0  0  0  0  0  0  0  0  0  0  0
  149.5636  138.2027  158.1357 N   0  0  0  0  0  0  0  0  0  0  0  0
  149.5379  137.3108  159.1368 C   0  0  0  0  0  0  0  0  0  0  0  0
  150.5458  136.9346  159.7360 O   0  0  0  0  0  0  0  0  0  0  0  0
  148.2839  136.8951  159.3867 N   0  0  0  0  0  0  0  0  0  0  0  0
  147.8489  135.9473  160.3500 C   0  0  0  0  0  0  0  0  0  0  0  0
  147.3680  134.7344  160.0527 N   0  0  0  0  0  0  0  0  0  0  0  0
  147.0139  134.0156  161.1974 C   0  0  0  0  0  0  0  0  0  0  0  0
  147.2333  134.7013  162.3661 C   0  0  0  0  0  0  0  0  0  0  0  0
  147.8995  136.2858  162.0738 S   0  0  0  0  0  0  0  0  0  0  0  0
  152.3308  140.7439  159.0730 C   0  0  0  0  0  0  0  0  0  0  0  0
  152.8186  141.6098  160.2500 C   0  0  1  0  0  0  0  0  0  0  0  0
  154.1957  141.1702  160.7582 C   0  0  0  0  0  0  0  0  0  0  0  0
  152.9130  142.9632  159.8252 O   0  0  0  0  0  0  0  0  0  0  0  0
  150.9533  145.3875  158.5994 H   0  0  0  0  0  0  0  0  0  0  0  0
  152.6213  145.0289  158.1546 H   0  0  0  0  0  0  0  0  0  0  0  0
  152.2348  145.5306  159.7989 H   0  0  0  0  0  0  0  0  0  0  0  0
  150.9431  143.4386  160.1643 H   0  0  0  0  0  0  0  0  0  0  0  0
  150.2247  143.0267  157.8664 H   0  0  0  0  0  0  0  0  0  0  0  0
  151.8650  142.7268  157.3315 H   0  0  0  0  0  0  0  0  0  0  0  0
  149.5464  140.5580  157.2140 H   0  0  0  0  0  0  0  0  0  0  0  0
  151.0484  140.0936  155.2235 H   0  0  0  0  0  0  0  0  0  0  0  0
  152.4153  140.6720  156.1641 H   0  0  0  0  0  0  0  0  0  0  0  0
  151.0915  141.7491  155.7189 H   0  0  0  0  0  0  0  0  0  0  0  0
  151.0385  138.3419  156.6794 H   0  0  0  0  0  0  0  0  0  0  0  0
  151.5679  138.6149  158.3187 H   0  0  0  0  0  0  0  0  0  0  0  0
  148.6896  138.4582  157.7001 H   0  0  0  0  0  0  0  0  0  0  0  0
  147.5562  137.2940  158.8124 H   0  0  0  0  0  0  0  0  0  0  0  0
  146.6109  133.0196  161.0883 H   0  0  0  0  0  0  0  0  0  0  0  0
  147.0444  134.3717  163.3768 H   0  0  0  0  0  0  0  0  0  0  0  0
  152.2484  139.7232  159.4422 H   0  0  0  0  0  0  0  0  0  0  0  0
  153.0884  140.7370  158.2878 H   0  0  0  0  0  0  0  0  0  0  0  0
  152.1049  141.5444  161.0732 H   0  0  0  0  0  0  0  0  0  0  0  0
  154.1745  140.1365  161.1043 H   0  0  0  0  0  0  0  0  0  0  0  0
  154.5205  141.7930  161.5918 H   0  0  0  0  0  0  0  0  0  0  0  0
  154.9487  141.2455  159.9731 H   0  0  0  0  0  0  0  0  0  0  0  0
  1  2  1  0  0  0  0
  1 21  1  0  0  0  0
  1 22  1  0  0  0  0
  1 23  1  0  0  0  0
  2 20  1  0  0  0  0
  2  3  1  0  0  0  0
  2 24  1  0  0  0  0
  3  4  1  0  0  0  0
  3 25  1  0  0  0  0
  3 26  1  0  0  0  0
  4  5  1  0  0  0  0
  4 17  1  0  0  0  0
  5  6  1  0  0  0  0
  5  7  1  0  0  0  0
  5 27  1  0  0  0  0
  6 28  1  0  0  0  0
  6 29  1  0  0  0  0
  6 30  1  0  0  0  0
  7  8  1  0  0  0  0
  7 31  1  0  0  0  0
  7 32  1  0  0  0  0
  8  9  1  0  0  0  0
  8 33  1  0  0  0  0
  9 10  2  0  0  0  0
  9 11  1  0  0  0  0
 11 12  1  0  0  0  0
 11 34  1  0  0  0  0
 12 16  1  0  0  0  0
 12 13  2  0  0  0  0
 13 14  1  0  0  0  0
 14 15  2  0  0  0  0
 14 35  1  0  0  0  0
 15 16  1  0  0  0  0
 15 36  1  0  0  0  0
 17 18  1  0  0  0  0
 17 37  1  0  0  0  0
 17 38  1  0  0  0  0
 18 19  1  0  0  0  0
 18 20  1  0  0  0  0
 18 39  1  0  0  0  0
 19 40  1  0  0  0  0
 19 41  1  0  0  0  0
 19 42  1  0  0  0  0
M  END
> <s_m_source_file>
AV-unprocessed.smi

> <i_m_source_file_index>
2032

> <i_lp_mmshare_version>
43012

> <i_f3d_flags>
0

> <s_epik_input>
W0NIM11bQ0BASF0xW0NIMl1OKFtDSDJdW0NASF0oTzEpW0NIM10pW0NASF0oW0NIM10pW0NIMl1bTkhdQyg9TylbTkhdYzJuW2NIXVtjSF1zMg==

> <s_epik_cmdline>
J2VwaWtfcHl0aG9uJywgJy1waCcsICc3LjAnLCAnLXRuJywgJzgnLCAnLW1hJywgJzIwMCcsICctbWV0YWxfYmluZGluZycsICctaW1hZScsICc8aW5maWxlLm1hZT4nLCAnLW9tYWUnLCAnPG91dGZpbGUubWFlPic=

> <r_lp_tautomer_probability>
0.999

> <r_epik_Ionization_Penalty>
0.219202

> <r_epik_Ionization_Penalty_Charging>
0

> <r_epik_Ionization_Penalty_Neutral>
0.219202

> <r_epik_State_Penalty>
0.209349

> <r_epik_Charging_Adjusted_Penalty>
0.209349

> <i_epik_Tot_Q>
0

> <i_epik_Tot_abs_Q>
0

> <r_epik_Metal_State_Penalty>
0.247737

> <b_epik_Metal_Only>
0

> <s_lp_Force_Field>
OPLS_2005

> <r_lp_Energy>
24.906

> <b_lp_Chiralities_Consistent>
1

> <s_lp_Variant>
AV-unprocessed.smi:2032-4

> <Gold.Version>
5.8.1

> <Gold.Id.Protein>
6NUR|6NUR_protein|mol2

> <Gold.PLP.Fitness>
41.1624

> <Gold.PLP.PLP>
-41.1724

> <Gold.PLP.part.hbond>
-1.1163

> <Gold.PLP.part.metal>
0.0000

> <Gold.PLP.part.buried>
-5.4671

> <Gold.PLP.part.nonpolar>
-35.4731

> <Gold.PLP.part.repulsive>
0.3302

> <Gold.PLP.ligand.clash>
0.0000

> <Gold.PLP.ligand.torsion>
1.5188

> <Gold.PLP.Chemscore.Hbond>
1.0000

> <Gold.PLP.Chemscore.CHOScore>
0.0000

> <Gold.PLP.Chemscore.Metal>
0.0000

> <Gold.Chemscore.Hbonds>
donor molecule, donor type, donor heavy atom, donor atom, acceptor molecule, acceptor atom, score
      P1  H  6896  6907       L1    10  1.00

> <Gold.PLP.Chemscore.Internal.Correction>
0.0275

> <Gold.Rescore>
     Score         DG    S(hbond)    S(metal)    S(lipo)     H(rot)  DE(clash)    DE(int)     intcor
     15.11     -16.56       0.99        0.00     100.78       1.57       0.00       1.45       ----

> <Gold.Chemscore.Fitness>
15.1121

> <Gold.Chemscore.DG>
-16.5614

> <Gold.Chemscore.ZeroCoef>
-5.4800

> <Gold.Chemscore.Hbond>
0.9947

> <Gold.Chemscore.Metal>
0.0000

> <Gold.Chemscore.Lipo>
100.7777

> <Gold.Chemscore.Internal_Hbond>
0.0000

> <Gold.Chemscore.DEClash>
0.0000

> <Gold.Chemscore.DEInternal>
1.4493

> <Gold.Chemscore.Rot>
1.5750

> <Gold.Chemscore.Internal.Correction>
   9.000000E+99

> <Gold.Chemscore.Hbonds>
donor molecule, donor type, donor heavy atom, donor atom, acceptor molecule, acceptor atom, score
      P1  H  6896  6907       L1    10  0.89

> <Gold.Chemscore.Hbond.Weighted>
-3.3223

> <Gold.Chemscore.Metal.Weighted>
-0.0000

> <Gold.Chemscore.Lipo.Weighted>
-11.7910

> <Gold.Chemscore.Internal_Hbond.Weighted>
0.0000

> <Gold.Chemscore.DEClash.Weighted>
0.0000

> <Gold.Chemscore.DEInternal.Weighted>
1.4493

> <Gold.Chemscore.Rot.Weighted>
4.0319

> <Gold.Chemscore.Internal.Correction.Weighted>
   9.000000E+99

> <Gold.Protein.RotatedTorsions>
[ 6907 6896 6895 6894 ] final  -41.89 input  -60.11 | X-H torsion
[ 7974 7965 7964 7962 ] final  113.16 input  175.53 | X-H torsion
[ 8008 7997 7996 7995 ] final  -16.14 input   59.86 | X-H torsion
[ 10167 10162 10161 10158 ] final   56.16 input  -65.29 | X-H torsion
[ 10718 10713 10712 10709 ] final  134.69 input   66.30 | X-H torsion
[ 10763 10752 10751 10750 ] final -160.22 input  -60.55 | X-H torsion
[ 11005 11000 10999 10996 ] final -157.02 input  -57.11 | X-H torsion

> <Gold.Protein.ActiveResidues>
 VAL166  LYS551  ARG553  GLY616  TRP617  ASP618  TYR619  PRO620  LYS621  CYS622 
 ASP623  PHE694  ASN695  SER759  ASP760  ASP761  ALA762  ILE779  LEU786  VAL792 
 PHE793  MET794  SER795  GLU796  ALA797  LYS798  CYS799  TRP800  GLU811  SER814 

> <Gold.Protein.RotatedAtoms>
  150.9615  134.9002  159.7733 H   0  0  0  0  0  0  0  0  0  0  0  0  # atno 6907 bound_to 6896
  152.5158  134.3666  159.9313 H   0  0  0  0  0  0  0  0  0  0  0  0  # atno 6908 bound_to 6896
  151.3678  133.3825  159.2731 H   0  0  0  0  0  0  0  0  0  0  0  0  # atno 6909 bound_to 6896
  145.2204  139.2864  143.4221 H   0  0  0  0  0  0  0  0  0  0  0  0  # atno 7974 bound_to 7965
  154.5076  140.2177  155.9221 H   0  0  0  0  0  0  0  0  0  0  0  0  # atno 8008 bound_to 7997
  156.1512  140.3161  155.8618 H   0  0  0  0  0  0  0  0  0  0  0  0  # atno 8009 bound_to 7997
  155.3934  140.0479  157.3030 H   0  0  0  0  0  0  0  0  0  0  0  0  # atno 8010 bound_to 7997
  140.2117  144.3882  150.6486 H   0  0  0  0  0  0  0  0  0  0  0  0  # atno 10167 bound_to 10162
  157.4647  131.1076  150.9877 H   0  0  0  0  0  0  0  0  0  0  0  0  # atno 10718 bound_to 10713
  154.7409  135.3068  154.8730 H   0  0  0  0  0  0  0  0  0  0  0  0  # atno 10763 bound_to 10752
  153.9545  135.6760  153.4748 H   0  0  0  0  0  0  0  0  0  0  0  0  # atno 10764 bound_to 10752
  153.1008  135.4913  154.8788 H   0  0  0  0  0  0  0  0  0  0  0  0  # atno 10765 bound_to 10752
  140.6692  134.4266  157.5232 H   0  0  0  0  0  0  0  0  0  0  0  0  # atno 11005 bound_to 11000
  146.3377  140.2508  142.8598 LP  0  0  0  0  0  0  0  0  0  0  0  0  # atno 17320 bound_to 7965
  144.9770  140.8424  143.5420 LP  0  0  0  0  0  0  0  0  0  0  0  0  # atno 17321 bound_to 7965
  140.6319  143.2189  151.6478 LP  0  0  0  0  0  0  0  0  0  0  0  0  # atno 17342 bound_to 10162
  139.5177  144.3306  152.0830 LP  0  0  0  0  0  0  0  0  0  0  0  0  # atno 17343 bound_to 10162
  157.0662  130.5845  149.5394 LP  0  0  0  0  0  0  0  0  0  0  0  0  # atno 17370 bound_to 10713
  156.0045  130.5129  150.7780 LP  0  0  0  0  0  0  0  0  0  0  0  0  # atno 17371 bound_to 10713
  139.8987  134.8607  156.1990 LP  0  0  0  0  0  0  0  0  0  0  0  0  # atno 17394 bound_to 11000
  141.0405  133.6940  156.1590 LP  0  0  0  0  0  0  0  0  0  0  0  0  # atno 17395 bound_to 11000

$$$$
