AV-unprocessed.smi:3158|AV-procd|sdf|12045|dock4
  -GOLD-   2272017473D 1   1.00000     0.00000
 Structure written by MMmdl.
 39 39  0  0  0  0  0  0  0  0  1 V2000
  143.7782  142.4854  154.8114 C   0  0  0  0  0  0  0  0  0  0  0  0
  145.2328  142.1103  154.4924 C   0  0  0  0  0  0  0  0  0  0  0  0
  146.1782  143.3220  154.3924 C   0  0  2  0  0  0  0  0  0  0  0  0
  146.0374  144.0370  153.0391 C   0  0  0  0  0  0  0  0  0  0  0  0
  147.5626  142.9000  154.5894 N   0  0  0  0  0  0  0  0  0  0  0  0
  148.1783  141.9079  153.9270 C   0  0  0  0  0  0  0  0  0  0  0  0
  147.6287  141.2314  153.0571 O   0  0  0  0  0  0  0  0  0  0  0  0
  149.6293  141.6075  154.3392 C   0  0  2  0  0  0  0  0  0  0  0  0
  149.9904  140.1435  154.0405 C   0  0  0  0  0  0  0  0  0  0  0  0
  149.9056  141.9084  155.7557 N   0  0  0  0  0  0  0  0  0  0  0  0
  151.2470  141.5442  156.1987 C   0  0  0  0  0  0  0  0  0  0  0  0
  151.2354  141.2993  157.7138 C   0  0  0  0  0  0  0  0  0  0  0  0
  151.3962  142.5368  158.4517 N   0  0  0  0  0  0  0  0  0  0  0  0
  151.3246  143.8307  157.9809 C   0  0  0  0  0  0  0  0  0  0  0  0
  151.5505  144.6613  159.0409 C   0  0  0  0  0  0  0  0  0  0  0  0
  151.7548  143.7702  160.1311 C   0  0  0  0  0  0  0  0  0  0  0  0
  151.6629  142.4990  159.7750 N   0  0  0  0  0  0  0  0  0  0  0  0
  143.1450  141.5982  154.8251 H   0  0  0  0  0  0  0  0  0  0  0  0
  143.3753  143.1685  154.0634 H   0  0  0  0  0  0  0  0  0  0  0  0
  143.6916  142.9661  155.7861 H   0  0  0  0  0  0  0  0  0  0  0  0
  145.6000  141.4164  155.2498 H   0  0  0  0  0  0  0  0  0  0  0  0
  145.2506  141.5644  153.5485 H   0  0  0  0  0  0  0  0  0  0  0  0
  145.9030  144.0256  155.1806 H   0  0  0  0  0  0  0  0  0  0  0  0
  145.0143  144.3792  152.8814 H   0  0  0  0  0  0  0  0  0  0  0  0
  146.2988  143.3763  152.2118 H   0  0  0  0  0  0  0  0  0  0  0  0
  146.6863  144.9117  152.9835 H   0  0  0  0  0  0  0  0  0  0  0  0
  148.0910  143.3932  155.2945 H   0  0  0  0  0  0  0  0  0  0  0  0
  150.2880  142.2318  153.7326 H   0  0  0  0  0  0  0  0  0  0  0  0
  149.8141  139.8972  152.9925 H   0  0  0  0  0  0  0  0  0  0  0  0
  149.4063  139.4514  154.6486 H   0  0  0  0  0  0  0  0  0  0  0  0
  151.0443  139.9529  154.2456 H   0  0  0  0  0  0  0  0  0  0  0  0
  149.7247  142.8788  155.9706 H   0  0  0  0  0  0  0  0  0  0  0  0
  151.5753  140.6443  155.6766 H   0  0  0  0  0  0  0  0  0  0  0  0
  151.9588  142.3377  155.9675 H   0  0  0  0  0  0  0  0  0  0  0  0
  150.2962  140.8358  158.0193 H   0  0  0  0  0  0  0  0  0  0  0  0
  152.0355  140.6144  158.0002 H   0  0  0  0  0  0  0  0  0  0  0  0
  151.1223  144.0499  156.9427 H   0  0  0  0  0  0  0  0  0  0  0  0
  151.5683  145.7409  159.0381 H   0  0  0  0  0  0  0  0  0  0  0  0
  151.9662  144.0072  161.1634 H   0  0  0  0  0  0  0  0  0  0  0  0
  1  2  1  0  0  0  0
  1 18  1  0  0  0  0
  1 19  1  0  0  0  0
  1 20  1  0  0  0  0
  2  3  1  0  0  0  0
  2 21  1  0  0  0  0
  2 22  1  0  0  0  0
  3  4  1  0  0  0  0
  3  5  1  0  0  0  0
  3 23  1  0  0  0  0
  4 24  1  0  0  0  0
  4 25  1  0  0  0  0
  4 26  1  0  0  0  0
  5  6  1  0  0  0  0
  5 27  1  0  0  0  0
  6  7  2  0  0  0  0
  6  8  1  0  0  0  0
  8  9  1  0  0  0  0
  8 10  1  0  0  0  0
  8 28  1  0  0  0  0
  9 29  1  0  0  0  0
  9 30  1  0  0  0  0
  9 31  1  0  0  0  0
 10 11  1  0  0  0  0
 10 32  1  0  0  0  0
 11 12  1  0  0  0  0
 11 33  1  0  0  0  0
 11 34  1  0  0  0  0
 12 13  1  0  0  0  0
 12 35  1  0  0  0  0
 12 36  1  0  0  0  0
 13 17  1  0  0  0  0
 13 14  1  0  0  0  0
 14 15  2  0  0  0  0
 14 37  1  0  0  0  0
 15 16  1  0  0  0  0
 15 38  1  0  0  0  0
 16 17  2  0  0  0  0
 16 39  1  0  0  0  0
M  END
> <s_m_source_file>
AV-unprocessed.smi

> <i_m_source_file_index>
3158

> <i_lp_mmshare_version>
43012

> <i_f3d_flags>
0

> <s_epik_input>
W0NIM11bQ0gyXVtDQEhdKFtDSDNdKVtOSF1DKD1PKVtDQEhdKFtDSDNdKVtOSF1bQ0gyXVtDSDJdbjFbY0hdW2NIXVtjSF1uMQ==

> <s_epik_cmdline>
J2VwaWtfcHl0aG9uJywgJy1waCcsICc3LjAnLCAnLXRuJywgJzgnLCAnLW1hJywgJzIwMCcsICctbWV0YWxfYmluZGluZycsICctaW1hZScsICc8aW5maWxlLm1hZT4nLCAnLW9tYWUnLCAnPG91dGZpbGUubWFlPic=

> <r_lp_tautomer_probability>
1

> <r_epik_Ionization_Penalty>
0.724013

> <r_epik_Ionization_Penalty_Charging>
0

> <r_epik_Ionization_Penalty_Neutral>
0.724013

> <r_epik_State_Penalty>
0.74758

> <r_epik_Charging_Adjusted_Penalty>
0.74758

> <i_epik_Tot_Q>
0

> <i_epik_Tot_abs_Q>
0

> <r_epik_Metal_State_Penalty>
0.746846

> <b_epik_Metal_Only>
0

> <s_lp_Force_Field>
OPLS_2005

> <r_lp_Energy>
5.18205

> <b_lp_Chiralities_Consistent>
1

> <s_lp_Variant>
AV-unprocessed.smi:3158-5

> <Gold.Version>
5.8.1

> <Gold.Id.Protein>
6NUR|6NUR_protein|mol2

> <Gold.PLP.Fitness>
45.3773

> <Gold.PLP.PLP>
-39.1601

> <Gold.PLP.part.hbond>
-2.0000

> <Gold.PLP.part.metal>
0.0000

> <Gold.PLP.part.buried>
-5.5164

> <Gold.PLP.part.nonpolar>
-32.4120

> <Gold.PLP.part.repulsive>
0.2876

> <Gold.PLP.ligand.clash>
0.0000

> <Gold.PLP.ligand.torsion>
1.4351

> <Gold.PLP.Chemscore.Hbond>
1.9440

> <Gold.PLP.Chemscore.CHOScore>
1.0000

> <Gold.PLP.Chemscore.Metal>
0.0000

> <Gold.Chemscore.Hbonds>
donor molecule, donor type, donor heavy atom, donor atom, acceptor molecule, acceptor atom, score
      L1  H     5    27       P1  8028  0.90
      L1  H    10    32       P1  8028  0.96
      L1  C    14    37       P1  8028  0.73

> <Gold.PLP.Chemscore.Internal.Correction>
0.2555

> <Gold.Rescore>
     Score         DG    S(hbond)    S(metal)    S(lipo)     H(rot)  DE(clash)    DE(int)     intcor
     13.95     -16.01       1.71        0.00      87.73       2.12       0.07       2.00       ----

> <Gold.Chemscore.Fitness>
13.9465

> <Gold.Chemscore.DG>
-16.0126

> <Gold.Chemscore.ZeroCoef>
-5.4800

> <Gold.Chemscore.Hbond>
1.7080

> <Gold.Chemscore.Metal>
0.0000

> <Gold.Chemscore.Lipo>
87.7257

> <Gold.Chemscore.Internal_Hbond>
0.0000

> <Gold.Chemscore.DEClash>
0.0686

> <Gold.Chemscore.DEInternal>
1.9975

> <Gold.Chemscore.Rot>
2.1234

> <Gold.Chemscore.Internal.Correction>
   9.000000E+99

> <Gold.Chemscore.Hbonds>
donor molecule, donor type, donor heavy atom, donor atom, acceptor molecule, acceptor atom, score
      L1  H     5    27       P1  8028  0.66
      L1  H    10    32       P1  8028  0.89

> <Gold.Chemscore.Hbond.Weighted>
-5.7046

> <Gold.Chemscore.Metal.Weighted>
-0.0000

> <Gold.Chemscore.Lipo.Weighted>
-10.2639

> <Gold.Chemscore.Internal_Hbond.Weighted>
0.0000

> <Gold.Chemscore.DEClash.Weighted>
0.0686

> <Gold.Chemscore.DEInternal.Weighted>
1.9975

> <Gold.Chemscore.Rot.Weighted>
5.4359

> <Gold.Chemscore.Internal.Correction.Weighted>
   9.000000E+99

> <Gold.Protein.RotatedTorsions>
[ 6907 6896 6895 6894 ] final   66.97 input  -60.11 | X-H torsion
[ 7974 7965 7964 7962 ] final  -68.46 input  175.53 | X-H torsion
[ 8008 7997 7996 7995 ] final   51.66 input   59.86 | X-H torsion
[ 10167 10162 10161 10158 ] final  -13.65 input  -65.29 | X-H torsion
[ 10718 10713 10712 10709 ] final  -14.75 input   66.30 | X-H torsion
[ 10763 10752 10751 10750 ] final  -41.59 input  -60.55 | X-H torsion
[ 11005 11000 10999 10996 ] final   51.79 input  -57.11 | X-H torsion

> <Gold.Protein.ActiveResidues>
 VAL166  LYS551  ARG553  GLY616  TRP617  ASP618  TYR619  PRO620  LYS621  CYS622 
 ASP623  PHE694  ASN695  SER759  ASP760  ASP761  ALA762  ILE779  LEU786  VAL792 
 PHE793  MET794  SER795  GLU796  ALA797  LYS798  CYS799  TRP800  GLU811  SER814 

> <Gold.Protein.RotatedAtoms>
  152.4519  134.5375  159.9829 H   0  0  0  0  0  0  0  0  0  0  0  0  # atno 6907 bound_to 6896
  151.5446  133.3421  159.2949 H   0  0  0  0  0  0  0  0  0  0  0  0  # atno 6908 bound_to 6896
  150.8451  134.7788  159.7026 H   0  0  0  0  0  0  0  0  0  0  0  0  # atno 6909 bound_to 6896
  145.7162  140.9058  143.0654 H   0  0  0  0  0  0  0  0  0  0  0  0  # atno 7974 bound_to 7965
  155.4389  140.3453  155.4288 H   0  0  0  0  0  0  0  0  0  0  0  0  # atno 8008 bound_to 7997
  156.1291  140.1509  156.9123 H   0  0  0  0  0  0  0  0  0  0  0  0  # atno 8009 bound_to 7997
  154.4880  140.0849  156.7511 H   0  0  0  0  0  0  0  0  0  0  0  0  # atno 8010 bound_to 7997
  140.7186  143.5404  150.9416 H   0  0  0  0  0  0  0  0  0  0  0  0  # atno 10167 bound_to 10162
  156.6115  130.4851  149.6199 H   0  0  0  0  0  0  0  0  0  0  0  0  # atno 10718 bound_to 10713
  153.9650  135.6735  153.4746 H   0  0  0  0  0  0  0  0  0  0  0  0  # atno 10763 bound_to 10752
  153.0820  135.4918  154.8518 H   0  0  0  0  0  0  0  0  0  0  0  0  # atno 10764 bound_to 10752
  154.7251  135.3125  154.8944 H   0  0  0  0  0  0  0  0  0  0  0  0  # atno 10765 bound_to 10752
  140.0903  134.5218  155.8859 H   0  0  0  0  0  0  0  0  0  0  0  0  # atno 11005 bound_to 11000
  144.6929  139.9141  143.7465 LP  0  0  0  0  0  0  0  0  0  0  0  0  # atno 17320 bound_to 7965
  146.0667  139.3658  143.0548 LP  0  0  0  0  0  0  0  0  0  0  0  0  # atno 17321 bound_to 7965
  139.9126  143.6702  152.3112 LP  0  0  0  0  0  0  0  0  0  0  0  0  # atno 17342 bound_to 10162
  139.7090  144.7623  151.1144 LP  0  0  0  0  0  0  0  0  0  0  0  0  # atno 17343 bound_to 10162
  156.2385  130.6837  151.1533 LP  0  0  0  0  0  0  0  0  0  0  0  0  # atno 17370 bound_to 10713
  157.7253  131.0654  150.5960 LP  0  0  0  0  0  0  0  0  0  0  0  0  # atno 17371 bound_to 10713
  141.2076  133.6665  156.6314 LP  0  0  0  0  0  0  0  0  0  0  0  0  # atno 17394 bound_to 11000
  140.3362  134.7887  157.4363 LP  0  0  0  0  0  0  0  0  0  0  0  0  # atno 17395 bound_to 11000

$$$$
