AV-unprocessed.smi:798|AV-procd|sdf|3773|dock10
  -GOLD-   22720 1203D 1   1.00000     0.00000
 Structure written by MMmdl.
 34 36  0  0  0  0  0  0  0  0  1 V2000
  150.0694  135.5953  158.3945 O   0  0  0  0  0  0  0  0  0  0  0  0
  149.5914  136.7295  158.3601 C   0  0  0  0  0  0  0  0  0  0  0  0
  148.6669  137.2107  159.2094 N   0  0  0  0  0  0  0  0  0  0  0  0
  148.0431  136.5481  160.2995 C   0  0  0  0  0  0  0  0  0  0  0  0
  147.4988  137.1872  161.3469 N   0  0  0  0  0  0  0  0  0  0  0  0
  146.9579  136.3030  162.2714 N   0  0  0  0  0  0  0  0  0  0  0  0
  147.1155  135.0335  161.8856 C   0  0  0  0  0  0  0  0  0  0  0  0
  147.9404  134.7941  160.3549 S   0  0  0  0  0  0  0  0  0  0  0  0
  149.9325  137.6484  157.4454 N   0  0  0  0  0  0  0  0  0  0  0  0
  150.9152  137.4566  156.3767 C   0  0  2  0  0  0  0  0  0  0  0  0
  152.2083  138.2766  156.6115 C   0  0  2  0  0  0  0  0  0  0  0  0
  151.8907  139.7577  156.9104 C   0  0  0  0  0  0  0  0  0  0  0  0
  151.3900  140.2745  155.5499 C   0  0  0  0  0  0  0  0  0  0  0  0
  151.5155  139.0334  154.6415 C   0  0  1  0  0  0  0  0  0  0  0  0
  152.7761  138.3840  155.1999 C   0  0  0  0  0  0  0  0  0  0  0  0
  150.4540  137.9566  154.9762 C   0  0  2  0  0  0  0  0  0  0  0  0
  148.9786  138.3913  154.8220 C   0  0  0  0  0  0  0  0  0  0  0  0
  148.6999  138.7165  153.4768 O   0  0  0  0  0  0  0  0  0  0  0  0
  148.3705  138.1631  159.0555 H   0  0  0  0  0  0  0  0  0  0  0  0
  146.7436  134.2324  162.5070 H   0  0  0  0  0  0  0  0  0  0  0  0
  149.4862  138.5528  157.4899 H   0  0  0  0  0  0  0  0  0  0  0  0
  151.1824  136.4000  156.3102 H   0  0  0  0  0  0  0  0  0  0  0  0
  152.8822  137.8239  157.3393 H   0  0  0  0  0  0  0  0  0  0  0  0
  151.1630  139.9009  157.7089 H   0  0  0  0  0  0  0  0  0  0  0  0
  152.7975  140.2882  157.2034 H   0  0  0  0  0  0  0  0  0  0  0  0
  150.3784  140.6749  155.5974 H   0  0  0  0  0  0  0  0  0  0  0  0
  152.0368  141.0762  155.1910 H   0  0  0  0  0  0  0  0  0  0  0  0
  151.5669  139.2764  153.5796 H   0  0  0  0  0  0  0  0  0  0  0  0
  153.6594  139.0220  155.1337 H   0  0  0  0  0  0  0  0  0  0  0  0
  153.0036  137.4160  154.7495 H   0  0  0  0  0  0  0  0  0  0  0  0
  150.6043  137.1299  154.2792 H   0  0  0  0  0  0  0  0  0  0  0  0
  148.3168  137.5750  155.1123 H   0  0  0  0  0  0  0  0  0  0  0  0
  148.7290  139.2407  155.4567 H   0  0  0  0  0  0  0  0  0  0  0  0
  148.9192  137.9728  152.9364 H   0  0  0  0  0  0  0  0  0  0  0  0
  1  2  2  0  0  0  0
  2  3  1  0  0  0  0
  2  9  1  0  0  0  0
  3  4  1  0  0  0  0
  3 19  1  0  0  0  0
  4  8  1  0  0  0  0
  4  5  2  0  0  0  0
  5  6  1  0  0  0  0
  6  7  2  0  0  0  0
  7  8  1  0  0  0  0
  7 20  1  0  0  0  0
  9 10  1  0  0  0  0
  9 21  1  0  0  0  0
 10 16  1  0  0  0  0
 10 11  1  0  0  0  0
 10 22  1  0  0  0  0
 11 15  1  0  0  0  0
 11 12  1  0  0  0  0
 11 23  1  0  0  0  0
 12 13  1  0  0  0  0
 12 24  1  0  0  0  0
 12 25  1  0  0  0  0
 13 14  1  0  0  0  0
 13 26  1  0  0  0  0
 13 27  1  0  0  0  0
 14 15  1  0  0  0  0
 14 16  1  0  0  0  0
 14 28  1  0  0  0  0
 15 29  1  0  0  0  0
 15 30  1  0  0  0  0
 16 17  1  0  0  0  0
 16 31  1  0  0  0  0
 17 18  1  0  0  0  0
 17 32  1  0  0  0  0
 17 33  1  0  0  0  0
 18 34  1  0  0  0  0
M  END
> <s_m_source_file>
AV-unprocessed.smi

> <i_m_source_file_index>
798

> <i_lp_mmshare_version>
43012

> <i_f3d_flags>
0

> <s_epik_input>
W0NIMl0xW0NIMl1bQ0BASF0oW0NIMl0yKVtDQEBIXShbQ0gyXVtPSF0pW0NAQEhdKFtDQEhdMTIpW05IXUMoPU8pW05IXWMzbm5bY0hdczM=

> <s_epik_cmdline>
J2VwaWtfcHl0aG9uJywgJy1waCcsICc3LjAnLCAnLXRuJywgJzgnLCAnLW1hJywgJzIwMCcsICctbWV0YWxfYmluZGluZycsICctaW1hZScsICc8aW5maWxlLm1hZT4nLCAnLW9tYWUnLCAnPG91dGZpbGUubWFlPic=

> <r_lp_tautomer_probability>
1

> <r_epik_Ionization_Penalty>
0.000329046

> <r_epik_Ionization_Penalty_Charging>
0

> <r_epik_Ionization_Penalty_Neutral>
0.000329046

> <r_epik_State_Penalty>
-0

> <r_epik_Charging_Adjusted_Penalty>
0

> <i_epik_Tot_Q>
0

> <i_epik_Tot_abs_Q>
0

> <r_epik_Metal_State_Penalty>
0.173433

> <b_epik_Metal_Only>
0

> <s_lp_Force_Field>
OPLS_2005

> <r_lp_Energy>
50.5105

> <b_lp_Chiralities_Consistent>
1

> <s_lp_Variant>
AV-unprocessed.smi:798-5

> <Gold.Version>
5.8.1

> <Gold.Id.Protein>
6NUR|6NUR_protein|mol2

> <Gold.PLP.Fitness>
39.9375

> <Gold.PLP.PLP>
-29.0120

> <Gold.PLP.part.hbond>
-5.0000

> <Gold.PLP.part.metal>
0.0000

> <Gold.PLP.part.buried>
-2.6066

> <Gold.PLP.part.nonpolar>
-20.9237

> <Gold.PLP.part.repulsive>
0.2273

> <Gold.PLP.ligand.clash>
0.0000

> <Gold.PLP.ligand.torsion>
0.2656

> <Gold.PLP.Chemscore.Hbond>
3.8160

> <Gold.PLP.Chemscore.CHOScore>
0.0000

> <Gold.PLP.Chemscore.Metal>
0.0000

> <Gold.Chemscore.Hbonds>
donor molecule, donor type, donor heavy atom, donor atom, acceptor molecule, acceptor atom, score
      L1  H    18    34       P1  7948  1.00
      P1  H  6896  6907       L1     1  0.98
      P1  H  6931  6943       L1     5  0.93
      P1  H  6934  6947       L1     5  0.91

> <Gold.PLP.Chemscore.Internal.Correction>
0.0087

> <Gold.Rescore>
     Score         DG    S(hbond)    S(metal)    S(lipo)     H(rot)  DE(clash)    DE(int)     intcor
     16.51     -17.92       3.07        0.00      61.33       1.94       0.27       1.14       ----

> <Gold.Chemscore.Fitness>
16.5106

> <Gold.Chemscore.DG>
-17.9231

> <Gold.Chemscore.ZeroCoef>
-5.4800

> <Gold.Chemscore.Hbond>
3.0673

> <Gold.Chemscore.Metal>
0.0000

> <Gold.Chemscore.Lipo>
61.3291

> <Gold.Chemscore.Internal_Hbond>
0.0000

> <Gold.Chemscore.DEClash>
0.2708

> <Gold.Chemscore.DEInternal>
1.1417

> <Gold.Chemscore.Rot>
1.9442

> <Gold.Chemscore.Internal.Correction>
   9.000000E+99

> <Gold.Chemscore.Hbonds>
donor molecule, donor type, donor heavy atom, donor atom, acceptor molecule, acceptor atom, score
      L1  H    18    34       P1  7948  0.94
      P1  H  6896  6907       L1     1  0.93
      P1  H  6931  6943       L1     5  0.22
      P1  H  6934  6947       L1     5  0.69

> <Gold.Chemscore.Hbond.Weighted>
-10.2446

> <Gold.Chemscore.Metal.Weighted>
-0.0000

> <Gold.Chemscore.Lipo.Weighted>
-7.1755

> <Gold.Chemscore.Internal_Hbond.Weighted>
0.0000

> <Gold.Chemscore.DEClash.Weighted>
0.2708

> <Gold.Chemscore.DEInternal.Weighted>
1.1417

> <Gold.Chemscore.Rot.Weighted>
4.9771

> <Gold.Chemscore.Internal.Correction.Weighted>
   9.000000E+99

> <Gold.Protein.RotatedTorsions>
[ 6907 6896 6895 6894 ] final  -59.66 input  -60.11 | X-H torsion
[ 7974 7965 7964 7962 ] final -101.91 input  175.53 | X-H torsion
[ 8008 7997 7996 7995 ] final  -47.17 input   59.86 | X-H torsion
[ 10167 10162 10161 10158 ] final  -39.53 input  -65.29 | X-H torsion
[ 10718 10713 10712 10709 ] final -115.63 input   66.30 | X-H torsion
[ 10763 10752 10751 10750 ] final   95.32 input  -60.55 | X-H torsion
[ 11005 11000 10999 10996 ] final -133.06 input  -57.11 | X-H torsion

> <Gold.Protein.ActiveResidues>
 VAL166  LYS551  ARG553  GLY616  TRP617  ASP618  TYR619  PRO620  LYS621  CYS622 
 ASP623  PHE694  ASN695  SER759  ASP760  ASP761  ALA762  ILE779  LEU786  VAL792 
 PHE793  MET794  SER795  GLU796  ALA797  LYS798  CYS799  TRP800  GLU811  SER814 

> <Gold.Protein.RotatedAtoms>
  150.7913  134.6939  159.6511 H   0  0  0  0  0  0  0  0  0  0  0  0  # atno 6907 bound_to 6896
  152.4019  134.6268  160.0075 H   0  0  0  0  0  0  0  0  0  0  0  0  # atno 6908 bound_to 6896
  151.6537  133.3283  159.3194 H   0  0  0  0  0  0  0  0  0  0  0  0  # atno 6909 bound_to 6896
  145.2755  140.9311  143.2962 H   0  0  0  0  0  0  0  0  0  0  0  0  # atno 7974 bound_to 7965
  154.4014  140.1353  156.4131 H   0  0  0  0  0  0  0  0  0  0  0  0  # atno 8008 bound_to 7997
  155.7714  140.3484  155.5229 H   0  0  0  0  0  0  0  0  0  0  0  0  # atno 8009 bound_to 7997
  155.8763  140.0980  157.1506 H   0  0  0  0  0  0  0  0  0  0  0  0  # atno 8010 bound_to 7997
  140.7061  143.3208  151.2796 H   0  0  0  0  0  0  0  0  0  0  0  0  # atno 10167 bound_to 10162
  156.0909  130.6091  150.8931 H   0  0  0  0  0  0  0  0  0  0  0  0  # atno 10718 bound_to 10713
  153.2518  135.4258  155.0805 H   0  0  0  0  0  0  0  0  0  0  0  0  # atno 10763 bound_to 10752
  154.8385  135.3428  154.6501 H   0  0  0  0  0  0  0  0  0  0  0  0  # atno 10764 bound_to 10752
  153.6923  135.7033  153.5143 H   0  0  0  0  0  0  0  0  0  0  0  0  # atno 10765 bound_to 10752
  140.9115  134.1562  157.4386 H   0  0  0  0  0  0  0  0  0  0  0  0  # atno 11005 bound_to 11000
  144.9298  139.4312  143.6500 LP  0  0  0  0  0  0  0  0  0  0  0  0  # atno 17320 bound_to 7965
  146.3233  139.8203  142.8928 LP  0  0  0  0  0  0  0  0  0  0  0  0  # atno 17321 bound_to 7965
  139.6662  144.0102  152.2724 LP  0  0  0  0  0  0  0  0  0  0  0  0  # atno 17342 bound_to 10162
  139.9685  144.6510  150.8012 LP  0  0  0  0  0  0  0  0  0  0  0  0  # atno 17343 bound_to 10162
  157.6057  131.0939  150.8882 LP  0  0  0  0  0  0  0  0  0  0  0  0  # atno 17370 bound_to 10713
  156.9031  130.5254  149.5282 LP  0  0  0  0  0  0  0  0  0  0  0  0  # atno 17371 bound_to 10713
  139.8758  134.9937  156.5659 LP  0  0  0  0  0  0  0  0  0  0  0  0  # atno 17394 bound_to 11000
  140.8104  133.8433  155.8805 LP  0  0  0  0  0  0  0  0  0  0  0  0  # atno 17395 bound_to 11000

$$$$
