#       Name:                AV-unprocessed.smi:1388
#       Creating user name   scv26
#       Creation time:       Fri Mar 27 05:26:11 2020


#       File generated by GOLD software.
#

@<TRIPOS>MOLECULE
AV-unprocessed.smi:1388
    51    52     1
SMALL
NO_CHARGES


@<TRIPOS>ATOM
      1 ****        -4.9512   3.7103  -2.5873 C.3            1 S1                 0.0000
      2 ****        -4.7407   2.4206  -1.9400 N.pl3          1 S1                -1.0000
      3 ****        -5.2302   2.1106  -0.7071 C.2            1 S1                 0.0000
      4 ****        -5.9220   2.7714   0.0738 O.2            1 S1                 0.0000
      5 ****        -4.8102   0.6967  -0.2837 C.3            1 S1                 0.0000
      6 ****        -3.3304   0.5651  -0.2531 N.4            1 S1                 1.0000
      7 ****        -2.8834  -0.8448  -0.3780 C.3            1 S1                 0.0000
      8 ****        -1.3531  -0.9335  -0.5024 C.3            1 S1                 0.0000
      9 ****        -0.6554  -0.2399   0.6818 C.3            1 S1                 0.0000
     10 ****         0.7935  -0.2383   0.5026 N.am           1 S1                 0.0000
     11 ****         1.6126  -1.2488   0.8289 C.2            1 S1                 0.0000
     12 ****         1.2193  -2.3086   1.3173 O.2            1 S1                 0.0000
     13 ****         2.8923  -0.9479   0.5455 N.am           1 S1                 0.0000
     14 ****         4.0572  -1.7349   0.7704 C.ar           1 S1                 0.0000
     15 ****         4.0170  -2.9377   1.3971 N.ar           1 S1                 0.0000
     16 ****         5.1598  -3.6282   1.5861 C.ar           1 S1                 0.0000
     17 ****         6.4164  -3.1631   1.1625 C.ar           1 S1                 0.0000
     18 ****         6.4761  -1.9195   0.5106 C.ar           1 S1                 0.0000
     19 ****         5.2852  -1.1898   0.3085 C.ar           1 S1                 0.0000
     20 ****         5.3480   0.1554  -0.3971 C.3            1 S1                 0.0000
     21 ****        -1.1671   1.2038   0.8073 C.3            1 S1                 0.0000
     22 ****        -2.7001   1.2405   0.9126 C.3            1 S1                 0.0000
     23 ****        -4.5147   3.7377  -3.5855 H              1 S1                 0.0000
     24 ****        -4.4982   4.5310  -2.0303 H              1 S1                 0.0000
     25 ****        -6.0078   3.9519  -2.7049 H              1 S1                 0.0000
     26 ****        -5.2325   0.4430   0.6900 H              1 S1                 0.0000
     27 ****        -5.2379  -0.0052  -1.0018 H              1 S1                 0.0000
     28 ****        -3.2260  -1.4140   0.4876 H              1 S1                 0.0000
     29 ****        -3.3401  -1.2988  -1.2584 H              1 S1                 0.0000
     30 ****        -1.0511  -1.9800  -0.5579 H              1 S1                 0.0000
     31 ****        -1.0403  -0.4713  -1.4401 H              1 S1                 0.0000
     32 ****        -0.9035  -0.7709   1.6032 H              1 S1                 0.0000
     33 ****         1.2016   0.5951   0.1049 H              1 S1                 0.0000
     34 ****         3.0566  -0.0462   0.1234 H              1 S1                 0.0000
     35 ****         5.0691  -4.5786   2.0910 H              1 S1                 0.0000
     36 ****         7.3101  -3.7451   1.3334 H              1 S1                 0.0000
     37 ****         7.4263  -1.5331   0.1721 H              1 S1                 0.0000
     38 ****         6.3653   0.3922  -0.7098 H              1 S1                 0.0000
     39 ****         5.0068   0.9505   0.2666 H              1 S1                 0.0000
     40 ****         4.7173   0.1509  -1.2866 H              1 S1                 0.0000
     41 ****        -0.7269   1.6833   1.6826 H              1 S1                 0.0000
     42 ****        -0.8515   1.7885  -0.0583 H              1 S1                 0.0000
     43 ****        -3.0256   2.2795   0.9705 H              1 S1                 0.0000
     44 ****        -3.0257   0.7569   1.8349 H              1 S1                 0.0000
     45 ****        -3.0070   1.0442  -1.0826 H              1 S1                 0.0000
     46 ****        -4.2091   1.7274  -2.4267 LP             1 S1                 0.0000
     47 ****        -6.2087   3.6971  -0.1729 LP             1 S1                 0.0000
     48 ****        -6.1954   2.3808   0.9528 LP             1 S1                 0.0000
     49 ****         0.2442  -2.4484   1.4895 LP             1 S1                 0.0000
     50 ****         1.8751  -3.0295   1.5417 LP             1 S1                 0.0000
     51 ****         3.1456  -3.3097   1.7167 LP             1 S1                 0.0000
@<TRIPOS>BOND
    1    1    2 1     
    2    1   23 1     
    3    1   24 1     
    4    1   25 1     
    5    2    3 1     
    6    3    4 2     
    7    3    5 1     
    8    5    6 1     
    9    5   26 1     
   10    5   27 1     
   11    6   22 1     
   12    6    7 1     
   13    6   45 1     
   14    7    8 1     
   15    7   28 1     
   16    7   29 1     
   17    8    9 1     
   18    8   30 1     
   19    8   31 1     
   20    9   10 1     
   21    9   21 1     
   22    9   32 1     
   23   10   11 am    
   24   10   33 1     
   25   11   12 2     
   26   11   13 am    
   27   13   14 1     
   28   13   34 1     
   29   14   19 ar    
   30   14   15 ar    
   31   15   16 ar    
   32   16   17 ar    
   33   16   35 1     
   34   17   18 ar    
   35   17   36 1     
   36   18   19 ar    
   37   18   37 1     
   38   19   20 1     
   39   20   38 1     
   40   20   39 1     
   41   20   40 1     
   42   21   22 1     
   43   21   41 1     
   44   21   42 1     
   45   22   43 1     
   46   22   44 1     
   47    2   46 1     
   48    4   47 1     
   49    4   48 1     
   50   12   49 1     
   51   12   50 1     
   52   15   51 1     
@<TRIPOS>SUBSTRUCTURE
      1 S1             1
@<TRIPOS>SET
LONE_PAIRS      STATIC     ATOMS    <user>   **** ""
6 46 47 48 49 50 51
DONOR_HYDROGENS      STATIC     ATOMS    <user>   **** ""
3 45 33 34
ATOM$BLUE        STATIC     ATOMS    COLORGROUP SYSTEM
6 46 47 48 49 50 51
ATOM$RED        STATIC     ATOMS    COLORGROUP SYSTEM
3 45 33 34
