#       Name:                AV-unprocessed.smi:110
#       Creating user name   scv26
#       Creation time:       Thu Mar 26 18:14:21 2020


#       File generated by GOLD software.
#

@<TRIPOS>MOLECULE
AV-unprocessed.smi:110
    57    61     1
SMALL
NO_CHARGES


@<TRIPOS>ATOM
      1 ****        -5.6962  -1.3558  -2.8753 O.3            1 S1                 0.0000
      2 ****        -4.5296  -1.9693  -2.3691 C.3            1 S1                 0.0000
      3 ****        -3.2849  -1.0564  -2.3906 C.3            1 S1                 0.0000
      4 ****        -3.3608   0.0215  -1.4692 O.3            1 S1                 0.0000
      5 ****        -2.3039   0.9015  -1.7212 C.3            1 S1                 0.0000
      6 ****        -1.2007   0.5895  -0.7562 N.pl3          1 S1                 0.0000
      7 ****        -1.1116  -0.4176   0.1812 C.2            1 S1                 0.0000
      8 ****        -0.0126  -0.4267   0.8856 N.2            1 S1                 0.0000
      9 ****         0.7011   0.6737   0.4248 C.ar           1 S1                 0.0000
     10 ****         1.9621   1.2556   0.7421 C.ar           1 S1                 0.0000
     11 ****         2.8161   0.7817   1.6792 N.pl3          1 S1                 0.0000
     12 ****         4.2175   0.5362   1.3089 C.3            1 S1                 0.0000
     13 ****         4.8172  -0.4174   2.3595 C.3            1 S1                 0.0000
     14 ****         3.6750  -0.5443   3.3150 C.ar           1 S1                 0.0000
     15 ****         3.6546  -1.2537   4.5285 C.ar           1 S1                 0.0000
     16 ****         2.4710  -1.2234   5.2966 C.ar           1 S1                 0.0000
     17 ****         1.3484  -0.4876   4.8508 C.ar           1 S1                 0.0000
     18 ****         1.3929   0.2194   3.6289 C.ar           1 S1                 0.0000
     19 ****         2.5708   0.1666   2.8555 C.ar           1 S1                 0.0000
     20 ****         2.3573   2.3329   0.0167 N.ar           1 S1                 0.0000
     21 ****         1.5582   2.8378  -0.9273 C.ar           1 S1                 0.0000
     22 ****         0.3531   2.4151  -1.3131 N.ar           1 S1                 0.0000
     23 ****        -0.0370   1.3128  -0.6108 C.ar           1 S1                 0.0000
     24 ****        -1.8256   0.6436  -3.1693 C.3            1 S1                 0.0000
     25 ****        -1.7862   1.8178  -3.9590 O.3            1 S1                 0.0000
     26 ****        -2.8197  -0.3970  -3.6955 C.3            1 S1                 0.0000
     27 ****        -3.8906   0.1976  -4.4079 O.3            1 S1                 0.0000
     28 ****        -2.4587  -1.6825  -2.0486 H              1 S1                 0.0000
     29 ****        -2.5826   1.9336  -1.5044 H              1 S1                 0.0000
     30 ****        -0.8272   0.2035  -3.1483 H              1 S1                 0.0000
     31 ****        -2.3360  -1.1186  -4.3545 H              1 S1                 0.0000
     32 ****        -6.4141  -1.9660  -2.8003 H              1 S1                 0.0000
     33 ****        -4.7248  -2.3069  -1.3509 H              1 S1                 0.0000
     34 ****        -4.3374  -2.8620  -2.9647 H              1 S1                 0.0000
     35 ****        -1.8852  -1.1565   0.3303 H              1 S1                 0.0000
     36 ****         4.2842   0.1055   0.3088 H              1 S1                 0.0000
     37 ****         4.7581   1.4835   1.3002 H              1 S1                 0.0000
     38 ****         5.0681  -1.3895   1.9342 H              1 S1                 0.0000
     39 ****         5.6963   0.0046   2.8475 H              1 S1                 0.0000
     40 ****         4.5213  -1.8026   4.8660 H              1 S1                 0.0000
     41 ****         2.4251  -1.7580   6.2340 H              1 S1                 0.0000
     42 ****         0.4513  -0.4618   5.4516 H              1 S1                 0.0000
     43 ****         0.5372   0.7917   3.3025 H              1 S1                 0.0000
     44 ****         1.9396   3.7030  -1.4492 H              1 S1                 0.0000
     45 ****        -1.5780   1.5743  -4.8478 H              1 S1                 0.0000
     46 ****        -4.5736  -0.4473  -4.5162 H              1 S1                 0.0000
     47 ****        -5.5595  -1.1127  -3.8356 LP             1 S1                 0.0000
     48 ****        -5.8988  -0.5306  -2.3481 LP             1 S1                 0.0000
     49 ****        -3.2917  -0.3288  -0.5351 LP             1 S1                 0.0000
     50 ****        -4.2315   0.5001  -1.5821 LP             1 S1                 0.0000
     51 ****         0.2552  -1.0778   1.5958 LP             1 S1                 0.0000
     52 ****         3.2496   2.7499   0.1896 LP             1 S1                 0.0000
     53 ****        -0.1949   2.8512  -2.0269 LP             1 S1                 0.0000
     54 ****        -1.0857   2.4382  -3.6063 LP             1 S1                 0.0000
     55 ****        -2.6769   2.2716  -3.9334 LP             1 S1                 0.0000
     56 ****        -3.5705   0.5037  -5.3044 LP             1 S1                 0.0000
     57 ****        -4.2437   0.9800  -3.8950 LP             1 S1                 0.0000
@<TRIPOS>BOND
    1    1    2 1     
    2    1   32 1     
    3    2    3 1     
    4    2   33 1     
    5    2   34 1     
    6    3   28 1     
    7    3   26 1     
    8    3    4 1     
    9    4    5 1     
   10    5   29 1     
   11    5    6 1     
   12    5   24 1     
   13    6   23 1     
   14    6    7 1     
   15    7    8 2     
   16    7   35 1     
   17    8    9 1     
   18    9   23 ar    
   19    9   10 ar    
   20   10   11 1     
   21   10   20 ar    
   22   11   19 1     
   23   11   12 1     
   24   12   13 1     
   25   12   36 1     
   26   12   37 1     
   27   13   14 1     
   28   13   38 1     
   29   13   39 1     
   30   14   19 ar    
   31   14   15 ar    
   32   15   16 ar    
   33   15   40 1     
   34   16   17 ar    
   35   16   41 1     
   36   17   18 ar    
   37   17   42 1     
   38   18   19 ar    
   39   18   43 1     
   40   20   21 ar    
   41   21   22 ar    
   42   21   44 1     
   43   22   23 ar    
   44   24   30 1     
   45   24   25 1     
   46   24   26 1     
   47   25   45 1     
   48   26   31 1     
   49   26   27 1     
   50   27   46 1     
   51    1   47 1     
   52    1   48 1     
   53    4   49 1     
   54    4   50 1     
   55    8   51 1     
   56   20   52 1     
   57   22   53 1     
   58   25   54 1     
   59   25   55 1     
   60   27   56 1     
   61   27   57 1     
@<TRIPOS>SUBSTRUCTURE
      1 S1             1
@<TRIPOS>SET
LONE_PAIRS      STATIC     ATOMS    <user>   **** ""
11 47 48 49 50 51 52 53 54 55 56 57
DONOR_HYDROGENS      STATIC     ATOMS    <user>   **** ""
3 32 45 46
ATOM$BLUE        STATIC     ATOMS    COLORGROUP SYSTEM
11 47 48 49 50 51 52 53 54 55 56 57
ATOM$RED        STATIC     ATOMS    COLORGROUP SYSTEM
3 32 45 46
