#       Name:                AV-unprocessed.smi:1160
#       Creating user name   scv26
#       Creation time:       Fri Mar 27 03:49:42 2020


#       File generated by GOLD software.
#

@<TRIPOS>MOLECULE
AV-unprocessed.smi:1160
    51    52     1
SMALL
NO_CHARGES


@<TRIPOS>ATOM
      1 ****        -2.9473   4.7173   0.1764 C.3            1 S1                 0.0000
      2 ****        -1.4766   5.1405   0.2032 C.3            1 S1                 0.0000
      3 ****        -0.6641   3.9707   0.1911 O.3            1 S1                 0.0000
      4 ****         0.7101   4.1157   0.2260 C.ar           1 S1                 0.0000
      5 ****         1.2254   5.3699   0.2703 N.ar           1 S1                 0.0000
      6 ****         2.5657   5.5129   0.3107 C.ar           1 S1                 0.0000
      7 ****         3.4563   4.4242   0.3163 C.ar           1 S1                 0.0000
      8 ****         2.9246   3.1222   0.2700 C.ar           1 S1                 0.0000
      9 ****         1.5192   2.9553   0.2118 C.ar           1 S1                 0.0000
     10 ****         0.8700   1.6897   0.1736 N.am           1 S1                 0.0000
     11 ****         1.3658   0.4950  -0.1914 C.2            1 S1                 0.0000
     12 ****         2.5261   0.2805  -0.5404 O.2            1 S1                 0.0000
     13 ****         0.4171  -0.4513  -0.1439 N.am           1 S1                 0.0000
     14 ****         0.5910  -1.8567  -0.5009 C.3            1 S1                 0.0000
     15 ****        -0.4777  -2.2631  -1.5376 C.3            1 S1                 0.0000
     16 ****        -0.4625  -3.7813  -1.7881 C.3            1 S1                 0.0000
     17 ****        -0.6478  -4.4744  -0.5077 N.am           1 S1                 0.0000
     18 ****        -1.7848  -5.1413  -0.1949 C.2            1 S1                 0.0000
     19 ****        -1.9181  -5.7885   1.1853 C.3            1 S1                 0.0000
     20 ****        -2.7276  -5.2532  -0.9786 O.2            1 S1                 0.0000
     21 ****         0.4766  -4.2334   0.4057 C.3            1 S1                 0.0000
     22 ****         0.5148  -2.7370   0.7659 C.3            1 S1                 0.0000
     23 ****        -3.6032   5.5880   0.1908 H              1 S1                 0.0000
     24 ****        -3.1921   4.0999   1.0410 H              1 S1                 0.0000
     25 ****        -3.1738   4.1422  -0.7218 H              1 S1                 0.0000
     26 ****        -1.2591   5.7634  -0.6659 H              1 S1                 0.0000
     27 ****        -1.2835   5.7309   1.1005 H              1 S1                 0.0000
     28 ****         2.9390   6.5256   0.3463 H              1 S1                 0.0000
     29 ****         4.5235   4.5835   0.3595 H              1 S1                 0.0000
     30 ****         3.6046   2.2853   0.2933 H              1 S1                 0.0000
     31 ****        -0.1190   1.7129   0.3752 H              1 S1                 0.0000
     32 ****        -0.5075  -0.1753   0.1529 H              1 S1                 0.0000
     33 ****         1.5685  -2.0163  -0.9598 H              1 S1                 0.0000
     34 ****        -1.4680  -1.9707  -1.1846 H              1 S1                 0.0000
     35 ****        -0.3134  -1.7286  -2.4740 H              1 S1                 0.0000
     36 ****        -1.2222  -4.0433  -2.5255 H              1 S1                 0.0000
     37 ****         0.4907  -4.0801  -2.2268 H              1 S1                 0.0000
     38 ****        -1.8321  -5.0408   1.9741 H              1 S1                 0.0000
     39 ****        -1.1512  -6.5495   1.3309 H              1 S1                 0.0000
     40 ****        -2.8899  -6.2721   1.2901 H              1 S1                 0.0000
     41 ****         0.4379  -4.8312   1.3152 H              1 S1                 0.0000
     42 ****         1.4054  -4.5197  -0.0898 H              1 S1                 0.0000
     43 ****         1.3668  -2.5323   1.4153 H              1 S1                 0.0000
     44 ****        -0.3786  -2.4860   1.3401 H              1 S1                 0.0000
     45 ****        -0.8857   3.4672  -0.6440 LP             1 S1                 0.0000
     46 ****        -0.9226   3.4247   0.9880 LP             1 S1                 0.0000
     47 ****         0.6253   6.1698   0.2729 LP             1 S1                 0.0000
     48 ****         3.1867   1.0308  -0.5683 LP             1 S1                 0.0000
     49 ****         2.8085  -0.6441  -0.7961 LP             1 S1                 0.0000
     50 ****        -2.6727  -4.8425  -1.8887 LP             1 S1                 0.0000
     51 ****        -3.5483  -5.7548  -0.7051 LP             1 S1                 0.0000
@<TRIPOS>BOND
    1    1    2 1     
    2    1   23 1     
    3    1   24 1     
    4    1   25 1     
    5    2    3 1     
    6    2   26 1     
    7    2   27 1     
    8    3    4 1     
    9    4    9 ar    
   10    4    5 ar    
   11    5    6 ar    
   12    6    7 ar    
   13    6   28 1     
   14    7    8 ar    
   15    7   29 1     
   16    8    9 ar    
   17    8   30 1     
   18    9   10 1     
   19   10   11 am    
   20   10   31 1     
   21   11   12 2     
   22   11   13 am    
   23   13   14 1     
   24   13   32 1     
   25   14   22 1     
   26   14   15 1     
   27   14   33 1     
   28   15   16 1     
   29   15   34 1     
   30   15   35 1     
   31   16   17 1     
   32   16   36 1     
   33   16   37 1     
   34   17   18 am    
   35   17   21 1     
   36   18   19 1     
   37   18   20 2     
   38   19   38 1     
   39   19   39 1     
   40   19   40 1     
   41   21   22 1     
   42   21   41 1     
   43   21   42 1     
   44   22   43 1     
   45   22   44 1     
   46    3   45 1     
   47    3   46 1     
   48    5   47 1     
   49   12   48 1     
   50   12   49 1     
   51   20   50 1     
   52   20   51 1     
@<TRIPOS>SUBSTRUCTURE
      1 S1             1
@<TRIPOS>SET
LONE_PAIRS      STATIC     ATOMS    <user>   **** ""
7 45 46 47 48 49 50 51
DONOR_HYDROGENS      STATIC     ATOMS    <user>   **** ""
2 31 32
ATOM$BLUE        STATIC     ATOMS    COLORGROUP SYSTEM
7 45 46 47 48 49 50 51
ATOM$RED        STATIC     ATOMS    COLORGROUP SYSTEM
2 31 32
