AV-unprocessed.smi:2078|AV-procd|sdf|8474|dock1
  -GOLD-   2272011173D 1   1.00000     0.00000
 Structure written by MMmdl.
 41 42  0  0  0  0  0  0  0  0  3 V2000
  151.6912  140.4383  156.3744 C   0  0  0  0  0  0  0  0  0  0  0  0
  151.1514  139.3064  155.5694 C   0  0  0  0  0  0  0  0  0  0  0  0
  151.2052  137.9493  155.7191 C   0  0  0  0  0  0  0  0  0  0  0  0
  150.4809  137.4729  154.5941 C   0  0  0  0  0  0  0  0  0  0  0  0
  150.3109  136.0798  154.3786 N   0  0  0  0  0  0  0  0  0  0  0  0
  150.9657  135.0545  154.9523 C   0  0  0  0  0  0  0  0  0  0  0  0
  151.8798  135.2686  155.7579 O   0  0  0  0  0  0  0  0  0  0  0  0
  150.4902  133.8436  154.5483 N   0  5  0  0  0  0  0  0  0  0  0  0
  149.5754  133.6288  153.4224 C   0  0  0  0  0  0  0  0  0  0  0  0
  148.1278  133.9908  153.8188 C   0  0  0  0  0  0  0  0  0  0  0  0
  147.2622  134.2082  152.6286 N   0  3  2  0  0  0  0  0  0  0  0  0
  146.0077  134.9508  152.9207 C   0  0  0  0  0  0  0  0  0  0  0  0
  145.2775  135.3149  151.6189 C   0  0  0  0  0  0  0  0  0  0  0  0
  144.9942  134.0611  150.7802 C   0  0  0  0  0  0  0  0  0  0  0  0
  146.2973  133.2852  150.5195 C   0  0  2  0  0  0  0  0  0  0  0  0
  146.0404  132.0117  149.7023 C   0  0  0  0  0  0  0  0  0  0  0  0
  147.0067  132.9687  151.8513 C   0  0  0  0  0  0  0  0  0  0  0  0
  150.0299  138.4526  153.8245 N   0  0  0  0  0  0  0  0  0  0  0  0
  150.4559  139.6321  154.4463 O   0  0  0  0  0  0  0  0  0  0  0  0
  152.2738  140.0723  157.2198 H   0  0  0  0  0  0  0  0  0  0  0  0
  150.8814  141.0558  156.7634 H   0  0  0  0  0  0  0  0  0  0  0  0
  152.3382  141.0707  155.7663 H   0  0  0  0  0  0  0  0  0  0  0  0
  151.6844  137.3891  156.5081 H   0  0  0  0  0  0  0  0  0  0  0  0
  149.5929  135.8260  153.7160 H   0  0  0  0  0  0  0  0  0  0  0  0
  149.8619  134.2458  152.5711 H   0  0  0  0  0  0  0  0  0  0  0  0
  149.6009  132.6026  153.0534 H   0  0  0  0  0  0  0  0  0  0  0  0
  147.7278  133.1892  154.4418 H   0  0  0  0  0  0  0  0  0  0  0  0
  148.1228  134.8810  154.4495 H   0  0  0  0  0  0  0  0  0  0  0  0
  145.3636  134.3448  153.5598 H   0  0  0  0  0  0  0  0  0  0  0  0
  146.2351  135.8636  153.4726 H   0  0  0  0  0  0  0  0  0  0  0  0
  144.3444  135.8316  151.8452 H   0  0  0  0  0  0  0  0  0  0  0  0
  145.8867  136.0125  151.0419 H   0  0  0  0  0  0  0  0  0  0  0  0
  144.2793  133.4243  151.3035 H   0  0  0  0  0  0  0  0  0  0  0  0
  144.5271  134.3447  149.8365 H   0  0  0  0  0  0  0  0  0  0  0  0
  146.9588  133.9247  149.9318 H   0  0  0  0  0  0  0  0  0  0  0  0
  145.3864  131.3220  150.2370 H   0  0  0  0  0  0  0  0  0  0  0  0
  146.9729  131.4885  149.4884 H   0  0  0  0  0  0  0  0  0  0  0  0
  145.5687  132.2463  148.7476 H   0  0  0  0  0  0  0  0  0  0  0  0
  147.9566  132.4751  151.6406 H   0  0  0  0  0  0  0  0  0  0  0  0
  146.4126  132.2777  152.4514 H   0  0  0  0  0  0  0  0  0  0  0  0
  147.8113  134.8004  152.0198 H   0  0  0  0  0  0  0  0  0  0  0  0
  1  2  1  0  0  0  0
  1 20  1  0  0  0  0
  1 21  1  0  0  0  0
  1 22  1  0  0  0  0
  2 19  1  0  0  0  0
  2  3  2  0  0  0  0
  3  4  1  0  0  0  0
  3 23  1  0  0  0  0
  4  5  1  0  0  0  0
  4 18  2  0  0  0  0
  5  6  1  0  0  0  0
  5 24  1  0  0  0  0
  6  7  2  0  0  0  0
  6  8  1  0  0  0  0
  8  9  1  0  0  0  0
  9 10  1  0  0  0  0
  9 25  1  0  0  0  0
  9 26  1  0  0  0  0
 10 11  1  0  0  0  0
 10 27  1  0  0  0  0
 10 28  1  0  0  0  0
 11 17  1  0  0  0  0
 11 12  1  0  0  0  0
 11 41  1  0  0  0  0
 12 13  1  0  0  0  0
 12 29  1  0  0  0  0
 12 30  1  0  0  0  0
 13 14  1  0  0  0  0
 13 31  1  0  0  0  0
 13 32  1  0  0  0  0
 14 15  1  0  0  0  0
 14 33  1  0  0  0  0
 14 34  1  0  0  0  0
 15 16  1  0  0  0  0
 15 17  1  0  0  0  0
 15 35  1  0  0  0  0
 16 36  1  0  0  0  0
 16 37  1  0  0  0  0
 16 38  1  0  0  0  0
 17 39  1  0  0  0  0
 17 40  1  0  0  0  0
 18 19  1  0  0  0  0
M  CHG  1   8  -1
M  CHG  1  11   1
M  END
> <s_m_source_file>
AV-unprocessed.smi

> <i_m_source_file_index>
2078

> <i_lp_mmshare_version>
43012

> <i_f3d_flags>
0

> <s_epik_input>
W0NIM11jMVtjSF1jKG5vMSlbTkhdQyg9TylbTkhdW0NIMl1bQ0gyXU4yW0NIMl1bQ0gyXVtDSDJdW0NAQEhdKFtDSDNdKVtDSDJdMg==

> <s_epik_cmdline>
J2VwaWtfcHl0aG9uJywgJy1waCcsICc3LjAnLCAnLXRuJywgJzgnLCAnLW1hJywgJzIwMCcsICctbWV0YWxfYmluZGluZycsICctaW1hZScsICc8aW5maWxlLm1hZT4nLCAnLW9tYWUnLCAnPG91dGZpbGUubWFlPic=

> <r_epik_Ionization_Penalty>
6.76934

> <r_epik_Ionization_Penalty_Charging>
6.76934

> <r_epik_Ionization_Penalty_Neutral>
5.77849e-06

> <r_epik_State_Penalty>
6.79457

> <r_epik_Charging_Adjusted_Penalty>
13.5639

> <i_epik_Tot_Q>
0

> <i_epik_Tot_abs_Q>
2

> <r_epik_Metal_State_Penalty>
2.72837

> <b_epik_Metal_Only>
1

> <s_lp_Force_Field>
OPLS_2005

> <r_lp_Energy>
9.58201

> <b_lp_Chiralities_Consistent>
1

> <s_lp_Variant>
AV-unprocessed.smi:2078-12

> <Gold.Version>
5.8.1

> <Gold.Id.Protein>
6NUR|6NUR_protein|mol2

> <Gold.PLP.Fitness>
45.7820

> <Gold.PLP.PLP>
-32.7954

> <Gold.PLP.part.hbond>
-4.3408

> <Gold.PLP.part.metal>
0.0000

> <Gold.PLP.part.buried>
-3.7369

> <Gold.PLP.part.nonpolar>
-25.1259

> <Gold.PLP.part.repulsive>
0.6024

> <Gold.PLP.ligand.clash>
0.6596

> <Gold.PLP.ligand.torsion>
0.3754

> <Gold.PLP.Chemscore.Hbond>
4.7301

> <Gold.PLP.Chemscore.CHOScore>
0.0000

> <Gold.PLP.Chemscore.Metal>
0.0000

> <Gold.Chemscore.Hbonds>
donor molecule, donor type, donor heavy atom, donor atom, acceptor molecule, acceptor atom, score
      L1  H     5    24       P1  7948  0.82
      L1  H    11    41       P1  7948  1.98
      P1  H  7989  7998       L1    19  1.00
      P1  H 10752 10765       L1     7  0.81

> <Gold.PLP.Chemscore.Internal.Correction>
0.2067

> <Gold.Rescore>
     Score         DG    S(hbond)    S(metal)    S(lipo)     H(rot)  DE(clash)    DE(int)     intcor
     17.00     -19.59       3.14        0.00      64.62       1.54       0.10       2.50       ----

> <Gold.Chemscore.Fitness>
16.9965

> <Gold.Chemscore.DG>
-19.5918

> <Gold.Chemscore.ZeroCoef>
-5.4800

> <Gold.Chemscore.Hbond>
3.1424

> <Gold.Chemscore.Metal>
0.0000

> <Gold.Chemscore.Lipo>
64.6225

> <Gold.Chemscore.Internal_Hbond>
0.0000

> <Gold.Chemscore.DEClash>
0.1002

> <Gold.Chemscore.DEInternal>
2.4950

> <Gold.Chemscore.Rot>
1.5409

> <Gold.Chemscore.Internal.Correction>
   9.000000E+99

> <Gold.Chemscore.Hbonds>
donor molecule, donor type, donor heavy atom, donor atom, acceptor molecule, acceptor atom, score
      L1  H     5    24       P1  7948  0.24
      L1  H    11    41       P1  7948  0.52
      P1  H  7989  7998       L1    19  0.48
      P1  H 10752 10765       L1     7  0.61

> <Gold.Chemscore.Hbond.Weighted>
-10.4955

> <Gold.Chemscore.Metal.Weighted>
-0.0000

> <Gold.Chemscore.Lipo.Weighted>
-7.5608

> <Gold.Chemscore.Internal_Hbond.Weighted>
0.0000

> <Gold.Chemscore.DEClash.Weighted>
0.1002

> <Gold.Chemscore.DEInternal.Weighted>
2.4950

> <Gold.Chemscore.Rot.Weighted>
3.9446

> <Gold.Chemscore.Internal.Correction.Weighted>
   9.000000E+99

> <Gold.Protein.RotatedTorsions>
[ 6907 6896 6895 6894 ] final  -67.87 input  -60.11 | X-H torsion
[ 7974 7965 7964 7962 ] final  177.12 input  175.53 | X-H torsion
[ 8008 7997 7996 7995 ] final  150.12 input   59.86 | X-H torsion
[ 10167 10162 10161 10158 ] final -144.38 input  -65.29 | X-H torsion
[ 10718 10713 10712 10709 ] final  -76.85 input   66.30 | X-H torsion
[ 10763 10752 10751 10750 ] final -148.88 input  -60.55 | X-H torsion
[ 11005 11000 10999 10996 ] final -136.18 input  -57.11 | X-H torsion

> <Gold.Protein.ActiveResidues>
 VAL166  LYS551  ARG553  GLY616  TRP617  ASP618  TYR619  PRO620  LYS621  CYS622 
 ASP623  PHE694  ASN695  SER759  ASP760  ASP761  ALA762  ILE779  LEU786  VAL792 
 PHE793  MET794  SER795  GLU796  ALA797  LYS798  CYS799  TRP800  GLU811  SER814 

> <Gold.Protein.RotatedAtoms>
  150.7386  134.5819  159.5942 H   0  0  0  0  0  0  0  0  0  0  0  0  # atno 6907 bound_to 6896
  152.3230  134.7353  160.0318 H   0  0  0  0  0  0  0  0  0  0  0  0  # atno 6908 bound_to 6896
  151.7862  133.3319  159.3522 H   0  0  0  0  0  0  0  0  0  0  0  0  # atno 6909 bound_to 6896
  144.7174  140.0199  143.6440 H   0  0  0  0  0  0  0  0  0  0  0  0  # atno 7974 bound_to 7965
  156.2728  140.2083  156.5967 H   0  0  0  0  0  0  0  0  0  0  0  0  # atno 8008 bound_to 7997
  154.6939  140.0527  157.0415 H   0  0  0  0  0  0  0  0  0  0  0  0  # atno 8009 bound_to 7997
  155.0828  140.3188  155.4599 H   0  0  0  0  0  0  0  0  0  0  0  0  # atno 8010 bound_to 7997
  139.7904  143.7974  152.2649 H   0  0  0  0  0  0  0  0  0  0  0  0  # atno 10167 bound_to 10162
  156.0162  130.4476  150.3255 H   0  0  0  0  0  0  0  0  0  0  0  0  # atno 10718 bound_to 10713
  154.8208  135.3323  154.7042 H   0  0  0  0  0  0  0  0  0  0  0  0  # atno 10763 bound_to 10752
  153.7675  135.6928  153.4917 H   0  0  0  0  0  0  0  0  0  0  0  0  # atno 10764 bound_to 10752
  153.2067  135.4496  155.0280 H   0  0  0  0  0  0  0  0  0  0  0  0  # atno 10765 bound_to 10752
  140.8829  134.1909  157.4579 H   0  0  0  0  0  0  0  0  0  0  0  0  # atno 11005 bound_to 11000
  146.0189  139.3234  143.0825 LP  0  0  0  0  0  0  0  0  0  0  0  0  # atno 17320 bound_to 7965
  145.8592  140.9485  143.0709 LP  0  0  0  0  0  0  0  0  0  0  0  0  # atno 17321 bound_to 7965
  139.8063  144.7354  150.9756 LP  0  0  0  0  0  0  0  0  0  0  0  0  # atno 17342 bound_to 10162
  140.7820  143.4294  151.0717 LP  0  0  0  0  0  0  0  0  0  0  0  0  # atno 17343 bound_to 10162
  157.1354  131.0283  151.2951 LP  0  0  0  0  0  0  0  0  0  0  0  0  # atno 17370 bound_to 10713
  157.4516  130.7601  149.7156 LP  0  0  0  0  0  0  0  0  0  0  0  0  # atno 17371 bound_to 10713
  139.8721  134.9825  156.5159 LP  0  0  0  0  0  0  0  0  0  0  0  0  # atno 17394 bound_to 11000
  140.8440  133.8183  155.9102 LP  0  0  0  0  0  0  0  0  0  0  0  0  # atno 17395 bound_to 11000

$$$$
