AV-unprocessed.smi:3019|AV-procd|sdf|11496|dock1
  -GOLD-   2272016433D 1   1.00000     0.00000
 Structure written by MMmdl.
 29 30  0  0  0  0  0  0  0  0  2 V2000
  152.5446  143.1914  161.7546 C   0  0  0  0  0  0  0  0  0  0  0  0
  152.6105  143.7734  160.3359 C   0  0  0  0  0  0  0  0  0  0  0  0
  151.6843  144.9807  160.1368 C   0  0  0  0  0  0  0  0  0  0  0  0
  152.3736  142.7071  159.2838 C   0  0  0  0  0  0  0  0  0  0  0  0
  152.9346  141.4844  159.2551 N   0  5  0  0  0  0  0  0  0  0  0  0
  152.5124  140.8239  158.1965 N   0  0  0  0  0  0  0  0  0  0  0  0
  151.6647  141.6556  157.5707 C   0  0  0  0  0  0  0  0  0  0  0  0
  150.9547  141.3497  156.2667 C   0  0  1  0  0  0  0  0  0  0  0  0
  151.4049  139.9874  155.7007 C   0  0  0  0  0  0  0  0  0  0  0  0
  150.7099  139.6922  154.4479 N   0  0  0  0  0  0  0  0  0  0  0  0
  149.2606  139.7600  154.6188 C   0  0  0  0  0  0  0  0  0  0  0  0
  148.8570  141.1235  155.2056 C   0  0  0  0  0  0  0  0  0  0  0  0
  149.5385  141.3307  156.4376 O   0  0  0  0  0  0  0  0  0  0  0  0
  151.5761  142.8220  158.2264 N   0  0  0  0  0  0  0  0  0  0  0  0
  153.2631  142.3805  161.8781 H   0  0  0  0  0  0  0  0  0  0  0  0
  151.5530  142.7935  161.9719 H   0  0  0  0  0  0  0  0  0  0  0  0
  152.7703  143.9514  162.5026 H   0  0  0  0  0  0  0  0  0  0  0  0
  153.6309  144.1293  160.1874 H   0  0  0  0  0  0  0  0  0  0  0  0
  151.8108  145.4103  159.1428 H   0  0  0  0  0  0  0  0  0  0  0  0
  151.8961  145.7630  160.8659 H   0  0  0  0  0  0  0  0  0  0  0  0
  150.6371  144.6966  160.2464 H   0  0  0  0  0  0  0  0  0  0  0  0
  151.2136  142.1445  155.5645 H   0  0  0  0  0  0  0  0  0  0  0  0
  152.4826  139.9896  155.5352 H   0  0  0  0  0  0  0  0  0  0  0  0
  151.2018  139.2027  156.4304 H   0  0  0  0  0  0  0  0  0  0  0  0
  148.7626  139.6006  153.6622 H   0  0  0  0  0  0  0  0  0  0  0  0
  148.9279  138.9621  155.2838 H   0  0  0  0  0  0  0  0  0  0  0  0
  149.0796  141.9325  154.5078 H   0  0  0  0  0  0  0  0  0  0  0  0
  147.7827  141.1483  155.3893 H   0  0  0  0  0  0  0  0  0  0  0  0
  150.9721  138.7662  154.1263 H   0  0  0  0  0  0  0  0  0  0  0  0
  1  2  1  0  0  0  0
  1 15  1  0  0  0  0
  1 16  1  0  0  0  0
  1 17  1  0  0  0  0
  2  3  1  0  0  0  0
  2  4  1  0  0  0  0
  2 18  1  0  0  0  0
  3 19  1  0  0  0  0
  3 20  1  0  0  0  0
  3 21  1  0  0  0  0
  4 14  2  0  0  0  0
  4  5  1  0  0  0  0
  5  6  1  0  0  0  0
  6  7  2  0  0  0  0
  7  8  1  0  0  0  0
  7 14  1  0  0  0  0
  8 13  1  0  0  0  0
  8  9  1  0  0  0  0
  8 22  1  0  0  0  0
  9 10  1  0  0  0  0
  9 23  1  0  0  0  0
  9 24  1  0  0  0  0
 10 11  1  0  0  0  0
 10 29  1  0  0  0  0
 11 12  1  0  0  0  0
 11 25  1  0  0  0  0
 11 26  1  0  0  0  0
 12 13  1  0  0  0  0
 12 27  1  0  0  0  0
 12 28  1  0  0  0  0
M  CHG  1   5  -1
M  END
> <s_m_source_file>
AV-unprocessed.smi

> <i_m_source_file_index>
3019

> <i_lp_mmshare_version>
43012

> <i_f3d_flags>
0

> <s_epik_input>
W0NIM11bQ0hdKFtDSDNdKWMxbltuSF1jKG4xKVtDQEBIXTJbQ0gyXVtOSF1bQ0gyXVtDSDJdTzI=

> <s_epik_cmdline>
J2VwaWtfcHl0aG9uJywgJy1waCcsICc3LjAnLCAnLXRuJywgJzgnLCAnLW1hJywgJzIwMCcsICctbWV0YWxfYmluZGluZycsICctaW1hZScsICc8aW5maWxlLm1hZT4nLCAnLW9tYWUnLCAnPG91dGZpbGUubWFlPic=

> <r_lp_tautomer_probability>
0.948284

> <r_epik_Ionization_Penalty>
17.5852

> <r_epik_Ionization_Penalty_Charging>
16.0119

> <r_epik_Ionization_Penalty_Neutral>
1.5733

> <r_epik_State_Penalty>
6.64574

> <r_epik_Charging_Adjusted_Penalty>
22.6576

> <i_epik_Tot_Q>
-1

> <i_epik_Tot_abs_Q>
1

> <r_epik_Metal_State_Penalty>
2.89273

> <b_epik_Metal_Only>
1

> <s_lp_Force_Field>
OPLS_2005

> <r_lp_Energy>
9.76828

> <b_lp_Chiralities_Consistent>
1

> <s_lp_Variant>
AV-unprocessed.smi:3019-12

> <Gold.Version>
5.8.1

> <Gold.Id.Protein>
6NUR|6NUR_protein|mol2

> <Gold.PLP.Fitness>
34.2820

> <Gold.PLP.PLP>
-31.7372

> <Gold.PLP.part.hbond>
-1.0000

> <Gold.PLP.part.metal>
0.0000

> <Gold.PLP.part.buried>
-5.3916

> <Gold.PLP.part.nonpolar>
-25.4952

> <Gold.PLP.part.repulsive>
0.1434

> <Gold.PLP.ligand.clash>
0.0000

> <Gold.PLP.ligand.torsion>
0.2635

> <Gold.PLP.Chemscore.Hbond>
1.0000

> <Gold.PLP.Chemscore.CHOScore>
0.0000

> <Gold.PLP.Chemscore.Metal>
0.0000

> <Gold.Chemscore.Hbonds>
donor molecule, donor type, donor heavy atom, donor atom, acceptor molecule, acceptor atom, score
      P1  H  7989  7998       L1    10  0.75

> <Gold.PLP.Chemscore.Internal.Correction>
0.0718

> <Gold.Rescore>
     Score         DG    S(hbond)    S(metal)    S(lipo)     H(rot)  DE(clash)    DE(int)     intcor
     10.88     -10.98       0.29        0.00      65.98       1.24       0.02       0.08       ----

> <Gold.Chemscore.Fitness>
10.8784

> <Gold.Chemscore.DG>
-10.9811

> <Gold.Chemscore.ZeroCoef>
-5.4800

> <Gold.Chemscore.Hbond>
0.2879

> <Gold.Chemscore.Metal>
0.0000

> <Gold.Chemscore.Lipo>
65.9779

> <Gold.Chemscore.Internal_Hbond>
0.0000

> <Gold.Chemscore.DEClash>
0.0185

> <Gold.Chemscore.DEInternal>
0.0841

> <Gold.Chemscore.Rot>
1.2422

> <Gold.Chemscore.Internal.Correction>
   9.000000E+99

> <Gold.Chemscore.Hbonds>
donor molecule, donor type, donor heavy atom, donor atom, acceptor molecule, acceptor atom, score
      P1  H  7989  7998       L1    10  0.06

> <Gold.Chemscore.Hbond.Weighted>
-0.9616

> <Gold.Chemscore.Metal.Weighted>
-0.0000

> <Gold.Chemscore.Lipo.Weighted>
-7.7194

> <Gold.Chemscore.Internal_Hbond.Weighted>
0.0000

> <Gold.Chemscore.DEClash.Weighted>
0.0185

> <Gold.Chemscore.DEInternal.Weighted>
0.0841

> <Gold.Chemscore.Rot.Weighted>
3.1799

> <Gold.Chemscore.Internal.Correction.Weighted>
   9.000000E+99

> <Gold.Protein.RotatedTorsions>
[ 6907 6896 6895 6894 ] final -139.64 input  -60.11 | X-H torsion
[ 7974 7965 7964 7962 ] final   39.35 input  175.53 | X-H torsion
[ 8008 7997 7996 7995 ] final  -55.26 input   59.86 | X-H torsion
[ 10167 10162 10161 10158 ] final   86.66 input  -65.29 | X-H torsion
[ 10718 10713 10712 10709 ] final  149.25 input   66.30 | X-H torsion
[ 10763 10752 10751 10750 ] final  152.60 input  -60.55 | X-H torsion
[ 11005 11000 10999 10996 ] final  110.25 input  -57.11 | X-H torsion

> <Gold.Protein.ActiveResidues>
 VAL166  LYS551  ARG553  GLY616  TRP617  ASP618  TYR619  PRO620  LYS621  CYS622 
 ASP623  PHE694  ASN695  SER759  ASP760  ASP761  ALA762  ILE779  LEU786  VAL792 
 PHE793  MET794  SER795  GLU796  ALA797  LYS798  CYS799  TRP800  GLU811  SER814 

> <Gold.Protein.RotatedAtoms>
  151.0503  133.5630  159.2642 H   0  0  0  0  0  0  0  0  0  0  0  0  # atno 6907 bound_to 6896
  151.2643  135.0663  159.9120 H   0  0  0  0  0  0  0  0  0  0  0  0  # atno 6908 bound_to 6896
  152.5380  134.0244  159.8050 H   0  0  0  0  0  0  0  0  0  0  0  0  # atno 6909 bound_to 6896
  146.0991  139.5662  142.9426 H   0  0  0  0  0  0  0  0  0  0  0  0  # atno 7974 bound_to 7965
  154.4189  140.1157  156.5448 H   0  0  0  0  0  0  0  0  0  0  0  0  # atno 8008 bound_to 7997
  155.6471  140.3496  155.4716 H   0  0  0  0  0  0  0  0  0  0  0  0  # atno 8009 bound_to 7997
  155.9823  140.1163  157.0705 H   0  0  0  0  0  0  0  0  0  0  0  0  # atno 8010 bound_to 7997
  139.8853  144.6417  150.8798 H   0  0  0  0  0  0  0  0  0  0  0  0  # atno 10167 bound_to 10162
  157.2984  131.0866  151.1408 H   0  0  0  0  0  0  0  0  0  0  0  0  # atno 10718 bound_to 10713
  154.1227  135.2832  155.3204 H   0  0  0  0  0  0  0  0  0  0  0  0  # atno 10763 bound_to 10752
  154.6412  135.5402  153.7794 H   0  0  0  0  0  0  0  0  0  0  0  0  # atno 10764 bound_to 10752
  153.0307  135.6486  154.1380 H   0  0  0  0  0  0  0  0  0  0  0  0  # atno 10765 bound_to 10752
  139.8878  134.9479  156.6251 H   0  0  0  0  0  0  0  0  0  0  0  0  # atno 11005 bound_to 11000
  145.5890  141.0372  143.2080 LP  0  0  0  0  0  0  0  0  0  0  0  0  # atno 17320 bound_to 7965
  144.7418  139.7427  143.7308 LP  0  0  0  0  0  0  0  0  0  0  0  0  # atno 17321 bound_to 7965
  140.7737  143.3553  151.1933 LP  0  0  0  0  0  0  0  0  0  0  0  0  # atno 17342 bound_to 10162
  139.7159  143.9302  152.2966 LP  0  0  0  0  0  0  0  0  0  0  0  0  # atno 17343 bound_to 10162
  157.2777  130.6735  149.6050 LP  0  0  0  0  0  0  0  0  0  0  0  0  # atno 17370 bound_to 10713
  155.9670  130.4459  150.5521 LP  0  0  0  0  0  0  0  0  0  0  0  0  # atno 17371 bound_to 10713
  140.7710  133.8739  155.8491 LP  0  0  0  0  0  0  0  0  0  0  0  0  # atno 17394 bound_to 11000
  140.9842  134.1365  157.4467 LP  0  0  0  0  0  0  0  0  0  0  0  0  # atno 17395 bound_to 11000

$$$$
