AV-unprocessed.smi:1279|AV-procd|sdf|5356|dock10
  -GOLD-   22720 4493D 1   1.00000     0.00000
 Structure written by MMmdl.
 46 47  0  0  0  0  0  0  0  0  2 V2000
  156.4076  130.7486  156.1535 C   0  0  0  0  0  0  0  0  0  0  0  0
  155.2343  130.0034  155.5891 C   0  0  0  0  0  0  0  0  0  0  0  0
  153.9647  130.5259  155.2064 C   0  0  0  0  0  0  0  0  0  0  0  0
  153.3010  129.4129  154.7677 C   0  0  0  0  0  0  0  0  0  0  0  0
  152.0389  129.3095  154.2728 N   0  0  0  0  0  0  0  0  0  0  0  0
  150.9365  129.9884  154.6355 C   0  0  0  0  0  0  0  0  0  0  0  0
  150.8828  130.8520  155.5114 O   0  0  0  0  0  0  0  0  0  0  0  0
  149.8706  129.6013  153.9202 N   0  0  0  0  0  0  0  0  0  0  0  0
  148.5237  130.1403  154.0703 C   0  0  0  0  0  0  0  0  0  0  0  0
  148.4297  131.5845  153.5402 C   0  0  0  0  0  0  0  0  0  0  0  0
  147.6174  131.6841  152.3013 N   0  3  2  0  0  0  0  0  0  0  0  0
  147.2506  133.0891  151.9857 C   0  0  0  0  0  0  0  0  0  0  0  0
  146.5219  133.1894  150.6335 C   0  0  0  0  0  0  0  0  0  0  0  0
  145.2805  132.2817  150.5721 C   0  0  2  0  0  0  0  0  0  0  0  0
  144.1052  132.8237  151.4049 C   0  0  0  0  0  0  0  0  0  0  0  0
  145.6787  130.8474  150.9645 C   0  0  0  0  0  0  0  0  0  0  0  0
  146.4244  130.7960  152.3103 C   0  0  0  0  0  0  0  0  0  0  0  0
  154.1333  128.3222  154.8879 N   0  0  0  0  0  0  0  0  0  0  0  0
  153.8867  126.9333  154.5520 C   0  0  0  0  0  0  0  0  0  0  0  0
  155.3283  128.6924  155.3968 N   0  0  0  0  0  0  0  0  0  0  0  0
  156.1876  131.8115  156.2551 H   0  0  0  0  0  0  0  0  0  0  0  0
  157.2814  130.6515  155.5086 H   0  0  0  0  0  0  0  0  0  0  0  0
  156.6754  130.3702  157.1401 H   0  0  0  0  0  0  0  0  0  0  0  0
  153.6218  131.5484  155.2526 H   0  0  0  0  0  0  0  0  0  0  0  0
  151.9197  128.6208  153.5445 H   0  0  0  0  0  0  0  0  0  0  0  0
  150.0015  128.8872  153.2183 H   0  0  0  0  0  0  0  0  0  0  0  0
  147.8064  129.4971  153.5573 H   0  0  0  0  0  0  0  0  0  0  0  0
  148.2769  130.0967  155.1303 H   0  0  0  0  0  0  0  0  0  0  0  0
  148.0262  132.2529  154.3026 H   0  0  0  0  0  0  0  0  0  0  0  0
  149.4400  131.9371  153.3282 H   0  0  0  0  0  0  0  0  0  0  0  0
  146.6319  133.4958  152.7868 H   0  0  0  0  0  0  0  0  0  0  0  0
  148.1518  133.7024  151.9448 H   0  0  0  0  0  0  0  0  0  0  0  0
  146.2436  134.2248  150.4337 H   0  0  0  0  0  0  0  0  0  0  0  0
  147.2121  132.9045  149.8381 H   0  0  0  0  0  0  0  0  0  0  0  0
  144.9395  132.2580  149.5363 H   0  0  0  0  0  0  0  0  0  0  0  0
  144.3457  132.8883  152.4656 H   0  0  0  0  0  0  0  0  0  0  0  0
  143.2279  132.1840  151.3050 H   0  0  0  0  0  0  0  0  0  0  0  0
  143.8193  133.8219  151.0717 H   0  0  0  0  0  0  0  0  0  0  0  0
  144.7969  130.2066  150.9999 H   0  0  0  0  0  0  0  0  0  0  0  0
  146.3229  130.4309  150.1887 H   0  0  0  0  0  0  0  0  0  0  0  0
  146.7218  129.7658  152.5020 H   0  0  0  0  0  0  0  0  0  0  0  0
  145.7590  131.0835  153.1252 H   0  0  0  0  0  0  0  0  0  0  0  0
  152.9498  126.6064  155.0034 H   0  0  0  0  0  0  0  0  0  0  0  0
  154.6946  126.2996  154.9209 H   0  0  0  0  0  0  0  0  0  0  0  0
  153.8180  126.8266  153.4691 H   0  0  0  0  0  0  0  0  0  0  0  0
  148.2109  131.3744  151.5448 H   0  0  0  0  0  0  0  0  0  0  0  0
  1  2  1  0  0  0  0
  1 21  1  0  0  0  0
  1 22  1  0  0  0  0
  1 23  1  0  0  0  0
  2 20  2  0  0  0  0
  2  3  1  0  0  0  0
  3  4  2  0  0  0  0
  3 24  1  0  0  0  0
  4  5  1  0  0  0  0
  4 18  1  0  0  0  0
  5  6  1  0  0  0  0
  5 25  1  0  0  0  0
  6  7  2  0  0  0  0
  6  8  1  0  0  0  0
  8  9  1  0  0  0  0
  8 26  1  0  0  0  0
  9 10  1  0  0  0  0
  9 27  1  0  0  0  0
  9 28  1  0  0  0  0
 10 11  1  0  0  0  0
 10 29  1  0  0  0  0
 10 30  1  0  0  0  0
 11 17  1  0  0  0  0
 11 12  1  0  0  0  0
 11 46  1  0  0  0  0
 12 13  1  0  0  0  0
 12 31  1  0  0  0  0
 12 32  1  0  0  0  0
 13 14  1  0  0  0  0
 13 33  1  0  0  0  0
 13 34  1  0  0  0  0
 14 15  1  0  0  0  0
 14 16  1  0  0  0  0
 14 35  1  0  0  0  0
 15 36  1  0  0  0  0
 15 37  1  0  0  0  0
 15 38  1  0  0  0  0
 16 17  1  0  0  0  0
 16 39  1  0  0  0  0
 16 40  1  0  0  0  0
 17 41  1  0  0  0  0
 17 42  1  0  0  0  0
 18 19  1  0  0  0  0
 18 20  1  0  0  0  0
 19 43  1  0  0  0  0
 19 44  1  0  0  0  0
 19 45  1  0  0  0  0
M  CHG  1  11   1
M  END
> <s_m_source_file>
AV-unprocessed.smi

> <i_m_source_file_index>
1279

> <i_lp_mmshare_version>
43012

> <i_f3d_flags>
0

> <s_epik_input>
W0NIM11jMVtjSF1jKG4objEpW0NIM10pW05IXUMoPU8pW05IXVtDSDJdW0NIMl1OMltDSDJdW0NIMl1bQ0hdKFtDSDNdKVtDSDJdW0NIMl0y

> <s_epik_cmdline>
J2VwaWtfcHl0aG9uJywgJy1waCcsICc3LjAnLCAnLXRuJywgJzgnLCAnLW1hJywgJzIwMCcsICctbWV0YWxfYmluZGluZycsICctaW1hZScsICc8aW5maWxlLm1hZT4nLCAnLW9tYWUnLCAnPG91dGZpbGUubWFlPic=

> <r_lp_tautomer_probability>
1

> <r_epik_Ionization_Penalty>
0.00166091

> <r_epik_Ionization_Penalty_Charging>
0.0015841

> <r_epik_Ionization_Penalty_Neutral>
7.68112e-05

> <r_epik_State_Penalty>
0.00106518

> <r_epik_Charging_Adjusted_Penalty>
0.00264928

> <i_epik_Tot_Q>
1

> <i_epik_Tot_abs_Q>
1

> <r_epik_Metal_State_Penalty>
-0

> <b_epik_Metal_Only>
0

> <s_lp_Force_Field>
OPLS_2005

> <r_lp_Energy>
19.8524

> <b_lp_Chiralities_Consistent>
1

> <s_lp_Variant>
AV-unprocessed.smi:1279-2

> <Gold.Version>
5.8.1

> <Gold.Id.Protein>
6NUR|6NUR_protein|mol2

> <Gold.PLP.Fitness>
39.3727

> <Gold.PLP.PLP>
-34.9798

> <Gold.PLP.part.hbond>
-2.0000

> <Gold.PLP.part.metal>
0.0000

> <Gold.PLP.part.buried>
-4.7694

> <Gold.PLP.part.nonpolar>
-28.2835

> <Gold.PLP.part.repulsive>
0.1391

> <Gold.PLP.ligand.clash>
0.0000

> <Gold.PLP.ligand.torsion>
0.8170

> <Gold.PLP.Chemscore.Hbond>
2.0000

> <Gold.PLP.Chemscore.CHOScore>
0.0000

> <Gold.PLP.Chemscore.Metal>
0.0000

> <Gold.Chemscore.Hbonds>
donor molecule, donor type, donor heavy atom, donor atom, acceptor molecule, acceptor atom, score
      L1  H     5    25       P1 10737  1.00
      L1  H    11    46       P1 10747  1.00

> <Gold.PLP.Chemscore.Internal.Correction>
0.0270

> <Gold.Rescore>
     Score         DG    S(hbond)    S(metal)    S(lipo)     H(rot)  DE(clash)    DE(int)     intcor
     16.01     -16.79       1.85        0.00      76.30       1.48       0.00       0.78       ----

> <Gold.Chemscore.Fitness>
16.0113

> <Gold.Chemscore.DG>
-16.7926

> <Gold.Chemscore.ZeroCoef>
-5.4800

> <Gold.Chemscore.Hbond>
1.8515

> <Gold.Chemscore.Metal>
0.0000

> <Gold.Chemscore.Lipo>
76.3009

> <Gold.Chemscore.Internal_Hbond>
0.0000

> <Gold.Chemscore.DEClash>
0.0015

> <Gold.Chemscore.DEInternal>
0.7798

> <Gold.Chemscore.Rot>
1.4838

> <Gold.Chemscore.Internal.Correction>
   9.000000E+99

> <Gold.Chemscore.Hbonds>
donor molecule, donor type, donor heavy atom, donor atom, acceptor molecule, acceptor atom, score
      L1  H     5    25       P1 10737  0.70
      L1  H    11    46       P1 10747  0.97

> <Gold.Chemscore.Hbond.Weighted>
-6.1839

> <Gold.Chemscore.Metal.Weighted>
-0.0000

> <Gold.Chemscore.Lipo.Weighted>
-8.9272

> <Gold.Chemscore.Internal_Hbond.Weighted>
0.0000

> <Gold.Chemscore.DEClash.Weighted>
0.0015

> <Gold.Chemscore.DEInternal.Weighted>
0.7798

> <Gold.Chemscore.Rot.Weighted>
3.7985

> <Gold.Chemscore.Internal.Correction.Weighted>
   9.000000E+99

> <Gold.Protein.RotatedTorsions>
[ 6907 6896 6895 6894 ] final -136.12 input  -60.11 | X-H torsion
[ 7974 7965 7964 7962 ] final  -11.46 input  175.53 | X-H torsion
[ 8008 7997 7996 7995 ] final  -73.79 input   59.86 | X-H torsion
[ 10167 10162 10161 10158 ] final   70.79 input  -65.29 | X-H torsion
[ 10718 10713 10712 10709 ] final  179.70 input   66.30 | X-H torsion
[ 10763 10752 10751 10750 ] final  144.02 input  -60.55 | X-H torsion
[ 11005 11000 10999 10996 ] final   35.31 input  -57.11 | X-H torsion

> <Gold.Protein.ActiveResidues>
 VAL166  LYS551  ARG553  GLY616  TRP617  ASP618  TYR619  PRO620  LYS621  CYS622 
 ASP623  PHE694  ASN695  SER759  ASP760  ASP761  ALA762  ILE779  LEU786  VAL792 
 PHE793  MET794  SER795  GLU796  ALA797  LYS798  CYS799  TRP800  GLU811  SER814 

> <Gold.Protein.RotatedAtoms>
  151.0061  133.6009  159.2688 H   0  0  0  0  0  0  0  0  0  0  0  0  # atno 6907 bound_to 6896
  151.3178  135.0810  159.9305 H   0  0  0  0  0  0  0  0  0  0  0  0  # atno 6908 bound_to 6896
  152.5287  133.9714  159.7818 H   0  0  0  0  0  0  0  0  0  0  0  0  # atno 6909 bound_to 6896
  146.2186  140.2914  142.8369 H   0  0  0  0  0  0  0  0  0  0  0  0  # atno 7974 bound_to 7965
  154.5276  140.0773  156.8287 H   0  0  0  0  0  0  0  0  0  0  0  0  # atno 8008 bound_to 7997
  155.3442  140.3409  155.4221 H   0  0  0  0  0  0  0  0  0  0  0  0  # atno 8009 bound_to 7997
  156.1748  140.1632  156.8369 H   0  0  0  0  0  0  0  0  0  0  0  0  # atno 8010 bound_to 7997
  140.0531  144.5295  150.7348 H   0  0  0  0  0  0  0  0  0  0  0  0  # atno 10167 bound_to 10162
  156.8719  130.9786  151.3072 H   0  0  0  0  0  0  0  0  0  0  0  0  # atno 10718 bound_to 10713
  153.9820  135.2940  155.3419 H   0  0  0  0  0  0  0  0  0  0  0  0  # atno 10763 bound_to 10752
  154.7263  135.5087  153.8895 H   0  0  0  0  0  0  0  0  0  0  0  0  # atno 10764 bound_to 10752
  153.0850  135.6690  154.0082 H   0  0  0  0  0  0  0  0  0  0  0  0  # atno 10765 bound_to 10752
  140.2439  134.3382  155.7915 H   0  0  0  0  0  0  0  0  0  0  0  0  # atno 11005 bound_to 11000
  144.9124  140.7772  143.5799 LP  0  0  0  0  0  0  0  0  0  0  0  0  # atno 17320 bound_to 7965
  145.2846  139.1906  143.4773 LP  0  0  0  0  0  0  0  0  0  0  0  0  # atno 17321 bound_to 7965
  140.7207  143.2586  151.4287 LP  0  0  0  0  0  0  0  0  0  0  0  0  # atno 17342 bound_to 10162
  139.5940  144.1437  152.2122 LP  0  0  0  0  0  0  0  0  0  0  0  0  # atno 17343 bound_to 10162
  157.6191  130.8641  149.9078 LP  0  0  0  0  0  0  0  0  0  0  0  0  # atno 17370 bound_to 10713
  156.0722  130.3683  150.0752 LP  0  0  0  0  0  0  0  0  0  0  0  0  # atno 17371 bound_to 10713
  141.2208  133.7314  156.8930 LP  0  0  0  0  0  0  0  0  0  0  0  0  # atno 17394 bound_to 11000
  140.1625  134.9155  157.2733 LP  0  0  0  0  0  0  0  0  0  0  0  0  # atno 17395 bound_to 11000

$$$$
