AV-unprocessed.smi:524|AV-procd|sdf|2805|dock9
  -GOLD-   2262023283D 1   1.00000     0.00000
 Structure written by MMmdl.
 43 45  0  0  0  0  0  0  0  0  1 V2000
  147.7008  141.1481  153.5209 C   0  0  0  0  0  0  0  0  0  0  0  0
  148.9446  141.6835  153.9358 O   0  0  0  0  0  0  0  0  0  0  0  0
  149.2472  141.3712  155.2857 C   0  0  0  0  0  0  0  0  0  0  0  0
  150.6117  141.9638  155.6641 C   0  0  0  0  0  0  0  0  0  0  0  0
  151.3104  141.1366  156.6460 N   0  0  0  0  0  0  0  0  0  0  0  0
  151.7006  141.4672  157.9086 C   0  0  0  0  0  0  0  0  0  0  0  0
  151.4945  142.7391  158.4467 N   0  0  0  0  0  0  0  0  0  0  0  0
  150.8902  143.0434  159.7446 C   0  0  0  0  0  0  0  0  0  0  0  0
  151.7520  144.0271  160.5569 C   0  0  0  0  0  0  0  0  0  0  0  0
  151.9700  145.3260  159.7688 C   0  0  0  0  0  0  0  0  0  0  0  0
  152.4989  145.0055  158.3637 C   0  0  0  0  0  0  0  0  0  0  0  0
  151.5993  143.9704  157.6647 C   0  0  0  0  0  0  0  0  0  0  0  0
  152.2465  140.4647  158.6030 N   0  0  0  0  0  0  0  0  0  0  0  0
  152.2245  139.4120  157.7028 C   0  0  0  0  0  0  0  0  0  0  0  0
  151.6597  139.7885  156.5278 C   0  0  0  0  0  0  0  0  0  0  0  0
  151.4673  138.8466  155.4152 C   0  0  0  0  0  0  0  0  0  0  0  0
  150.9484  139.1522  154.3442 O   0  0  0  0  0  0  0  0  0  0  0  0
  151.9135  137.5974  155.6929 N   0  0  0  0  0  0  0  0  0  0  0  0
  152.4929  137.1574  156.8513 C   0  0  0  0  0  0  0  0  0  0  0  0
  152.8365  135.9800  156.9525 O   0  0  0  0  0  0  0  0  0  0  0  0
  152.6615  138.0681  157.8639 N   0  0  0  0  0  0  0  0  0  0  0  0
  153.2681  137.6947  159.1434 C   0  0  0  0  0  0  0  0  0  0  0  0
  151.7998  136.9102  154.9622 H   0  0  0  0  0  0  0  0  0  0  0  0
  147.5131  141.4213  152.4826 H   0  0  0  0  0  0  0  0  0  0  0  0
  146.8816  141.5390  154.1257 H   0  0  0  0  0  0  0  0  0  0  0  0
  147.6987  140.0593  153.5881 H   0  0  0  0  0  0  0  0  0  0  0  0
  148.4749  141.7707  155.9444 H   0  0  0  0  0  0  0  0  0  0  0  0
  149.2620  140.2888  155.4217 H   0  0  0  0  0  0  0  0  0  0  0  0
  151.2292  142.0834  154.7767 H   0  0  0  0  0  0  0  0  0  0  0  0
  150.4870  142.9724  156.0467 H   0  0  0  0  0  0  0  0  0  0  0  0
  149.9032  143.4761  159.5753 H   0  0  0  0  0  0  0  0  0  0  0  0
  150.7124  142.1276  160.3069 H   0  0  0  0  0  0  0  0  0  0  0  0
  151.2722  144.2459  161.5112 H   0  0  0  0  0  0  0  0  0  0  0  0
  152.7154  143.5732  160.7910 H   0  0  0  0  0  0  0  0  0  0  0  0
  151.0258  145.8658  159.6875 H   0  0  0  0  0  0  0  0  0  0  0  0
  152.6626  145.9815  160.2972 H   0  0  0  0  0  0  0  0  0  0  0  0
  152.5538  145.9170  157.7681 H   0  0  0  0  0  0  0  0  0  0  0  0
  153.5161  144.6177  158.4332 H   0  0  0  0  0  0  0  0  0  0  0  0
  152.0075  143.7432  156.6791 H   0  0  0  0  0  0  0  0  0  0  0  0
  150.6021  144.3810  157.5005 H   0  0  0  0  0  0  0  0  0  0  0  0
  153.7703  136.7267  159.1262 H   0  0  0  0  0  0  0  0  0  0  0  0
  152.5037  137.6607  159.9202 H   0  0  0  0  0  0  0  0  0  0  0  0
  154.0139  138.4341  159.4379 H   0  0  0  0  0  0  0  0  0  0  0  0
  1  2  1  0  0  0  0
  1 24  1  0  0  0  0
  1 25  1  0  0  0  0
  1 26  1  0  0  0  0
  2  3  1  0  0  0  0
  3  4  1  0  0  0  0
  3 27  1  0  0  0  0
  3 28  1  0  0  0  0
  4  5  1  0  0  0  0
  4 29  1  0  0  0  0
  4 30  1  0  0  0  0
  5 15  1  0  0  0  0
  5  6  1  0  0  0  0
  6  7  1  0  0  0  0
  6 13  2  0  0  0  0
  7 12  1  0  0  0  0
  7  8  1  0  0  0  0
  8  9  1  0  0  0  0
  8 31  1  0  0  0  0
  8 32  1  0  0  0  0
  9 10  1  0  0  0  0
  9 33  1  0  0  0  0
  9 34  1  0  0  0  0
 10 11  1  0  0  0  0
 10 35  1  0  0  0  0
 10 36  1  0  0  0  0
 11 12  1  0  0  0  0
 11 37  1  0  0  0  0
 11 38  1  0  0  0  0
 12 39  1  0  0  0  0
 12 40  1  0  0  0  0
 13 14  1  0  0  0  0
 14 21  1  0  0  0  0
 14 15  2  0  0  0  0
 15 16  1  0  0  0  0
 16 17  2  0  0  0  0
 16 18  1  0  0  0  0
 18 23  1  0  0  0  0
 18 19  1  0  0  0  0
 19 20  2  0  0  0  0
 19 21  1  0  0  0  0
 21 22  1  0  0  0  0
 22 41  1  0  0  0  0
 22 42  1  0  0  0  0
 22 43  1  0  0  0  0
M  END
> <s_m_source_file>
AV-unprocessed.smi

> <i_m_source_file_index>
524

> <i_lp_mmshare_version>
43012

> <i_f3d_flags>
0

> <s_epik_input>
W0NIM11uMWMoPU8pW25IXWMoPU8pYyhjMTIpbihbQ0gyXVtDSDJdT1tDSDNdKWMobjIpTjNbQ0gyXVtDSDJdW0NIMl1bQ0gyXVtDSDJdMw==

> <s_epik_cmdline>
J2VwaWtfcHl0aG9uJywgJy1waCcsICc3LjAnLCAnLXRuJywgJzgnLCAnLW1hJywgJzIwMCcsICctbWV0YWxfYmluZGluZycsICctaW1hZScsICc8aW5maWxlLm1hZT4nLCAnLW9tYWUnLCAnPG91dGZpbGUubWFlPic=

> <r_lp_tautomer_probability>
1

> <r_epik_Ionization_Penalty>
0.000298119

> <r_epik_Ionization_Penalty_Charging>
0.000125384

> <r_epik_Ionization_Penalty_Neutral>
0.000172735

> <r_epik_State_Penalty>
-0

> <r_epik_Charging_Adjusted_Penalty>
0.000125384

> <i_epik_Tot_Q>
0

> <i_epik_Tot_abs_Q>
0

> <r_epik_Metal_State_Penalty>
0.0954001

> <b_epik_Metal_Only>
0

> <s_lp_Force_Field>
OPLS_2005

> <r_lp_Energy>
37.2528

> <b_lp_Chiralities_Consistent>
1

> <s_lp_Variant>
AV-unprocessed.smi:524-1

> <Gold.Version>
5.8.1

> <Gold.Id.Protein>
6NUR|6NUR_protein|mol2

> <Gold.PLP.Fitness>
46.5339

> <Gold.PLP.PLP>
-39.9879

> <Gold.PLP.part.hbond>
-3.2250

> <Gold.PLP.part.metal>
0.0000

> <Gold.PLP.part.buried>
-3.8676

> <Gold.PLP.part.nonpolar>
-33.0010

> <Gold.PLP.part.repulsive>
0.4704

> <Gold.PLP.ligand.clash>
0.0000

> <Gold.PLP.ligand.torsion>
0.8881

> <Gold.PLP.Chemscore.Hbond>
2.6080

> <Gold.PLP.Chemscore.CHOScore>
0.0000

> <Gold.PLP.Chemscore.Metal>
0.0000

> <Gold.Chemscore.Hbonds>
donor molecule, donor type, donor heavy atom, donor atom, acceptor molecule, acceptor atom, score
      P1  H  7989  7998       L1    17  1.00
      P1  H  8011  8017       L1     2  0.61
      P1  H 10752 10765       L1    20  0.99

> <Gold.PLP.Chemscore.Internal.Correction>
0.4983

> <Gold.Rescore>
     Score         DG    S(hbond)    S(metal)    S(lipo)     H(rot)  DE(clash)    DE(int)     intcor
     15.05     -18.86       1.91        0.00      92.37       1.48       0.90       2.92       ----

> <Gold.Chemscore.Fitness>
15.0460

> <Gold.Chemscore.DG>
-18.8623

> <Gold.Chemscore.ZeroCoef>
-5.4800

> <Gold.Chemscore.Hbond>
1.9077

> <Gold.Chemscore.Metal>
0.0000

> <Gold.Chemscore.Lipo>
92.3716

> <Gold.Chemscore.Internal_Hbond>
0.0000

> <Gold.Chemscore.DEClash>
0.8999

> <Gold.Chemscore.DEInternal>
2.9164

> <Gold.Chemscore.Rot>
1.4832

> <Gold.Chemscore.Internal.Correction>
   9.000000E+99

> <Gold.Chemscore.Hbonds>
donor molecule, donor type, donor heavy atom, donor atom, acceptor molecule, acceptor atom, score
      P1  H  7989  7998       L1    17  0.87
      P1  H  8011  8017       L1     2  0.36
      P1  H 10752 10765       L1    20  0.37

> <Gold.Chemscore.Hbond.Weighted>
-6.3718

> <Gold.Chemscore.Metal.Weighted>
-0.0000

> <Gold.Chemscore.Lipo.Weighted>
-10.8075

> <Gold.Chemscore.Internal_Hbond.Weighted>
0.0000

> <Gold.Chemscore.DEClash.Weighted>
0.8999

> <Gold.Chemscore.DEInternal.Weighted>
2.9164

> <Gold.Chemscore.Rot.Weighted>
3.7970

> <Gold.Chemscore.Internal.Correction.Weighted>
   9.000000E+99

> <Gold.Protein.RotatedTorsions>
[ 6907 6896 6895 6894 ] final  109.90 input  -60.11 | X-H torsion
[ 7974 7965 7964 7962 ] final   97.74 input  175.53 | X-H torsion
[ 8008 7997 7996 7995 ] final  129.64 input   59.86 | X-H torsion
[ 10167 10162 10161 10158 ] final  -66.55 input  -65.29 | X-H torsion
[ 10718 10713 10712 10709 ] final  -21.09 input   66.30 | X-H torsion
[ 10763 10752 10751 10750 ] final -146.91 input  -60.55 | X-H torsion
[ 11005 11000 10999 10996 ] final  -89.96 input  -57.11 | X-H torsion

> <Gold.Protein.ActiveResidues>
 VAL166  LYS551  ARG553  GLY616  TRP617  ASP618  TYR619  PRO620  LYS621  CYS622 
 ASP623  PHE694  ASN695  SER759  ASP760  ASP761  ALA762  ILE779  LEU786  VAL792 
 PHE793  MET794  SER795  GLU796  ALA797  LYS798  CYS799  TRP800  GLU811  SER814 

> <Gold.Protein.RotatedAtoms>
  152.5046  133.8878  159.7378 H   0  0  0  0  0  0  0  0  0  0  0  0  # atno 6907 bound_to 6896
  150.9324  133.6742  159.2814 H   0  0  0  0  0  0  0  0  0  0  0  0  # atno 6908 bound_to 6896
  151.4082  135.0986  159.9629 H   0  0  0  0  0  0  0  0  0  0  0  0  # atno 6909 bound_to 6896
  145.4215  139.2321  143.3194 H   0  0  0  0  0  0  0  0  0  0  0  0  # atno 7974 bound_to 7965
  156.2940  140.2615  156.2632 H   0  0  0  0  0  0  0  0  0  0  0  0  # atno 8008 bound_to 7997
  154.9768  140.0390  157.2278 H   0  0  0  0  0  0  0  0  0  0  0  0  # atno 8009 bound_to 7997
  154.7808  140.2795  155.6070 H   0  0  0  0  0  0  0  0  0  0  0  0  # atno 8010 bound_to 7997
  140.5649  143.2314  151.6655 H   0  0  0  0  0  0  0  0  0  0  0  0  # atno 10167 bound_to 10162
  156.5229  130.4636  149.6587 H   0  0  0  0  0  0  0  0  0  0  0  0  # atno 10718 bound_to 10713
  154.8312  135.3374  154.6736 H   0  0  0  0  0  0  0  0  0  0  0  0  # atno 10763 bound_to 10752
  153.7355  135.6949  153.4983 H   0  0  0  0  0  0  0  0  0  0  0  0  # atno 10764 bound_to 10752
  153.2281  135.4426  155.0516 H   0  0  0  0  0  0  0  0  0  0  0  0  # atno 10765 bound_to 10752
  141.1575  133.7662  156.9669 H   0  0  0  0  0  0  0  0  0  0  0  0  # atno 11005 bound_to 11000
  146.2654  140.4940  142.8836 LP  0  0  0  0  0  0  0  0  0  0  0  0  # atno 17320 bound_to 7965
  144.8242  140.6601  143.6333 LP  0  0  0  0  0  0  0  0  0  0  0  0  # atno 17321 bound_to 7965
  139.5088  144.3599  152.0572 LP  0  0  0  0  0  0  0  0  0  0  0  0  # atno 17342 bound_to 10162
  140.2730  144.3943  150.6145 LP  0  0  0  0  0  0  0  0  0  0  0  0  # atno 17343 bound_to 10162
  156.3132  130.7240  151.2137 LP  0  0  0  0  0  0  0  0  0  0  0  0  # atno 17370 bound_to 10713
  157.7434  131.0475  150.4950 LP  0  0  0  0  0  0  0  0  0  0  0  0  # atno 17371 bound_to 10713
  140.1155  134.9450  157.2128 LP  0  0  0  0  0  0  0  0  0  0  0  0  # atno 17394 bound_to 11000
  140.3139  134.2993  155.7261 LP  0  0  0  0  0  0  0  0  0  0  0  0  # atno 17395 bound_to 11000

$$$$
