AV-unprocessed.smi:242|AV-procd|sdf|1844|dock7
  -GOLD-   2262020463D 1   1.00000     0.00000
 Structure written by MMmdl.
 58 61  0  0  0  0  0  0  0  0  2 V2000
  145.7841  136.2123  150.6651 C   0  0  0  0  0  0  0  0  0  0  0  0
  144.5413  135.3101  150.5340 C   0  0  0  0  0  0  0  0  0  0  0  0
  143.7037  135.4077  151.8239 C   0  0  0  0  0  0  0  0  0  0  0  0
  144.9110  133.8962  150.2405 N   0  3  2  0  0  0  0  0  0  0  0  0
  143.7892  132.9241  150.2351 C   0  0  0  0  0  0  0  0  0  0  0  0
  144.4075  131.5737  150.5887 C   0  0  0  0  0  0  0  0  0  0  0  0
  145.4443  131.9875  151.6277 C   0  0  1  0  0  0  0  0  0  0  0  0
  146.4774  130.9885  151.9239 N   0  0  0  0  0  0  0  0  0  0  0  0
  146.3454  129.6195  151.4314 C   0  0  0  0  0  0  0  0  0  0  0  0
  147.2794  131.1595  153.0095 C   0  0  0  0  0  0  0  0  0  0  0  0
  147.0794  132.2258  153.8299 N   0  0  0  0  0  0  0  0  0  0  0  0
  147.8519  132.4109  154.9039 C   0  0  0  0  0  0  0  0  0  0  0  0
  148.8709  131.6669  155.3357 N   0  0  0  0  0  0  0  0  0  0  0  0
  149.0836  130.5971  154.5176 C   0  0  0  0  0  0  0  0  0  0  0  0
  148.3431  130.2714  153.3453 C   0  0  0  0  0  0  0  0  0  0  0  0
  148.8665  129.1214  152.7647 N   0  0  0  0  0  0  0  0  0  0  0  0
  149.8547  128.7869  153.5478 C   0  0  0  0  0  0  0  0  0  0  0  0
  150.0502  129.6130  154.6309 N   0  0  0  0  0  0  0  0  0  0  0  0
  151.0778  129.4816  155.6524 C   0  0  0  0  0  0  0  0  0  0  0  0
  152.2604  130.4778  155.5031 C   0  0  0  0  0  0  0  0  0  0  0  0
  153.0501  130.0447  154.4117 O   0  0  0  0  0  0  0  0  0  0  0  0
  151.8329  131.9330  155.2165 C   0  0  0  0  0  0  0  0  0  0  0  0
  151.2161  132.5887  156.4638 C   0  0  0  0  0  0  0  0  0  0  0  0
  152.1459  132.5446  157.5409 O   0  0  0  0  0  0  0  0  0  0  0  0
  152.4940  131.2198  157.9296 C   0  0  0  0  0  0  0  0  0  0  0  0
  153.1599  130.4789  156.7549 C   0  0  0  0  0  0  0  0  0  0  0  0
  145.9796  133.3270  151.1030 C   0  0  0  0  0  0  0  0  0  0  0  0
  145.4987  137.2328  150.9225 H   0  0  0  0  0  0  0  0  0  0  0  0
  146.3505  136.2717  149.7357 H   0  0  0  0  0  0  0  0  0  0  0  0
  146.4565  135.8520  151.4447 H   0  0  0  0  0  0  0  0  0  0  0  0
  143.9404  135.6819  149.7026 H   0  0  0  0  0  0  0  0  0  0  0  0
  143.4513  136.4448  152.0472 H   0  0  0  0  0  0  0  0  0  0  0  0
  144.2497  135.0112  152.6806 H   0  0  0  0  0  0  0  0  0  0  0  0
  142.7625  134.8639  151.7513 H   0  0  0  0  0  0  0  0  0  0  0  0
  143.0620  133.1948  151.0031 H   0  0  0  0  0  0  0  0  0  0  0  0
  143.2754  132.9047  149.2735 H   0  0  0  0  0  0  0  0  0  0  0  0
  143.6768  130.8622  150.9744 H   0  0  0  0  0  0  0  0  0  0  0  0
  144.8786  131.1355  149.7084 H   0  0  0  0  0  0  0  0  0  0  0  0
  144.9103  132.2228  152.5501 H   0  0  0  0  0  0  0  0  0  0  0  0
  146.4677  128.8935  152.2365 H   0  0  0  0  0  0  0  0  0  0  0  0
  147.1001  129.4198  150.6707 H   0  0  0  0  0  0  0  0  0  0  0  0
  145.3674  129.4454  150.9835 H   0  0  0  0  0  0  0  0  0  0  0  0
  147.6217  133.2797  155.5026 H   0  0  0  0  0  0  0  0  0  0  0  0
  150.4706  127.9201  153.3570 H   0  0  0  0  0  0  0  0  0  0  0  0
  150.5925  129.5977  156.6210 H   0  0  0  0  0  0  0  0  0  0  0  0
  151.4485  128.4557  155.6298 H   0  0  0  0  0  0  0  0  0  0  0  0
  153.7491  129.5015  154.7422 H   0  0  0  0  0  0  0  0  0  0  0  0
  152.7064  132.5179  154.9244 H   0  0  0  0  0  0  0  0  0  0  0  0
  151.1455  131.9904  154.3731 H   0  0  0  0  0  0  0  0  0  0  0  0
  150.9744  133.6307  156.2552 H   0  0  0  0  0  0  0  0  0  0  0  0
  150.2835  132.1012  156.7502 H   0  0  0  0  0  0  0  0  0  0  0  0
  153.1840  131.2744  158.7715 H   0  0  0  0  0  0  0  0  0  0  0  0
  151.6100  130.6902  158.2862 H   0  0  0  0  0  0  0  0  0  0  0  0
  153.4155  129.4598  157.0472 H   0  0  0  0  0  0  0  0  0  0  0  0
  154.1038  130.9775  156.5289 H   0  0  0  0  0  0  0  0  0  0  0  0
  146.8723  133.2089  150.4892 H   0  0  0  0  0  0  0  0  0  0  0  0
  146.2422  133.9731  151.9413 H   0  0  0  0  0  0  0  0  0  0  0  0
  145.2848  133.8856  149.3023 H   0  0  0  0  0  0  0  0  0  0  0  0
  1  2  1  0  0  0  0
  1 28  1  0  0  0  0
  1 29  1  0  0  0  0
  1 30  1  0  0  0  0
  2  3  1  0  0  0  0
  2  4  1  0  0  0  0
  2 31  1  0  0  0  0
  3 32  1  0  0  0  0
  3 33  1  0  0  0  0
  3 34  1  0  0  0  0
  4 27  1  0  0  0  0
  4  5  1  0  0  0  0
  4 58  1  0  0  0  0
  5  6  1  0  0  0  0
  5 35  1  0  0  0  0
  5 36  1  0  0  0  0
  6  7  1  0  0  0  0
  6 37  1  0  0  0  0
  6 38  1  0  0  0  0
  7  8  1  0  0  0  0
  7 27  1  0  0  0  0
  7 39  1  0  0  0  0
  8  9  1  0  0  0  0
  8 10  1  0  0  0  0
  9 40  1  0  0  0  0
  9 41  1  0  0  0  0
  9 42  1  0  0  0  0
 10 15  1  0  0  0  0
 10 11  2  0  0  0  0
 11 12  1  0  0  0  0
 12 13  2  0  0  0  0
 12 43  1  0  0  0  0
 13 14  1  0  0  0  0
 14 18  1  0  0  0  0
 14 15  2  0  0  0  0
 15 16  1  0  0  0  0
 16 17  2  0  0  0  0
 17 18  1  0  0  0  0
 17 44  1  0  0  0  0
 18 19  1  0  0  0  0
 19 20  1  0  0  0  0
 19 45  1  0  0  0  0
 19 46  1  0  0  0  0
 20 26  1  0  0  0  0
 20 21  1  0  0  0  0
 20 22  1  0  0  0  0
 21 47  1  0  0  0  0
 22 23  1  0  0  0  0
 22 48  1  0  0  0  0
 22 49  1  0  0  0  0
 23 24  1  0  0  0  0
 23 50  1  0  0  0  0
 23 51  1  0  0  0  0
 24 25  1  0  0  0  0
 25 26  1  0  0  0  0
 25 52  1  0  0  0  0
 25 53  1  0  0  0  0
 26 54  1  0  0  0  0
 26 55  1  0  0  0  0
 27 56  1  0  0  0  0
 27 57  1  0  0  0  0
M  CHG  1   4   1
M  END
> <s_m_source_file>
AV-unprocessed.smi

> <i_m_source_file_index>
242

> <i_lp_mmshare_version>
43012

> <i_f3d_flags>
0

> <s_epik_input>
W0NIM11bQ0hdKFtDSDNdKU4xW0NIMl1bQ0gyXVtDQEhdKFtDSDJdMSlOKFtDSDNdKWMobltjSF1uMiljKGMyMyluW2NIXW4zW0NIMl1DNChbT0hdKVtDSDJdW0NIMl1PW0NIMl1bQ0gyXTQ=

> <s_epik_cmdline>
J2VwaWtfcHl0aG9uJywgJy1waCcsICc3LjAnLCAnLXRuJywgJzgnLCAnLW1hJywgJzIwMCcsICctbWV0YWxfYmluZGluZycsICctaW1hZScsICc8aW5maWxlLm1hZT4nLCAnLW9tYWUnLCAnPG91dGZpbGUubWFlPic=

> <r_lp_tautomer_probability>
1

> <r_epik_Ionization_Penalty>
0.000825961

> <r_epik_Ionization_Penalty_Charging>
0.00034898

> <r_epik_Ionization_Penalty_Neutral>
0.000476981

> <r_epik_State_Penalty>
-0

> <r_epik_Charging_Adjusted_Penalty>
0.00034898

> <i_epik_Tot_Q>
1

> <i_epik_Tot_abs_Q>
1

> <r_epik_Metal_State_Penalty>
-0

> <b_epik_Metal_Only>
0

> <s_lp_Force_Field>
OPLS_2005

> <r_lp_Energy>
46.8911

> <b_lp_Chiralities_Consistent>
1

> <s_lp_Variant>
AV-unprocessed.smi:242-1

> <Gold.Version>
5.8.1

> <Gold.Id.Protein>
6NUR|6NUR_protein|mol2

> <Gold.PLP.Fitness>
45.0177

> <Gold.PLP.PLP>
-37.4466

> <Gold.PLP.part.hbond>
-2.0000

> <Gold.PLP.part.metal>
0.0000

> <Gold.PLP.part.buried>
-0.7741

> <Gold.PLP.part.nonpolar>
-32.3120

> <Gold.PLP.part.repulsive>
0.3086

> <Gold.PLP.ligand.clash>
0.0000

> <Gold.PLP.ligand.torsion>
0.8396

> <Gold.PLP.Chemscore.Hbond>
2.0000

> <Gold.PLP.Chemscore.CHOScore>
0.8392

> <Gold.PLP.Chemscore.Metal>
0.0000

> <Gold.Chemscore.Hbonds>
donor molecule, donor type, donor heavy atom, donor atom, acceptor molecule, acceptor atom, score
      L1  H     4    58       P1  7921  0.86
      P1  H  6896  6907       L1    24  1.00
      L1  C    17    44       P1 10737  0.92

> <Gold.PLP.Chemscore.Internal.Correction>
0.7326

> <Gold.Rescore>
     Score         DG    S(hbond)    S(metal)    S(lipo)     H(rot)  DE(clash)    DE(int)     intcor
     11.92     -16.58       1.78        0.00      92.72       2.22       0.07       4.59       ----

> <Gold.Chemscore.Fitness>
11.9227

> <Gold.Chemscore.DG>
-16.5762

> <Gold.Chemscore.ZeroCoef>
-5.4800

> <Gold.Chemscore.Hbond>
1.7785

> <Gold.Chemscore.Metal>
0.0000

> <Gold.Chemscore.Lipo>
92.7176

> <Gold.Chemscore.Internal_Hbond>
0.0000

> <Gold.Chemscore.DEClash>
0.0673

> <Gold.Chemscore.DEInternal>
4.5862

> <Gold.Chemscore.Rot>
2.2234

> <Gold.Chemscore.Internal.Correction>
   9.000000E+99

> <Gold.Chemscore.Hbonds>
donor molecule, donor type, donor heavy atom, donor atom, acceptor molecule, acceptor atom, score
      L1  H     4    58       P1  7921  0.67
      P1  H  6896  6907       L1    24  0.28

> <Gold.Chemscore.Hbond.Weighted>
-5.9402

> <Gold.Chemscore.Metal.Weighted>
-0.0000

> <Gold.Chemscore.Lipo.Weighted>
-10.8480

> <Gold.Chemscore.Internal_Hbond.Weighted>
0.0000

> <Gold.Chemscore.DEClash.Weighted>
0.0673

> <Gold.Chemscore.DEInternal.Weighted>
4.5862

> <Gold.Chemscore.Rot.Weighted>
5.6919

> <Gold.Chemscore.Internal.Correction.Weighted>
   9.000000E+99

> <Gold.Protein.RotatedTorsions>
[ 6907 6896 6895 6894 ] final -178.08 input  -60.11 | X-H torsion
[ 7974 7965 7964 7962 ] final  111.71 input  175.53 | X-H torsion
[ 8008 7997 7996 7995 ] final   -6.46 input   59.86 | X-H torsion
[ 10167 10162 10161 10158 ] final  -11.86 input  -65.29 | X-H torsion
[ 10718 10713 10712 10709 ] final   33.71 input   66.30 | X-H torsion
[ 10763 10752 10751 10750 ] final   -5.52 input  -60.55 | X-H torsion
[ 11005 11000 10999 10996 ] final  -96.10 input  -57.11 | X-H torsion

> <Gold.Protein.ActiveResidues>
 VAL166  LYS551  ARG553  GLY616  TRP617  ASP618  TYR619  PRO620  LYS621  CYS622 
 ASP623  PHE694  ASN695  SER759  ASP760  ASP761  ALA762  ILE779  LEU786  VAL792 
 PHE793  MET794  SER795  GLU796  ALA797  LYS798  CYS799  TRP800  GLU811  SER814 

> <Gold.Protein.RotatedAtoms>
  151.6315  133.3332  159.3109 H   0  0  0  0  0  0  0  0  0  0  0  0  # atno 6907 bound_to 6896
  150.8054  134.7180  159.6651 H   0  0  0  0  0  0  0  0  0  0  0  0  # atno 6908 bound_to 6896
  152.4149  134.6063  160.0065 H   0  0  0  0  0  0  0  0  0  0  0  0  # atno 6909 bound_to 6896
  145.2388  139.2788  143.4129 H   0  0  0  0  0  0  0  0  0  0  0  0  # atno 7974 bound_to 7965
  154.5936  140.2432  155.7888 H   0  0  0  0  0  0  0  0  0  0  0  0  # atno 8008 bound_to 7997
  156.2263  140.2981  156.0030 H   0  0  0  0  0  0  0  0  0  0  0  0  # atno 8009 bound_to 7997
  155.2332  140.0404  157.2955 H   0  0  0  0  0  0  0  0  0  0  0  0  # atno 8010 bound_to 7997
  140.7148  143.5594  150.9212 H   0  0  0  0  0  0  0  0  0  0  0  0  # atno 10167 bound_to 10162
  157.3013  130.7352  149.6668 H   0  0  0  0  0  0  0  0  0  0  0  0  # atno 10718 bound_to 10713
  153.3997  135.7004  153.6435 H   0  0  0  0  0  0  0  0  0  0  0  0  # atno 10763 bound_to 10752
  153.4973  135.3660  155.2523 H   0  0  0  0  0  0  0  0  0  0  0  0  # atno 10764 bound_to 10752
  154.8709  135.4103  154.3330 H   0  0  0  0  0  0  0  0  0  0  0  0  # atno 10765 bound_to 10752
  141.1422  133.8073  157.0526 H   0  0  0  0  0  0  0  0  0  0  0  0  # atno 11005 bound_to 11000
  146.3334  140.2744  142.8607 LP  0  0  0  0  0  0  0  0  0  0  0  0  # atno 17320 bound_to 7965
  144.9608  140.8273  143.5514 LP  0  0  0  0  0  0  0  0  0  0  0  0  # atno 17321 bound_to 7965
  139.9319  143.6483  152.3074 LP  0  0  0  0  0  0  0  0  0  0  0  0  # atno 17342 bound_to 10162
  139.6937  144.7644  151.1394 LP  0  0  0  0  0  0  0  0  0  0  0  0  # atno 17343 bound_to 10162
  155.9672  130.4279  150.4765 LP  0  0  0  0  0  0  0  0  0  0  0  0  # atno 17370 bound_to 10713
  157.2746  131.0594  151.2237 LP  0  0  0  0  0  0  0  0  0  0  0  0  # atno 17371 bound_to 10713
  140.0622  134.9748  157.1325 LP  0  0  0  0  0  0  0  0  0  0  0  0  # atno 17394 bound_to 11000
  140.3831  134.2265  155.7170 LP  0  0  0  0  0  0  0  0  0  0  0  0  # atno 17395 bound_to 11000

$$$$
