AV-unprocessed.smi:2900|AV-procd|sdf|11147|dock1
  -GOLD-   2272016 23D 1   1.00000     0.00000
 Structure written by MMmdl.
 35 36  0  0  0  0  0  0  0  0  1 V2000
  152.2240  136.9900  154.8449 O   0  0  0  0  0  0  0  0  0  0  0  0
  151.0158  136.8586  155.0391 C   0  0  0  0  0  0  0  0  0  0  0  0
  150.3664  135.5602  155.2016 C   0  0  0  0  0  0  0  0  0  0  0  0
  149.0383  135.4530  155.4193 C   0  0  0  0  0  0  0  0  0  0  0  0
  148.2255  136.6556  155.4925 C   0  0  0  0  0  0  0  0  0  0  0  0
  146.7360  136.6419  155.7337 C   0  0  0  0  0  0  0  0  0  0  0  0
  146.4219  137.3239  156.8353 F   0  0  0  0  0  0  0  0  0  0  0  0
  146.0992  137.1919  154.6995 F   0  0  0  0  0  0  0  0  0  0  0  0
  146.3070  135.3875  155.8757 F   0  0  0  0  0  0  0  0  0  0  0  0
  148.7945  137.8086  155.3454 N   0  0  0  0  0  0  0  0  0  0  0  0
  150.1569  137.9161  155.1274 N   0  0  0  0  0  0  0  0  0  0  0  0
  150.6332  139.2992  155.0047 C   0  0  0  0  0  0  0  0  0  0  0  0
  149.4826  140.3237  155.1229 C   0  0  2  0  0  0  0  0  0  0  0  0
  149.1789  140.7901  153.8223 O   0  0  0  0  0  0  0  0  0  0  0  0
  149.8901  141.5453  155.9637 C   0  0  0  0  0  0  0  0  0  0  0  0
  150.7847  141.1238  156.9850 O   0  0  0  0  0  0  0  0  0  0  0  0
  151.4073  142.0881  157.7483 C   0  0  0  0  0  0  0  0  0  0  0  0
  152.2888  141.6377  158.7529 C   0  0  0  0  0  0  0  0  0  0  0  0
  152.9692  142.5530  159.5791 C   0  0  0  0  0  0  0  0  0  0  0  0
  152.7738  143.9357  159.4070 C   0  0  0  0  0  0  0  0  0  0  0  0
  151.8973  144.3996  158.4086 C   0  0  0  0  0  0  0  0  0  0  0  0
  151.2163  143.4839  157.5827 C   0  0  0  0  0  0  0  0  0  0  0  0
  150.9665  134.6637  155.1475 H   0  0  0  0  0  0  0  0  0  0  0  0
  148.5804  134.4822  155.5377 H   0  0  0  0  0  0  0  0  0  0  0  0
  151.3728  139.4792  155.7871 H   0  0  0  0  0  0  0  0  0  0  0  0
  151.1778  139.4424  154.0692 H   0  0  0  0  0  0  0  0  0  0  0  0
  148.6014  139.8569  155.5650 H   0  0  0  0  0  0  0  0  0  0  0  0
  148.9653  140.0476  153.2785 H   0  0  0  0  0  0  0  0  0  0  0  0
  150.4131  142.2628  155.3294 H   0  0  0  0  0  0  0  0  0  0  0  0
  149.0114  142.0442  156.3773 H   0  0  0  0  0  0  0  0  0  0  0  0
  152.4455  140.5780  158.8912 H   0  0  0  0  0  0  0  0  0  0  0  0
  153.6411  142.1932  160.3442 H   0  0  0  0  0  0  0  0  0  0  0  0
  153.2950  144.6393  160.0392 H   0  0  0  0  0  0  0  0  0  0  0  0
  151.7467  145.4605  158.2748 H   0  0  0  0  0  0  0  0  0  0  0  0
  150.5534  143.8785  156.8281 H   0  0  0  0  0  0  0  0  0  0  0  0
  1  2  2  0  0  0  0
  2 11  1  0  0  0  0
  2  3  1  0  0  0  0
  3  4  2  0  0  0  0
  3 23  1  0  0  0  0
  4  5  1  0  0  0  0
  4 24  1  0  0  0  0
  5  6  1  0  0  0  0
  5 10  2  0  0  0  0
  6  7  1  0  0  0  0
  6  8  1  0  0  0  0
  6  9  1  0  0  0  0
 10 11  1  0  0  0  0
 11 12  1  0  0  0  0
 12 13  1  0  0  0  0
 12 25  1  0  0  0  0
 12 26  1  0  0  0  0
 13 14  1  0  0  0  0
 13 15  1  0  0  0  0
 13 27  1  0  0  0  0
 14 28  1  0  0  0  0
 15 16  1  0  0  0  0
 15 29  1  0  0  0  0
 15 30  1  0  0  0  0
 16 17  1  0  0  0  0
 17 22  1  0  0  0  0
 17 18  2  0  0  0  0
 18 19  1  0  0  0  0
 18 31  1  0  0  0  0
 19 20  2  0  0  0  0
 19 32  1  0  0  0  0
 20 21  1  0  0  0  0
 20 33  1  0  0  0  0
 21 22  2  0  0  0  0
 21 34  1  0  0  0  0
 22 35  1  0  0  0  0
M  END
> <s_m_source_file>
AV-unprocessed.smi

> <i_m_source_file_index>
2900

> <i_lp_mmshare_version>
43012

> <i_f3d_flags>
0

> <s_epik_input>
Tz1jMVtjSF1bY0hdYyhDKEYpKEYpRilubjFbQ0gyXVtDQEhdKFtPSF0pW0NIMl1PYzJbY0hdW2NIXVtjSF1bY0hdW2NIXTI=

> <s_epik_cmdline>
J2VwaWtfcHl0aG9uJywgJy1waCcsICc3LjAnLCAnLXRuJywgJzgnLCAnLW1hJywgJzIwMCcsICctbWV0YWxfYmluZGluZycsICctaW1hZScsICc8aW5maWxlLm1hZT4nLCAnLW9tYWUnLCAnPG91dGZpbGUubWFlPic=

> <r_lp_tautomer_probability>
1

> <r_epik_Ionization_Penalty>
1.22578e-07

> <r_epik_Ionization_Penalty_Charging>
5.40425e-09

> <r_epik_Ionization_Penalty_Neutral>
1.17174e-07

> <r_epik_State_Penalty>
-0

> <r_epik_Charging_Adjusted_Penalty>
5.40425e-09

> <i_epik_Tot_Q>
0

> <i_epik_Tot_abs_Q>
0

> <r_epik_Metal_State_Penalty>
-0

> <b_epik_Metal_Only>
0

> <s_lp_Force_Field>
OPLS_2005

> <r_lp_Energy>
34.5506

> <b_lp_Chiralities_Consistent>
1

> <s_lp_Variant>
AV-unprocessed.smi:2900-1

> <Gold.Version>
5.8.1

> <Gold.Id.Protein>
6NUR|6NUR_protein|mol2

> <Gold.PLP.Fitness>
45.8416

> <Gold.PLP.PLP>
-39.3103

> <Gold.PLP.part.hbond>
-4.0000

> <Gold.PLP.part.metal>
0.0000

> <Gold.PLP.part.buried>
-3.4245

> <Gold.PLP.part.nonpolar>
-32.2972

> <Gold.PLP.part.repulsive>
0.2631

> <Gold.PLP.ligand.clash>
0.0000

> <Gold.PLP.ligand.torsion>
0.9346

> <Gold.PLP.Chemscore.Hbond>
2.7344

> <Gold.PLP.Chemscore.CHOScore>
0.0000

> <Gold.PLP.Chemscore.Metal>
0.0000

> <Gold.Chemscore.Hbonds>
donor molecule, donor type, donor heavy atom, donor atom, acceptor molecule, acceptor atom, score
      L1  H    14    28       P1  7957  0.21
      P1  H  8011  8017       L1    14  0.36
      P1  H 10752 10764       L1     1  0.85

> <Gold.PLP.Chemscore.Internal.Correction>
0.1973

> <Gold.Rescore>
     Score         DG    S(hbond)    S(metal)    S(lipo)     H(rot)  DE(clash)    DE(int)     intcor
     15.94     -17.42       2.24        0.00      95.79       2.63       0.21       1.28       ----

> <Gold.Chemscore.Fitness>
15.9378

> <Gold.Chemscore.DG>
-17.4188

> <Gold.Chemscore.ZeroCoef>
-5.4800

> <Gold.Chemscore.Hbond>
2.2376

> <Gold.Chemscore.Metal>
0.0000

> <Gold.Chemscore.Lipo>
95.7873

> <Gold.Chemscore.Internal_Hbond>
0.0000

> <Gold.Chemscore.DEClash>
0.2053

> <Gold.Chemscore.DEInternal>
1.2756

> <Gold.Chemscore.Rot>
2.6336

> <Gold.Chemscore.Internal.Correction>
   9.000000E+99

> <Gold.Chemscore.Hbonds>
donor molecule, donor type, donor heavy atom, donor atom, acceptor molecule, acceptor atom, score
      L1  H    14    28       P1  7957  0.21
      P1  H  8011  8017       L1    14  0.15
      P1  H 10752 10764       L1     1  0.71

> <Gold.Chemscore.Hbond.Weighted>
-7.4737

> <Gold.Chemscore.Metal.Weighted>
-0.0000

> <Gold.Chemscore.Lipo.Weighted>
-11.2071

> <Gold.Chemscore.Internal_Hbond.Weighted>
0.0000

> <Gold.Chemscore.DEClash.Weighted>
0.2053

> <Gold.Chemscore.DEInternal.Weighted>
1.2756

> <Gold.Chemscore.Rot.Weighted>
6.7420

> <Gold.Chemscore.Internal.Correction.Weighted>
   9.000000E+99

> <Gold.Protein.RotatedTorsions>
[ 6907 6896 6895 6894 ] final  -87.14 input  -60.11 | X-H torsion
[ 7974 7965 7964 7962 ] final -153.40 input  175.53 | X-H torsion
[ 8008 7997 7996 7995 ] final  179.38 input   59.86 | X-H torsion
[ 10167 10162 10161 10158 ] final  -79.33 input  -65.29 | X-H torsion
[ 10718 10713 10712 10709 ] final   94.21 input   66.30 | X-H torsion
[ 10763 10752 10751 10750 ] final  -68.09 input  -60.55 | X-H torsion
[ 11005 11000 10999 10996 ] final   13.73 input  -57.11 | X-H torsion

> <Gold.Protein.ActiveResidues>
 VAL166  LYS551  ARG553  GLY616  TRP617  ASP618  TYR619  PRO620  LYS621  CYS622 
 ASP623  PHE694  ASN695  SER759  ASP760  ASP761  ALA762  ILE779  LEU786  VAL792 
 PHE793  MET794  SER795  GLU796  ALA797  LYS798  CYS799  TRP800  GLU811  SER814 

> <Gold.Protein.RotatedAtoms>
  150.6866  134.2942  159.4679 H   0  0  0  0  0  0  0  0  0  0  0  0  # atno 6907 bound_to 6896
  152.0844  134.9447  160.0582 H   0  0  0  0  0  0  0  0  0  0  0  0  # atno 6908 bound_to 6896
  152.0787  133.4107  159.4528 H   0  0  0  0  0  0  0  0  0  0  0  0  # atno 6909 bound_to 6896
  144.7743  140.4531  143.5885 H   0  0  0  0  0  0  0  0  0  0  0  0  # atno 7974 bound_to 7965
  156.0440  140.1310  157.0124 H   0  0  0  0  0  0  0  0  0  0  0  0  # atno 8008 bound_to 7997
  154.4404  140.1024  156.6350 H   0  0  0  0  0  0  0  0  0  0  0  0  # atno 8009 bound_to 7997
  155.5623  140.3465  155.4496 H   0  0  0  0  0  0  0  0  0  0  0  0  # atno 8010 bound_to 7997
  140.4603  143.2456  151.8359 H   0  0  0  0  0  0  0  0  0  0  0  0  # atno 10167 bound_to 10162
  157.6949  131.0504  150.4151 H   0  0  0  0  0  0  0  0  0  0  0  0  # atno 10718 bound_to 10713
  154.3840  135.6067  153.5806 H   0  0  0  0  0  0  0  0  0  0  0  0  # atno 10763 bound_to 10752
  152.9788  135.5868  154.4376 H   0  0  0  0  0  0  0  0  0  0  0  0  # atno 10764 bound_to 10752
  154.4150  135.2845  155.1990 H   0  0  0  0  0  0  0  0  0  0  0  0  # atno 10765 bound_to 10752
  140.4775  134.0969  155.7744 H   0  0  0  0  0  0  0  0  0  0  0  0  # atno 11005 bound_to 11000
  145.6232  139.1527  143.3010 LP  0  0  0  0  0  0  0  0  0  0  0  0  # atno 17320 bound_to 7965
  146.1911  140.6341  142.9145 LP  0  0  0  0  0  0  0  0  0  0  0  0  # atno 17321 bound_to 7965
  139.4805  144.5016  151.9053 LP  0  0  0  0  0  0  0  0  0  0  0  0  # atno 17342 bound_to 10162
  140.4102  144.2379  150.5889 LP  0  0  0  0  0  0  0  0  0  0  0  0  # atno 17343 bound_to 10162
  156.4531  130.4016  149.6623 LP  0  0  0  0  0  0  0  0  0  0  0  0  # atno 17370 bound_to 10713
  156.3765  130.7557  151.2546 LP  0  0  0  0  0  0  0  0  0  0  0  0  # atno 17371 bound_to 10713
  141.1547  133.8904  157.2007 LP  0  0  0  0  0  0  0  0  0  0  0  0  # atno 17394 bound_to 11000
  139.9847  135.0086  156.9833 LP  0  0  0  0  0  0  0  0  0  0  0  0  # atno 17395 bound_to 11000

$$$$
