AV-unprocessed.smi:1843|AV-procd|sdf|7501|dock2
  -GOLD-   22720 9203D 1   1.00000     0.00000
 Structure written by MMmdl.
 37 39  0  0  0  0  0  0  0  0  1 V2000
  147.3991  132.3364  153.9171 O   0  0  0  0  0  0  0  0  0  0  0  0
  147.8591  133.3523  153.3952 C   0  0  0  0  0  0  0  0  0  0  0  0
  149.0278  133.9324  153.7203 N   0  0  0  0  0  0  0  0  0  0  0  0
  149.9732  133.5197  154.6964 C   0  0  0  0  0  0  0  0  0  0  0  0
  150.4728  134.3309  155.6389 N   0  0  0  0  0  0  0  0  0  0  0  0
  151.3777  133.6742  156.4611 N   0  0  0  0  0  0  0  0  0  0  0  0
  151.5347  132.3895  156.1202 C   0  0  0  0  0  0  0  0  0  0  0  0
  152.4594  131.4783  156.8566 C   0  0  0  0  0  0  0  0  0  0  0  0
  153.9293  131.8001  157.0161 C   0  0  0  0  0  0  0  0  0  0  0  0
  153.4994  130.6693  156.1164 C   0  0  0  0  0  0  0  0  0  0  0  0
  150.5708  131.8700  154.7411 S   0  0  0  0  0  0  0  0  0  0  0  0
  147.2395  134.0256  152.4148 N   0  0  0  0  0  0  0  0  0  0  0  0
  145.9569  133.6577  151.8177 C   0  0  1  0  0  0  0  0  0  0  0  0
  145.3557  134.8130  150.9899 C   0  0  0  0  0  0  0  0  0  0  0  0
  144.0004  134.4088  150.3863 C   0  0  0  0  0  0  0  0  0  0  0  0
  144.1172  133.1263  149.5463 C   0  0  0  0  0  0  0  0  0  0  0  0
  144.7382  131.9728  150.3565 C   0  0  0  0  0  0  0  0  0  0  0  0
  146.0913  132.3646  150.9821 C   0  0  1  0  0  0  0  0  0  0  0  0
  147.0459  132.5225  149.9479 O   0  0  0  0  0  0  0  0  0  0  0  0
  149.2713  134.7675  153.2086 H   0  0  0  0  0  0  0  0  0  0  0  0
  151.9477  131.0062  157.6930 H   0  0  0  0  0  0  0  0  0  0  0  0
  154.3166  132.6961  156.5354 H   0  0  0  0  0  0  0  0  0  0  0  0
  154.3997  131.5388  157.9615 H   0  0  0  0  0  0  0  0  0  0  0  0
  153.6834  129.6539  156.4609 H   0  0  0  0  0  0  0  0  0  0  0  0
  153.5878  130.8213  155.0423 H   0  0  0  0  0  0  0  0  0  0  0  0
  147.6891  134.8515  152.0488 H   0  0  0  0  0  0  0  0  0  0  0  0
  145.2623  133.4366  152.6310 H   0  0  0  0  0  0  0  0  0  0  0  0
  145.2228  135.6960  151.6160 H   0  0  0  0  0  0  0  0  0  0  0  0
  146.0420  135.1019  150.1928 H   0  0  0  0  0  0  0  0  0  0  0  0
  143.2777  134.2536  151.1883 H   0  0  0  0  0  0  0  0  0  0  0  0
  143.6094  135.2206  149.7722 H   0  0  0  0  0  0  0  0  0  0  0  0
  143.1328  132.8326  149.1805 H   0  0  0  0  0  0  0  0  0  0  0  0
  144.7250  133.3243  148.6626 H   0  0  0  0  0  0  0  0  0  0  0  0
  144.0480  131.6869  151.1513 H   0  0  0  0  0  0  0  0  0  0  0  0
  144.8543  131.0916  149.7246 H   0  0  0  0  0  0  0  0  0  0  0  0
  146.4351  131.5516  151.6229 H   0  0  0  0  0  0  0  0  0  0  0  0
  147.8034  131.9980  150.1555 H   0  0  0  0  0  0  0  0  0  0  0  0
  1  2  2  0  0  0  0
  2  3  1  0  0  0  0
  2 12  1  0  0  0  0
  3  4  1  0  0  0  0
  3 20  1  0  0  0  0
  4 11  1  0  0  0  0
  4  5  2  0  0  0  0
  5  6  1  0  0  0  0
  6  7  2  0  0  0  0
  7  8  1  0  0  0  0
  7 11  1  0  0  0  0
  8 10  1  0  0  0  0
  8  9  1  0  0  0  0
  8 21  1  0  0  0  0
  9 10  1  0  0  0  0
  9 22  1  0  0  0  0
  9 23  1  0  0  0  0
 10 24  1  0  0  0  0
 10 25  1  0  0  0  0
 12 13  1  0  0  0  0
 12 26  1  0  0  0  0
 13 18  1  0  0  0  0
 13 14  1  0  0  0  0
 13 27  1  0  0  0  0
 14 15  1  0  0  0  0
 14 28  1  0  0  0  0
 14 29  1  0  0  0  0
 15 16  1  0  0  0  0
 15 30  1  0  0  0  0
 15 31  1  0  0  0  0
 16 17  1  0  0  0  0
 16 32  1  0  0  0  0
 16 33  1  0  0  0  0
 17 18  1  0  0  0  0
 17 34  1  0  0  0  0
 17 35  1  0  0  0  0
 18 19  1  0  0  0  0
 18 36  1  0  0  0  0
 19 37  1  0  0  0  0
M  END
> <s_m_source_file>
AV-unprocessed.smi

> <i_m_source_file_index>
1843

> <i_lp_mmshare_version>
43012

> <i_f3d_flags>
0

> <s_epik_input>
W09IXVtDQEBIXTFbQ0gyXVtDSDJdW0NIMl1bQ0gyXVtDQEhdMVtOSF1DKD1PKVtOSF1jMm5uYyhzMilbQ0hdM1tDSDJdW0NIMl0z

> <s_epik_cmdline>
J2VwaWtfcHl0aG9uJywgJy1waCcsICc3LjAnLCAnLXRuJywgJzgnLCAnLW1hJywgJzIwMCcsICctbWV0YWxfYmluZGluZycsICctaW1hZScsICc8aW5maWxlLm1hZT4nLCAnLW9tYWUnLCAnPG91dGZpbGUubWFlPic=

> <r_lp_tautomer_probability>
1

> <r_epik_Ionization_Penalty>
0.000257313

> <r_epik_Ionization_Penalty_Charging>
0

> <r_epik_Ionization_Penalty_Neutral>
0.000257313

> <r_epik_State_Penalty>
-0

> <r_epik_Charging_Adjusted_Penalty>
0

> <i_epik_Tot_Q>
0

> <i_epik_Tot_abs_Q>
0

> <r_epik_Metal_State_Penalty>
0.147479

> <b_epik_Metal_Only>
0

> <s_lp_Force_Field>
OPLS_2005

> <r_lp_Energy>
11.0621

> <b_lp_Chiralities_Consistent>
1

> <s_lp_Variant>
AV-unprocessed.smi:1843-2

> <Gold.Version>
5.8.1

> <Gold.Id.Protein>
6NUR|6NUR_protein|mol2

> <Gold.PLP.Fitness>
38.9942

> <Gold.PLP.PLP>
-32.0640

> <Gold.PLP.part.hbond>
-3.2681

> <Gold.PLP.part.metal>
0.0000

> <Gold.PLP.part.buried>
-5.0483

> <Gold.PLP.part.nonpolar>
-24.3846

> <Gold.PLP.part.repulsive>
0.1142

> <Gold.PLP.ligand.clash>
0.0000

> <Gold.PLP.ligand.torsion>
0.6563

> <Gold.PLP.Chemscore.Hbond>
2.7000

> <Gold.PLP.Chemscore.CHOScore>
0.0000

> <Gold.PLP.Chemscore.Metal>
0.0000

> <Gold.Chemscore.Hbonds>
donor molecule, donor type, donor heavy atom, donor atom, acceptor molecule, acceptor atom, score
      L1  H     3    20       P1  7948  0.50
      L1  H    12    26       P1  7948  1.00
      L1  H    19    37       P1 10747  1.00

> <Gold.PLP.Chemscore.Internal.Correction>
0.1427

> <Gold.Rescore>
     Score         DG    S(hbond)    S(metal)    S(lipo)     H(rot)  DE(clash)    DE(int)     intcor
     15.44     -15.94       2.14        0.00      66.45       1.74       0.02       0.48       ----

> <Gold.Chemscore.Fitness>
15.4368

> <Gold.Chemscore.DG>
-15.9431

> <Gold.Chemscore.ZeroCoef>
-5.4800

> <Gold.Chemscore.Hbond>
2.1388

> <Gold.Chemscore.Metal>
0.0000

> <Gold.Chemscore.Lipo>
66.4539

> <Gold.Chemscore.Internal_Hbond>
0.0000

> <Gold.Chemscore.DEClash>
0.0249

> <Gold.Chemscore.DEInternal>
0.4815

> <Gold.Chemscore.Rot>
1.7404

> <Gold.Chemscore.Internal.Correction>
   9.000000E+99

> <Gold.Chemscore.Hbonds>
donor molecule, donor type, donor heavy atom, donor atom, acceptor molecule, acceptor atom, score
      L1  H     3    20       P1  7948  0.02
      L1  H    12    26       P1  7948  0.74
      L1  H    19    37       P1 10747  0.99

> <Gold.Chemscore.Hbond.Weighted>
-7.1435

> <Gold.Chemscore.Metal.Weighted>
-0.0000

> <Gold.Chemscore.Lipo.Weighted>
-7.7751

> <Gold.Chemscore.Internal_Hbond.Weighted>
0.0000

> <Gold.Chemscore.DEClash.Weighted>
0.0249

> <Gold.Chemscore.DEInternal.Weighted>
0.4815

> <Gold.Chemscore.Rot.Weighted>
4.4555

> <Gold.Chemscore.Internal.Correction.Weighted>
   9.000000E+99

> <Gold.Protein.RotatedTorsions>
[ 6907 6896 6895 6894 ] final  -73.96 input  -60.11 | X-H torsion
[ 7974 7965 7964 7962 ] final  126.12 input  175.53 | X-H torsion
[ 8008 7997 7996 7995 ] final   12.88 input   59.86 | X-H torsion
[ 10167 10162 10161 10158 ] final   77.46 input  -65.29 | X-H torsion
[ 10718 10713 10712 10709 ] final   39.18 input   66.30 | X-H torsion
[ 10763 10752 10751 10750 ] final  124.47 input  -60.55 | X-H torsion
[ 11005 11000 10999 10996 ] final  151.99 input  -57.11 | X-H torsion

> <Gold.Protein.ActiveResidues>
 VAL166  LYS551  ARG553  GLY616  TRP617  ASP618  TYR619  PRO620  LYS621  CYS622 
 ASP623  PHE694  ASN695  SER759  ASP760  ASP761  ALA762  ILE779  LEU786  VAL792 
 PHE793  MET794  SER795  GLU796  ALA797  LYS798  CYS799  TRP800  GLU811  SER814 

> <Gold.Protein.RotatedAtoms>
  150.7110  134.4939  159.5528 H   0  0  0  0  0  0  0  0  0  0  0  0  # atno 6907 bound_to 6896
  152.2551  134.8090  160.0449 H   0  0  0  0  0  0  0  0  0  0  0  0  # atno 6908 bound_to 6896
  151.8823  133.3463  159.3807 H   0  0  0  0  0  0  0  0  0  0  0  0  # atno 6909 bound_to 6896
  145.0653  139.3772  143.4985 H   0  0  0  0  0  0  0  0  0  0  0  0  # atno 7974 bound_to 7965
  154.8267  140.2893  155.5750 H   0  0  0  0  0  0  0  0  0  0  0  0  # atno 8008 bound_to 7997
  156.3002  140.2540  156.3115 H   0  0  0  0  0  0  0  0  0  0  0  0  # atno 8009 bound_to 7997
  154.9277  140.0384  157.2021 H   0  0  0  0  0  0  0  0  0  0  0  0  # atno 8010 bound_to 7997
  139.9813  144.5824  150.7898 H   0  0  0  0  0  0  0  0  0  0  0  0  # atno 10167 bound_to 10162
  157.3675  130.7683  149.7094 H   0  0  0  0  0  0  0  0  0  0  0  0  # atno 10718 bound_to 10713
  153.6619  135.3345  155.3129 H   0  0  0  0  0  0  0  0  0  0  0  0  # atno 10763 bound_to 10752
  154.8512  135.4366  154.1795 H   0  0  0  0  0  0  0  0  0  0  0  0  # atno 10764 bound_to 10752
  153.2764  135.7005  153.7504 H   0  0  0  0  0  0  0  0  0  0  0  0  # atno 10765 bound_to 10752
  140.1268  134.8828  157.2148 H   0  0  0  0  0  0  0  0  0  0  0  0  # atno 11005 bound_to 11000
  146.3526  140.0371  142.8646 LP  0  0  0  0  0  0  0  0  0  0  0  0  # atno 17320 bound_to 7965
  145.1358  140.9544  143.4517 LP  0  0  0  0  0  0  0  0  0  0  0  0  # atno 17321 bound_to 7965
  140.7488  143.2928  151.3284 LP  0  0  0  0  0  0  0  0  0  0  0  0  # atno 17342 bound_to 10162
  139.6408  144.0543  152.2552 LP  0  0  0  0  0  0  0  0  0  0  0  0  # atno 17343 bound_to 10162
  155.9749  130.4096  150.3889 LP  0  0  0  0  0  0  0  0  0  0  0  0  # atno 17370 bound_to 10713
  157.1975  131.0430  151.2668 LP  0  0  0  0  0  0  0  0  0  0  0  0  # atno 17371 bound_to 10713
  140.2894  134.3258  155.7319 LP  0  0  0  0  0  0  0  0  0  0  0  0  # atno 17394 bound_to 11000
  141.2162  133.7525  156.9481 LP  0  0  0  0  0  0  0  0  0  0  0  0  # atno 17395 bound_to 11000

$$$$
