AV-unprocessed.smi:2973|AV-procd|sdf|11339|dock9
  -GOLD-   2272016253D 1   1.00000     0.00000
 Structure written by MMmdl.
 49 51  0  0  0  0  0  0  0  0  1 V2000
  151.9303  139.6028  157.3379 C   0  0  0  0  0  0  0  0  0  0  0  0
  151.2644  140.0602  156.0219 C   0  0  2  0  0  0  0  0  0  0  0  0
  150.5240  141.3982  156.2372 C   0  0  0  0  0  0  0  0  0  0  0  0
  149.9037  141.9297  154.9354 C   0  0  0  0  0  0  0  0  0  0  0  0
  148.9635  140.8955  154.3006 C   0  0  0  0  0  0  0  0  0  0  0  0
  149.6921  139.5626  154.0659 C   0  0  0  0  0  0  0  0  0  0  0  0
  150.3157  139.0072  155.3688 C   0  0  2  0  0  0  0  0  0  0  0  0
  149.2835  138.5535  156.2862 N   0  0  0  0  0  0  0  0  0  0  0  0
  149.3339  137.2361  156.5190 C   0  0  0  0  0  0  0  0  0  0  0  0
  148.5763  136.6193  157.2657 O   0  0  0  0  0  0  0  0  0  0  0  0
  150.3562  136.7201  155.8124 N   0  0  0  0  0  0  0  0  0  0  0  0
  150.7502  135.3032  155.8418 C   0  0  0  0  0  0  0  0  0  0  0  0
  149.7000  134.3243  155.2873 C   0  0  0  0  0  0  0  0  0  0  0  0
  149.3068  133.4037  156.0026 O   0  0  0  0  0  0  0  0  0  0  0  0
  149.2552  134.5086  154.0325 N   0  0  0  0  0  0  0  0  0  0  0  0
  148.2854  133.6639  153.3479 C   0  0  0  0  0  0  0  0  0  0  0  0
  146.8762  134.2759  153.3987 C   0  0  0  0  0  0  0  0  0  0  0  0
  145.9451  133.6590  152.3725 C   0  0  0  0  0  0  0  0  0  0  0  0
  146.0357  132.2879  152.0512 C   0  0  0  0  0  0  0  0  0  0  0  0
  145.1435  131.7621  151.0970 C   0  0  0  0  0  0  0  0  0  0  0  0
  144.1992  132.6227  150.5047 C   0  0  0  0  0  0  0  0  0  0  0  0
  144.1894  133.9768  150.8950 C   0  0  0  0  0  0  0  0  0  0  0  0
  145.0400  134.4911  151.8095 N   0  0  0  0  0  0  0  0  0  0  0  0
  150.9940  137.6674  155.1106 C   0  0  0  0  0  0  0  0  0  0  0  0
  151.9756  137.5193  154.3824 O   0  0  0  0  0  0  0  0  0  0  0  0
  151.1924  139.3742  158.1074 H   0  0  0  0  0  0  0  0  0  0  0  0
  152.5827  140.3817  157.7331 H   0  0  0  0  0  0  0  0  0  0  0  0
  152.5484  138.7169  157.1934 H   0  0  0  0  0  0  0  0  0  0  0  0
  152.0722  140.2555  155.3144 H   0  0  0  0  0  0  0  0  0  0  0  0
  149.7426  141.2737  156.9878 H   0  0  0  0  0  0  0  0  0  0  0  0
  151.2130  142.1438  156.6356 H   0  0  0  0  0  0  0  0  0  0  0  0
  149.3592  142.8533  155.1336 H   0  0  0  0  0  0  0  0  0  0  0  0
  150.6963  142.1836  154.2304 H   0  0  0  0  0  0  0  0  0  0  0  0
  148.0989  140.7383  154.9466 H   0  0  0  0  0  0  0  0  0  0  0  0
  148.5757  141.2773  153.3557 H   0  0  0  0  0  0  0  0  0  0  0  0
  148.9993  138.8400  153.6317 H   0  0  0  0  0  0  0  0  0  0  0  0
  150.4743  139.7162  153.3206 H   0  0  0  0  0  0  0  0  0  0  0  0
  148.6089  139.1794  156.7016 H   0  0  0  0  0  0  0  0  0  0  0  0
  151.6747  135.1684  155.2777 H   0  0  0  0  0  0  0  0  0  0  0  0
  150.9878  135.0045  156.8641 H   0  0  0  0  0  0  0  0  0  0  0  0
  149.6253  135.2895  153.5107 H   0  0  0  0  0  0  0  0  0  0  0  0
  148.5940  133.4962  152.3146 H   0  0  0  0  0  0  0  0  0  0  0  0
  148.2867  132.6883  153.8352 H   0  0  0  0  0  0  0  0  0  0  0  0
  146.4462  134.1415  154.3925 H   0  0  0  0  0  0  0  0  0  0  0  0
  146.9265  135.3525  153.2309 H   0  0  0  0  0  0  0  0  0  0  0  0
  146.7696  131.6525  152.5251 H   0  0  0  0  0  0  0  0  0  0  0  0
  145.1818  130.7175  150.8254 H   0  0  0  0  0  0  0  0  0  0  0  0
  143.4992  132.2540  149.7698 H   0  0  0  0  0  0  0  0  0  0  0  0
  143.4790  134.6650  150.4617 H   0  0  0  0  0  0  0  0  0  0  0  0
  1  2  1  0  0  0  0
  1 26  1  0  0  0  0
  1 27  1  0  0  0  0
  1 28  1  0  0  0  0
  2  7  1  0  0  0  0
  2  3  1  0  0  0  0
  2 29  1  0  0  0  0
  3  4  1  0  0  0  0
  3 30  1  0  0  0  0
  3 31  1  0  0  0  0
  4  5  1  0  0  0  0
  4 32  1  0  0  0  0
  4 33  1  0  0  0  0
  5  6  1  0  0  0  0
  5 34  1  0  0  0  0
  5 35  1  0  0  0  0
  6  7  1  0  0  0  0
  6 36  1  0  0  0  0
  6 37  1  0  0  0  0
  7 24  1  0  0  0  0
  7  8  1  0  0  0  0
  8  9  1  0  0  0  0
  8 38  1  0  0  0  0
  9 10  2  0  0  0  0
  9 11  1  0  0  0  0
 11 12  1  0  0  0  0
 11 24  1  0  0  0  0
 12 13  1  0  0  0  0
 12 39  1  0  0  0  0
 12 40  1  0  0  0  0
 13 14  2  0  0  0  0
 13 15  1  0  0  0  0
 15 16  1  0  0  0  0
 15 41  1  0  0  0  0
 16 17  1  0  0  0  0
 16 42  1  0  0  0  0
 16 43  1  0  0  0  0
 17 18  1  0  0  0  0
 17 44  1  0  0  0  0
 17 45  1  0  0  0  0
 18 23  1  0  0  0  0
 18 19  2  0  0  0  0
 19 20  1  0  0  0  0
 19 46  1  0  0  0  0
 20 21  2  0  0  0  0
 20 47  1  0  0  0  0
 21 22  1  0  0  0  0
 21 48  1  0  0  0  0
 22 23  2  0  0  0  0
 22 49  1  0  0  0  0
 24 25  2  0  0  0  0
M  END
> <s_m_source_file>
AV-unprocessed.smi

> <i_m_source_file_index>
2973

> <i_lp_mmshare_version>
43012

> <i_f3d_flags>
0

> <s_epik_input>
W0NIMl0xW0NIMl1bQ0gyXVtDSDJdW0NAQEhdKFtDSDNdKVtDQF0xMltOSF1DKD1PKU4oQzI9TylbQ0gyXUMoPU8pW05IXVtDSDJdW0NIMl1jM1tjSF1bY0hdW2NIXVtjSF1uMw==

> <s_epik_cmdline>
J2VwaWtfcHl0aG9uJywgJy1waCcsICc3LjAnLCAnLXRuJywgJzgnLCAnLW1hJywgJzIwMCcsICctbWV0YWxfYmluZGluZycsICctaW1hZScsICc8aW5maWxlLm1hZT4nLCAnLW9tYWUnLCAnPG91dGZpbGUubWFlPic=

> <r_lp_tautomer_probability>
1

> <r_epik_Ionization_Penalty>
0.0245152

> <r_epik_Ionization_Penalty_Charging>
0

> <r_epik_Ionization_Penalty_Neutral>
0.0245152

> <r_epik_State_Penalty>
0.0198648

> <r_epik_Charging_Adjusted_Penalty>
0.0198648

> <i_epik_Tot_Q>
0

> <i_epik_Tot_abs_Q>
0

> <r_epik_Metal_State_Penalty>
0.0400162

> <b_epik_Metal_Only>
0

> <s_lp_Force_Field>
OPLS_2005

> <r_lp_Energy>
21.7018

> <b_lp_Chiralities_Consistent>
1

> <s_lp_Variant>
AV-unprocessed.smi:2973-3

> <Gold.Version>
5.8.1

> <Gold.Id.Protein>
6NUR|6NUR_protein|mol2

> <Gold.PLP.Fitness>
45.7850

> <Gold.PLP.PLP>
-40.2427

> <Gold.PLP.part.hbond>
-2.0000

> <Gold.PLP.part.metal>
0.0000

> <Gold.PLP.part.buried>
-3.8640

> <Gold.PLP.part.nonpolar>
-34.8368

> <Gold.PLP.part.repulsive>
0.6292

> <Gold.PLP.ligand.clash>
0.0000

> <Gold.PLP.ligand.torsion>
0.5915

> <Gold.PLP.Chemscore.Hbond>
1.2352

> <Gold.PLP.Chemscore.CHOScore>
1.0000

> <Gold.PLP.Chemscore.Metal>
0.0000

> <Gold.Chemscore.Hbonds>
donor molecule, donor type, donor heavy atom, donor atom, acceptor molecule, acceptor atom, score
      L1  H    15    41       P1  7948  0.38
      P1  H 10752 10764       L1    25  0.76
      L1  C    22    49       P1 10186  0.74

> <Gold.PLP.Chemscore.Internal.Correction>
0.0198

> <Gold.Rescore>
     Score         DG    S(hbond)    S(metal)    S(lipo)     H(rot)  DE(clash)    DE(int)     intcor
     15.07     -15.72       0.97        0.00     100.28       1.86       0.10       0.54       ----

> <Gold.Chemscore.Fitness>
15.0710

> <Gold.Chemscore.DG>
-15.7165

> <Gold.Chemscore.ZeroCoef>
-5.4800

> <Gold.Chemscore.Hbond>
0.9740

> <Gold.Chemscore.Metal>
0.0000

> <Gold.Chemscore.Lipo>
100.2821

> <Gold.Chemscore.Internal_Hbond>
0.0000

> <Gold.Chemscore.DEClash>
0.1024

> <Gold.Chemscore.DEInternal>
0.5432

> <Gold.Chemscore.Rot>
1.8553

> <Gold.Chemscore.Internal.Correction>
   9.000000E+99

> <Gold.Chemscore.Hbonds>
donor molecule, donor type, donor heavy atom, donor atom, acceptor molecule, acceptor atom, score
      L1  H    15    41       P1  7948  0.03
      P1  H 10752 10764       L1    25  0.72

> <Gold.Chemscore.Hbond.Weighted>
-3.2532

> <Gold.Chemscore.Metal.Weighted>
-0.0000

> <Gold.Chemscore.Lipo.Weighted>
-11.7330

> <Gold.Chemscore.Internal_Hbond.Weighted>
0.0000

> <Gold.Chemscore.DEClash.Weighted>
0.1024

> <Gold.Chemscore.DEInternal.Weighted>
0.5432

> <Gold.Chemscore.Rot.Weighted>
4.7497

> <Gold.Chemscore.Internal.Correction.Weighted>
   9.000000E+99

> <Gold.Protein.RotatedTorsions>
[ 6907 6896 6895 6894 ] final  -55.32 input  -60.11 | X-H torsion
[ 7974 7965 7964 7962 ] final  140.70 input  175.53 | X-H torsion
[ 8008 7997 7996 7995 ] final  110.77 input   59.86 | X-H torsion
[ 10167 10162 10161 10158 ] final   -7.31 input  -65.29 | X-H torsion
[ 10718 10713 10712 10709 ] final -123.50 input   66.30 | X-H torsion
[ 10763 10752 10751 10750 ] final  -81.32 input  -60.55 | X-H torsion
[ 11005 11000 10999 10996 ] final -169.72 input  -57.11 | X-H torsion

> <Gold.Protein.ActiveResidues>
 VAL166  LYS551  ARG553  GLY616  TRP617  ASP618  TYR619  PRO620  LYS621  CYS622 
 ASP623  PHE694  ASN695  SER759  ASP760  ASP761  ALA762  ILE779  LEU786  VAL792 
 PHE793  MET794  SER795  GLU796  ALA797  LYS798  CYS799  TRP800  GLU811  SER814 

> <Gold.Protein.RotatedAtoms>
  150.8262  134.7493  159.6814 H   0  0  0  0  0  0  0  0  0  0  0  0  # atno 6907 bound_to 6896
  152.4372  134.5659  159.9917 H   0  0  0  0  0  0  0  0  0  0  0  0  # atno 6908 bound_to 6896
  151.5831  133.3338  159.3048 H   0  0  0  0  0  0  0  0  0  0  0  0  # atno 6909 bound_to 6896
  144.9163  139.5226  143.5685 H   0  0  0  0  0  0  0  0  0  0  0  0  # atno 7974 bound_to 7965
  156.2076  140.3032  155.9662 H   0  0  0  0  0  0  0  0  0  0  0  0  # atno 8008 bound_to 7997
  155.2802  140.0437  157.3032 H   0  0  0  0  0  0  0  0  0  0  0  0  # atno 8009 bound_to 7997
  154.5655  140.2333  155.8278 H   0  0  0  0  0  0  0  0  0  0  0  0  # atno 8010 bound_to 7997
  140.7025  143.6096  150.8717 H   0  0  0  0  0  0  0  0  0  0  0  0  # atno 10167 bound_to 10162
  156.1508  130.6533  150.9910 H   0  0  0  0  0  0  0  0  0  0  0  0  # atno 10718 bound_to 10713
  154.5622  135.5630  153.7017 H   0  0  0  0  0  0  0  0  0  0  0  0  # atno 10763 bound_to 10752
  153.0021  135.6276  154.2230 H   0  0  0  0  0  0  0  0  0  0  0  0  # atno 10764 bound_to 10752
  154.2168  135.2871  155.2919 H   0  0  0  0  0  0  0  0  0  0  0  0  # atno 10765 bound_to 10752
  140.5275  134.5648  157.5065 H   0  0  0  0  0  0  0  0  0  0  0  0  # atno 11005 bound_to 11000
  146.3183  139.8008  142.8966 LP  0  0  0  0  0  0  0  0  0  0  0  0  # atno 17320 bound_to 7965
  145.3370  141.0279  143.3414 LP  0  0  0  0  0  0  0  0  0  0  0  0  # atno 17321 bound_to 7965
  139.9819  143.5942  152.2940 LP  0  0  0  0  0  0  0  0  0  0  0  0  # atno 17342 bound_to 10162
  139.6566  144.7662  151.2044 LP  0  0  0  0  0  0  0  0  0  0  0  0  # atno 17343 bound_to 10162
  157.6655  131.0872  150.7738 LP  0  0  0  0  0  0  0  0  0  0  0  0  # atno 17370 bound_to 10713
  156.7807  130.4858  149.5401 LP  0  0  0  0  0  0  0  0  0  0  0  0  # atno 17371 bound_to 10713
  139.9572  134.7515  156.0316 LP  0  0  0  0  0  0  0  0  0  0  0  0  # atno 17394 bound_to 11000
  141.1300  133.6589  156.3438 LP  0  0  0  0  0  0  0  0  0  0  0  0  # atno 17395 bound_to 11000

$$$$
