AV-unprocessed.smi:2569|AV-procd|sdf|10104|dock7
  -GOLD-   2272014123D 1   1.00000     0.00000
 Structure written by MMmdl.
 40 42  0  0  0  0  0  0  0  0  2 V2000
  154.4872  141.7305  163.7035 C   0  0  0  0  0  0  0  0  0  0  0  0
  153.8221  142.3187  162.4705 C   0  0  0  0  0  0  0  0  0  0  0  0
  153.0405  143.4865  162.6180 C   0  0  0  0  0  0  0  0  0  0  0  0
  152.4472  144.0020  161.4717 C   0  0  0  0  0  0  0  0  0  0  0  0
  151.6309  145.1202  161.2902 N   0  3  0  0  0  0  0  0  0  0  0  0
  151.2884  145.2243  159.9765 C   0  0  0  0  0  0  0  0  0  0  0  0
  151.8756  144.1902  159.3153 N   0  0  0  0  0  0  0  0  0  0  0  0
  151.8222  143.8426  157.8878 C   0  0  0  0  0  0  0  0  0  0  0  0
  150.5463  143.0657  157.5110 C   0  0  2  0  0  0  0  0  0  0  0  0
  149.4398  143.5677  158.2368 O   0  0  0  0  0  0  0  0  0  0  0  0
  150.6988  141.5540  157.7677 C   0  0  0  0  0  0  0  0  0  0  0  0
  151.0004  140.8085  156.5566 N   0  0  0  0  0  0  0  0  0  0  0  0
  152.1723  140.1391  156.4282 N   0  0  0  0  0  0  0  0  0  0  0  0
  152.1545  139.5754  155.2546 N   0  0  0  0  0  0  0  0  0  0  0  0
  150.9796  139.8533  154.5811 N   0  0  0  0  0  0  0  0  0  0  0  0
  150.3031  140.6170  155.4288 C   0  0  0  0  0  0  0  0  0  0  0  0
  148.9489  141.1954  155.1809 C   0  0  0  0  0  0  0  0  0  0  0  0
  152.6087  143.3990  160.2088 C   0  0  0  0  0  0  0  0  0  0  0  0
  153.3741  142.2459  160.0472 C   0  0  0  0  0  0  0  0  0  0  0  0
  153.9859  141.7059  161.2011 C   0  0  0  0  0  0  0  0  0  0  0  0
  154.8267  140.4488  161.0543 C   0  0  0  0  0  0  0  0  0  0  0  0
  154.2350  142.2962  164.6010 H   0  0  0  0  0  0  0  0  0  0  0  0
  155.5719  141.7435  163.5948 H   0  0  0  0  0  0  0  0  0  0  0  0
  154.1664  140.7004  163.8597 H   0  0  0  0  0  0  0  0  0  0  0  0
  152.9104  143.9580  163.5812 H   0  0  0  0  0  0  0  0  0  0  0  0
  150.6621  145.9885  159.5389 H   0  0  0  0  0  0  0  0  0  0  0  0
  151.8613  144.7791  157.3300 H   0  0  0  0  0  0  0  0  0  0  0  0
  152.7203  143.2891  157.6135 H   0  0  0  0  0  0  0  0  0  0  0  0
  150.3412  143.2260  156.4516 H   0  0  0  0  0  0  0  0  0  0  0  0
  148.7661  143.8205  157.6246 H   0  0  0  0  0  0  0  0  0  0  0  0
  151.5023  141.3755  158.4838 H   0  0  0  0  0  0  0  0  0  0  0  0
  149.7919  141.1486  158.2172 H   0  0  0  0  0  0  0  0  0  0  0  0
  148.6056  140.9429  154.1774 H   0  0  0  0  0  0  0  0  0  0  0  0
  148.9799  142.2810  155.2729 H   0  0  0  0  0  0  0  0  0  0  0  0
  148.2339  140.7997  155.9022 H   0  0  0  0  0  0  0  0  0  0  0  0
  153.4988  141.7747  159.0839 H   0  0  0  0  0  0  0  0  0  0  0  0
  154.8611  140.1093  160.0187 H   0  0  0  0  0  0  0  0  0  0  0  0
  154.4122  139.6395  161.6557 H   0  0  0  0  0  0  0  0  0  0  0  0
  155.8514  140.6325  161.3784 H   0  0  0  0  0  0  0  0  0  0  0  0
  151.3270  145.7655  162.0082 H   0  0  0  0  0  0  0  0  0  0  0  0
  1  2  1  0  0  0  0
  1 22  1  0  0  0  0
  1 23  1  0  0  0  0
  1 24  1  0  0  0  0
  2 20  1  0  0  0  0
  2  3  2  0  0  0  0
  3  4  1  0  0  0  0
  3 25  1  0  0  0  0
  4 18  2  0  0  0  0
  4  5  1  0  0  0  0
  5  6  2  0  0  0  0
  5 40  1  0  0  0  0
  6  7  1  0  0  0  0
  6 26  1  0  0  0  0
  7  8  1  0  0  0  0
  7 18  1  0  0  0  0
  8  9  1  0  0  0  0
  8 27  1  0  0  0  0
  8 28  1  0  0  0  0
  9 10  1  0  0  0  0
  9 11  1  0  0  0  0
  9 29  1  0  0  0  0
 10 30  1  0  0  0  0
 11 12  1  0  0  0  0
 11 31  1  0  0  0  0
 11 32  1  0  0  0  0
 12 16  1  0  0  0  0
 12 13  1  0  0  0  0
 13 14  2  0  0  0  0
 14 15  1  0  0  0  0
 15 16  2  0  0  0  0
 16 17  1  0  0  0  0
 17 33  1  0  0  0  0
 17 34  1  0  0  0  0
 17 35  1  0  0  0  0
 18 19  1  0  0  0  0
 19 20  2  0  0  0  0
 19 36  1  0  0  0  0
 20 21  1  0  0  0  0
 21 37  1  0  0  0  0
 21 38  1  0  0  0  0
 21 39  1  0  0  0  0
M  CHG  1   5   1
M  END
> <s_m_source_file>
AV-unprocessed.smi

> <i_m_source_file_index>
2569

> <i_lp_mmshare_version>
43012

> <i_f3d_flags>
0

> <s_epik_input>
W0NIM11jKFtjSF0xKWMoW0NIM10pW2NIXWMoYzEyKW4oW2NIXW4yKVtDSDJdW0NASF0oW09IXSlbQ0gyXW4zbm5uYzNbQ0gzXQ==

> <s_epik_cmdline>
J2VwaWtfcHl0aG9uJywgJy1waCcsICc3LjAnLCAnLXRuJywgJzgnLCAnLW1hJywgJzIwMCcsICctbWV0YWxfYmluZGluZycsICctaW1hZScsICc8aW5maWxlLm1hZT4nLCAnLW9tYWUnLCAnPG91dGZpbGUubWFlPic=

> <r_lp_tautomer_probability>
1

> <r_epik_Ionization_Penalty>
1.13338

> <r_epik_Ionization_Penalty_Charging>
1.13335

> <r_epik_Ionization_Penalty_Neutral>
3.02334e-05

> <r_epik_State_Penalty>
1.19324

> <r_epik_Charging_Adjusted_Penalty>
2.3266

> <i_epik_Tot_Q>
1

> <i_epik_Tot_abs_Q>
1

> <r_epik_Metal_State_Penalty>
1.27602

> <b_epik_Metal_Only>
0

> <s_lp_Force_Field>
OPLS_2005

> <r_lp_Energy>
15.9129

> <b_lp_Chiralities_Consistent>
1

> <s_lp_Variant>
AV-unprocessed.smi:2569-3

> <Gold.Version>
5.8.1

> <Gold.Id.Protein>
6NUR|6NUR_protein|mol2

> <Gold.PLP.Fitness>
58.2745

> <Gold.PLP.PLP>
-54.4896

> <Gold.PLP.part.hbond>
-5.6703

> <Gold.PLP.part.metal>
0.0000

> <Gold.PLP.part.buried>
-2.6667

> <Gold.PLP.part.nonpolar>
-45.4488

> <Gold.PLP.part.repulsive>
0.1927

> <Gold.PLP.ligand.clash>
0.0000

> <Gold.PLP.ligand.torsion>
1.1588

> <Gold.PLP.Chemscore.Hbond>
2.0316

> <Gold.PLP.Chemscore.CHOScore>
0.0000

> <Gold.PLP.Chemscore.Metal>
0.0000

> <Gold.Chemscore.Hbonds>
donor molecule, donor type, donor heavy atom, donor atom, acceptor molecule, acceptor atom, score
      L1  H    10    30       P1  8028  0.23
      P1  H  7989  7998       L1    15  0.80
      P1  H  7997  8010       L1    13  0.16

> <Gold.PLP.Chemscore.Internal.Correction>
0.0077

> <Gold.Rescore>
     Score         DG    S(hbond)    S(metal)    S(lipo)     H(rot)  DE(clash)    DE(int)     intcor
      9.70     -14.50       0.37        0.00     123.08       2.59       2.50       2.30       ----

> <Gold.Chemscore.Fitness>
9.7033

> <Gold.Chemscore.DG>
-14.5041

> <Gold.Chemscore.ZeroCoef>
-5.4800

> <Gold.Chemscore.Hbond>
0.3721

> <Gold.Chemscore.Metal>
0.0000

> <Gold.Chemscore.Lipo>
123.0769

> <Gold.Chemscore.Internal_Hbond>
0.0000

> <Gold.Chemscore.DEClash>
2.4976

> <Gold.Chemscore.DEInternal>
2.3032

> <Gold.Chemscore.Rot>
2.5854

> <Gold.Chemscore.Internal.Correction>
   9.000000E+99

> <Gold.Chemscore.Hbonds>
donor molecule, donor type, donor heavy atom, donor atom, acceptor molecule, acceptor atom, score
      L1  H    10    30       P1  8028  0.01
      P1  H  7989  7998       L1    15  0.06
      P1  H  7997  8010       L1    13  0.04

> <Gold.Chemscore.Hbond.Weighted>
-1.2428

> <Gold.Chemscore.Metal.Weighted>
-0.0000

> <Gold.Chemscore.Lipo.Weighted>
-14.4000

> <Gold.Chemscore.Internal_Hbond.Weighted>
0.0000

> <Gold.Chemscore.DEClash.Weighted>
2.4976

> <Gold.Chemscore.DEInternal.Weighted>
2.3032

> <Gold.Chemscore.Rot.Weighted>
6.6187

> <Gold.Chemscore.Internal.Correction.Weighted>
   9.000000E+99

> <Gold.Protein.RotatedTorsions>
[ 6907 6896 6895 6894 ] final   66.85 input  -60.11 | X-H torsion
[ 7974 7965 7964 7962 ] final   39.11 input  175.53 | X-H torsion
[ 8008 7997 7996 7995 ] final   45.24 input   59.86 | X-H torsion
[ 10167 10162 10161 10158 ] final   88.75 input  -65.29 | X-H torsion
[ 10718 10713 10712 10709 ] final  -67.38 input   66.30 | X-H torsion
[ 10763 10752 10751 10750 ] final -166.91 input  -60.55 | X-H torsion
[ 11005 11000 10999 10996 ] final   66.85 input  -57.11 | X-H torsion

> <Gold.Protein.ActiveResidues>
 VAL166  LYS551  ARG553  GLY616  TRP617  ASP618  TYR619  PRO620  LYS621  CYS622 
 ASP623  PHE694  ASN695  SER759  ASP760  ASP761  ALA762  ILE779  LEU786  VAL792 
 PHE793  MET794  SER795  GLU796  ALA797  LYS798  CYS799  TRP800  GLU811  SER814 

> <Gold.Protein.RotatedAtoms>
  152.4510  134.5393  159.9834 H   0  0  0  0  0  0  0  0  0  0  0  0  # atno 6907 bound_to 6896
  151.5466  133.3418  159.2953 H   0  0  0  0  0  0  0  0  0  0  0  0  # atno 6908 bound_to 6896
  150.8439  134.7773  159.7018 H   0  0  0  0  0  0  0  0  0  0  0  0  # atno 6909 bound_to 6896
  146.1010  139.5691  142.9414 H   0  0  0  0  0  0  0  0  0  0  0  0  # atno 7974 bound_to 7965
  155.3326  140.3403  155.4239 H   0  0  0  0  0  0  0  0  0  0  0  0  # atno 8008 bound_to 7997
  156.1854  140.1678  156.8232 H   0  0  0  0  0  0  0  0  0  0  0  0  # atno 8009 bound_to 7997
  154.5380  140.0731  156.8444 H   0  0  0  0  0  0  0  0  0  0  0  0  # atno 8010 bound_to 7997
  139.8641  144.6528  150.9024 H   0  0  0  0  0  0  0  0  0  0  0  0  # atno 10167 bound_to 10162
  156.0561  130.4277  150.1846 H   0  0  0  0  0  0  0  0  0  0  0  0  # atno 10718 bound_to 10713
  154.6786  135.2951  154.9644 H   0  0  0  0  0  0  0  0  0  0  0  0  # atno 10763 bound_to 10752
  154.0647  135.6626  153.4820 H   0  0  0  0  0  0  0  0  0  0  0  0  # atno 10764 bound_to 10752
  153.0532  135.5160  154.7817 H   0  0  0  0  0  0  0  0  0  0  0  0  # atno 10765 bound_to 10752
  139.9806  134.6750  156.0269 H   0  0  0  0  0  0  0  0  0  0  0  0  # atno 11005 bound_to 11000
  145.5854  141.0377  143.2099 LP  0  0  0  0  0  0  0  0  0  0  0  0  # atno 17320 bound_to 7965
  144.7433  139.7389  143.7302 LP  0  0  0  0  0  0  0  0  0  0  0  0  # atno 17321 bound_to 7965
  140.7770  143.3719  151.1634 LP  0  0  0  0  0  0  0  0  0  0  0  0  # atno 17342 bound_to 10162
  139.7345  143.9020  152.3030 LP  0  0  0  0  0  0  0  0  0  0  0  0  # atno 17343 bound_to 10162
  156.9922  130.9897  151.3412 LP  0  0  0  0  0  0  0  0  0  0  0  0  # atno 17370 bound_to 10713
  157.5531  130.8195  149.8170 LP  0  0  0  0  0  0  0  0  0  0  0  0  # atno 17371 bound_to 10713
  141.1479  133.6553  156.3922 LP  0  0  0  0  0  0  0  0  0  0  0  0  # atno 17394 bound_to 11000
  140.5104  134.6401  157.5282 LP  0  0  0  0  0  0  0  0  0  0  0  0  # atno 17395 bound_to 11000

$$$$
