AV-unprocessed.smi:1898|AV-procd|sdf|7703|dock4
  -GOLD-   22720 9443D 1   1.00000     0.00000
 Structure written by MMmdl.
 46 47  0  0  0  0  0  0  0  0  3 V2000
  144.5218  135.4948  150.8163 C   0  0  0  0  0  0  0  0  0  0  0  0
  145.7114  136.1874  150.3354 N   0  5  0  0  0  0  0  0  0  0  0  0
  146.2593  137.2614  150.9644 C   0  0  0  0  0  0  0  0  0  0  0  0
  146.9285  138.2006  150.5208 O   0  0  0  0  0  0  0  0  0  0  0  0
  145.9314  137.2526  152.4618 C   0  0  0  0  0  0  0  0  0  0  0  0
  147.0642  137.8234  153.2317 N   0  3  2  0  0  0  0  0  0  0  0  0
  147.1149  137.3154  154.6257 C   0  0  0  0  0  0  0  0  0  0  0  0
  148.3840  137.8001  155.3463 C   0  0  0  0  0  0  0  0  0  0  0  0
  148.4843  139.3339  155.3290 C   0  0  1  0  0  0  0  0  0  0  0  0
  149.7465  139.7538  155.9308 N   0  0  0  0  0  0  0  0  0  0  0  0
  149.8778  140.6982  156.8732 C   0  0  0  0  0  0  0  0  0  0  0  0
  148.9246  141.3074  157.3573 O   0  0  0  0  0  0  0  0  0  0  0  0
  151.1684  140.8688  157.2073 N   0  0  0  0  0  0  0  0  0  0  0  0
  151.7498  141.7723  158.1415 C   0  0  0  0  0  0  0  0  0  0  0  0
  151.3169  143.1075  158.3344 C   0  0  0  0  0  0  0  0  0  0  0  0
  151.9815  143.9122  159.2782 C   0  0  0  0  0  0  0  0  0  0  0  0
  153.0587  143.3576  159.9927 C   0  0  0  0  0  0  0  0  0  0  0  0
  153.4895  142.0925  159.8135 N   0  0  0  0  0  0  0  0  0  0  0  0
  152.8510  141.3147  158.9036 C   0  0  0  0  0  0  0  0  0  0  0  0
  153.2993  140.0206  158.7170 O   0  0  0  0  0  0  0  0  0  0  0  0
  154.0373  139.3991  159.7636 C   0  0  0  0  0  0  0  0  0  0  0  0
  148.3789  139.8422  153.8795 C   0  0  0  0  0  0  0  0  0  0  0  0
  147.1117  139.3097  153.1912 C   0  0  0  0  0  0  0  0  0  0  0  0
  144.2279  134.6836  150.1509 H   0  0  0  0  0  0  0  0  0  0  0  0
  143.6586  136.1559  150.8979 H   0  0  0  0  0  0  0  0  0  0  0  0
  144.6714  135.0482  151.7998 H   0  0  0  0  0  0  0  0  0  0  0  0
  145.0023  137.7762  152.6988 H   0  0  0  0  0  0  0  0  0  0  0  0
  145.7758  136.2101  152.7431 H   0  0  0  0  0  0  0  0  0  0  0  0
  146.2242  137.6415  155.1652 H   0  0  0  0  0  0  0  0  0  0  0  0
  147.1029  136.2247  154.6216 H   0  0  0  0  0  0  0  0  0  0  0  0
  148.3844  137.4365  156.3746 H   0  0  0  0  0  0  0  0  0  0  0  0
  149.2605  137.3645  154.8636 H   0  0  0  0  0  0  0  0  0  0  0  0
  147.6535  139.7379  155.9112 H   0  0  0  0  0  0  0  0  0  0  0  0
  150.5839  139.3001  155.5959 H   0  0  0  0  0  0  0  0  0  0  0  0
  151.8245  140.2471  156.7575 H   0  0  0  0  0  0  0  0  0  0  0  0
  150.5021  143.5394  157.7762 H   0  0  0  0  0  0  0  0  0  0  0  0
  151.6738  144.9334  159.4474 H   0  0  0  0  0  0  0  0  0  0  0  0
  153.5920  143.9467  160.7242 H   0  0  0  0  0  0  0  0  0  0  0  0
  154.3170  138.3912  159.4577 H   0  0  0  0  0  0  0  0  0  0  0  0
  153.4447  139.3149  160.6757 H   0  0  0  0  0  0  0  0  0  0  0  0
  154.9566  139.9446  159.9821 H   0  0  0  0  0  0  0  0  0  0  0  0
  148.3733  140.9328  153.8616 H   0  0  0  0  0  0  0  0  0  0  0  0
  149.2560  139.5285  153.3112 H   0  0  0  0  0  0  0  0  0  0  0  0
  147.0969  139.6615  152.1594 H   0  0  0  0  0  0  0  0  0  0  0  0
  146.2222  139.7168  153.6744 H   0  0  0  0  0  0  0  0  0  0  0  0
  147.9005  137.4887  152.7748 H   0  0  0  0  0  0  0  0  0  0  0  0
  1  2  1  0  0  0  0
  1 24  1  0  0  0  0
  1 25  1  0  0  0  0
  1 26  1  0  0  0  0
  2  3  1  0  0  0  0
  3  4  2  0  0  0  0
  3  5  1  0  0  0  0
  5  6  1  0  0  0  0
  5 27  1  0  0  0  0
  5 28  1  0  0  0  0
  6 23  1  0  0  0  0
  6  7  1  0  0  0  0
  6 46  1  0  0  0  0
  7  8  1  0  0  0  0
  7 29  1  0  0  0  0
  7 30  1  0  0  0  0
  8  9  1  0  0  0  0
  8 31  1  0  0  0  0
  8 32  1  0  0  0  0
  9 10  1  0  0  0  0
  9 22  1  0  0  0  0
  9 33  1  0  0  0  0
 10 11  1  0  0  0  0
 10 34  1  0  0  0  0
 11 12  2  0  0  0  0
 11 13  1  0  0  0  0
 13 14  1  0  0  0  0
 13 35  1  0  0  0  0
 14 19  1  0  0  0  0
 14 15  2  0  0  0  0
 15 16  1  0  0  0  0
 15 36  1  0  0  0  0
 16 17  2  0  0  0  0
 16 37  1  0  0  0  0
 17 18  1  0  0  0  0
 17 38  1  0  0  0  0
 18 19  2  0  0  0  0
 19 20  1  0  0  0  0
 20 21  1  0  0  0  0
 21 39  1  0  0  0  0
 21 40  1  0  0  0  0
 21 41  1  0  0  0  0
 22 23  1  0  0  0  0
 22 42  1  0  0  0  0
 22 43  1  0  0  0  0
 23 44  1  0  0  0  0
 23 45  1  0  0  0  0
M  CHG  1   2  -1
M  CHG  1   6   1
M  END
> <s_m_source_file>
AV-unprocessed.smi

> <i_m_source_file_index>
1898

> <i_lp_mmshare_version>
43012

> <i_f3d_flags>
0

> <s_epik_input>
W0NIM11bTkhdQyg9TylbQ0gyXU4xW0NIMl1bQ0gyXVtDSF0oW0NIMl1bQ0gyXTEpW05IXUMoPU8pW05IXWMyW2NIXVtjSF1bY0hdbmMyT1tDSDNd

> <s_epik_cmdline>
J2VwaWtfcHl0aG9uJywgJy1waCcsICc3LjAnLCAnLXRuJywgJzgnLCAnLW1hJywgJzIwMCcsICctbWV0YWxfYmluZGluZycsICctaW1hZScsICc8aW5maWxlLm1hZT4nLCAnLW9tYWUnLCAnPG91dGZpbGUubWFlPic=

> <r_lp_tautomer_probability>
1

> <r_epik_Ionization_Penalty>
6.13954

> <r_epik_Ionization_Penalty_Charging>
6.13946

> <r_epik_Ionization_Penalty_Neutral>
7.84403e-05

> <r_epik_State_Penalty>
6.9595

> <r_epik_Charging_Adjusted_Penalty>
13.099

> <i_epik_Tot_Q>
0

> <i_epik_Tot_abs_Q>
2

> <r_epik_Metal_State_Penalty>
2.89145

> <b_epik_Metal_Only>
1

> <s_lp_Force_Field>
OPLS_2005

> <r_lp_Energy>
12.3689

> <b_lp_Chiralities_Consistent>
1

> <s_lp_Variant>
AV-unprocessed.smi:1898-4

> <Gold.Version>
5.8.1

> <Gold.Id.Protein>
6NUR|6NUR_protein|mol2

> <Gold.PLP.Fitness>
38.1642

> <Gold.PLP.PLP>
-29.0569

> <Gold.PLP.part.hbond>
-2.9020

> <Gold.PLP.part.metal>
0.0000

> <Gold.PLP.part.buried>
-2.3171

> <Gold.PLP.part.nonpolar>
-25.7639

> <Gold.PLP.part.repulsive>
1.8195

> <Gold.PLP.ligand.clash>
0.0000

> <Gold.PLP.ligand.torsion>
1.4699

> <Gold.PLP.Chemscore.Hbond>
3.9920

> <Gold.PLP.Chemscore.CHOScore>
0.0000

> <Gold.PLP.Chemscore.Metal>
0.0000

> <Gold.Chemscore.Hbonds>
donor molecule, donor type, donor heavy atom, donor atom, acceptor molecule, acceptor atom, score
      L1  H     6    46       P1  7948  2.00
      P1  H  7954  7966       L1     4  0.71
      P1  H  7997  8010       L1    20  0.80

> <Gold.PLP.Chemscore.Internal.Correction>
0.0711

> <Gold.Rescore>
     Score         DG    S(hbond)    S(metal)    S(lipo)     H(rot)  DE(clash)    DE(int)     intcor
     12.38     -17.31       2.32        0.00      76.99       1.93       2.03       2.89       ----

> <Gold.Chemscore.Fitness>
12.3835

> <Gold.Chemscore.DG>
-17.3060

> <Gold.Chemscore.ZeroCoef>
-5.4800

> <Gold.Chemscore.Hbond>
2.3218

> <Gold.Chemscore.Metal>
0.0000

> <Gold.Chemscore.Lipo>
76.9891

> <Gold.Chemscore.Internal_Hbond>
0.0000

> <Gold.Chemscore.DEClash>
2.0286

> <Gold.Chemscore.DEInternal>
2.8940

> <Gold.Chemscore.Rot>
1.9283

> <Gold.Chemscore.Internal.Correction>
   9.000000E+99

> <Gold.Chemscore.Hbonds>
donor molecule, donor type, donor heavy atom, donor atom, acceptor molecule, acceptor atom, score
      L1  H     6    46       P1  7948  0.98
      P1  H  7954  7966       L1     4  0.64
      P1  H  7997  8010       L1    20  0.18

> <Gold.Chemscore.Hbond.Weighted>
-7.7548

> <Gold.Chemscore.Metal.Weighted>
-0.0000

> <Gold.Chemscore.Lipo.Weighted>
-9.0077

> <Gold.Chemscore.Internal_Hbond.Weighted>
0.0000

> <Gold.Chemscore.DEClash.Weighted>
2.0286

> <Gold.Chemscore.DEInternal.Weighted>
2.8940

> <Gold.Chemscore.Rot.Weighted>
4.9365

> <Gold.Chemscore.Internal.Correction.Weighted>
   9.000000E+99

> <Gold.Protein.RotatedTorsions>
[ 6907 6896 6895 6894 ] final  -37.83 input  -60.11 | X-H torsion
[ 7974 7965 7964 7962 ] final  -79.73 input  175.53 | X-H torsion
[ 8008 7997 7996 7995 ] final   29.05 input   59.86 | X-H torsion
[ 10167 10162 10161 10158 ] final -139.83 input  -65.29 | X-H torsion
[ 10718 10713 10712 10709 ] final  -16.77 input   66.30 | X-H torsion
[ 10763 10752 10751 10750 ] final  -46.40 input  -60.55 | X-H torsion
[ 11005 11000 10999 10996 ] final  -67.72 input  -57.11 | X-H torsion

> <Gold.Protein.ActiveResidues>
 VAL166  LYS551  ARG553  GLY616  TRP617  ASP618  TYR619  PRO620  LYS621  CYS622 
 ASP623  PHE694  ASN695  SER759  ASP760  ASP761  ALA762  ILE779  LEU786  VAL792 
 PHE793  MET794  SER795  GLU796  ALA797  LYS798  CYS799  TRP800  GLU811  SER814 

> <Gold.Protein.RotatedAtoms>
  151.0098  134.9388  159.8000 H   0  0  0  0  0  0  0  0  0  0  0  0  # atno 6907 bound_to 6896
  152.5300  134.3043  159.9100 H   0  0  0  0  0  0  0  0  0  0  0  0  # atno 6908 bound_to 6896
  151.3049  133.4064  159.2676 H   0  0  0  0  0  0  0  0  0  0  0  0  # atno 6909 bound_to 6896
  145.5693  140.9469  143.1404 H   0  0  0  0  0  0  0  0  0  0  0  0  # atno 7974 bound_to 7965
  155.0684  140.3197  155.4638 H   0  0  0  0  0  0  0  0  0  0  0  0  # atno 8008 bound_to 7997
  156.2796  140.2116  156.5756 H   0  0  0  0  0  0  0  0  0  0  0  0  # atno 8009 bound_to 7997
  154.7075  140.0501  157.0505 H   0  0  0  0  0  0  0  0  0  0  0  0  # atno 8010 bound_to 7997
  139.8341  143.7408  152.2665 H   0  0  0  0  0  0  0  0  0  0  0  0  # atno 10167 bound_to 10162
  156.5829  130.4779  149.6312 H   0  0  0  0  0  0  0  0  0  0  0  0  # atno 10718 bound_to 10713
  154.0443  135.6640  153.4793 H   0  0  0  0  0  0  0  0  0  0  0  0  # atno 10763 bound_to 10752
  153.0489  135.5097  154.7812 H   0  0  0  0  0  0  0  0  0  0  0  0  # atno 10764 bound_to 10752
  154.6798  135.3043  154.9595 H   0  0  0  0  0  0  0  0  0  0  0  0  # atno 10765 bound_to 10752
  141.1515  133.6725  156.6336 H   0  0  0  0  0  0  0  0  0  0  0  0  # atno 11005 bound_to 11000
  144.7445  139.7357  143.7297 LP  0  0  0  0  0  0  0  0  0  0  0  0  # atno 17320 bound_to 7965
  146.1795  139.4981  142.9875 LP  0  0  0  0  0  0  0  0  0  0  0  0  # atno 17321 bound_to 7965
  139.7625  144.7502  151.0343 LP  0  0  0  0  0  0  0  0  0  0  0  0  # atno 17342 bound_to 10162
  140.7804  143.4735  151.0114 LP  0  0  0  0  0  0  0  0  0  0  0  0  # atno 17343 bound_to 10162
  156.2616  130.6965  151.1736 LP  0  0  0  0  0  0  0  0  0  0  0  0  # atno 17370 bound_to 10713
  157.7322  131.0601  150.5639 LP  0  0  0  0  0  0  0  0  0  0  0  0  # atno 17371 bound_to 10713
  140.3448  134.7818  157.4424 LP  0  0  0  0  0  0  0  0  0  0  0  0  # atno 17394 bound_to 11000
  140.0908  134.5603  155.8446 LP  0  0  0  0  0  0  0  0  0  0  0  0  # atno 17395 bound_to 11000

$$$$
