AV-unprocessed.smi:861|AV-procd|sdf|3967|dock9
  -GOLD-   22720 1443D 1   1.00000     0.00000
 Structure written by MMmdl.
 44 45  0  0  0  0  0  0  0  0  2 V2000
  145.8658  132.2037  149.9015 C   0  0  0  0  0  0  0  0  0  0  0  0
  145.7610  132.5265  151.3997 C   0  0  0  0  0  0  0  0  0  0  0  0
  144.4169  133.2082  151.7069 C   0  0  0  0  0  0  0  0  0  0  0  0
  146.9674  133.3693  151.8623 C   0  0  0  0  0  0  0  0  0  0  0  0
  146.8923  133.8056  153.3383 C   0  0  0  0  0  0  0  0  0  0  0  0
  148.1264  134.5045  153.7866 N   0  3  2  0  0  0  0  0  0  0  0  0
  149.2960  133.6041  153.9327 C   0  0  0  0  0  0  0  0  0  0  0  0
  149.2127  132.7941  155.2386 C   0  0  0  0  0  0  0  0  0  0  0  0
  149.1052  133.6860  156.3408 O   0  0  0  0  0  0  0  0  0  0  0  0
  147.9249  134.4822  156.2886 C   0  0  1  0  0  0  0  0  0  0  0  0
  147.8839  135.3572  157.5488 C   0  0  0  0  0  0  0  0  0  0  0  0
  147.5503  134.5797  158.7342 N   0  0  0  0  0  0  0  0  0  0  0  0
  147.4238  135.2021  159.9833 C   0  0  0  0  0  0  0  0  0  0  0  0
  147.1403  134.4114  161.1147 C   0  0  0  0  0  0  0  0  0  0  0  0
  147.0179  135.0652  162.3531 C   0  0  0  0  0  0  0  0  0  0  0  0
  147.1888  136.4615  162.3655 C   0  0  0  0  0  0  0  0  0  0  0  0
  147.4597  137.1716  161.2472 N   0  0  0  0  0  0  0  0  0  0  0  0
  147.5750  136.5479  160.0694 N   0  0  0  0  0  0  0  0  0  0  0  0
  147.9644  135.3404  155.0046 C   0  0  0  0  0  0  0  0  0  0  0  0
  145.8496  133.1117  149.2978 H   0  0  0  0  0  0  0  0  0  0  0  0
  145.0377  131.5733  149.5758 H   0  0  0  0  0  0  0  0  0  0  0  0
  146.7896  131.6704  149.6762 H   0  0  0  0  0  0  0  0  0  0  0  0
  145.7843  131.5763  151.9350 H   0  0  0  0  0  0  0  0  0  0  0  0
  144.3491  134.1851  151.2270 H   0  0  0  0  0  0  0  0  0  0  0  0
  144.2701  133.3504  152.7771 H   0  0  0  0  0  0  0  0  0  0  0  0
  143.5819  132.6058  151.3479 H   0  0  0  0  0  0  0  0  0  0  0  0
  147.8779  132.7843  151.7255 H   0  0  0  0  0  0  0  0  0  0  0  0
  147.0647  134.2361  151.2090 H   0  0  0  0  0  0  0  0  0  0  0  0
  146.0172  134.4278  153.5193 H   0  0  0  0  0  0  0  0  0  0  0  0
  146.7583  132.9087  153.9444 H   0  0  0  0  0  0  0  0  0  0  0  0
  149.3877  132.9435  153.0699 H   0  0  0  0  0  0  0  0  0  0  0  0
  150.1997  134.2150  153.9461 H   0  0  0  0  0  0  0  0  0  0  0  0
  148.3685  132.1031  155.2259 H   0  0  0  0  0  0  0  0  0  0  0  0
  150.1126  132.1915  155.3622 H   0  0  0  0  0  0  0  0  0  0  0  0
  147.0444  133.8378  156.2807 H   0  0  0  0  0  0  0  0  0  0  0  0
  148.8428  135.8574  157.6918 H   0  0  0  0  0  0  0  0  0  0  0  0
  147.1297  136.1357  157.4261 H   0  0  0  0  0  0  0  0  0  0  0  0
  147.5074  133.5731  158.6670 H   0  0  0  0  0  0  0  0  0  0  0  0
  147.0199  133.3405  161.0395 H   0  0  0  0  0  0  0  0  0  0  0  0
  146.8013  134.5185  163.2587 H   0  0  0  0  0  0  0  0  0  0  0  0
  147.1069  137.0194  163.2865 H   0  0  0  0  0  0  0  0  0  0  0  0
  148.8125  136.0248  155.0557 H   0  0  0  0  0  0  0  0  0  0  0  0
  147.0773  135.9684  154.9340 H   0  0  0  0  0  0  0  0  0  0  0  0
  148.3583  135.1358  153.0328 H   0  0  0  0  0  0  0  0  0  0  0  0
  1  2  1  0  0  0  0
  1 20  1  0  0  0  0
  1 21  1  0  0  0  0
  1 22  1  0  0  0  0
  2  3  1  0  0  0  0
  2  4  1  0  0  0  0
  2 23  1  0  0  0  0
  3 24  1  0  0  0  0
  3 25  1  0  0  0  0
  3 26  1  0  0  0  0
  4  5  1  0  0  0  0
  4 27  1  0  0  0  0
  4 28  1  0  0  0  0
  5  6  1  0  0  0  0
  5 29  1  0  0  0  0
  5 30  1  0  0  0  0
  6 19  1  0  0  0  0
  6  7  1  0  0  0  0
  6 44  1  0  0  0  0
  7  8  1  0  0  0  0
  7 31  1  0  0  0  0
  7 32  1  0  0  0  0
  8  9  1  0  0  0  0
  8 33  1  0  0  0  0
  8 34  1  0  0  0  0
  9 10  1  0  0  0  0
 10 11  1  0  0  0  0
 10 19  1  0  0  0  0
 10 35  1  0  0  0  0
 11 12  1  0  0  0  0
 11 36  1  0  0  0  0
 11 37  1  0  0  0  0
 12 13  1  0  0  0  0
 12 38  1  0  0  0  0
 13 18  1  0  0  0  0
 13 14  2  0  0  0  0
 14 15  1  0  0  0  0
 14 39  1  0  0  0  0
 15 16  2  0  0  0  0
 15 40  1  0  0  0  0
 16 17  1  0  0  0  0
 16 41  1  0  0  0  0
 17 18  2  0  0  0  0
 19 42  1  0  0  0  0
 19 43  1  0  0  0  0
M  CHG  1   6   1
M  END
> <s_m_source_file>
AV-unprocessed.smi

> <i_m_source_file_index>
861

> <i_lp_mmshare_version>
43012

> <i_f3d_flags>
0

> <s_epik_input>
W0NIM11bQ0hdKFtDSDNdKVtDSDJdW0NIMl1OMVtDSDJdW0NIMl1PW0NASF0oW0NIMl0xKVtDSDJdW05IXWMyW2NIXVtjSF1bY0hdbm4y

> <s_epik_cmdline>
J2VwaWtfcHl0aG9uJywgJy1waCcsICc3LjAnLCAnLXRuJywgJzgnLCAnLW1hJywgJzIwMCcsICctbWV0YWxfYmluZGluZycsICctaW1hZScsICc8aW5maWxlLm1hZT4nLCAnLW9tYWUnLCAnPG91dGZpbGUubWFlPic=

> <r_lp_tautomer_probability>
0.999978

> <r_epik_Ionization_Penalty>
0.114704

> <r_epik_Ionization_Penalty_Charging>
0.0953451

> <r_epik_Ionization_Penalty_Neutral>
0.0193593

> <r_epik_State_Penalty>
0.104983

> <r_epik_Charging_Adjusted_Penalty>
0.200328

> <i_epik_Tot_Q>
1

> <i_epik_Tot_abs_Q>
1

> <r_epik_Metal_State_Penalty>
0.100113

> <b_epik_Metal_Only>
0

> <s_lp_Force_Field>
OPLS_2005

> <r_lp_Energy>
26.6721

> <b_lp_Chiralities_Consistent>
1

> <s_lp_Variant>
AV-unprocessed.smi:861-2

> <Gold.Version>
5.8.1

> <Gold.Id.Protein>
6NUR|6NUR_protein|mol2

> <Gold.PLP.Fitness>
44.1605

> <Gold.PLP.PLP>
-33.0446

> <Gold.PLP.part.hbond>
-3.0000

> <Gold.PLP.part.metal>
0.0000

> <Gold.PLP.part.buried>
-4.9114

> <Gold.PLP.part.nonpolar>
-24.8231

> <Gold.PLP.part.repulsive>
0.0587

> <Gold.PLP.ligand.clash>
0.0000

> <Gold.PLP.ligand.torsion>
0.2356

> <Gold.PLP.Chemscore.Hbond>
3.8320

> <Gold.PLP.Chemscore.CHOScore>
0.0000

> <Gold.PLP.Chemscore.Metal>
0.0000

> <Gold.Chemscore.Hbonds>
donor molecule, donor type, donor heavy atom, donor atom, acceptor molecule, acceptor atom, score
      L1  H     6    44       P1  7948  2.00
      P1  H  6931  6943       L1    17  0.91
      P1  H  6934  6947       L1    17  0.96

> <Gold.PLP.Chemscore.Internal.Correction>
0.0911

> <Gold.Rescore>
     Score         DG    S(hbond)    S(metal)    S(lipo)     H(rot)  DE(clash)    DE(int)     intcor
     15.74     -16.19       1.91        0.00      74.42       1.71       0.00       0.45       ----

> <Gold.Chemscore.Fitness>
15.7384

> <Gold.Chemscore.DG>
-16.1899

> <Gold.Chemscore.ZeroCoef>
-5.4800

> <Gold.Chemscore.Hbond>
1.9124

> <Gold.Chemscore.Metal>
0.0000

> <Gold.Chemscore.Lipo>
74.4177

> <Gold.Chemscore.Internal_Hbond>
0.0000

> <Gold.Chemscore.DEClash>
0.0015

> <Gold.Chemscore.DEInternal>
0.4500

> <Gold.Chemscore.Rot>
1.7127

> <Gold.Chemscore.Internal.Correction>
   9.000000E+99

> <Gold.Chemscore.Hbonds>
donor molecule, donor type, donor heavy atom, donor atom, acceptor molecule, acceptor atom, score
      L1  H     6    44       P1  7948  0.91
      P1  H  6931  6943       L1    17  0.20
      P1  H  6934  6947       L1    17  0.64

> <Gold.Chemscore.Hbond.Weighted>
-6.3874

> <Gold.Chemscore.Metal.Weighted>
-0.0000

> <Gold.Chemscore.Lipo.Weighted>
-8.7069

> <Gold.Chemscore.Internal_Hbond.Weighted>
0.0000

> <Gold.Chemscore.DEClash.Weighted>
0.0015

> <Gold.Chemscore.DEInternal.Weighted>
0.4500

> <Gold.Chemscore.Rot.Weighted>
4.3844

> <Gold.Chemscore.Internal.Correction.Weighted>
   9.000000E+99

> <Gold.Protein.RotatedTorsions>
[ 6907 6896 6895 6894 ] final   -2.15 input  -60.11 | X-H torsion
[ 7974 7965 7964 7962 ] final   34.19 input  175.53 | X-H torsion
[ 8008 7997 7996 7995 ] final  102.21 input   59.86 | X-H torsion
[ 10167 10162 10161 10158 ] final  127.43 input  -65.29 | X-H torsion
[ 10718 10713 10712 10709 ] final  104.83 input   66.30 | X-H torsion
[ 10763 10752 10751 10750 ] final  -83.86 input  -60.55 | X-H torsion
[ 11005 11000 10999 10996 ] final  159.91 input  -57.11 | X-H torsion

> <Gold.Protein.ActiveResidues>
 VAL166  LYS551  ARG553  GLY616  TRP617  ASP618  TYR619  PRO620  LYS621  CYS622 
 ASP623  PHE694  ASN695  SER759  ASP760  ASP761  ALA762  ILE779  LEU786  VAL792 
 PHE793  MET794  SER795  GLU796  ALA797  LYS798  CYS799  TRP800  GLU811  SER814 

> <Gold.Protein.RotatedAtoms>
  151.5346  135.1068  159.9910 H   0  0  0  0  0  0  0  0  0  0  0  0  # atno 6907 bound_to 6896
  152.4563  133.7726  159.6817 H   0  0  0  0  0  0  0  0  0  0  0  0  # atno 6908 bound_to 6896
  150.8508  133.7724  159.3051 H   0  0  0  0  0  0  0  0  0  0  0  0  # atno 6909 bound_to 6896
  146.1370  139.6300  142.9189 H   0  0  0  0  0  0  0  0  0  0  0  0  # atno 7974 bound_to 7965
  156.1372  140.3185  155.8439 H   0  0  0  0  0  0  0  0  0  0  0  0  # atno 8008 bound_to 7997
  155.4222  140.0513  157.3042 H   0  0  0  0  0  0  0  0  0  0  0  0  # atno 8009 bound_to 7997
  154.4946  140.2106  155.9486 H   0  0  0  0  0  0  0  0  0  0  0  0  # atno 8010 bound_to 7997
  139.5579  144.6861  151.4129 H   0  0  0  0  0  0  0  0  0  0  0  0  # atno 10167 bound_to 10162
  157.6727  131.0813  150.5765 H   0  0  0  0  0  0  0  0  0  0  0  0  # atno 10718 bound_to 10713
  154.5928  135.5541  153.7295 H   0  0  0  0  0  0  0  0  0  0  0  0  # atno 10763 bound_to 10752
  153.0123  135.6347  154.1825 H   0  0  0  0  0  0  0  0  0  0  0  0  # atno 10764 bound_to 10752
  154.1766  135.2889  155.3045 H   0  0  0  0  0  0  0  0  0  0  0  0  # atno 10765 bound_to 10752
  140.2008  134.8339  157.3016 H   0  0  0  0  0  0  0  0  0  0  0  0  # atno 11005 bound_to 11000
  145.5134  141.0434  143.2475 LP  0  0  0  0  0  0  0  0  0  0  0  0  # atno 17320 bound_to 7965
  144.7750  139.6650  143.7178 LP  0  0  0  0  0  0  0  0  0  0  0  0  # atno 17321 bound_to 7965
  140.6854  143.7985  150.7179 LP  0  0  0  0  0  0  0  0  0  0  0  0  # atno 17342 bound_to 10162
  140.1451  143.4407  152.2168 LP  0  0  0  0  0  0  0  0  0  0  0  0  # atno 17343 bound_to 10162
  156.6066  130.4368  149.5876 LP  0  0  0  0  0  0  0  0  0  0  0  0  # atno 17370 bound_to 10713
  156.2464  130.6881  151.1604 LP  0  0  0  0  0  0  0  0  0  0  0  0  # atno 17371 bound_to 10713
  140.2056  134.4201  155.7639 LP  0  0  0  0  0  0  0  0  0  0  0  0  # atno 17394 bound_to 11000
  141.2227  133.7093  156.8255 LP  0  0  0  0  0  0  0  0  0  0  0  0  # atno 17395 bound_to 11000

$$$$
