#       Name:                AV-unprocessed.smi:9
#       Creating user name   scv26
#       Creation time:       Thu Mar 26 15:16:59 2020


#       File generated by GOLD software.
#

@<TRIPOS>MOLECULE
AV-unprocessed.smi:9
    43    45     1
SMALL
NO_CHARGES


@<TRIPOS>ATOM
      1 ****        -5.0112   0.6262  -1.3631 O.2            1 S1                 0.0000
      2 ****        -3.8300   0.9605  -1.3035 C.2            1 S1                 0.0000
      3 ****        -3.4149   2.2503  -1.2720 N.am           1 S1                 0.0000
      4 ****        -2.0498   2.6302  -1.2051 C.2            1 S1                 0.0000
      5 ****        -1.9014   4.1434  -1.1846 C.3            1 S1                 0.0000
      6 ****        -0.6169   4.5013  -1.1512 F              1 S1                 0.0000
      7 ****        -2.4524   4.6815  -2.2731 F              1 S1                 0.0000
      8 ****        -2.5025   4.6557  -0.1104 F              1 S1                 0.0000
      9 ****        -1.0266   1.8157  -1.1644 N.2            1 S1                 0.0000
     10 ****        -1.4291   0.4953  -1.1904 C.2            1 S1                 0.0000
     11 ****        -2.7036  -0.0043  -1.2575 C.2            1 S1                 0.0000
     12 ****        -2.7015  -1.3936  -1.2728 N.2            1 S1                 0.0000
     13 ****        -1.4017  -1.6755  -1.2106 C.2            1 S1                 0.0000
     14 ****        -0.5825  -0.6077  -1.1480 N.pl3          1 S1                 0.0000
     15 ****         0.8720  -0.6207  -1.0708 C.3            1 S1                 0.0000
     16 ****         1.4352  -0.6335   0.3739 C.3            1 S1                 0.0000
     17 ****         1.0570   0.5855   0.9865 O.3            1 S1                 0.0000
     18 ****         0.8818  -1.8135   1.2035 C.3            1 S1                 0.0000
     19 ****         1.6329  -1.9787   2.5285 C.3            1 S1                 0.0000
     20 ****         3.1434  -2.0377   2.2760 C.3            1 S1                 0.0000
     21 ****         3.5527  -0.8429   1.6253 O.3            1 S1                 0.0000
     22 ****         2.9818  -0.6647   0.3313 C.3            1 S1                 0.0000
     23 ****        -4.1182   2.9742  -1.2990 H              1 S1                 0.0000
     24 ****        -1.0332  -2.6910  -1.2037 H              1 S1                 0.0000
     25 ****         1.2247  -1.5000  -1.6116 H              1 S1                 0.0000
     26 ****         1.2539   0.2409  -1.6203 H              1 S1                 0.0000
     27 ****         1.4455   0.6187   1.8474 H              1 S1                 0.0000
     28 ****        -0.1846  -1.6919   1.3970 H              1 S1                 0.0000
     29 ****         0.9867  -2.7349   0.6290 H              1 S1                 0.0000
     30 ****         1.4047  -1.1450   3.1933 H              1 S1                 0.0000
     31 ****         1.2999  -2.8838   3.0372 H              1 S1                 0.0000
     32 ****         3.6783  -2.1247   3.2218 H              1 S1                 0.0000
     33 ****         3.4104  -2.9087   1.6754 H              1 S1                 0.0000
     34 ****         3.3241  -1.4797  -0.3085 H              1 S1                 0.0000
     35 ****         3.3751   0.2542  -0.1057 H              1 S1                 0.0000
     36 ****        -5.2561  -0.3432  -1.3830 LP             1 S1                 0.0000
     37 ****        -5.7274   1.3235  -1.3916 LP             1 S1                 0.0000
     38 ****        -0.0727   2.1124  -1.1200 LP             1 S1                 0.0000
     39 ****        -3.4782  -2.0218  -1.3188 LP             1 S1                 0.0000
     40 ****         0.0610   0.6304   1.0632 LP             1 S1                 0.0000
     41 ****         1.3841   1.3551   0.4382 LP             1 S1                 0.0000
     42 ****         4.5480  -0.8613   1.5304 LP             1 S1                 0.0000
     43 ****         3.2866  -0.0664   2.1964 LP             1 S1                 0.0000
@<TRIPOS>BOND
    1    1    2 2     
    2    2   11 1     
    3    2    3 am    
    4    3   23 1     
    5    3    4 1     
    6    4    5 1     
    7    4    9 2     
    8    5    6 1     
    9    5    7 1     
   10    5    8 1     
   11    9   10 1     
   12   10   14 1     
   13   10   11 2     
   14   11   12 1     
   15   12   13 2     
   16   13   14 1     
   17   13   24 1     
   18   14   15 1     
   19   15   16 1     
   20   15   25 1     
   21   15   26 1     
   22   16   22 1     
   23   16   17 1     
   24   16   18 1     
   25   17   27 1     
   26   18   19 1     
   27   18   28 1     
   28   18   29 1     
   29   19   20 1     
   30   19   30 1     
   31   19   31 1     
   32   20   21 1     
   33   20   32 1     
   34   20   33 1     
   35   21   22 1     
   36   22   34 1     
   37   22   35 1     
   38    1   36 1     
   39    1   37 1     
   40    9   38 1     
   41   12   39 1     
   42   17   40 1     
   43   17   41 1     
   44   21   42 1     
   45   21   43 1     
@<TRIPOS>SUBSTRUCTURE
      1 S1             1
@<TRIPOS>SET
LONE_PAIRS      STATIC     ATOMS    <user>   **** ""
8 36 37 38 39 40 41 42 43
DONOR_HYDROGENS      STATIC     ATOMS    <user>   **** ""
2 23 27
ATOM$BLUE        STATIC     ATOMS    COLORGROUP SYSTEM
8 36 37 38 39 40 41 42 43
ATOM$RED        STATIC     ATOMS    COLORGROUP SYSTEM
2 23 27
