AV-unprocessed.smi:21|AV-procd|sdf|128|dock8
  -GOLD-   2262015313D 1   1.00000     0.00000
 Structure written by MMmdl.
 62 65  0  0  0  0  0  0  0  0  2 V2000
  151.0486  145.2783  158.8847 C   0  0  0  0  0  0  0  0  0  0  0  0
  152.1960  144.6700  159.4562 O   0  0  0  0  0  0  0  0  0  0  0  0
  152.6213  143.5026  158.7694 C   0  0  2  0  0  0  0  0  0  0  0  0
  151.4739  142.5667  158.4068 C   0  0  0  0  0  0  0  0  0  0  0  0
  152.1495  141.1951  158.2514 C   0  0  2  0  0  0  0  0  0  0  0  0
  151.1978  139.9906  158.4790 C   0  0  0  0  0  0  0  0  0  0  0  0
  150.2863  139.7431  157.3599 N   0  0  0  0  0  0  0  0  0  0  0  0
  150.2495  140.7364  156.2899 C   0  0  0  0  0  0  0  0  0  0  0  0
  149.1633  139.0089  157.5903 C   0  0  0  0  0  0  0  0  0  0  0  0
  148.0264  139.3131  156.9078 N   0  0  0  0  0  0  0  0  0  0  0  0
  146.8904  138.6533  157.1477 C   0  0  0  0  0  0  0  0  0  0  0  0
  146.6673  137.6704  158.0200 N   0  0  0  0  0  0  0  0  0  0  0  0
  147.8040  137.3442  158.6972 C   0  0  0  0  0  0  0  0  0  0  0  0
  149.0856  137.9457  158.5382 C   0  0  0  0  0  0  0  0  0  0  0  0
  149.9987  137.3248  159.3838 N   0  0  0  0  0  0  0  0  0  0  0  0
  149.2963  136.4278  160.0189 C   0  0  0  0  0  0  0  0  0  0  0  0
  147.9606  136.3942  159.6909 N   0  0  0  0  0  0  0  0  0  0  0  0
  146.9515  135.5150  160.2530 C   0  0  0  0  0  0  0  0  0  0  0  0
  146.9158  135.4738  161.8072 C   0  0  1  0  0  0  0  0  0  0  0  0
  147.4596  136.8140  162.3603 C   0  0  0  0  0  0  0  0  0  0  0  0
  146.7327  137.9157  161.8557 O   0  0  0  0  0  0  0  0  0  0  0  0
  145.5037  135.1481  162.3841 C   0  0  2  0  0  0  0  0  0  0  0  0
  144.9296  133.8026  161.9635 C   0  0  0  0  0  0  0  0  0  0  0  0
  143.4482  133.9665  162.2699 C   0  0  0  0  0  0  0  0  0  0  0  0
  143.1607  135.3135  161.9318 O   0  0  0  0  0  0  0  0  0  0  0  0
  144.3620  136.0779  161.9351 C   0  0  0  0  0  0  0  0  0  0  0  0
  153.3531  141.2449  159.1357 N   0  3  2  0  0  0  0  0  0  0  0  0
  153.4963  140.1955  160.1724 C   0  0  0  0  0  0  0  0  0  0  0  0
  153.4647  142.6169  159.6815 C   0  0  0  0  0  0  0  0  0  0  0  0
  153.1991  143.7596  157.8795 H   0  0  0  0  0  0  0  0  0  0  0  0
  152.5475  141.1315  157.2378 H   0  0  0  0  0  0  0  0  0  0  0  0
  150.8064  146.1866  159.4362 H   0  0  0  0  0  0  0  0  0  0  0  0
  150.1800  144.6208  158.9325 H   0  0  0  0  0  0  0  0  0  0  0  0
  151.2236  145.5538  157.8441 H   0  0  0  0  0  0  0  0  0  0  0  0
  150.7547  142.5397  159.2270 H   0  0  0  0  0  0  0  0  0  0  0  0
  150.9462  142.8811  157.5061 H   0  0  0  0  0  0  0  0  0  0  0  0
  151.7865  139.0812  158.5996 H   0  0  0  0  0  0  0  0  0  0  0  0
  150.6550  140.1095  159.4132 H   0  0  0  0  0  0  0  0  0  0  0  0
  149.8673  140.2986  155.3667 H   0  0  0  0  0  0  0  0  0  0  0  0
  151.2499  141.1182  156.0853 H   0  0  0  0  0  0  0  0  0  0  0  0
  149.6146  141.5800  156.5630 H   0  0  0  0  0  0  0  0  0  0  0  0
  146.0363  138.9626  156.5633 H   0  0  0  0  0  0  0  0  0  0  0  0
  149.7317  135.7770  160.7635 H   0  0  0  0  0  0  0  0  0  0  0  0
  145.9911  135.8447  159.8559 H   0  0  0  0  0  0  0  0  0  0  0  0
  147.1126  134.5099  159.8611 H   0  0  0  0  0  0  0  0  0  0  0  0
  147.5965  134.6928  162.1485 H   0  0  0  0  0  0  0  0  0  0  0  0
  147.4239  136.8266  163.4500 H   0  0  0  0  0  0  0  0  0  0  0  0
  148.4971  136.9748  162.0713 H   0  0  0  0  0  0  0  0  0  0  0  0
  145.8096  137.7268  161.9286 H   0  0  0  0  0  0  0  0  0  0  0  0
  145.5533  135.1617  163.4742 H   0  0  0  0  0  0  0  0  0  0  0  0
  145.0729  133.6420  160.8938 H   0  0  0  0  0  0  0  0  0  0  0  0
  145.3654  132.9598  162.5005 H   0  0  0  0  0  0  0  0  0  0  0  0
  142.8220  133.2700  161.7122 H   0  0  0  0  0  0  0  0  0  0  0  0
  143.2594  133.8202  163.3342 H   0  0  0  0  0  0  0  0  0  0  0  0
  144.2433  136.9367  162.5936 H   0  0  0  0  0  0  0  0  0  0  0  0
  144.5264  136.4474  160.9224 H   0  0  0  0  0  0  0  0  0  0  0  0
  152.6658  140.2143  160.8794 H   0  0  0  0  0  0  0  0  0  0  0  0
  154.4172  140.3516  160.7352 H   0  0  0  0  0  0  0  0  0  0  0  0
  153.5583  139.2037  159.7250 H   0  0  0  0  0  0  0  0  0  0  0  0
  154.5029  142.9444  159.7403 H   0  0  0  0  0  0  0  0  0  0  0  0
  153.0502  142.6416  160.6913 H   0  0  0  0  0  0  0  0  0  0  0  0
  154.1407  141.1293  158.5137 H   0  0  0  0  0  0  0  0  0  0  0  0
  1  2  1  0  0  0  0
  1 32  1  0  0  0  0
  1 33  1  0  0  0  0
  1 34  1  0  0  0  0
  2  3  1  0  0  0  0
  3 30  1  0  0  0  0
  3 29  1  0  0  0  0
  3  4  1  0  0  0  0
  4  5  1  0  0  0  0
  4 35  1  0  0  0  0
  4 36  1  0  0  0  0
  5 31  1  0  0  0  0
  5  6  1  0  0  0  0
  5 27  1  0  0  0  0
  6  7  1  0  0  0  0
  6 37  1  0  0  0  0
  6 38  1  0  0  0  0
  7  8  1  0  0  0  0
  7  9  1  0  0  0  0
  8 39  1  0  0  0  0
  8 40  1  0  0  0  0
  8 41  1  0  0  0  0
  9 14  1  0  0  0  0
  9 10  2  0  0  0  0
 10 11  1  0  0  0  0
 11 12  2  0  0  0  0
 11 42  1  0  0  0  0
 12 13  1  0  0  0  0
 13 17  1  0  0  0  0
 13 14  2  0  0  0  0
 14 15  1  0  0  0  0
 15 16  2  0  0  0  0
 16 17  1  0  0  0  0
 16 43  1  0  0  0  0
 17 18  1  0  0  0  0
 18 19  1  0  0  0  0
 18 44  1  0  0  0  0
 18 45  1  0  0  0  0
 19 20  1  0  0  0  0
 19 22  1  0  0  0  0
 19 46  1  0  0  0  0
 20 21  1  0  0  0  0
 20 47  1  0  0  0  0
 20 48  1  0  0  0  0
 21 49  1  0  0  0  0
 22 26  1  0  0  0  0
 22 23  1  0  0  0  0
 22 50  1  0  0  0  0
 23 24  1  0  0  0  0
 23 51  1  0  0  0  0
 23 52  1  0  0  0  0
 24 25  1  0  0  0  0
 24 53  1  0  0  0  0
 24 54  1  0  0  0  0
 25 26  1  0  0  0  0
 26 55  1  0  0  0  0
 26 56  1  0  0  0  0
 27 28  1  0  0  0  0
 27 29  1  0  0  0  0
 27 62  1  0  0  0  0
 28 57  1  0  0  0  0
 28 58  1  0  0  0  0
 28 59  1  0  0  0  0
 29 60  1  0  0  0  0
 29 61  1  0  0  0  0
M  CHG  1  27   1
M  END
> <s_m_source_file>
AV-unprocessed.smi

> <i_m_source_file_index>
21

> <i_lp_mmshare_version>
43012

> <i_f3d_flags>
0

> <s_epik_input>
W0NIM11PW0NASF0xW0NIMl1bQ0BIXShOKFtDSDNdKVtDSDJdMSlbQ0gyXU4oW0NIM10pYyhuW2NIXW4yKWMoYzIzKW5bY0hdbjNbQ0gyXVtDQEhdKFtDSDJdW09IXSlbQ0BASF00W0NIMl1bQ0gyXU9bQ0gyXTQ=

> <s_epik_cmdline>
J2VwaWtfcHl0aG9uJywgJy1waCcsICc3LjAnLCAnLXRuJywgJzgnLCAnLW1hJywgJzIwMCcsICctbWV0YWxfYmluZGluZycsICctaW1hZScsICc8aW5maWxlLm1hZT4nLCAnLW9tYWUnLCAnPG91dGZpbGUubWFlPic=

> <r_lp_tautomer_probability>
1

> <r_epik_Ionization_Penalty>
0.0157465

> <r_epik_Ionization_Penalty_Charging>
0.015354

> <r_epik_Ionization_Penalty_Neutral>
0.000392529

> <r_epik_State_Penalty>
0.0120612

> <r_epik_Charging_Adjusted_Penalty>
0.0274152

> <i_epik_Tot_Q>
1

> <i_epik_Tot_abs_Q>
1

> <r_epik_Metal_State_Penalty>
0.0121253

> <b_epik_Metal_Only>
0

> <s_lp_Force_Field>
OPLS_2005

> <r_lp_Energy>
60.6524

> <b_lp_Chiralities_Consistent>
1

> <s_lp_Variant>
AV-unprocessed.smi:21-8

> <Gold.Version>
5.8.1

> <Gold.Id.Protein>
6NUR|6NUR_protein|mol2

> <Gold.PLP.Fitness>
47.5583

> <Gold.PLP.PLP>
-47.5261

> <Gold.PLP.part.hbond>
-2.3769

> <Gold.PLP.part.metal>
0.0000

> <Gold.PLP.part.buried>
-5.7857

> <Gold.PLP.part.nonpolar>
-39.3035

> <Gold.PLP.part.repulsive>
0.1824

> <Gold.PLP.ligand.clash>
0.0000

> <Gold.PLP.ligand.torsion>
1.2599

> <Gold.PLP.Chemscore.Hbond>
0.6080

> <Gold.PLP.Chemscore.CHOScore>
0.0000

> <Gold.PLP.Chemscore.Metal>
0.0000

> <Gold.Chemscore.Hbonds>
donor molecule, donor type, donor heavy atom, donor atom, acceptor molecule, acceptor atom, score
      P1  H  6934  6947       L1    21  0.64

> <Gold.PLP.Chemscore.Internal.Correction>
0.7281

> <Gold.Rescore>
     Score         DG    S(hbond)    S(metal)    S(lipo)     H(rot)  DE(clash)    DE(int)     intcor
     11.69     -14.06       0.77        0.00     118.72       3.08       0.02       2.36       ----

> <Gold.Chemscore.Fitness>
11.6900

> <Gold.Chemscore.DG>
-14.0613

> <Gold.Chemscore.ZeroCoef>
-5.4800

> <Gold.Chemscore.Hbond>
0.7679

> <Gold.Chemscore.Metal>
0.0000

> <Gold.Chemscore.Lipo>
118.7229

> <Gold.Chemscore.Internal_Hbond>
0.0000

> <Gold.Chemscore.DEClash>
0.0161

> <Gold.Chemscore.DEInternal>
2.3551

> <Gold.Chemscore.Rot>
3.0758

> <Gold.Chemscore.Internal.Correction>
   9.000000E+99

> <Gold.Chemscore.Hbonds>
donor molecule, donor type, donor heavy atom, donor atom, acceptor molecule, acceptor atom, score
      P1  H  6934  6947       L1    21  0.60

> <Gold.Chemscore.Hbond.Weighted>
-2.5649

> <Gold.Chemscore.Metal.Weighted>
-0.0000

> <Gold.Chemscore.Lipo.Weighted>
-13.8906

> <Gold.Chemscore.Internal_Hbond.Weighted>
0.0000

> <Gold.Chemscore.DEClash.Weighted>
0.0161

> <Gold.Chemscore.DEInternal.Weighted>
2.3551

> <Gold.Chemscore.Rot.Weighted>
7.8741

> <Gold.Chemscore.Internal.Correction.Weighted>
   9.000000E+99

> <Gold.Protein.RotatedTorsions>
[ 6907 6896 6895 6894 ] final   63.88 input  -60.11 | X-H torsion
[ 7974 7965 7964 7962 ] final  114.92 input  175.53 | X-H torsion
[ 8008 7997 7996 7995 ] final   63.50 input   59.86 | X-H torsion
[ 10167 10162 10161 10158 ] final -149.95 input  -65.29 | X-H torsion
[ 10718 10713 10712 10709 ] final   51.74 input   66.30 | X-H torsion
[ 10763 10752 10751 10750 ] final -104.58 input  -60.55 | X-H torsion
[ 11005 11000 10999 10996 ] final  -85.57 input  -57.11 | X-H torsion

> <Gold.Protein.ActiveResidues>
 VAL166  LYS551  ARG553  GLY616  TRP617  ASP618  TYR619  PRO620  LYS621  CYS622 
 ASP623  PHE694  ASN695  SER759  ASP760  ASP761  ALA762  ILE779  LEU786  VAL792 
 PHE793  MET794  SER795  GLU796  ALA797  LYS798  CYS799  TRP800  GLU811  SER814 

> <Gold.Protein.RotatedAtoms>
  152.4288  134.5818  159.9949 H   0  0  0  0  0  0  0  0  0  0  0  0  # atno 6907 bound_to 6896
  151.5947  133.3357  159.3043 H   0  0  0  0  0  0  0  0  0  0  0  0  # atno 6908 bound_to 6896
  150.8179  134.7407  159.6811 H   0  0  0  0  0  0  0  0  0  0  0  0  # atno 6909 bound_to 6896
  145.1984  139.2964  143.4331 H   0  0  0  0  0  0  0  0  0  0  0  0  # atno 7974 bound_to 7965
  155.6311  140.3496  155.4683 H   0  0  0  0  0  0  0  0  0  0  0  0  # atno 8008 bound_to 7997
  156.0002  140.1211  157.0578 H   0  0  0  0  0  0  0  0  0  0  0  0  # atno 8009 bound_to 7997
  154.4246  140.1102  156.5672 H   0  0  0  0  0  0  0  0  0  0  0  0  # atno 8010 bound_to 7997
  139.7397  143.8681  152.2559 H   0  0  0  0  0  0  0  0  0  0  0  0  # atno 10167 bound_to 10162
  157.5009  130.8437  149.8315 H   0  0  0  0  0  0  0  0  0  0  0  0  # atno 10718 bound_to 10713
  154.7888  135.4781  154.0006 H   0  0  0  0  0  0  0  0  0  0  0  0  # atno 10763 bound_to 10752
  153.1600  135.6807  153.8764 H   0  0  0  0  0  0  0  0  0  0  0  0  # atno 10764 bound_to 10752
  153.8380  135.3183  155.3402 H   0  0  0  0  0  0  0  0  0  0  0  0  # atno 10765 bound_to 10752
  141.1640  133.7406  156.9034 H   0  0  0  0  0  0  0  0  0  0  0  0  # atno 11005 bound_to 11000
  146.3422  140.2220  142.8591 LP  0  0  0  0  0  0  0  0  0  0  0  0  # atno 17320 bound_to 7965
  144.9972  140.8600  143.5304 LP  0  0  0  0  0  0  0  0  0  0  0  0  # atno 17321 bound_to 7965
  139.8628  144.7108  150.9080 LP  0  0  0  0  0  0  0  0  0  0  0  0  # atno 17342 bound_to 10162
  140.7784  143.3803  151.1488 LP  0  0  0  0  0  0  0  0  0  0  0  0  # atno 17343 bound_to 10162
  156.0228  130.3789  150.1910 LP  0  0  0  0  0  0  0  0  0  0  0  0  # atno 17370 bound_to 10713
  157.0099  130.9948  151.3368 LP  0  0  0  0  0  0  0  0  0  0  0  0  # atno 17371 bound_to 10713
  140.1567  134.9193  157.2662 LP  0  0  0  0  0  0  0  0  0  0  0  0  # atno 17394 bound_to 11000
  140.2659  134.3516  155.7390 LP  0  0  0  0  0  0  0  0  0  0  0  0  # atno 17395 bound_to 11000

$$$$
