AV-unprocessed.smi:498|AV-procd|sdf|2729|dock6
  -GOLD-   2262023173D 1   1.00000     0.00000
 Structure written by MMmdl.
 43 45  0  0  0  0  0  0  0  0  2 V2000
  152.6233  130.1690  155.7618 C   0  0  0  0  0  0  0  0  0  0  0  0
  151.5322  129.5975  154.8543 C   0  0  0  0  0  0  0  0  0  0  0  0
  150.4158  130.4707  154.8736 O   0  0  0  0  0  0  0  0  0  0  0  0
  149.3271  129.9847  154.1086 C   0  0  0  0  0  0  0  0  0  0  0  0
  148.0632  130.7642  154.4973 C   0  0  0  0  0  0  0  0  0  0  0  0
  147.8964  131.9741  153.6822 N   0  0  0  0  0  0  0  0  0  0  0  0
  148.5352  133.1802  153.7437 C   0  0  0  0  0  0  0  0  0  0  0  0
  149.6147  133.5885  154.6967 C   0  0  0  0  0  0  0  0  0  0  0  0
  149.9289  135.0091  154.5899 N   0  0  0  0  0  0  0  0  0  0  0  0
  150.7889  135.6809  155.3722 C   0  0  0  0  0  0  0  0  0  0  0  0
  151.4958  135.1450  156.2248 O   0  0  0  0  0  0  0  0  0  0  0  0
  150.8041  137.1448  155.1951 C   0  0  0  0  0  0  0  0  0  0  0  0
  151.6491  138.1083  155.6801 C   0  0  0  0  0  0  0  0  0  0  0  0
  151.1830  139.3518  155.1707 C   0  0  0  0  0  0  0  0  0  0  0  0
  150.0834  139.0603  154.4162 C   0  0  0  0  0  0  0  0  0  0  0  0
  149.8376  137.7222  154.4238 O   0  0  0  0  0  0  0  0  0  0  0  0
  147.9990  133.9664  152.7673 N   0  3  0  0  0  0  0  0  0  0  0  0
  147.0083  133.2622  152.0814 C   0  0  0  0  0  0  0  0  0  0  0  0
  146.1883  133.6393  151.0222 C   0  0  0  0  0  0  0  0  0  0  0  0
  145.2712  132.6738  150.5570 C   0  0  0  0  0  0  0  0  0  0  0  0
  145.1945  131.3924  151.1406 C   0  0  0  0  0  0  0  0  0  0  0  0
  146.0315  131.0213  152.2138 C   0  0  0  0  0  0  0  0  0  0  0  0
  146.9358  131.9815  152.6660 C   0  0  0  0  0  0  0  0  0  0  0  0
  153.4980  129.5186  155.7761 H   0  0  0  0  0  0  0  0  0  0  0  0
  152.2652  130.2695  156.7868 H   0  0  0  0  0  0  0  0  0  0  0  0
  152.9426  131.1532  155.4189 H   0  0  0  0  0  0  0  0  0  0  0  0
  151.9068  129.4895  153.8354 H   0  0  0  0  0  0  0  0  0  0  0  0
  151.2448  128.6062  155.2074 H   0  0  0  0  0  0  0  0  0  0  0  0
  149.5310  130.0900  153.0421 H   0  0  0  0  0  0  0  0  0  0  0  0
  149.1875  128.9215  154.3084 H   0  0  0  0  0  0  0  0  0  0  0  0
  147.1773  130.1475  154.3474 H   0  0  0  0  0  0  0  0  0  0  0  0
  148.0700  131.0347  155.5537 H   0  0  0  0  0  0  0  0  0  0  0  0
  149.3139  133.3092  155.7075 H   0  0  0  0  0  0  0  0  0  0  0  0
  150.5199  133.0219  154.4770 H   0  0  0  0  0  0  0  0  0  0  0  0
  149.3955  135.5415  153.9182 H   0  0  0  0  0  0  0  0  0  0  0  0
  152.5032  137.9412  156.3197 H   0  0  0  0  0  0  0  0  0  0  0  0
  151.5992  140.3346  155.3356 H   0  0  0  0  0  0  0  0  0  0  0  0
  149.3929  139.6531  153.8343 H   0  0  0  0  0  0  0  0  0  0  0  0
  146.2443  134.6205  150.5737 H   0  0  0  0  0  0  0  0  0  0  0  0
  144.6126  132.9215  149.7370 H   0  0  0  0  0  0  0  0  0  0  0  0
  144.4788  130.6789  150.7582 H   0  0  0  0  0  0  0  0  0  0  0  0
  145.9643  130.0380  152.6556 H   0  0  0  0  0  0  0  0  0  0  0  0
  148.2902  134.9186  152.5874 H   0  0  0  0  0  0  0  0  0  0  0  0
  1  2  1  0  0  0  0
  1 24  1  0  0  0  0
  1 25  1  0  0  0  0
  1 26  1  0  0  0  0
  2  3  1  0  0  0  0
  2 27  1  0  0  0  0
  2 28  1  0  0  0  0
  3  4  1  0  0  0  0
  4  5  1  0  0  0  0
  4 29  1  0  0  0  0
  4 30  1  0  0  0  0
  5  6  1  0  0  0  0
  5 31  1  0  0  0  0
  5 32  1  0  0  0  0
  6 23  1  0  0  0  0
  6  7  1  0  0  0  0
  7  8  1  0  0  0  0
  7 17  2  0  0  0  0
  8  9  1  0  0  0  0
  8 33  1  0  0  0  0
  8 34  1  0  0  0  0
  9 10  1  0  0  0  0
  9 35  1  0  0  0  0
 10 11  2  0  0  0  0
 10 12  1  0  0  0  0
 12 16  1  0  0  0  0
 12 13  2  0  0  0  0
 13 14  1  0  0  0  0
 13 36  1  0  0  0  0
 14 15  2  0  0  0  0
 14 37  1  0  0  0  0
 15 16  1  0  0  0  0
 15 38  1  0  0  0  0
 17 18  1  0  0  0  0
 17 43  1  0  0  0  0
 18 23  2  0  0  0  0
 18 19  1  0  0  0  0
 19 20  2  0  0  0  0
 19 39  1  0  0  0  0
 20 21  1  0  0  0  0
 20 40  1  0  0  0  0
 21 22  2  0  0  0  0
 21 41  1  0  0  0  0
 22 23  1  0  0  0  0
 22 42  1  0  0  0  0
M  CHG  1  17   1
M  END
> <s_m_source_file>
AV-unprocessed.smi

> <i_m_source_file_index>
498

> <i_lp_mmshare_version>
43012

> <i_f3d_flags>
0

> <s_epik_input>
W0NIM11bQ0gyXU9bQ0gyXVtDSDJdbihjKGMxMilbY0hdW2NIXVtjSF1bY0hdMiljKG4xKVtDSDJdW05IXUMoPU8pYzNbY0hdW2NIXVtjSF1vMw==

> <s_epik_cmdline>
J2VwaWtfcHl0aG9uJywgJy1waCcsICc3LjAnLCAnLXRuJywgJzgnLCAnLW1hJywgJzIwMCcsICctbWV0YWxfYmluZGluZycsICctaW1hZScsICc8aW5maWxlLm1hZT4nLCAnLW9tYWUnLCAnPG91dGZpbGUubWFlPic=

> <r_epik_Ionization_Penalty>
1.29911

> <r_epik_Ionization_Penalty_Charging>
1.29908

> <r_epik_Ionization_Penalty_Neutral>
2.77772e-05

> <r_epik_State_Penalty>
1.37286

> <r_epik_Charging_Adjusted_Penalty>
2.67194

> <i_epik_Tot_Q>
1

> <i_epik_Tot_abs_Q>
1

> <r_epik_Metal_State_Penalty>
1.47523

> <b_epik_Metal_Only>
0

> <s_lp_Force_Field>
OPLS_2005

> <r_lp_Energy>
10.1123

> <b_lp_Chiralities_Consistent>
1

> <s_lp_Variant>
AV-unprocessed.smi:498-2

> <Gold.Version>
5.8.1

> <Gold.Id.Protein>
6NUR|6NUR_protein|mol2

> <Gold.PLP.Fitness>
54.9256

> <Gold.PLP.PLP>
-41.5423

> <Gold.PLP.part.hbond>
-3.1275

> <Gold.PLP.part.metal>
0.0000

> <Gold.PLP.part.buried>
-1.4501

> <Gold.PLP.part.nonpolar>
-37.0855

> <Gold.PLP.part.repulsive>
1.6259

> <Gold.PLP.ligand.clash>
0.0000

> <Gold.PLP.ligand.torsion>
0.5673

> <Gold.PLP.Chemscore.Hbond>
4.0000

> <Gold.PLP.Chemscore.CHOScore>
0.8067

> <Gold.PLP.Chemscore.Metal>
0.0000

> <Gold.Chemscore.Hbonds>
donor molecule, donor type, donor heavy atom, donor atom, acceptor molecule, acceptor atom, score
      L1  H     9    35       P1  7948  0.62
      L1  H    17    43       P1  7948  2.00
      P1  H 10752 10764       L1    11  0.62
      L1  C    15    38       P1  7957  0.48

> <Gold.PLP.Chemscore.Internal.Correction>
0.0976

> <Gold.Rescore>
     Score         DG    S(hbond)    S(metal)    S(lipo)     H(rot)  DE(clash)    DE(int)     intcor
     13.46     -16.04       1.57        0.00      90.10       2.04       0.86       1.71       ----

> <Gold.Chemscore.Fitness>
13.4640

> <Gold.Chemscore.DG>
-16.0375

> <Gold.Chemscore.ZeroCoef>
-5.4800

> <Gold.Chemscore.Hbond>
1.5708

> <Gold.Chemscore.Metal>
0.0000

> <Gold.Chemscore.Lipo>
90.0999

> <Gold.Chemscore.Internal_Hbond>
0.0000

> <Gold.Chemscore.DEClash>
0.8594

> <Gold.Chemscore.DEInternal>
1.7142

> <Gold.Chemscore.Rot>
2.0432

> <Gold.Chemscore.Internal.Correction>
   9.000000E+99

> <Gold.Chemscore.Hbonds>
donor molecule, donor type, donor heavy atom, donor atom, acceptor molecule, acceptor atom, score
      L1  H     9    35       P1  7948  0.27
      L1  H    17    43       P1  7948  0.59
      P1  H 10752 10764       L1    11  0.05

> <Gold.Chemscore.Hbond.Weighted>
-5.2464

> <Gold.Chemscore.Metal.Weighted>
-0.0000

> <Gold.Chemscore.Lipo.Weighted>
-10.5417

> <Gold.Chemscore.Internal_Hbond.Weighted>
0.0000

> <Gold.Chemscore.DEClash.Weighted>
0.8594

> <Gold.Chemscore.DEInternal.Weighted>
1.7142

> <Gold.Chemscore.Rot.Weighted>
5.2306

> <Gold.Chemscore.Internal.Correction.Weighted>
   9.000000E+99

> <Gold.Protein.RotatedTorsions>
[ 6907 6896 6895 6894 ] final  -52.26 input  -60.11 | X-H torsion
[ 7974 7965 7964 7962 ] final   37.95 input  175.53 | X-H torsion
[ 8008 7997 7996 7995 ] final -178.78 input   59.86 | X-H torsion
[ 10167 10162 10161 10158 ] final -101.57 input  -65.29 | X-H torsion
[ 10718 10713 10712 10709 ] final -159.36 input   66.30 | X-H torsion
[ 10763 10752 10751 10750 ] final  -23.40 input  -60.55 | X-H torsion
[ 11005 11000 10999 10996 ] final   90.63 input  -57.11 | X-H torsion

> <Gold.Protein.ActiveResidues>
 VAL166  LYS551  ARG553  GLY616  TRP617  ASP618  TYR619  PRO620  LYS621  CYS622 
 ASP623  PHE694  ASN695  SER759  ASP760  ASP761  ALA762  ILE779  LEU786  VAL792 
 PHE793  MET794  SER795  GLU796  ALA797  LYS798  CYS799  TRP800  GLU811  SER814 

> <Gold.Protein.RotatedAtoms>
  150.8534  134.7866  159.7026 H   0  0  0  0  0  0  0  0  0  0  0  0  # atno 6907 bound_to 6896
  152.4592  134.5218  159.9795 H   0  0  0  0  0  0  0  0  0  0  0  0  # atno 6908 bound_to 6896
  151.5335  133.3407  159.2958 H   0  0  0  0  0  0  0  0  0  0  0  0  # atno 6909 bound_to 6896
  146.1099  139.5832  142.9359 H   0  0  0  0  0  0  0  0  0  0  0  0  # atno 7974 bound_to 7965
  156.0229  140.1265  157.0339 H   0  0  0  0  0  0  0  0  0  0  0  0  # atno 8008 bound_to 7997
  154.4318  140.1065  156.6059 H   0  0  0  0  0  0  0  0  0  0  0  0  # atno 8009 bound_to 7997
  155.5919  140.3469  155.4571 H   0  0  0  0  0  0  0  0  0  0  0  0  # atno 8010 bound_to 7997
  140.2399  143.3546  152.0811 H   0  0  0  0  0  0  0  0  0  0  0  0  # atno 10167 bound_to 10162
  156.5671  130.8672  151.2827 H   0  0  0  0  0  0  0  0  0  0  0  0  # atno 10718 bound_to 10713
  153.6673  135.6973  153.5158 H   0  0  0  0  0  0  0  0  0  0  0  0  # atno 10763 bound_to 10752
  153.2585  135.4252  155.0869 H   0  0  0  0  0  0  0  0  0  0  0  0  # atno 10764 bound_to 10752
  154.8436  135.3549  154.6217 H   0  0  0  0  0  0  0  0  0  0  0  0  # atno 10765 bound_to 10752
  139.8852  134.8625  156.3312 H   0  0  0  0  0  0  0  0  0  0  0  0  # atno 11005 bound_to 11000
  145.5685  141.0397  143.2187 LP  0  0  0  0  0  0  0  0  0  0  0  0  # atno 17320 bound_to 7965
  144.7502  139.7212  143.7276 LP  0  0  0  0  0  0  0  0  0  0  0  0  # atno 17321 bound_to 7965
  139.5081  144.6843  151.5927 LP  0  0  0  0  0  0  0  0  0  0  0  0  # atno 17342 bound_to 10162
  140.6121  143.9416  150.6461 LP  0  0  0  0  0  0  0  0  0  0  0  0  # atno 17343 bound_to 10162
  157.7356  130.9765  150.2092 LP  0  0  0  0  0  0  0  0  0  0  0  0  # atno 17370 bound_to 10713
  156.2748  130.3726  149.7995 LP  0  0  0  0  0  0  0  0  0  0  0  0  # atno 17371 bound_to 10713
  140.9721  133.7320  156.0550 LP  0  0  0  0  0  0  0  0  0  0  0  0  # atno 17394 bound_to 11000
  140.7857  134.3675  157.5477 LP  0  0  0  0  0  0  0  0  0  0  0  0  # atno 17395 bound_to 11000

$$$$
