AV-unprocessed.smi:679|AV-procd|sdf|3319|dock10
  -GOLD-   22720 0283D 1   1.00000     0.00000
 Structure written by MMmdl.
 41 43  0  0  0  0  0  0  0  0  1 V2000
  148.1640  141.6362  153.9618 C   0  0  0  0  0  0  0  0  0  0  0  0
  149.3559  142.1209  154.7900 C   0  0  0  0  0  0  0  0  0  0  0  0
  150.2394  141.0326  154.9993 O   0  0  0  0  0  0  0  0  0  0  0  0
  149.7608  140.1086  155.9641 C   0  0  2  0  0  0  0  0  0  0  0  0
  149.7872  140.6195  157.4080 C   0  0  0  0  0  0  0  0  0  0  0  0
  150.2893  139.2305  157.8187 C   0  0  1  0  0  0  0  0  0  0  0  0
  149.1749  138.3475  158.1629 N   0  0  0  0  0  0  0  0  0  0  0  0
  149.2488  137.3227  159.0262 C   0  0  0  0  0  0  0  0  0  0  0  0
  150.2812  137.0114  159.6188 O   0  0  0  0  0  0  0  0  0  0  0  0
  147.9706  136.5094  159.2411 C   0  0  0  0  0  0  0  0  0  0  0  0
  147.6363  136.3969  160.6492 N   0  0  0  0  0  0  0  0  0  0  0  0
  147.4209  135.3262  161.4160 C   0  0  0  0  0  0  0  0  0  0  0  0
  147.1282  135.6675  162.6613 N   0  0  0  0  0  0  0  0  0  0  0  0
  147.1762  137.0511  162.6279 N   0  0  0  0  0  0  0  0  0  0  0  0
  147.4772  137.4898  161.4365 N   0  0  0  0  0  0  0  0  0  0  0  0
  150.8031  139.0374  156.3675 C   0  0  0  0  0  0  0  0  0  0  0  0
  152.2759  139.3734  156.1182 C   0  0  0  0  0  0  0  0  0  0  0  0
  152.6546  138.7795  154.7571 C   0  0  0  0  0  0  0  0  0  0  0  0
  151.5918  137.7187  154.4543 C   0  0  0  0  0  0  0  0  0  0  0  0
  150.6943  137.6715  155.6924 C   0  0  0  0  0  0  0  0  0  0  0  0
  147.4573  142.4470  153.7844 H   0  0  0  0  0  0  0  0  0  0  0  0
  147.6318  140.8337  154.4732 H   0  0  0  0  0  0  0  0  0  0  0  0
  148.4893  141.2582  152.9925 H   0  0  0  0  0  0  0  0  0  0  0  0
  149.8663  142.9304  154.2661 H   0  0  0  0  0  0  0  0  0  0  0  0
  149.0102  142.5124  155.7478 H   0  0  0  0  0  0  0  0  0  0  0  0
  148.7997  139.6663  155.6922 H   0  0  0  0  0  0  0  0  0  0  0  0
  150.5318  141.4011  157.5686 H   0  0  0  0  0  0  0  0  0  0  0  0
  148.8143  140.9049  157.8101 H   0  0  0  0  0  0  0  0  0  0  0  0
  151.0796  139.2721  158.5704 H   0  0  0  0  0  0  0  0  0  0  0  0
  148.2901  138.5311  157.7130 H   0  0  0  0  0  0  0  0  0  0  0  0
  147.1414  136.9863  158.7173 H   0  0  0  0  0  0  0  0  0  0  0  0
  148.0847  135.5086  158.8217 H   0  0  0  0  0  0  0  0  0  0  0  0
  147.4737  134.3066  161.0636 H   0  0  0  0  0  0  0  0  0  0  0  0
  152.4806  140.4439  156.1565 H   0  0  0  0  0  0  0  0  0  0  0  0
  152.8934  138.9141  156.8913 H   0  0  0  0  0  0  0  0  0  0  0  0
  152.6415  139.5508  153.9863 H   0  0  0  0  0  0  0  0  0  0  0  0
  153.6583  138.3539  154.7795 H   0  0  0  0  0  0  0  0  0  0  0  0
  151.0088  138.0217  153.5837 H   0  0  0  0  0  0  0  0  0  0  0  0
  152.0296  136.7446  154.2344 H   0  0  0  0  0  0  0  0  0  0  0  0
  151.0540  136.8931  156.3666 H   0  0  0  0  0  0  0  0  0  0  0  0
  149.6682  137.4129  155.4290 H   0  0  0  0  0  0  0  0  0  0  0  0
  1  2  1  0  0  0  0
  1 21  1  0  0  0  0
  1 22  1  0  0  0  0
  1 23  1  0  0  0  0
  2  3  1  0  0  0  0
  2 24  1  0  0  0  0
  2 25  1  0  0  0  0
  3  4  1  0  0  0  0
  4 16  1  0  0  0  0
  4  5  1  0  0  0  0
  4 26  1  0  0  0  0
  5  6  1  0  0  0  0
  5 27  1  0  0  0  0
  5 28  1  0  0  0  0
  6  7  1  0  0  0  0
  6 16  1  0  0  0  0
  6 29  1  0  0  0  0
  7  8  1  0  0  0  0
  7 30  1  0  0  0  0
  8  9  2  0  0  0  0
  8 10  1  0  0  0  0
 10 11  1  0  0  0  0
 10 31  1  0  0  0  0
 10 32  1  0  0  0  0
 11 15  1  0  0  0  0
 11 12  1  0  0  0  0
 12 13  2  0  0  0  0
 12 33  1  0  0  0  0
 13 14  1  0  0  0  0
 14 15  2  0  0  0  0
 16 20  1  0  0  0  0
 16 17  1  0  0  0  0
 17 18  1  0  0  0  0
 17 34  1  0  0  0  0
 17 35  1  0  0  0  0
 18 19  1  0  0  0  0
 18 36  1  0  0  0  0
 18 37  1  0  0  0  0
 19 20  1  0  0  0  0
 19 38  1  0  0  0  0
 19 39  1  0  0  0  0
 20 40  1  0  0  0  0
 20 41  1  0  0  0  0
M  END
> <s_m_source_file>
AV-unprocessed.smi

> <i_m_source_file_index>
679

> <i_lp_mmshare_version>
43012

> <i_f3d_flags>
0

> <s_epik_input>
W0NIMl0xW0NIMl1bQ0gyXVtDSDJdQzEyW0NASF0oT1tDSDJdW0NIM10pW0NIMl1bQ0BIXTJbTkhdQyg9TylbQ0gyXW4zW2NIXW5ubjM=

> <s_epik_cmdline>
J2VwaWtfcHl0aG9uJywgJy1waCcsICc3LjAnLCAnLXRuJywgJzgnLCAnLW1hJywgJzIwMCcsICctbWV0YWxfYmluZGluZycsICctaW1hZScsICc8aW5maWxlLm1hZT4nLCAnLW9tYWUnLCAnPG91dGZpbGUubWFlPic=

> <r_lp_tautomer_probability>
1

> <r_epik_Ionization_Penalty>
7.96741e-07

> <r_epik_Ionization_Penalty_Charging>
0

> <r_epik_Ionization_Penalty_Neutral>
7.96741e-07

> <r_epik_State_Penalty>
-0

> <r_epik_Charging_Adjusted_Penalty>
0

> <i_epik_Tot_Q>
0

> <i_epik_Tot_abs_Q>
0

> <r_epik_Metal_State_Penalty>
-0

> <b_epik_Metal_Only>
0

> <s_lp_Force_Field>
OPLS_2005

> <r_lp_Energy>
39.8699

> <b_lp_Chiralities_Consistent>
1

> <s_lp_Variant>
AV-unprocessed.smi:679-1

> <Gold.Version>
5.8.1

> <Gold.Id.Protein>
6NUR|6NUR_protein|mol2

> <Gold.PLP.Fitness>
42.3288

> <Gold.PLP.PLP>
-32.6472

> <Gold.PLP.part.hbond>
-4.3193

> <Gold.PLP.part.metal>
0.0000

> <Gold.PLP.part.buried>
-3.5808

> <Gold.PLP.part.nonpolar>
-24.9821

> <Gold.PLP.part.repulsive>
0.2115

> <Gold.PLP.ligand.clash>
0.0000

> <Gold.PLP.ligand.torsion>
0.4043

> <Gold.PLP.Chemscore.Hbond>
3.3796

> <Gold.PLP.Chemscore.CHOScore>
0.0000

> <Gold.PLP.Chemscore.Metal>
0.0000

> <Gold.Chemscore.Hbonds>
donor molecule, donor type, donor heavy atom, donor atom, acceptor molecule, acceptor atom, score
      P1  H  6896  6909       L1     9  0.73
      P1  H  6931  6943       L1    15  0.61
      P1  H  6934  6947       L1    15  0.83
      P1  H  7989  7998       L1     3  0.67

> <Gold.PLP.Chemscore.Internal.Correction>
0.3514

> <Gold.Rescore>
     Score         DG    S(hbond)    S(metal)    S(lipo)     H(rot)  DE(clash)    DE(int)     intcor
     14.21     -15.04       2.45        0.00      64.43       2.41       0.34       0.49       ----

> <Gold.Chemscore.Fitness>
14.2072

> <Gold.Chemscore.DG>
-15.0375

> <Gold.Chemscore.ZeroCoef>
-5.4800

> <Gold.Chemscore.Hbond>
2.4509

> <Gold.Chemscore.Metal>
0.0000

> <Gold.Chemscore.Lipo>
64.4306

> <Gold.Chemscore.Internal_Hbond>
0.0000

> <Gold.Chemscore.DEClash>
0.3426

> <Gold.Chemscore.DEInternal>
0.4878

> <Gold.Chemscore.Rot>
2.4089

> <Gold.Chemscore.Internal.Correction>
   9.000000E+99

> <Gold.Chemscore.Hbonds>
donor molecule, donor type, donor heavy atom, donor atom, acceptor molecule, acceptor atom, score
      P1  H  6896  6909       L1     9  0.73
      P1  H  6931  6943       L1    15  0.08
      P1  H  6934  6947       L1    15  0.82
      P1  H  7989  7998       L1     3  0.49

> <Gold.Chemscore.Hbond.Weighted>
-8.1860

> <Gold.Chemscore.Metal.Weighted>
-0.0000

> <Gold.Chemscore.Lipo.Weighted>
-7.5384

> <Gold.Chemscore.Internal_Hbond.Weighted>
0.0000

> <Gold.Chemscore.DEClash.Weighted>
0.3426

> <Gold.Chemscore.DEInternal.Weighted>
0.4878

> <Gold.Chemscore.Rot.Weighted>
6.1668

> <Gold.Chemscore.Internal.Correction.Weighted>
   9.000000E+99

> <Gold.Protein.RotatedTorsions>
[ 6907 6896 6895 6894 ] final  103.03 input  -60.11 | X-H torsion
[ 7974 7965 7964 7962 ] final   58.75 input  175.53 | X-H torsion
[ 8008 7997 7996 7995 ] final  106.60 input   59.86 | X-H torsion
[ 10167 10162 10161 10158 ] final   91.60 input  -65.29 | X-H torsion
[ 10718 10713 10712 10709 ] final  -84.07 input   66.30 | X-H torsion
[ 10763 10752 10751 10750 ] final   29.14 input  -60.55 | X-H torsion
[ 11005 11000 10999 10996 ] final  -42.24 input  -57.11 | X-H torsion

> <Gold.Protein.ActiveResidues>
 VAL166  LYS551  ARG553  GLY616  TRP617  ASP618  TYR619  PRO620  LYS621  CYS622 
 ASP623  PHE694  ASN695  SER759  ASP760  ASP761  ALA762  ILE779  LEU786  VAL792 
 PHE793  MET794  SER795  GLU796  ALA797  LYS798  CYS799  TRP800  GLU811  SER814 

> <Gold.Protein.RotatedAtoms>
  152.5307  133.9886  159.7839 H   0  0  0  0  0  0  0  0  0  0  0  0  # atno 6907 bound_to 6896
  151.0126  133.5943  159.2688 H   0  0  0  0  0  0  0  0  0  0  0  0  # atno 6908 bound_to 6896
  151.3012  135.0775  159.9292 H   0  0  0  0  0  0  0  0  0  0  0  0  # atno 6909 bound_to 6896
  145.9148  139.3682  143.0514 H   0  0  0  0  0  0  0  0  0  0  0  0  # atno 7974 bound_to 7965
  156.1756  140.3110  155.9053 H   0  0  0  0  0  0  0  0  0  0  0  0  # atno 8008 bound_to 7997
  155.3494  140.0470  157.3063 H   0  0  0  0  0  0  0  0  0  0  0  0  # atno 8009 bound_to 7997
  154.5287  140.2223  155.8854 H   0  0  0  0  0  0  0  0  0  0  0  0  # atno 8010 bound_to 7997
  139.8358  144.6665  150.9343 H   0  0  0  0  0  0  0  0  0  0  0  0  # atno 10167 bound_to 10162
  156.0010  130.4686  150.4354 H   0  0  0  0  0  0  0  0  0  0  0  0  # atno 10718 bound_to 10713
  153.0448  135.6496  154.0846 H   0  0  0  0  0  0  0  0  0  0  0  0  # atno 10763 bound_to 10752
  154.0545  135.2893  155.3336 H   0  0  0  0  0  0  0  0  0  0  0  0  # atno 10764 bound_to 10752
  154.6698  135.5360  153.8189 H   0  0  0  0  0  0  0  0  0  0  0  0  # atno 10765 bound_to 10752
  141.0302  133.6823  156.2567 H   0  0  0  0  0  0  0  0  0  0  0  0  # atno 11005 bound_to 11000
  145.8626  140.9466  143.0692 LP  0  0  0  0  0  0  0  0  0  0  0  0  # atno 17320 bound_to 7965
  144.6746  140.0550  143.7477 LP  0  0  0  0  0  0  0  0  0  0  0  0  # atno 17321 bound_to 7965
  140.7803  143.3958  151.1232 LP  0  0  0  0  0  0  0  0  0  0  0  0  # atno 17342 bound_to 10162
  139.7608  143.8638  152.3100 LP  0  0  0  0  0  0  0  0  0  0  0  0  # atno 17343 bound_to 10162
  157.2400  131.0523  151.2442 LP  0  0  0  0  0  0  0  0  0  0  0  0  # atno 17370 bound_to 10713
  157.3629  130.7141  149.6514 LP  0  0  0  0  0  0  0  0  0  0  0  0  # atno 17371 bound_to 10713
  140.6421  134.5155  157.5570 LP  0  0  0  0  0  0  0  0  0  0  0  0  # atno 17394 bound_to 11000
  139.9202  134.8163  156.1235 LP  0  0  0  0  0  0  0  0  0  0  0  0  # atno 17395 bound_to 11000

$$$$
