AV-unprocessed.smi:99|AV-procd|sdf|893|dock4
  -GOLD-   2262017383D 1   1.00000     0.00000
 Structure written by MMmdl.
 52 55  0  0  0  0  0  0  0  0  2 V2000
  148.0490  133.1001  153.0555 O   0  0  0  0  0  0  0  0  0  0  0  0
  146.8247  133.2304  153.1199 C   0  0  0  0  0  0  0  0  0  0  0  0
  146.1730  133.6069  154.2377 O   0  0  0  0  0  0  0  0  0  0  0  0
  146.8622  133.6541  155.4762 C   0  0  0  0  0  0  0  0  0  0  0  0
  147.4746  135.0529  155.6645 C   0  0  2  0  0  0  0  0  0  0  0  0
  148.5578  135.1941  154.7446 O   0  0  0  0  0  0  0  0  0  0  0  0
  149.7991  135.0587  155.3838 C   0  0  1  0  0  0  0  0  0  0  0  0
  150.5661  136.3580  155.2641 N   0  0  0  0  0  0  0  0  0  0  0  0
  150.0551  137.4258  154.5448 C   0  0  0  0  0  0  0  0  0  0  0  0
  150.7262  138.5917  154.4463 C   0  0  0  0  0  0  0  0  0  0  0  0
  152.0171  138.7342  155.1126 C   0  0  0  0  0  0  0  0  0  0  0  0
  152.6273  139.7963  155.0075 O   0  0  0  0  0  0  0  0  0  0  0  0
  152.4904  137.6743  155.8291 N   0  5  0  0  0  0  0  0  0  0  0  0
  151.8104  136.4960  155.9374 C   0  0  0  0  0  0  0  0  0  0  0  0
  152.2189  135.5418  156.5996 O   0  0  0  0  0  0  0  0  0  0  0  0
  149.5402  134.7373  156.8616 C   0  0  2  0  0  0  0  0  0  0  0  0
  149.6305  133.3435  157.0897 O   0  0  0  0  0  0  0  0  0  0  0  0
  148.1286  135.2803  157.0288 C   0  0  2  0  0  0  0  0  0  0  0  0
  147.4201  134.7285  158.1329 O   0  0  0  0  0  0  0  0  0  0  0  0
  147.8488  134.9187  159.3986 C   0  0  0  0  0  0  0  0  0  0  0  0
  148.8675  135.5483  159.6899 O   0  0  0  0  0  0  0  0  0  0  0  0
  146.9559  134.2838  160.4102 C   0  0  0  0  0  0  0  0  0  0  0  0
  147.1024  134.6234  161.7754 C   0  0  0  0  0  0  0  0  0  0  0  0
  146.2713  134.0416  162.7523 C   0  0  0  0  0  0  0  0  0  0  0  0
  145.2835  133.1131  162.3755 C   0  0  0  0  0  0  0  0  0  0  0  0
  145.1288  132.7658  161.0209 C   0  0  0  0  0  0  0  0  0  0  0  0
  145.9590  133.3463  160.0426 C   0  0  0  0  0  0  0  0  0  0  0  0
  145.9109  132.9904  151.9655 C   0  0  0  0  0  0  0  0  0  0  0  0
  146.4430  132.4956  150.7517 C   0  0  0  0  0  0  0  0  0  0  0  0
  145.6058  132.2612  149.6436 C   0  0  0  0  0  0  0  0  0  0  0  0
  144.2255  132.5168  149.7361 C   0  0  0  0  0  0  0  0  0  0  0  0
  143.6834  133.0078  150.9381 C   0  0  0  0  0  0  0  0  0  0  0  0
  144.5194  133.2443  152.0471 C   0  0  0  0  0  0  0  0  0  0  0  0
  146.1488  133.4432  156.2738 H   0  0  0  0  0  0  0  0  0  0  0  0
  147.6333  132.8839  155.5120 H   0  0  0  0  0  0  0  0  0  0  0  0
  146.7158  135.8144  155.4817 H   0  0  0  0  0  0  0  0  0  0  0  0
  150.3943  134.3111  154.8567 H   0  0  0  0  0  0  0  0  0  0  0  0
  149.0982  137.3404  154.0525 H   0  0  0  0  0  0  0  0  0  0  0  0
  150.3115  139.4148  153.8833 H   0  0  0  0  0  0  0  0  0  0  0  0
  150.2557  135.2424  157.5119 H   0  0  0  0  0  0  0  0  0  0  0  0
  150.4491  133.1630  157.5254 H   0  0  0  0  0  0  0  0  0  0  0  0
  148.2000  136.3615  157.1598 H   0  0  0  0  0  0  0  0  0  0  0  0
  147.8538  135.3342  162.0880 H   0  0  0  0  0  0  0  0  0  0  0  0
  146.3923  134.3093  163.7918 H   0  0  0  0  0  0  0  0  0  0  0  0
  144.6454  132.6672  163.1242 H   0  0  0  0  0  0  0  0  0  0  0  0
  144.3716  132.0527  160.7302 H   0  0  0  0  0  0  0  0  0  0  0  0
  145.8136  133.0570  159.0121 H   0  0  0  0  0  0  0  0  0  0  0  0
  147.5000  132.2919  150.6565 H   0  0  0  0  0  0  0  0  0  0  0  0
  146.0238  131.8852  148.7214 H   0  0  0  0  0  0  0  0  0  0  0  0
  143.5835  132.3364  148.8864 H   0  0  0  0  0  0  0  0  0  0  0  0
  142.6238  133.2037  151.0106 H   0  0  0  0  0  0  0  0  0  0  0  0
  144.0708  133.6212  152.9547 H   0  0  0  0  0  0  0  0  0  0  0  0
  1  2  2  0  0  0  0
  2  3  1  0  0  0  0
  2 28  1  0  0  0  0
  3  4  1  0  0  0  0
  4  5  1  0  0  0  0
  4 34  1  0  0  0  0
  4 35  1  0  0  0  0
  5 18  1  0  0  0  0
  5  6  1  0  0  0  0
  5 36  1  0  0  0  0
  6  7  1  0  0  0  0
  7  8  1  0  0  0  0
  7 16  1  0  0  0  0
  7 37  1  0  0  0  0
  8 14  1  0  0  0  0
  8  9  1  0  0  0  0
  9 10  2  0  0  0  0
  9 38  1  0  0  0  0
 10 11  1  0  0  0  0
 10 39  1  0  0  0  0
 11 12  2  0  0  0  0
 11 13  1  0  0  0  0
 13 14  1  0  0  0  0
 14 15  2  0  0  0  0
 16 17  1  0  0  0  0
 16 18  1  0  0  0  0
 16 40  1  0  0  0  0
 17 41  1  0  0  0  0
 18 19  1  0  0  0  0
 18 42  1  0  0  0  0
 19 20  1  0  0  0  0
 20 21  2  0  0  0  0
 20 22  1  0  0  0  0
 22 27  1  0  0  0  0
 22 23  2  0  0  0  0
 23 24  1  0  0  0  0
 23 43  1  0  0  0  0
 24 25  2  0  0  0  0
 24 44  1  0  0  0  0
 25 26  1  0  0  0  0
 25 45  1  0  0  0  0
 26 27  2  0  0  0  0
 26 46  1  0  0  0  0
 27 47  1  0  0  0  0
 28 33  1  0  0  0  0
 28 29  2  0  0  0  0
 29 30  1  0  0  0  0
 29 48  1  0  0  0  0
 30 31  2  0  0  0  0
 30 49  1  0  0  0  0
 31 32  1  0  0  0  0
 31 50  1  0  0  0  0
 32 33  2  0  0  0  0
 32 51  1  0  0  0  0
 33 52  1  0  0  0  0
M  CHG  1  13  -1
M  END
> <s_m_source_file>
AV-unprocessed.smi

> <i_m_source_file_index>
99

> <i_lp_mmshare_version>
43012

> <i_f3d_flags>
0

> <s_epik_input>
W2NIXTFbY0hdW2NIXVtjSF1bY0hdYzFDKD1PKU9bQ0gyXVtDQEBIXTJPW0NAQEhdKG4zW2NIXVtjSF1jKD1PKVtuSF1jMz1PKVtDQEBIXShbT0hdKVtDQEhdMk9DKD1PKWM0W2NIXVtjSF1bY0hdW2NIXVtjSF00

> <s_epik_cmdline>
J2VwaWtfcHl0aG9uJywgJy1waCcsICc3LjAnLCAnLXRuJywgJzgnLCAnLW1hJywgJzIwMCcsICctbWV0YWxfYmluZGluZycsICctaW1hZScsICc8aW5maWxlLm1hZT4nLCAnLW9tYWUnLCAnPG91dGZpbGUubWFlPic=

> <r_lp_tautomer_probability>
1

> <r_epik_Ionization_Penalty>
2.89159

> <r_epik_Ionization_Penalty_Charging>
2.1077e-08

> <r_epik_Ionization_Penalty_Neutral>
2.89159

> <r_epik_State_Penalty>
2.88671

> <r_epik_Charging_Adjusted_Penalty>
2.88671

> <i_epik_Tot_Q>
-1

> <i_epik_Tot_abs_Q>
1

> <r_epik_Metal_State_Penalty>
0.0727308

> <b_epik_Metal_Only>
1

> <s_epik_Chemistry_Notes>
This compound has an ester and may undergo hydrolysis at high or low pH. This compound contains an acetal/aminal-like group ( X-CH(R)-Y where X, Y are N, S, or O) that may be acid/base labile, releasing an aldehyde.

> <s_lp_Force_Field>
OPLS_2005

> <r_lp_Energy>
46.9153

> <b_lp_Chiralities_Consistent>
1

> <s_lp_Variant>
AV-unprocessed.smi:99-29

> <Gold.Version>
5.8.1

> <Gold.Id.Protein>
6NUR|6NUR_protein|mol2

> <Gold.PLP.Fitness>
54.8900

> <Gold.PLP.PLP>
-44.3891

> <Gold.PLP.part.hbond>
-4.5699

> <Gold.PLP.part.metal>
0.0000

> <Gold.PLP.part.buried>
-1.7488

> <Gold.PLP.part.nonpolar>
-39.4591

> <Gold.PLP.part.repulsive>
1.1375

> <Gold.PLP.ligand.clash>
0.0000

> <Gold.PLP.ligand.torsion>
0.4554

> <Gold.PLP.Chemscore.Hbond>
2.9408

> <Gold.PLP.Chemscore.CHOScore>
0.8168

> <Gold.PLP.Chemscore.Metal>
0.0000

> <Gold.Chemscore.Hbonds>
donor molecule, donor type, donor heavy atom, donor atom, acceptor molecule, acceptor atom, score
      P1  H  6896  6908       L1    21  0.99
      P1  H  7989  7998       L1    12  0.50
      P1  H  7997  8010       L1    12  0.93
      P1  H 10752 10763       L1    15  0.37
      L1  C     9    38       P1  7948  0.77

> <Gold.PLP.Chemscore.Internal.Correction>
0.1391

> <Gold.Rescore>
     Score         DG    S(hbond)    S(metal)    S(lipo)     H(rot)  DE(clash)    DE(int)     intcor
     11.52     -17.21       2.12        0.00     108.36       3.13       1.42       4.27       ----

> <Gold.Chemscore.Fitness>
11.5158

> <Gold.Chemscore.DG>
-17.2091

> <Gold.Chemscore.ZeroCoef>
-5.4800

> <Gold.Chemscore.Hbond>
2.1183

> <Gold.Chemscore.Metal>
0.0000

> <Gold.Chemscore.Lipo>
108.3647

> <Gold.Chemscore.Internal_Hbond>
0.0000

> <Gold.Chemscore.DEClash>
1.4209

> <Gold.Chemscore.DEInternal>
4.2724

> <Gold.Chemscore.Rot>
3.1346

> <Gold.Chemscore.Internal.Correction>
   9.000000E+99

> <Gold.Chemscore.Hbonds>
donor molecule, donor type, donor heavy atom, donor atom, acceptor molecule, acceptor atom, score
      P1  H  6896  6908       L1    21  0.90
      P1  H  7989  7998       L1    12  0.29
      P1  H  7997  8010       L1    12  0.88
      P1  H 10752 10763       L1    15  0.02

> <Gold.Chemscore.Hbond.Weighted>
-7.0750

> <Gold.Chemscore.Metal.Weighted>
-0.0000

> <Gold.Chemscore.Lipo.Weighted>
-12.6787

> <Gold.Chemscore.Internal_Hbond.Weighted>
0.0000

> <Gold.Chemscore.DEClash.Weighted>
1.4209

> <Gold.Chemscore.DEInternal.Weighted>
4.2724

> <Gold.Chemscore.Rot.Weighted>
8.0246

> <Gold.Chemscore.Internal.Correction.Weighted>
   9.000000E+99

> <Gold.Protein.RotatedTorsions>
[ 6907 6896 6895 6894 ] final  179.31 input  -60.11 | X-H torsion
[ 7974 7965 7964 7962 ] final  117.01 input  175.53 | X-H torsion
[ 8008 7997 7996 7995 ] final  101.02 input   59.86 | X-H torsion
[ 10167 10162 10161 10158 ] final  153.10 input  -65.29 | X-H torsion
[ 10718 10713 10712 10709 ] final  -64.20 input   66.30 | X-H torsion
[ 10763 10752 10751 10750 ] final  131.00 input  -60.55 | X-H torsion
[ 11005 11000 10999 10996 ] final  101.80 input  -57.11 | X-H torsion

> <Gold.Protein.ActiveResidues>
 VAL166  LYS551  ARG553  GLY616  TRP617  ASP618  TYR619  PRO620  LYS621  CYS622 
 ASP623  PHE694  ASN695  SER759  ASP760  ASP761  ALA762  ILE779  LEU786  VAL792 
 PHE793  MET794  SER795  GLU796  ALA797  LYS798  CYS799  TRP800  GLU811  SER814 

> <Gold.Protein.RotatedAtoms>
  151.6738  133.3313  159.3202 H   0  0  0  0  0  0  0  0  0  0  0  0  # atno 6907 bound_to 6896
  150.7855  134.6840  159.6469 H   0  0  0  0  0  0  0  0  0  0  0  0  # atno 6908 bound_to 6896
  152.3924  134.6424  160.0154 H   0  0  0  0  0  0  0  0  0  0  0  0  # atno 6909 bound_to 6896
  145.1726  139.3093  143.4459 H   0  0  0  0  0  0  0  0  0  0  0  0  # atno 7974 bound_to 7965
  156.1259  140.3204  155.8276 H   0  0  0  0  0  0  0  0  0  0  0  0  # atno 8008 bound_to 7997
  155.4421  140.0526  157.3026 H   0  0  0  0  0  0  0  0  0  0  0  0  # atno 8009 bound_to 7997
  154.4862  140.2073  155.9664 H   0  0  0  0  0  0  0  0  0  0  0  0  # atno 8010 bound_to 7997
  139.4829  144.5302  151.7736 H   0  0  0  0  0  0  0  0  0  0  0  0  # atno 10167 bound_to 10162
  156.0744  130.4230  150.1386 H   0  0  0  0  0  0  0  0  0  0  0  0  # atno 10718 bound_to 10713
  153.7672  135.3187  155.3346 H   0  0  0  0  0  0  0  0  0  0  0  0  # atno 10763 bound_to 10752
  154.8209  135.4604  154.0780 H   0  0  0  0  0  0  0  0  0  0  0  0  # atno 10764 bound_to 10752
  153.2029  135.6925  153.8293 H   0  0  0  0  0  0  0  0  0  0  0  0  # atno 10765 bound_to 10752
  139.8774  134.9198  156.4961 H   0  0  0  0  0  0  0  0  0  0  0  0  # atno 11005 bound_to 11000
  146.3466  140.1877  142.8589 LP  0  0  0  0  0  0  0  0  0  0  0  0  # atno 17320 bound_to 7965
  145.0217  140.8799  143.5163 LP  0  0  0  0  0  0  0  0  0  0  0  0  # atno 17321 bound_to 7965
  140.4827  144.1426  150.5935 LP  0  0  0  0  0  0  0  0  0  0  0  0  # atno 17342 bound_to 10162
  140.4260  143.2590  151.9656 LP  0  0  0  0  0  0  0  0  0  0  0  0  # atno 17343 bound_to 10162
  156.9430  130.9750  151.3512 LP  0  0  0  0  0  0  0  0  0  0  0  0  # atno 17370 bound_to 10713
  157.5831  130.8391  149.8551 LP  0  0  0  0  0  0  0  0  0  0  0  0  # atno 17371 bound_to 10713
  140.8623  133.8050  155.9278 LP  0  0  0  0  0  0  0  0  0  0  0  0  # atno 17394 bound_to 11000
  140.9036  134.2347  157.5027 LP  0  0  0  0  0  0  0  0  0  0  0  0  # atno 17395 bound_to 11000

$$$$
