AV-unprocessed.smi:767|AV-procd|sdf|3660|dock8
  -GOLD-   22720 1 73D 1   1.00000     0.00000
 Structure written by MMmdl.
 47 49  0  0  0  0  0  0  0  0  1 V2000
  146.2897  130.0905  152.1485 C   0  0  0  0  0  0  0  0  0  0  0  0
  145.9608  131.5257  151.7948 C   0  0  0  0  0  0  0  0  0  0  0  0
  144.7574  131.8484  151.1332 C   0  0  0  0  0  0  0  0  0  0  0  0
  144.5031  133.1984  150.8248 C   0  0  0  0  0  0  0  0  0  0  0  0
  145.4590  134.1704  151.1856 C   0  0  0  0  0  0  0  0  0  0  0  0
  145.2519  135.6362  150.8457 C   0  0  0  0  0  0  0  0  0  0  0  0
  145.1991  136.5546  152.0821 C   0  0  0  0  0  0  0  0  0  0  0  0
  146.5307  136.9459  152.5385 N   0  0  0  0  0  0  0  0  0  0  0  0
  146.7896  137.8739  153.4711 C   0  0  0  0  0  0  0  0  0  0  0  0
  145.9274  138.5413  154.0427 O   0  0  0  0  0  0  0  0  0  0  0  0
  148.1014  137.9782  153.7188 N   0  0  0  0  0  0  0  0  0  0  0  0
  148.6758  138.8655  154.7244 C   0  0  1  0  0  0  0  0  0  0  0  0
  150.0718  139.3745  154.3337 C   0  0  2  0  0  0  0  0  0  0  0  0
  151.2715  138.9648  155.1434 C   0  0  0  0  0  0  0  0  0  0  0  0
  151.4300  140.1252  156.1303 C   0  0  0  0  0  0  0  0  0  0  0  0
  150.1464  140.7448  156.1711 O   0  0  0  0  0  0  0  0  0  0  0  0
  149.6214  140.7344  154.8458 C   0  0  2  0  0  0  0  0  0  0  0  0
  148.1426  140.3204  154.6902 C   0  0  0  0  0  0  0  0  0  0  0  0
  147.4857  140.8059  153.3899 C   0  0  0  0  0  0  0  0  0  0  0  0
  147.2091  140.7236  155.8326 C   0  0  0  0  0  0  0  0  0  0  0  0
  146.6280  133.7424  151.8495 C   0  0  0  0  0  0  0  0  0  0  0  0
  146.8787  132.4506  152.1524 N   0  0  0  0  0  0  0  0  0  0  0  0
  145.6634  129.3952  151.5888 H   0  0  0  0  0  0  0  0  0  0  0  0
  146.1266  129.9179  153.2125 H   0  0  0  0  0  0  0  0  0  0  0  0
  147.3318  129.8657  151.9182 H   0  0  0  0  0  0  0  0  0  0  0  0
  144.0464  131.0813  150.8643 H   0  0  0  0  0  0  0  0  0  0  0  0
  143.5960  133.4782  150.3099 H   0  0  0  0  0  0  0  0  0  0  0  0
  146.0512  135.9638  150.1796 H   0  0  0  0  0  0  0  0  0  0  0  0
  144.3259  135.7344  150.2780 H   0  0  0  0  0  0  0  0  0  0  0  0
  144.6450  137.4613  151.8387 H   0  0  0  0  0  0  0  0  0  0  0  0
  144.6448  136.0691  152.8872 H   0  0  0  0  0  0  0  0  0  0  0  0
  147.3118  136.4533  152.1311 H   0  0  0  0  0  0  0  0  0  0  0  0
  148.7396  137.3905  153.2029 H   0  0  0  0  0  0  0  0  0  0  0  0
  148.6679  138.4462  155.7334 H   0  0  0  0  0  0  0  0  0  0  0  0
  150.2306  139.3845  153.2536 H   0  0  0  0  0  0  0  0  0  0  0  0
  151.0845  138.0286  155.6702 H   0  0  0  0  0  0  0  0  0  0  0  0
  152.1651  138.8335  154.5325 H   0  0  0  0  0  0  0  0  0  0  0  0
  151.7474  139.7950  157.1195 H   0  0  0  0  0  0  0  0  0  0  0  0
  152.1594  140.8467  155.7593 H   0  0  0  0  0  0  0  0  0  0  0  0
  149.9553  141.5746  154.2349 H   0  0  0  0  0  0  0  0  0  0  0  0
  147.3529  141.8880  153.3919 H   0  0  0  0  0  0  0  0  0  0  0  0
  146.5026  140.3576  153.2423 H   0  0  0  0  0  0  0  0  0  0  0  0
  148.0889  140.5610  152.5153 H   0  0  0  0  0  0  0  0  0  0  0  0
  147.0949  141.8061  155.8927 H   0  0  0  0  0  0  0  0  0  0  0  0
  147.5847  140.3845  156.7982 H   0  0  0  0  0  0  0  0  0  0  0  0
  146.2158  140.2911  155.7082 H   0  0  0  0  0  0  0  0  0  0  0  0
  147.3877  134.4542  152.1370 H   0  0  0  0  0  0  0  0  0  0  0  0
  1  2  1  0  0  0  0
  1 23  1  0  0  0  0
  1 24  1  0  0  0  0
  1 25  1  0  0  0  0
  2 22  1  0  0  0  0
  2  3  2  0  0  0  0
  3  4  1  0  0  0  0
  3 26  1  0  0  0  0
  4  5  2  0  0  0  0
  4 27  1  0  0  0  0
  5  6  1  0  0  0  0
  5 21  1  0  0  0  0
  6  7  1  0  0  0  0
  6 28  1  0  0  0  0
  6 29  1  0  0  0  0
  7  8  1  0  0  0  0
  7 30  1  0  0  0  0
  7 31  1  0  0  0  0
  8  9  1  0  0  0  0
  8 32  1  0  0  0  0
  9 10  2  0  0  0  0
  9 11  1  0  0  0  0
 11 12  1  0  0  0  0
 11 33  1  0  0  0  0
 12 18  1  0  0  0  0
 12 13  1  0  0  0  0
 12 34  1  0  0  0  0
 13 17  1  0  0  0  0
 13 14  1  0  0  0  0
 13 35  1  0  0  0  0
 14 15  1  0  0  0  0
 14 36  1  0  0  0  0
 14 37  1  0  0  0  0
 15 16  1  0  0  0  0
 15 38  1  0  0  0  0
 15 39  1  0  0  0  0
 16 17  1  0  0  0  0
 17 18  1  0  0  0  0
 17 40  1  0  0  0  0
 18 19  1  0  0  0  0
 18 20  1  0  0  0  0
 19 41  1  0  0  0  0
 19 42  1  0  0  0  0
 19 43  1  0  0  0  0
 20 44  1  0  0  0  0
 20 45  1  0  0  0  0
 20 46  1  0  0  0  0
 21 22  2  0  0  0  0
 21 47  1  0  0  0  0
M  END
> <s_m_source_file>
AV-unprocessed.smi

> <i_m_source_file_index>
767

> <i_lp_mmshare_version>
43012

> <i_f3d_flags>
0

> <s_epik_input>
W0NIM11jMVtjSF1bY0hdYyhbY0hdbjEpW0NIMl1bQ0gyXVtOSF1DKD1PKVtOSF1bQ0BIXTJDKFtDSDNdKShbQ0gzXSlbQ0BIXShbQ0BASF0yMylPW0NIMl1bQ0gyXTM=

> <s_epik_cmdline>
J2VwaWtfcHl0aG9uJywgJy1waCcsICc3LjAnLCAnLXRuJywgJzgnLCAnLW1hJywgJzIwMCcsICctbWV0YWxfYmluZGluZycsICctaW1hZScsICc8aW5maWxlLm1hZT4nLCAnLW9tYWUnLCAnPG91dGZpbGUubWFlPic=

> <r_epik_Ionization_Penalty>
0.0567523

> <r_epik_Ionization_Penalty_Charging>
0

> <r_epik_Ionization_Penalty_Neutral>
0.0567523

> <r_epik_State_Penalty>
0.0489186

> <r_epik_Charging_Adjusted_Penalty>
0.0489186

> <i_epik_Tot_Q>
0

> <i_epik_Tot_abs_Q>
0

> <r_epik_Metal_State_Penalty>
0.044622

> <b_epik_Metal_Only>
0

> <s_lp_Force_Field>
OPLS_2005

> <r_lp_Energy>
33.1778

> <b_lp_Chiralities_Consistent>
1

> <s_lp_Variant>
AV-unprocessed.smi:767-4

> <Gold.Version>
5.8.1

> <Gold.Id.Protein>
6NUR|6NUR_protein|mol2

> <Gold.PLP.Fitness>
47.6387

> <Gold.PLP.PLP>
-39.4769

> <Gold.PLP.part.hbond>
-2.0000

> <Gold.PLP.part.metal>
0.0000

> <Gold.PLP.part.buried>
-3.4152

> <Gold.PLP.part.nonpolar>
-34.3789

> <Gold.PLP.part.repulsive>
0.3440

> <Gold.PLP.ligand.clash>
0.0000

> <Gold.PLP.ligand.torsion>
0.4261

> <Gold.PLP.Chemscore.Hbond>
1.9440

> <Gold.PLP.Chemscore.CHOScore>
1.0000

> <Gold.PLP.Chemscore.Metal>
0.0000

> <Gold.Chemscore.Hbonds>
donor molecule, donor type, donor heavy atom, donor atom, acceptor molecule, acceptor atom, score
      L1  H     8    32       P1  7948  1.00
      L1  H    11    33       P1  7948  0.96
      L1  C    21    47       P1  7948  1.00

> <Gold.PLP.Chemscore.Internal.Correction>
0.1820

> <Gold.Rescore>
     Score         DG    S(hbond)    S(metal)    S(lipo)     H(rot)  DE(clash)    DE(int)     intcor
     19.07     -20.42       1.91        0.00     104.90       1.45       0.97       0.37       ----

> <Gold.Chemscore.Fitness>
19.0741

> <Gold.Chemscore.DG>
-20.4173

> <Gold.Chemscore.ZeroCoef>
-5.4800

> <Gold.Chemscore.Hbond>
1.9088

> <Gold.Chemscore.Metal>
0.0000

> <Gold.Chemscore.Lipo>
104.8990

> <Gold.Chemscore.Internal_Hbond>
0.0000

> <Gold.Chemscore.DEClash>
0.9741

> <Gold.Chemscore.DEInternal>
0.3691

> <Gold.Chemscore.Rot>
1.4497

> <Gold.Chemscore.Internal.Correction>
   9.000000E+99

> <Gold.Chemscore.Hbonds>
donor molecule, donor type, donor heavy atom, donor atom, acceptor molecule, acceptor atom, score
      L1  H     8    32       P1  7948  0.97
      L1  H    11    33       P1  7948  0.92

> <Gold.Chemscore.Hbond.Weighted>
-6.3753

> <Gold.Chemscore.Metal.Weighted>
-0.0000

> <Gold.Chemscore.Lipo.Weighted>
-12.2732

> <Gold.Chemscore.Internal_Hbond.Weighted>
0.0000

> <Gold.Chemscore.DEClash.Weighted>
0.9741

> <Gold.Chemscore.DEInternal.Weighted>
0.3691

> <Gold.Chemscore.Rot.Weighted>
3.7112

> <Gold.Chemscore.Internal.Correction.Weighted>
   9.000000E+99

> <Gold.Protein.RotatedTorsions>
[ 6907 6896 6895 6894 ] final  163.85 input  -60.11 | X-H torsion
[ 7974 7965 7964 7962 ] final   29.49 input  175.53 | X-H torsion
[ 8008 7997 7996 7995 ] final  107.93 input   59.86 | X-H torsion
[ 10167 10162 10161 10158 ] final  168.04 input  -65.29 | X-H torsion
[ 10718 10713 10712 10709 ] final   -0.53 input   66.30 | X-H torsion
[ 10763 10752 10751 10750 ] final  -49.42 input  -60.55 | X-H torsion
[ 11005 11000 10999 10996 ] final  140.18 input  -57.11 | X-H torsion

> <Gold.Protein.ActiveResidues>
 VAL166  LYS551  ARG553  GLY616  TRP617  ASP618  TYR619  PRO620  LYS621  CYS622 
 ASP623  PHE694  ASN695  SER759  ASP760  ASP761  ALA762  ILE779  LEU786  VAL792 
 PHE793  MET794  SER795  GLU796  ALA797  LYS798  CYS799  TRP800  GLU811  SER814 

> <Gold.Protein.RotatedAtoms>
  151.9189  133.3580  159.3889 H   0  0  0  0  0  0  0  0  0  0  0  0  # atno 6907 bound_to 6896
  150.7041  134.4655  159.5410 H   0  0  0  0  0  0  0  0  0  0  0  0  # atno 6908 bound_to 6896
  152.2275  134.8354  160.0529 H   0  0  0  0  0  0  0  0  0  0  0  0  # atno 6909 bound_to 6896
  146.1668  139.6915  142.8995 H   0  0  0  0  0  0  0  0  0  0  0  0  # atno 7974 bound_to 7965
  156.1863  140.3085  155.9246 H   0  0  0  0  0  0  0  0  0  0  0  0  # atno 8008 bound_to 7997
  155.3272  140.0459  157.3058 H   0  0  0  0  0  0  0  0  0  0  0  0  # atno 8009 bound_to 7997
  154.5400  140.2258  155.8667 H   0  0  0  0  0  0  0  0  0  0  0  0  # atno 8010 bound_to 7997
  139.4959  144.3857  151.9573 H   0  0  0  0  0  0  0  0  0  0  0  0  # atno 10167 bound_to 10162
  156.8191  130.5450  149.5699 H   0  0  0  0  0  0  0  0  0  0  0  0  # atno 10718 bound_to 10713
  154.0938  135.6573  153.4857 H   0  0  0  0  0  0  0  0  0  0  0  0  # atno 10763 bound_to 10752
  153.0312  135.5209  154.7354 H   0  0  0  0  0  0  0  0  0  0  0  0  # atno 10764 bound_to 10752
  154.6486  135.2998  154.9984 H   0  0  0  0  0  0  0  0  0  0  0  0  # atno 10765 bound_to 10752
  140.0308  134.9352  157.0659 H   0  0  0  0  0  0  0  0  0  0  0  0  # atno 11005 bound_to 11000
  145.4445  141.0424  143.2839 LP  0  0  0  0  0  0  0  0  0  0  0  0  # atno 17320 bound_to 7965
  144.8104  139.5972  143.7032 LP  0  0  0  0  0  0  0  0  0  0  0  0  # atno 17321 bound_to 7965
  140.3294  144.3334  150.5991 LP  0  0  0  0  0  0  0  0  0  0  0  0  # atno 17342 bound_to 10162
  140.5657  143.2186  151.7687 LP  0  0  0  0  0  0  0  0  0  0  0  0  # atno 17343 bound_to 10162
  156.0999  130.5961  150.9877 LP  0  0  0  0  0  0  0  0  0  0  0  0  # atno 17370 bound_to 10713
  157.6466  131.0903  150.8140 LP  0  0  0  0  0  0  0  0  0  0  0  0  # atno 17371 bound_to 10713
  140.4228  134.1862  155.7165 LP  0  0  0  0  0  0  0  0  0  0  0  0  # atno 17394 bound_to 11000
  141.1830  133.8374  157.1190 LP  0  0  0  0  0  0  0  0  0  0  0  0  # atno 17395 bound_to 11000

$$$$
