AV-unprocessed.smi:1145|AV-procd|sdf|4884|dock2
  -GOLD-   22720 3453D 1   1.00000     0.00000
 Structure written by MMmdl.
 36 37  0  0  0  0  0  0  0  0  1 V2000
  154.1229  140.6181  161.2000 C   0  0  0  0  0  0  0  0  0  0  0  0
  153.5193  141.6667  160.2558 C   0  0  2  0  0  0  0  0  0  0  0  0
  152.7123  142.7270  161.0353 C   0  0  0  0  0  0  0  0  0  0  0  0
  152.0105  143.6506  160.1604 N   0  0  0  0  0  0  0  0  0  0  0  0
  151.6950  144.9735  160.3886 C   0  0  0  0  0  0  0  0  0  0  0  0
  151.0538  145.4359  159.2754 C   0  0  0  0  0  0  0  0  0  0  0  0
  151.0220  144.3068  158.4100 C   0  0  0  0  0  0  0  0  0  0  0  0
  151.5906  143.2382  158.9443 N   0  0  0  0  0  0  0  0  0  0  0  0
  152.6727  140.9918  159.2731 N   0  0  0  0  0  0  0  0  0  0  0  0
  153.0297  139.9371  158.5224 C   0  0  0  0  0  0  0  0  0  0  0  0
  154.1191  139.3715  158.6231 O   0  0  0  0  0  0  0  0  0  0  0  0
  152.0080  139.4687  157.4782 C   0  0  1  0  0  0  0  0  0  0  0  0
  151.5963  140.6334  156.5632 C   0  0  0  0  0  0  0  0  0  0  0  0
  150.5257  140.1918  155.5529 C   0  0  0  0  0  0  0  0  0  0  0  0
  150.8415  138.8508  154.8733 C   0  0  0  0  0  0  0  0  0  0  0  0
  150.2491  138.5418  153.8418 O   0  0  0  0  0  0  0  0  0  0  0  0
  151.7363  138.0245  155.4437 N   0  0  0  0  0  0  0  0  0  0  0  0
  152.5628  138.3148  156.6158 C   0  0  0  0  0  0  0  0  0  0  0  0
  154.7775  141.0852  161.9364 H   0  0  0  0  0  0  0  0  0  0  0  0
  154.7170  139.8886  160.6489 H   0  0  0  0  0  0  0  0  0  0  0  0
  153.3465  140.0766  161.7419 H   0  0  0  0  0  0  0  0  0  0  0  0
  154.3511  142.1629  159.7525 H   0  0  0  0  0  0  0  0  0  0  0  0
  151.9940  142.2485  161.7033 H   0  0  0  0  0  0  0  0  0  0  0  0
  153.3800  143.3134  161.6677 H   0  0  0  0  0  0  0  0  0  0  0  0
  151.9567  145.4713  161.3108 H   0  0  0  0  0  0  0  0  0  0  0  0
  150.6692  146.4303  159.1040 H   0  0  0  0  0  0  0  0  0  0  0  0
  150.6051  144.2321  157.4166 H   0  0  0  0  0  0  0  0  0  0  0  0
  151.7582  141.3902  159.1163 H   0  0  0  0  0  0  0  0  0  0  0  0
  151.1164  139.1119  157.9978 H   0  0  0  0  0  0  0  0  0  0  0  0
  151.2129  141.4646  157.1572 H   0  0  0  0  0  0  0  0  0  0  0  0
  152.4654  141.0166  156.0254 H   0  0  0  0  0  0  0  0  0  0  0  0
  149.5677  140.0848  156.0627 H   0  0  0  0  0  0  0  0  0  0  0  0
  150.3898  140.9623  154.7931 H   0  0  0  0  0  0  0  0  0  0  0  0
  151.8986  137.1369  154.9901 H   0  0  0  0  0  0  0  0  0  0  0  0
  153.5659  138.5471  156.2547 H   0  0  0  0  0  0  0  0  0  0  0  0
  152.6487  137.4070  157.2139 H   0  0  0  0  0  0  0  0  0  0  0  0
  1  2  1  0  0  0  0
  1 19  1  0  0  0  0
  1 20  1  0  0  0  0
  1 21  1  0  0  0  0
  2  3  1  0  0  0  0
  2  9  1  0  0  0  0
  2 22  1  0  0  0  0
  3  4  1  0  0  0  0
  3 23  1  0  0  0  0
  3 24  1  0  0  0  0
  4  8  1  0  0  0  0
  4  5  1  0  0  0  0
  5  6  2  0  0  0  0
  5 25  1  0  0  0  0
  6  7  1  0  0  0  0
  6 26  1  0  0  0  0
  7  8  2  0  0  0  0
  7 27  1  0  0  0  0
  9 10  1  0  0  0  0
  9 28  1  0  0  0  0
 10 11  2  0  0  0  0
 10 12  1  0  0  0  0
 12 18  1  0  0  0  0
 12 13  1  0  0  0  0
 12 29  1  0  0  0  0
 13 14  1  0  0  0  0
 13 30  1  0  0  0  0
 13 31  1  0  0  0  0
 14 15  1  0  0  0  0
 14 32  1  0  0  0  0
 14 33  1  0  0  0  0
 15 16  2  0  0  0  0
 15 17  1  0  0  0  0
 17 18  1  0  0  0  0
 17 34  1  0  0  0  0
 18 35  1  0  0  0  0
 18 36  1  0  0  0  0
M  END
> <s_m_source_file>
AV-unprocessed.smi

> <i_m_source_file_index>
1145

> <i_lp_mmshare_version>
43012

> <i_f3d_flags>
0

> <s_epik_input>
bjFbY0hdW2NIXVtjSF1uMVtDSDJdW0NAQEhdKFtDSDNdKVtOSF1DKD1PKVtDQEBIXTJbQ0gyXVtDSDJdQyg9TylbTkhdW0NIMl0y

> <s_epik_cmdline>
J2VwaWtfcHl0aG9uJywgJy1waCcsICc3LjAnLCAnLXRuJywgJzgnLCAnLW1hJywgJzIwMCcsICctbWV0YWxfYmluZGluZycsICctaW1hZScsICc8aW5maWxlLm1hZT4nLCAnLW9tYWUnLCAnPG91dGZpbGUubWFlPic=

> <r_lp_tautomer_probability>
1

> <r_epik_Ionization_Penalty>
0.000314064

> <r_epik_Ionization_Penalty_Charging>
0

> <r_epik_Ionization_Penalty_Neutral>
0.000314064

> <r_epik_State_Penalty>
-0

> <r_epik_Charging_Adjusted_Penalty>
0

> <i_epik_Tot_Q>
0

> <i_epik_Tot_abs_Q>
0

> <r_epik_Metal_State_Penalty>
-0

> <b_epik_Metal_Only>
0

> <s_lp_Force_Field>
OPLS_2005

> <r_lp_Energy>
12.228

> <b_lp_Chiralities_Consistent>
1

> <s_lp_Variant>
AV-unprocessed.smi:1145-3

> <Gold.Version>
5.8.1

> <Gold.Id.Protein>
6NUR|6NUR_protein|mol2

> <Gold.PLP.Fitness>
43.2720

> <Gold.PLP.PLP>
-38.2563

> <Gold.PLP.part.hbond>
-1.0000

> <Gold.PLP.part.metal>
0.0000

> <Gold.PLP.part.buried>
-3.5518

> <Gold.PLP.part.nonpolar>
-33.4984

> <Gold.PLP.part.repulsive>
1.2949

> <Gold.PLP.ligand.clash>
0.0000

> <Gold.PLP.ligand.torsion>
0.4995

> <Gold.PLP.Chemscore.Hbond>
1.0000

> <Gold.PLP.Chemscore.CHOScore>
0.9947

> <Gold.PLP.Chemscore.Metal>
0.0000

> <Gold.Chemscore.Hbonds>
donor molecule, donor type, donor heavy atom, donor atom, acceptor molecule, acceptor atom, score
      P1  H  7997  8008       L1    11  1.00
      L1  C     7    27       P1  8028  1.00

> <Gold.PLP.Chemscore.Internal.Correction>
0.0306

> <Gold.Rescore>
     Score         DG    S(hbond)    S(metal)    S(lipo)     H(rot)  DE(clash)    DE(int)     intcor
     11.96     -13.68       0.95        0.00      82.29       1.80       0.19       1.53       ----

> <Gold.Chemscore.Fitness>
11.9594

> <Gold.Chemscore.DG>
-13.6832

> <Gold.Chemscore.ZeroCoef>
-5.4800

> <Gold.Chemscore.Hbond>
0.9516

> <Gold.Chemscore.Metal>
0.0000

> <Gold.Chemscore.Lipo>
82.2946

> <Gold.Chemscore.Internal_Hbond>
0.0000

> <Gold.Chemscore.DEClash>
0.1917

> <Gold.Chemscore.DEInternal>
1.5321

> <Gold.Chemscore.Rot>
1.7982

> <Gold.Chemscore.Internal.Correction>
   9.000000E+99

> <Gold.Chemscore.Hbonds>
donor molecule, donor type, donor heavy atom, donor atom, acceptor molecule, acceptor atom, score
      P1  H  7997  8008       L1    11  0.30

> <Gold.Chemscore.Hbond.Weighted>
-3.1782

> <Gold.Chemscore.Metal.Weighted>
-0.0000

> <Gold.Chemscore.Lipo.Weighted>
-9.6285

> <Gold.Chemscore.Internal_Hbond.Weighted>
0.0000

> <Gold.Chemscore.DEClash.Weighted>
0.1917

> <Gold.Chemscore.DEInternal.Weighted>
1.5321

> <Gold.Chemscore.Rot.Weighted>
4.6035

> <Gold.Chemscore.Internal.Correction.Weighted>
   9.000000E+99

> <Gold.Protein.RotatedTorsions>
[ 6907 6896 6895 6894 ] final  -13.40 input  -60.11 | X-H torsion
[ 7974 7965 7964 7962 ] final -168.55 input  175.53 | X-H torsion
[ 8008 7997 7996 7995 ] final -109.98 input   59.86 | X-H torsion
[ 10167 10162 10161 10158 ] final  -74.32 input  -65.29 | X-H torsion
[ 10718 10713 10712 10709 ] final   59.78 input   66.30 | X-H torsion
[ 10763 10752 10751 10750 ] final   38.27 input  -60.55 | X-H torsion
[ 11005 11000 10999 10996 ] final -164.21 input  -57.11 | X-H torsion

> <Gold.Protein.ActiveResidues>
 VAL166  LYS551  ARG553  GLY616  TRP617  ASP618  TYR619  PRO620  LYS621  CYS622 
 ASP623  PHE694  ASN695  SER759  ASP760  ASP761  ALA762  ILE779  LEU786  VAL792 
 PHE793  MET794  SER795  GLU796  ALA797  LYS798  CYS799  TRP800  GLU811  SER814 

> <Gold.Protein.RotatedAtoms>
  151.3555  135.0893  159.9416 H   0  0  0  0  0  0  0  0  0  0  0  0  # atno 6907 bound_to 6896
  152.5176  133.9310  159.7591 H   0  0  0  0  0  0  0  0  0  0  0  0  # atno 6908 bound_to 6896
  150.9694  133.6306  159.2770 H   0  0  0  0  0  0  0  0  0  0  0  0  # atno 6909 bound_to 6896
  144.7201  140.2354  143.6298 H   0  0  0  0  0  0  0  0  0  0  0  0  # atno 7974 bound_to 7965
  154.9676  140.0398  157.2219 H   0  0  0  0  0  0  0  0  0  0  0  0  # atno 8008 bound_to 7997
  154.7831  140.2822  155.6026 H   0  0  0  0  0  0  0  0  0  0  0  0  # atno 8009 bound_to 7997
  156.2939  140.2588  156.2661 H   0  0  0  0  0  0  0  0  0  0  0  0  # atno 8010 bound_to 7997
  140.5037  143.2356  151.7710 H   0  0  0  0  0  0  0  0  0  0  0  0  # atno 10167 bound_to 10162
  157.5702  130.8901  149.9254 H   0  0  0  0  0  0  0  0  0  0  0  0  # atno 10718 bound_to 10713
  153.0007  135.6254  154.2277 H   0  0  0  0  0  0  0  0  0  0  0  0  # atno 10763 bound_to 10752
  154.2020  135.2804  155.2989 H   0  0  0  0  0  0  0  0  0  0  0  0  # atno 10764 bound_to 10752
  154.5676  135.5686  153.7124 H   0  0  0  0  0  0  0  0  0  0  0  0  # atno 10765 bound_to 10752
  140.5894  134.5060  157.5190 H   0  0  0  0  0  0  0  0  0  0  0  0  # atno 11005 bound_to 11000
  145.8371  139.2112  143.1849 LP  0  0  0  0  0  0  0  0  0  0  0  0  # atno 17320 bound_to 7965
  146.0379  140.8193  142.9843 LP  0  0  0  0  0  0  0  0  0  0  0  0  # atno 17321 bound_to 7965
  139.4878  144.4487  151.9680 LP  0  0  0  0  0  0  0  0  0  0  0  0  # atno 17342 bound_to 10162
  140.3577  144.3012  150.5938 LP  0  0  0  0  0  0  0  0  0  0  0  0  # atno 17343 bound_to 10162
  156.0748  130.3680  150.0701 LP  0  0  0  0  0  0  0  0  0  0  0  0  # atno 17370 bound_to 10713
  156.8855  130.9571  151.3594 LP  0  0  0  0  0  0  0  0  0  0  0  0  # atno 17371 bound_to 10713
  139.9281  134.8017  156.1010 LP  0  0  0  0  0  0  0  0  0  0  0  0  # atno 17394 bound_to 11000
  141.0945  133.6701  156.2613 LP  0  0  0  0  0  0  0  0  0  0  0  0  # atno 17395 bound_to 11000

$$$$
