AV-unprocessed.smi:989|AV-procd|sdf|4325|dock9
  -GOLD-   22720 2233D 1   1.00000     0.00000
 Structure written by MMmdl.
 26 27  0  0  0  0  0  0  0  0  2 V2000
  154.1563  135.3445  159.2611 O   0  0  0  0  0  0  0  0  0  0  0  0
  154.0640  136.2299  158.3824 C   0  0  0  0  0  0  0  0  0  0  0  0
  153.7236  136.0395  157.1934 O   0  5  0  0  0  0  0  0  0  0  0  0
  154.4189  137.6617  158.7925 C   0  0  0  0  0  0  0  0  0  0  0  0
  153.1980  138.5220  158.6272 C   0  0  0  0  0  0  0  0  0  0  0  0
  151.8968  138.0924  158.5198 C   0  0  0  0  0  0  0  0  0  0  0  0
  150.7797  139.4174  158.3423 S   0  0  0  0  0  0  0  0  0  0  0  0
  152.1500  140.5296  158.3983 C   0  0  0  0  0  0  0  0  0  0  0  0
  152.0627  141.9536  158.3413 N   0  0  0  0  0  0  0  0  0  0  0  0
  152.9899  142.7165  159.1969 C   0  0  0  0  0  0  0  0  0  0  0  0
  152.3518  144.0106  159.7065 C   0  0  0  0  0  0  0  0  0  0  0  0
  151.7665  144.7816  158.5261 C   0  0  0  0  0  0  0  0  0  0  0  0
  151.0208  143.8910  157.6436 N   0  0  0  0  0  0  0  0  0  0  0  0
  151.2204  142.5690  157.4626 C   0  0  0  0  0  0  0  0  0  0  0  0
  150.6137  141.9778  156.5699 O   0  0  0  0  0  0  0  0  0  0  0  0
  153.3273  139.9138  158.5516 N   0  0  0  0  0  0  0  0  0  0  0  0
  154.7770  137.6787  159.8229 H   0  0  0  0  0  0  0  0  0  0  0  0
  155.2369  138.0213  158.1673 H   0  0  0  0  0  0  0  0  0  0  0  0
  151.5311  137.0768  158.5469 H   0  0  0  0  0  0  0  0  0  0  0  0
  153.3096  142.1228  160.0546 H   0  0  0  0  0  0  0  0  0  0  0  0
  153.8872  142.9428  158.6190 H   0  0  0  0  0  0  0  0  0  0  0  0
  151.5581  143.7680  160.4146 H   0  0  0  0  0  0  0  0  0  0  0  0
  153.0795  144.6188  160.2445 H   0  0  0  0  0  0  0  0  0  0  0  0
  151.1151  145.5833  158.8747 H   0  0  0  0  0  0  0  0  0  0  0  0
  152.5657  145.2452  157.9469 H   0  0  0  0  0  0  0  0  0  0  0  0
  150.3530  144.3360  157.0305 H   0  0  0  0  0  0  0  0  0  0  0  0
  1  2  2  0  0  0  0
  2  3  1  0  0  0  0
  2  4  1  0  0  0  0
  4  5  1  0  0  0  0
  4 17  1  0  0  0  0
  4 18  1  0  0  0  0
  5 16  1  0  0  0  0
  5  6  2  0  0  0  0
  6  7  1  0  0  0  0
  6 19  1  0  0  0  0
  7  8  1  0  0  0  0
  8  9  1  0  0  0  0
  8 16  2  0  0  0  0
  9 14  1  0  0  0  0
  9 10  1  0  0  0  0
 10 11  1  0  0  0  0
 10 20  1  0  0  0  0
 10 21  1  0  0  0  0
 11 12  1  0  0  0  0
 11 22  1  0  0  0  0
 11 23  1  0  0  0  0
 12 13  1  0  0  0  0
 12 24  1  0  0  0  0
 12 25  1  0  0  0  0
 13 14  1  0  0  0  0
 13 26  1  0  0  0  0
 14 15  2  0  0  0  0
M  CHG  1   3  -1
M  END
> <s_m_source_file>
AV-unprocessed.smi

> <i_m_source_file_index>
989

> <i_lp_mmshare_version>
43012

> <i_f3d_flags>
0

> <s_epik_input>
Tz1DKFtPSF0pW0NIMl1jMVtjSF1zYyhuMSlOMltDSDJdW0NIMl1bQ0gyXVtOSF1DMj1P

> <s_epik_cmdline>
J2VwaWtfcHl0aG9uJywgJy1waCcsICc3LjAnLCAnLXRuJywgJzgnLCAnLW1hJywgJzIwMCcsICctbWV0YWxfYmluZGluZycsICctaW1hZScsICc8aW5maWxlLm1hZT4nLCAnLW9tYWUnLCAnPG91dGZpbGUubWFlPic=

> <r_lp_tautomer_probability>
1

> <r_epik_Ionization_Penalty>
0.00100312

> <r_epik_Ionization_Penalty_Charging>
0.000722293

> <r_epik_Ionization_Penalty_Neutral>
0.000280832

> <r_epik_State_Penalty>
0.000460635

> <r_epik_Charging_Adjusted_Penalty>
0.00118293

> <i_epik_Tot_Q>
-1

> <i_epik_Tot_abs_Q>
1

> <r_epik_Metal_State_Penalty>
-0

> <b_epik_Metal_Only>
0

> <s_lp_Force_Field>
OPLS_2005

> <r_lp_Energy>
35.7011

> <b_lp_Chiralities_Consistent>
1

> <s_lp_Variant>
AV-unprocessed.smi:989-1

> <Gold.Version>
5.8.1

> <Gold.Id.Protein>
6NUR|6NUR_protein|mol2

> <Gold.PLP.Fitness>
44.9191

> <Gold.PLP.PLP>
-28.6411

> <Gold.PLP.part.hbond>
-4.0000

> <Gold.PLP.part.metal>
0.0000

> <Gold.PLP.part.buried>
-5.3565

> <Gold.PLP.part.nonpolar>
-19.8367

> <Gold.PLP.part.repulsive>
0.1098

> <Gold.PLP.ligand.clash>
0.0000

> <Gold.PLP.ligand.torsion>
0.8645

> <Gold.PLP.Chemscore.Hbond>
6.0000

> <Gold.PLP.Chemscore.CHOScore>
0.0000

> <Gold.PLP.Chemscore.Metal>
0.0000

> <Gold.Chemscore.Hbonds>
donor molecule, donor type, donor heavy atom, donor atom, acceptor molecule, acceptor atom, score
      L1  H    13    26       P1  8028  1.00
      P1  H  6896  6907       L1     1  2.00
      P1  H  7997  8009       L1    16  1.00
      P1  H 10752 10765       L1     3  2.00

> <Gold.PLP.Chemscore.Internal.Correction>
0.0070

> <Gold.Rescore>
     Score         DG    S(hbond)    S(metal)    S(lipo)     H(rot)  DE(clash)    DE(int)     intcor
     18.72     -19.73       3.58        0.00      53.40       1.54       0.00       1.02       ----

> <Gold.Chemscore.Fitness>
18.7170

> <Gold.Chemscore.DG>
-19.7341

> <Gold.Chemscore.ZeroCoef>
-5.4800

> <Gold.Chemscore.Hbond>
3.5764

> <Gold.Chemscore.Metal>
0.0000

> <Gold.Chemscore.Lipo>
53.3995

> <Gold.Chemscore.Internal_Hbond>
0.0000

> <Gold.Chemscore.DEClash>
0.0000

> <Gold.Chemscore.DEInternal>
1.0171

> <Gold.Chemscore.Rot>
1.5386

> <Gold.Chemscore.Internal.Correction>
   9.000000E+99

> <Gold.Chemscore.Hbonds>
donor molecule, donor type, donor heavy atom, donor atom, acceptor molecule, acceptor atom, score
      L1  H    13    26       P1  8028  0.83
      P1  H  6896  6907       L1     1  0.89
      P1  H  7997  8009       L1    16  0.21
      P1  H 10752 10765       L1     3  0.99

> <Gold.Chemscore.Hbond.Weighted>
-11.9452

> <Gold.Chemscore.Metal.Weighted>
-0.0000

> <Gold.Chemscore.Lipo.Weighted>
-6.2477

> <Gold.Chemscore.Internal_Hbond.Weighted>
0.0000

> <Gold.Chemscore.DEClash.Weighted>
0.0000

> <Gold.Chemscore.DEInternal.Weighted>
1.0171

> <Gold.Chemscore.Rot.Weighted>
3.9388

> <Gold.Chemscore.Internal.Correction.Weighted>
   9.000000E+99

> <Gold.Protein.RotatedTorsions>
[ 6907 6896 6895 6894 ] final   60.24 input  -60.11 | X-H torsion
[ 7974 7965 7964 7962 ] final  103.45 input  175.53 | X-H torsion
[ 8008 7997 7996 7995 ] final  159.90 input   59.86 | X-H torsion
[ 10167 10162 10161 10158 ] final    9.75 input  -65.29 | X-H torsion
[ 10718 10713 10712 10709 ] final -107.36 input   66.30 | X-H torsion
[ 10763 10752 10751 10750 ] final  -99.11 input  -60.55 | X-H torsion
[ 11005 11000 10999 10996 ] final  -43.59 input  -57.11 | X-H torsion

> <Gold.Protein.ActiveResidues>
 VAL166  LYS551  ARG553  GLY616  TRP617  ASP618  TYR619  PRO620  LYS621  CYS622 
 ASP623  PHE694  ASN695  SER759  ASP760  ASP761  ALA762  ILE779  LEU786  VAL792 
 PHE793  MET794  SER795  GLU796  ALA797  LYS798  CYS799  TRP800  GLU811  SER814 

> <Gold.Protein.RotatedAtoms>
  152.3985  134.6325  160.0079 H   0  0  0  0  0  0  0  0  0  0  0  0  # atno 6907 bound_to 6896
  151.6537  133.3314  159.3166 H   0  0  0  0  0  0  0  0  0  0  0  0  # atno 6908 bound_to 6896
  150.7889  134.6940  159.6557 H   0  0  0  0  0  0  0  0  0  0  0  0  # atno 6909 bound_to 6896
  145.3457  139.2451  143.3585 H   0  0  0  0  0  0  0  0  0  0  0  0  # atno 7974 bound_to 7965
  156.2208  140.1819  156.7480 H   0  0  0  0  0  0  0  0  0  0  0  0  # atno 8008 bound_to 7997
  154.5863  140.0658  156.9204 H   0  0  0  0  0  0  0  0  0  0  0  0  # atno 8009 bound_to 7997
  155.2414  140.3322  155.4294 H   0  0  0  0  0  0  0  0  0  0  0  0  # atno 8010 bound_to 7997
  140.6236  143.8150  150.7205 H   0  0  0  0  0  0  0  0  0  0  0  0  # atno 10167 bound_to 10162
  156.0433  130.5658  150.7810 H   0  0  0  0  0  0  0  0  0  0  0  0  # atno 10718 bound_to 10713
  154.7471  135.4984  153.9223 H   0  0  0  0  0  0  0  0  0  0  0  0  # atno 10763 bound_to 10752
  153.1103  135.6707  153.9520 H   0  0  0  0  0  0  0  0  0  0  0  0  # atno 10764 bound_to 10752
  153.9281  135.3081  155.3425 H   0  0  0  0  0  0  0  0  0  0  0  0  # atno 10765 bound_to 10752
  141.0394  133.6786  156.2754 H   0  0  0  0  0  0  0  0  0  0  0  0  # atno 11005 bound_to 11000
  146.2989  140.4063  142.8711 LP  0  0  0  0  0  0  0  0  0  0  0  0  # atno 17320 bound_to 7965
  144.8756  140.7331  143.6019 LP  0  0  0  0  0  0  0  0  0  0  0  0  # atno 17321 bound_to 7965
  140.1746  143.4166  152.1976 LP  0  0  0  0  0  0  0  0  0  0  0  0  # atno 17342 bound_to 10162
  139.5460  144.7298  151.4582 LP  0  0  0  0  0  0  0  0  0  0  0  0  # atno 17343 bound_to 10162
  157.5278  131.0935  150.9995 LP  0  0  0  0  0  0  0  0  0  0  0  0  # atno 17370 bound_to 10713
  157.0309  130.5711  149.5343 LP  0  0  0  0  0  0  0  0  0  0  0  0  # atno 17371 bound_to 10713
  140.6262  134.5311  157.5554 LP  0  0  0  0  0  0  0  0  0  0  0  0  # atno 17394 bound_to 11000
  139.9264  134.8047  156.1055 LP  0  0  0  0  0  0  0  0  0  0  0  0  # atno 17395 bound_to 11000

$$$$
