AV-unprocessed.smi:256|AV-procd|sdf|1961|dock2
  -GOLD-   2262021103D 1   1.00000     0.00000
 Structure written by MMmdl.
 61 64  0  0  0  0  0  0  0  0  1 V2000
  151.1931  145.4468  160.0491 C   0  0  0  0  0  0  0  0  0  0  0  0
  151.4923  144.0078  160.5031 C   0  0  0  0  0  0  0  0  0  0  0  0
  151.8151  143.0133  159.3629 C   0  0  2  0  0  0  0  0  0  0  0  0
  150.4958  142.6161  158.6545 C   0  0  0  0  0  0  0  0  0  0  0  0
  150.7534  141.7585  157.5001 N   0  0  0  0  0  0  0  0  0  0  0  0
  149.7355  141.5326  156.6301 C   0  0  0  0  0  0  0  0  0  0  0  0
  149.9915  141.4167  155.2988 N   0  0  0  0  0  0  0  0  0  0  0  0
  148.9959  141.1992  154.4348 C   0  0  0  0  0  0  0  0  0  0  0  0
  147.6919  141.0653  154.6811 N   0  0  0  0  0  0  0  0  0  0  0  0
  147.4270  141.1749  156.0142 C   0  0  0  0  0  0  0  0  0  0  0  0
  148.3801  141.4023  157.0476 C   0  0  0  0  0  0  0  0  0  0  0  0
  147.7394  141.4316  158.2811 N   0  0  0  0  0  0  0  0  0  0  0  0
  146.4810  141.2434  157.9924 C   0  0  0  0  0  0  0  0  0  0  0  0
  146.2022  141.0900  156.6532 N   0  0  0  0  0  0  0  0  0  0  0  0
  144.8937  140.8691  156.0559 C   0  0  0  0  0  0  0  0  0  0  0  0
  144.0949  142.1688  155.7863 C   0  0  0  0  0  0  0  0  0  0  0  0
  142.9017  141.8116  155.1107 O   0  0  0  0  0  0  0  0  0  0  0  0
  143.7141  142.8493  157.1167 C   0  0  0  0  0  0  0  0  0  0  0  0
  143.0704  144.2301  156.9001 C   0  0  0  0  0  0  0  0  0  0  0  0
  143.9352  145.0534  156.1272 O   0  0  0  0  0  0  0  0  0  0  0  0
  144.1634  144.5378  154.8215 C   0  0  0  0  0  0  0  0  0  0  0  0
  144.8705  143.1737  154.9059 C   0  0  0  0  0  0  0  0  0  0  0  0
  151.5396  140.5816  157.8488 C   0  0  0  0  0  0  0  0  0  0  0  0
  152.8401  141.0183  158.5358 C   0  0  0  0  0  0  0  0  0  0  0  0
  152.6173  141.8247  159.7417 N   0  0  0  0  0  0  0  0  0  0  0  0
  153.9209  142.1573  160.3365 C   0  0  0  0  0  0  0  0  0  0  0  0
  154.9489  141.0143  160.3714 C   0  0  0  0  0  0  0  0  0  0  0  0
  154.5055  140.0449  161.3064 O   0  0  0  0  0  0  0  0  0  0  0  0
  155.2559  140.0630  162.5083 C   0  0  0  0  0  0  0  0  0  0  0  0
  150.8742  146.0568  160.8940 H   0  0  0  0  0  0  0  0  0  0  0  0
  150.4018  145.4797  159.3005 H   0  0  0  0  0  0  0  0  0  0  0  0
  152.0741  145.9245  159.6214 H   0  0  0  0  0  0  0  0  0  0  0  0
  152.3414  144.0406  161.1869 H   0  0  0  0  0  0  0  0  0  0  0  0
  150.6742  143.6277  161.1122 H   0  0  0  0  0  0  0  0  0  0  0  0
  152.3961  143.5786  158.6319 H   0  0  0  0  0  0  0  0  0  0  0  0
  149.8373  142.0847  159.3425 H   0  0  0  0  0  0  0  0  0  0  0  0
  149.9696  143.5152  158.3302 H   0  0  0  0  0  0  0  0  0  0  0  0
  149.2861  141.1207  153.3975 H   0  0  0  0  0  0  0  0  0  0  0  0
  145.7145  141.2167  158.7535 H   0  0  0  0  0  0  0  0  0  0  0  0
  145.0288  140.3073  155.1303 H   0  0  0  0  0  0  0  0  0  0  0  0
  144.3292  140.2176  156.7241 H   0  0  0  0  0  0  0  0  0  0  0  0
  142.9672  142.0968  154.2122 H   0  0  0  0  0  0  0  0  0  0  0  0
  143.0455  142.2114  157.6966 H   0  0  0  0  0  0  0  0  0  0  0  0
  144.6109  142.9806  157.7239 H   0  0  0  0  0  0  0  0  0  0  0  0
  142.0993  144.1409  156.4109 H   0  0  0  0  0  0  0  0  0  0  0  0
  142.8948  144.7132  157.8612 H   0  0  0  0  0  0  0  0  0  0  0  0
  143.2197  144.4591  154.2795 H   0  0  0  0  0  0  0  0  0  0  0  0
  144.7841  145.2439  154.2698 H   0  0  0  0  0  0  0  0  0  0  0  0
  145.8658  143.3247  155.3258 H   0  0  0  0  0  0  0  0  0  0  0  0
  145.0184  142.7784  153.9002 H   0  0  0  0  0  0  0  0  0  0  0  0
  150.9569  139.9438  158.5148 H   0  0  0  0  0  0  0  0  0  0  0  0
  151.7797  139.9848  156.9700 H   0  0  0  0  0  0  0  0  0  0  0  0
  153.4043  140.1215  158.7942 H   0  0  0  0  0  0  0  0  0  0  0  0
  153.4542  141.5741  157.8252 H   0  0  0  0  0  0  0  0  0  0  0  0
  154.3905  142.9525  159.7552 H   0  0  0  0  0  0  0  0  0  0  0  0
  153.7858  142.5785  161.3336 H   0  0  0  0  0  0  0  0  0  0  0  0
  155.0768  140.5410  159.4010 H   0  0  0  0  0  0  0  0  0  0  0  0
  155.9217  141.4027  160.6769 H   0  0  0  0  0  0  0  0  0  0  0  0
  154.8696  139.3082  163.1935 H   0  0  0  0  0  0  0  0  0  0  0  0
  155.1862  141.0326  163.0031 H   0  0  0  0  0  0  0  0  0  0  0  0
  156.3069  139.8403  162.3202 H   0  0  0  0  0  0  0  0  0  0  0  0
  1  2  1  0  0  0  0
  1 30  1  0  0  0  0
  1 31  1  0  0  0  0
  1 32  1  0  0  0  0
  2  3  1  0  0  0  0
  2 33  1  0  0  0  0
  2 34  1  0  0  0  0
  3 25  1  0  0  0  0
  3  4  1  0  0  0  0
  3 35  1  0  0  0  0
  4  5  1  0  0  0  0
  4 36  1  0  0  0  0
  4 37  1  0  0  0  0
  5  6  1  0  0  0  0
  5 23  1  0  0  0  0
  6 11  1  0  0  0  0
  6  7  2  0  0  0  0
  7  8  1  0  0  0  0
  8  9  2  0  0  0  0
  8 38  1  0  0  0  0
  9 10  1  0  0  0  0
 10 14  1  0  0  0  0
 10 11  2  0  0  0  0
 11 12  1  0  0  0  0
 12 13  2  0  0  0  0
 13 14  1  0  0  0  0
 13 39  1  0  0  0  0
 14 15  1  0  0  0  0
 15 16  1  0  0  0  0
 15 40  1  0  0  0  0
 15 41  1  0  0  0  0
 16 22  1  0  0  0  0
 16 17  1  0  0  0  0
 16 18  1  0  0  0  0
 17 42  1  0  0  0  0
 18 19  1  0  0  0  0
 18 43  1  0  0  0  0
 18 44  1  0  0  0  0
 19 20  1  0  0  0  0
 19 45  1  0  0  0  0
 19 46  1  0  0  0  0
 20 21  1  0  0  0  0
 21 22  1  0  0  0  0
 21 47  1  0  0  0  0
 21 48  1  0  0  0  0
 22 49  1  0  0  0  0
 22 50  1  0  0  0  0
 23 24  1  0  0  0  0
 23 51  1  0  0  0  0
 23 52  1  0  0  0  0
 24 25  1  0  0  0  0
 24 53  1  0  0  0  0
 24 54  1  0  0  0  0
 25 26  1  0  0  0  0
 26 27  1  0  0  0  0
 26 55  1  0  0  0  0
 26 56  1  0  0  0  0
 27 28  1  0  0  0  0
 27 57  1  0  0  0  0
 27 58  1  0  0  0  0
 28 29  1  0  0  0  0
 29 59  1  0  0  0  0
 29 60  1  0  0  0  0
 29 61  1  0  0  0  0
M  END
> <s_m_source_file>
AV-unprocessed.smi

> <i_m_source_file_index>
256

> <i_lp_mmshare_version>
43012

> <i_f3d_flags>
0

> <s_epik_input>
W0NIM11PW0NIMl1bQ0gyXU4xW0NIMl1bQ0gyXU4oW0NIMl1bQ0BIXTFbQ0gyXVtDSDNdKWMobltjSF1uMiljKGMyMyluW2NIXW4zW0NIMl1DNChbT0hdKVtDSDJdW0NIMl1PW0NIMl1bQ0gyXTQ=

> <s_epik_cmdline>
J2VwaWtfcHl0aG9uJywgJy1waCcsICc3LjAnLCAnLXRuJywgJzgnLCAnLW1hJywgJzIwMCcsICctbWV0YWxfYmluZGluZycsICctaW1hZScsICc8aW5maWxlLm1hZT4nLCAnLW9tYWUnLCAnPG91dGZpbGUubWFlPic=

> <r_lp_tautomer_probability>
1

> <r_epik_Ionization_Penalty>
0.676279

> <r_epik_Ionization_Penalty_Charging>
0

> <r_epik_Ionization_Penalty_Neutral>
0.676279

> <r_epik_State_Penalty>
0.6855

> <r_epik_Charging_Adjusted_Penalty>
0.6855

> <i_epik_Tot_Q>
0

> <i_epik_Tot_abs_Q>
0

> <r_epik_Metal_State_Penalty>
0.678557

> <b_epik_Metal_Only>
0

> <s_lp_Force_Field>
OPLS_2005

> <r_lp_Energy>
62.0394

> <b_lp_Chiralities_Consistent>
1

> <s_lp_Variant>
AV-unprocessed.smi:256-5

> <Gold.Version>
5.8.1

> <Gold.Id.Protein>
6NUR|6NUR_protein|mol2

> <Gold.PLP.Fitness>
46.3928

> <Gold.PLP.PLP>
-43.2465

> <Gold.PLP.part.hbond>
-2.7112

> <Gold.PLP.part.metal>
0.0000

> <Gold.PLP.part.buried>
-7.6040

> <Gold.PLP.part.nonpolar>
-32.4992

> <Gold.PLP.part.repulsive>
0.4378

> <Gold.PLP.ligand.clash>
0.0000

> <Gold.PLP.ligand.torsion>
1.6632

> <Gold.PLP.Chemscore.Hbond>
1.0000

> <Gold.PLP.Chemscore.CHOScore>
1.0000

> <Gold.PLP.Chemscore.Metal>
0.0000

> <Gold.Chemscore.Hbonds>
donor molecule, donor type, donor heavy atom, donor atom, acceptor molecule, acceptor atom, score
      L1  H    17    42       P1 10174  0.53
      L1  C     8    38       P1  7957  1.00

> <Gold.PLP.Chemscore.Internal.Correction>
0.4728

> <Gold.Rescore>
     Score         DG    S(hbond)    S(metal)    S(lipo)     H(rot)  DE(clash)    DE(int)     intcor
      9.76     -12.96       0.74        0.00     105.52       2.87       0.54       2.66       ----

> <Gold.Chemscore.Fitness>
9.7615

> <Gold.Chemscore.DG>
-12.9630

> <Gold.Chemscore.ZeroCoef>
-5.4800

> <Gold.Chemscore.Hbond>
0.7438

> <Gold.Chemscore.Metal>
0.0000

> <Gold.Chemscore.Lipo>
105.5211

> <Gold.Chemscore.Internal_Hbond>
0.0000

> <Gold.Chemscore.DEClash>
0.5400

> <Gold.Chemscore.DEInternal>
2.6616

> <Gold.Chemscore.Rot>
2.8700

> <Gold.Chemscore.Internal.Correction>
   9.000000E+99

> <Gold.Chemscore.Hbonds>
donor molecule, donor type, donor heavy atom, donor atom, acceptor molecule, acceptor atom, score
      L1  H    17    42       P1 10174  0.05

> <Gold.Chemscore.Hbond.Weighted>
-2.4843

> <Gold.Chemscore.Metal.Weighted>
-0.0000

> <Gold.Chemscore.Lipo.Weighted>
-12.3460

> <Gold.Chemscore.Internal_Hbond.Weighted>
0.0000

> <Gold.Chemscore.DEClash.Weighted>
0.5400

> <Gold.Chemscore.DEInternal.Weighted>
2.6616

> <Gold.Chemscore.Rot.Weighted>
7.3472

> <Gold.Chemscore.Internal.Correction.Weighted>
   9.000000E+99

> <Gold.Protein.RotatedTorsions>
[ 6907 6896 6895 6894 ] final -133.63 input  -60.11 | X-H torsion
[ 7974 7965 7964 7962 ] final  123.64 input  175.53 | X-H torsion
[ 8008 7997 7996 7995 ] final  -30.08 input   59.86 | X-H torsion
[ 10167 10162 10161 10158 ] final   84.96 input  -65.29 | X-H torsion
[ 10718 10713 10712 10709 ] final   28.39 input   66.30 | X-H torsion
[ 10763 10752 10751 10750 ] final   43.22 input  -60.55 | X-H torsion
[ 11005 11000 10999 10996 ] final -102.02 input  -57.11 | X-H torsion

> <Gold.Protein.ActiveResidues>
 VAL166  LYS551  ARG553  GLY616  TRP617  ASP618  TYR619  PRO620  LYS621  CYS622 
 ASP623  PHE694  ASN695  SER759  ASP760  ASP761  ALA762  ILE779  LEU786  VAL792 
 PHE793  MET794  SER795  GLU796  ALA797  LYS798  CYS799  TRP800  GLU811  SER814 

> <Gold.Protein.RotatedAtoms>
  150.9762  133.6292  159.2729 H   0  0  0  0  0  0  0  0  0  0  0  0  # atno 6907 bound_to 6896
  151.3563  135.0894  159.9429 H   0  0  0  0  0  0  0  0  0  0  0  0  # atno 6908 bound_to 6896
  152.5200  133.9345  159.7651 H   0  0  0  0  0  0  0  0  0  0  0  0  # atno 6909 bound_to 6896
  145.0935  139.3569  143.4848 H   0  0  0  0  0  0  0  0  0  0  0  0  # atno 7974 bound_to 7965
  154.4264  140.1801  156.1351 H   0  0  0  0  0  0  0  0  0  0  0  0  # atno 8008 bound_to 7997
  156.0037  140.3357  155.6846 H   0  0  0  0  0  0  0  0  0  0  0  0  # atno 8009 bound_to 7997
  155.6208  140.0659  157.2669 H   0  0  0  0  0  0  0  0  0  0  0  0  # atno 8010 bound_to 7997
  139.9027  144.6320  150.8620 H   0  0  0  0  0  0  0  0  0  0  0  0  # atno 10167 bound_to 10162
  157.2328  130.7032  149.6321 H   0  0  0  0  0  0  0  0  0  0  0  0  # atno 10718 bound_to 10713
  152.9865  135.6108  154.3076 H   0  0  0  0  0  0  0  0  0  0  0  0  # atno 10763 bound_to 10752
  154.2793  135.2777  155.2706 H   0  0  0  0  0  0  0  0  0  0  0  0  # atno 10764 bound_to 10752
  154.5052  135.5856  153.6618 H   0  0  0  0  0  0  0  0  0  0  0  0  # atno 10765 bound_to 10752
  141.1207  133.8524  157.1306 H   0  0  0  0  0  0  0  0  0  0  0  0  # atno 11005 bound_to 11000
  146.3531  140.0781  142.8619 LP  0  0  0  0  0  0  0  0  0  0  0  0  # atno 17320 bound_to 7965
  145.1038  140.9362  143.4697 LP  0  0  0  0  0  0  0  0  0  0  0  0  # atno 17321 bound_to 7965
  140.7703  143.3425  151.2179 LP  0  0  0  0  0  0  0  0  0  0  0  0  # atno 17342 bound_to 10162
  139.7011  143.9531  152.2906 LP  0  0  0  0  0  0  0  0  0  0  0  0  # atno 17343 bound_to 10162
  155.9674  130.4483  150.5615 LP  0  0  0  0  0  0  0  0  0  0  0  0  # atno 17370 bound_to 10713
  157.3461  131.0725  151.1750 LP  0  0  0  0  0  0  0  0  0  0  0  0  # atno 17371 bound_to 10713
  140.0162  134.9966  157.0498 LP  0  0  0  0  0  0  0  0  0  0  0  0  # atno 17394 bound_to 11000
  140.4516  134.1576  155.7182 LP  0  0  0  0  0  0  0  0  0  0  0  0  # atno 17395 bound_to 11000

$$$$
