AV-unprocessed.smi:511|AV-procd|sdf|2765|dock6
  -GOLD-   2262023233D 1   1.00000     0.00000
 Structure written by MMmdl.
 45 47  0  0  0  0  0  0  0  0  1 V2000
  150.5912  140.8547  157.3342 C   0  0  0  0  0  0  0  0  0  0  0  0
  150.7763  139.4568  157.4615 O   0  0  0  0  0  0  0  0  0  0  0  0
  151.3904  139.0964  158.6882 C   0  0  0  0  0  0  0  0  0  0  0  0
  152.7848  139.7328  158.7701 C   0  0  0  0  0  0  0  0  0  0  0  0
  153.3524  139.6266  160.1131 N   0  0  0  0  0  0  0  0  0  0  0  0
  153.6715  140.6140  160.9970 C   0  0  0  0  0  0  0  0  0  0  0  0
  153.4364  141.9641  160.7340 N   0  0  0  0  0  0  0  0  0  0  0  0
  153.1259  143.0149  161.7009 C   0  0  0  0  0  0  0  0  0  0  0  0
  151.9098  143.8427  161.2412 C   0  0  0  0  0  0  0  0  0  0  0  0
  152.2245  144.4904  159.9681 N   0  0  0  0  0  0  0  0  0  0  0  0
  151.0798  145.2697  159.5202 C   0  0  0  0  0  0  0  0  0  0  0  0
  152.5337  143.4565  158.9803 C   0  0  0  0  0  0  0  0  0  0  0  0
  153.7353  142.6200  159.4642 C   0  0  0  0  0  0  0  0  0  0  0  0
  154.2697  140.1877  162.1136 N   0  0  0  0  0  0  0  0  0  0  0  0
  154.3081  138.8136  161.9436 C   0  0  0  0  0  0  0  0  0  0  0  0
  153.7667  138.4568  160.7525 C   0  0  0  0  0  0  0  0  0  0  0  0
  153.7102  137.0599  160.3031 C   0  0  0  0  0  0  0  0  0  0  0  0
  153.2407  136.7131  159.2215 O   0  0  0  0  0  0  0  0  0  0  0  0
  154.2336  136.1912  161.2022 N   0  0  0  0  0  0  0  0  0  0  0  0
  154.7895  136.4845  162.4178 C   0  0  0  0  0  0  0  0  0  0  0  0
  155.2282  135.5758  163.1223 O   0  0  0  0  0  0  0  0  0  0  0  0
  154.8331  137.8036  162.7963 N   0  0  0  0  0  0  0  0  0  0  0  0
  155.4184  138.2261  164.0703 C   0  0  0  0  0  0  0  0  0  0  0  0
  154.2153  135.2154  160.9441 H   0  0  0  0  0  0  0  0  0  0  0  0
  150.1202  141.0753  156.3764 H   0  0  0  0  0  0  0  0  0  0  0  0
  151.5444  141.3840  157.3709 H   0  0  0  0  0  0  0  0  0  0  0  0
  149.9451  141.2397  158.1244 H   0  0  0  0  0  0  0  0  0  0  0  0
  150.7791  139.4369  159.5251 H   0  0  0  0  0  0  0  0  0  0  0  0
  151.4689  138.0107  158.7618 H   0  0  0  0  0  0  0  0  0  0  0  0
  153.4361  139.2644  158.0402 H   0  0  0  0  0  0  0  0  0  0  0  0
  152.7436  140.7820  158.4804 H   0  0  0  0  0  0  0  0  0  0  0  0
  152.9536  142.5870  162.6876 H   0  0  0  0  0  0  0  0  0  0  0  0
  153.9960  143.6633  161.8144 H   0  0  0  0  0  0  0  0  0  0  0  0
  151.0278  143.2081  161.1401 H   0  0  0  0  0  0  0  0  0  0  0  0
  151.6776  144.6032  161.9878 H   0  0  0  0  0  0  0  0  0  0  0  0
  151.2992  145.7605  158.5714 H   0  0  0  0  0  0  0  0  0  0  0  0
  150.8384  146.0452  160.2479 H   0  0  0  0  0  0  0  0  0  0  0  0
  150.1979  144.6416  159.3845 H   0  0  0  0  0  0  0  0  0  0  0  0
  151.6670  142.8145  158.8145 H   0  0  0  0  0  0  0  0  0  0  0  0
  152.7738  143.9266  158.0259 H   0  0  0  0  0  0  0  0  0  0  0  0
  154.6225  143.2457  159.5723 H   0  0  0  0  0  0  0  0  0  0  0  0
  153.9751  141.8653  158.7145 H   0  0  0  0  0  0  0  0  0  0  0  0
  155.7730  137.4032  164.6917 H   0  0  0  0  0  0  0  0  0  0  0  0
  154.6820  138.7799  164.6532 H   0  0  0  0  0  0  0  0  0  0  0  0
  156.2665  138.8869  163.8876 H   0  0  0  0  0  0  0  0  0  0  0  0
  1  2  1  0  0  0  0
  1 25  1  0  0  0  0
  1 26  1  0  0  0  0
  1 27  1  0  0  0  0
  2  3  1  0  0  0  0
  3  4  1  0  0  0  0
  3 28  1  0  0  0  0
  3 29  1  0  0  0  0
  4  5  1  0  0  0  0
  4 30  1  0  0  0  0
  4 31  1  0  0  0  0
  5 16  1  0  0  0  0
  5  6  1  0  0  0  0
  6  7  1  0  0  0  0
  6 14  2  0  0  0  0
  7 13  1  0  0  0  0
  7  8  1  0  0  0  0
  8  9  1  0  0  0  0
  8 32  1  0  0  0  0
  8 33  1  0  0  0  0
  9 10  1  0  0  0  0
  9 34  1  0  0  0  0
  9 35  1  0  0  0  0
 10 11  1  0  0  0  0
 10 12  1  0  0  0  0
 11 36  1  0  0  0  0
 11 37  1  0  0  0  0
 11 38  1  0  0  0  0
 12 13  1  0  0  0  0
 12 39  1  0  0  0  0
 12 40  1  0  0  0  0
 13 41  1  0  0  0  0
 13 42  1  0  0  0  0
 14 15  1  0  0  0  0
 15 22  1  0  0  0  0
 15 16  2  0  0  0  0
 16 17  1  0  0  0  0
 17 18  2  0  0  0  0
 17 19  1  0  0  0  0
 19 24  1  0  0  0  0
 19 20  1  0  0  0  0
 20 21  2  0  0  0  0
 20 22  1  0  0  0  0
 22 23  1  0  0  0  0
 23 43  1  0  0  0  0
 23 44  1  0  0  0  0
 23 45  1  0  0  0  0
M  END
> <s_m_source_file>
AV-unprocessed.smi

> <i_m_source_file_index>
511

> <i_lp_mmshare_version>
43012

> <i_f3d_flags>
0

> <s_epik_input>
W0NIM11uMWMoPU8pW25IXWMoPU8pYyhjMTIpbihbQ0gyXVtDSDJdT1tDSDNdKWMobjIpTjNbQ0gyXVtDSDJdTihbQ0gzXSlbQ0gyXVtDSDJdMw==

> <s_epik_cmdline>
J2VwaWtfcHl0aG9uJywgJy1waCcsICc3LjAnLCAnLXRuJywgJzgnLCAnLW1hJywgJzIwMCcsICctbWV0YWxfYmluZGluZycsICctaW1hZScsICc8aW5maWxlLm1hZT4nLCAnLW9tYWUnLCAnPG91dGZpbGUubWFlPic=

> <r_epik_Ionization_Penalty>
1.34394

> <r_epik_Ionization_Penalty_Charging>
1.59275e-05

> <r_epik_Ionization_Penalty_Neutral>
1.34392

> <r_epik_State_Penalty>
1.4212

> <r_epik_Charging_Adjusted_Penalty>
1.42122

> <i_epik_Tot_Q>
0

> <i_epik_Tot_abs_Q>
0

> <r_epik_Metal_State_Penalty>
1.44789

> <b_epik_Metal_Only>
0

> <s_lp_Force_Field>
OPLS_2005

> <r_lp_Energy>
49.2822

> <b_lp_Chiralities_Consistent>
1

> <s_lp_Variant>
AV-unprocessed.smi:511-2

> <Gold.Version>
5.8.1

> <Gold.Id.Protein>
6NUR|6NUR_protein|mol2

> <Gold.PLP.Fitness>
42.8969

> <Gold.PLP.PLP>
-42.4300

> <Gold.PLP.part.hbond>
-0.8026

> <Gold.PLP.part.metal>
0.0000

> <Gold.PLP.part.buried>
-7.2815

> <Gold.PLP.part.nonpolar>
-34.5772

> <Gold.PLP.part.repulsive>
0.1316

> <Gold.PLP.ligand.clash>
0.0000

> <Gold.PLP.ligand.torsion>
0.6786

> <Gold.PLP.Chemscore.Hbond>
0.5123

> <Gold.PLP.Chemscore.CHOScore>
0.0000

> <Gold.PLP.Chemscore.Metal>
0.0000

> <Gold.Chemscore.Hbonds>
donor molecule, donor type, donor heavy atom, donor atom, acceptor molecule, acceptor atom, score
      P1  H  6896  6909       L1    18  0.39

> <Gold.PLP.Chemscore.Internal.Correction>
0.2872

> <Gold.Rescore>
     Score         DG    S(hbond)    S(metal)    S(lipo)     H(rot)  DE(clash)    DE(int)     intcor
     11.56     -12.32       0.00        0.00      91.11       1.49       0.01       0.75       ----

> <Gold.Chemscore.Fitness>
11.5603

> <Gold.Chemscore.DG>
-12.3214

> <Gold.Chemscore.ZeroCoef>
-5.4800

> <Gold.Chemscore.Hbond>
0.0000

> <Gold.Chemscore.Metal>
0.0000

> <Gold.Chemscore.Lipo>
91.1087

> <Gold.Chemscore.Internal_Hbond>
0.0000

> <Gold.Chemscore.DEClash>
0.0150

> <Gold.Chemscore.DEInternal>
0.7461

> <Gold.Chemscore.Rot>
1.4915

> <Gold.Chemscore.Internal.Correction>
   9.000000E+99

> <Gold.Chemscore.Hbonds>
donor molecule, donor type, donor heavy atom, donor atom, acceptor molecule, acceptor atom, score
      P1  H  6896  6909       L1    18  0.05

> <Gold.Chemscore.Hbond.Weighted>
-0.0000

> <Gold.Chemscore.Metal.Weighted>
-0.0000

> <Gold.Chemscore.Lipo.Weighted>
-10.6597

> <Gold.Chemscore.Internal_Hbond.Weighted>
0.0000

> <Gold.Chemscore.DEClash.Weighted>
0.0150

> <Gold.Chemscore.DEInternal.Weighted>
0.7461

> <Gold.Chemscore.Rot.Weighted>
3.8183

> <Gold.Chemscore.Internal.Correction.Weighted>
   9.000000E+99

> <Gold.Protein.RotatedTorsions>
[ 6907 6896 6895 6894 ] final  141.55 input  -60.11 | X-H torsion
[ 7974 7965 7964 7962 ] final   41.97 input  175.53 | X-H torsion
[ 8008 7997 7996 7995 ] final   25.50 input   59.86 | X-H torsion
[ 10167 10162 10161 10158 ] final -161.93 input  -65.29 | X-H torsion
[ 10718 10713 10712 10709 ] final  -55.10 input   66.30 | X-H torsion
[ 10763 10752 10751 10750 ] final  128.70 input  -60.55 | X-H torsion
[ 11005 11000 10999 10996 ] final -144.07 input  -57.11 | X-H torsion

> <Gold.Protein.ActiveResidues>
 VAL166  LYS551  ARG553  GLY616  TRP617  ASP618  TYR619  PRO620  LYS621  CYS622 
 ASP623  PHE694  ASN695  SER759  ASP760  ASP761  ALA762  ILE779  LEU786  VAL792 
 PHE793  MET794  SER795  GLU796  ALA797  LYS798  CYS799  TRP800  GLU811  SER814 

> <Gold.Protein.RotatedAtoms>
  152.2296  133.5048  159.5208 H   0  0  0  0  0  0  0  0  0  0  0  0  # atno 6907 bound_to 6896
  150.7034  134.1234  159.4052 H   0  0  0  0  0  0  0  0  0  0  0  0  # atno 6908 bound_to 6896
  151.9155  135.0320  160.0568 H   0  0  0  0  0  0  0  0  0  0  0  0  # atno 6909 bound_to 6896
  146.0779  139.5354  142.9556 H   0  0  0  0  0  0  0  0  0  0  0  0  # atno 7974 bound_to 7965
  155.0127  140.3138  155.4823 H   0  0  0  0  0  0  0  0  0  0  0  0  # atno 8008 bound_to 7997
  156.2906  140.2211  156.5183 H   0  0  0  0  0  0  0  0  0  0  0  0  # atno 8009 bound_to 7997
  154.7520  140.0465  157.0890 H   0  0  0  0  0  0  0  0  0  0  0  0  # atno 8010 bound_to 7997
  139.6429  144.0226  152.2105 H   0  0  0  0  0  0  0  0  0  0  0  0  # atno 10167 bound_to 10162
  156.1396  130.4155  150.0126 H   0  0  0  0  0  0  0  0  0  0  0  0  # atno 10718 bound_to 10713
  153.7297  135.3240  155.3283 H   0  0  0  0  0  0  0  0  0  0  0  0  # atno 10763 bound_to 10752
  154.8330  135.4519  154.1134 H   0  0  0  0  0  0  0  0  0  0  0  0  # atno 10764 bound_to 10752
  153.2278  135.6956  153.8006 H   0  0  0  0  0  0  0  0  0  0  0  0  # atno 10765 bound_to 10752
  140.8062  134.2799  157.4959 H   0  0  0  0  0  0  0  0  0  0  0  0  # atno 11005 bound_to 11000
  145.6272  141.0311  143.1883 LP  0  0  0  0  0  0  0  0  0  0  0  0  # atno 17320 bound_to 7965
  144.7274  139.7833  143.7360 LP  0  0  0  0  0  0  0  0  0  0  0  0  # atno 17321 bound_to 7965
  139.9921  144.6354  150.7805 LP  0  0  0  0  0  0  0  0  0  0  0  0  # atno 17342 bound_to 10162
  140.7500  143.2948  151.3235 LP  0  0  0  0  0  0  0  0  0  0  0  0  # atno 17343 bound_to 10162
  156.8015  130.9292  151.3646 LP  0  0  0  0  0  0  0  0  0  0  0  0  # atno 17370 bound_to 10713
  157.6563  130.8927  149.9736 LP  0  0  0  0  0  0  0  0  0  0  0  0  # atno 17371 bound_to 10713
  139.8717  134.9457  156.3918 LP  0  0  0  0  0  0  0  0  0  0  0  0  # atno 17394 bound_to 11000
  140.9245  133.7622  155.9947 LP  0  0  0  0  0  0  0  0  0  0  0  0  # atno 17395 bound_to 11000

$$$$
