AV-unprocessed.smi:913|AV-procd|sdf|4148|dock1
  -GOLD-   22720 2 53D 1   1.00000     0.00000
 Structure written by MMmdl.
 21 21  0  0  0  0  0  0  0  0  2 V2000
  151.0110  144.0009  158.1315 C   0  0  0  0  0  0  0  0  0  0  0  0
  151.0099  142.6469  157.4539 C   0  0  0  0  0  0  0  0  0  0  0  0
  151.6270  141.6090  157.9178 N   0  0  0  0  0  0  0  0  0  0  0  0
  151.5406  140.4188  157.1886 C   0  0  0  0  0  0  0  0  0  0  0  0
  152.2338  139.3857  157.7864 N   0  0  0  0  0  0  0  0  0  0  0  0
  150.8426  140.3127  156.0241 C   0  0  0  0  0  0  0  0  0  0  0  0
  150.7556  139.0087  155.2318 C   0  0  0  0  0  0  0  0  0  0  0  0
  152.1152  138.4118  154.8527 C   0  0  0  0  0  0  0  0  0  0  0  0
  153.1130  139.1507  154.9999 O   0  0  0  0  0  0  0  0  0  0  0  0
  152.1420  137.2393  154.4169 O   0  5  0  0  0  0  0  0  0  0  0  0
  150.1481  141.5064  155.5054 C   0  0  0  0  0  0  0  0  0  0  0  0
  149.4915  141.5377  154.4656 O   0  0  0  0  0  0  0  0  0  0  0  0
  150.2753  142.6184  156.2667 N   0  0  0  0  0  0  0  0  0  0  0  0
  149.8156  143.4612  155.9551 H   0  0  0  0  0  0  0  0  0  0  0  0
  150.5957  143.9179  159.1364 H   0  0  0  0  0  0  0  0  0  0  0  0
  150.4190  144.7299  157.5763 H   0  0  0  0  0  0  0  0  0  0  0  0
  152.0306  144.3790  158.2114 H   0  0  0  0  0  0  0  0  0  0  0  0
  152.7310  139.5292  158.6544 H   0  0  0  0  0  0  0  0  0  0  0  0
  152.4676  138.5469  157.2755 H   0  0  0  0  0  0  0  0  0  0  0  0
  150.1857  138.2564  155.7778 H   0  0  0  0  0  0  0  0  0  0  0  0
  150.1897  139.1957  154.3183 H   0  0  0  0  0  0  0  0  0  0  0  0
  1  2  1  0  0  0  0
  1 15  1  0  0  0  0
  1 16  1  0  0  0  0
  1 17  1  0  0  0  0
  2 13  1  0  0  0  0
  2  3  2  0  0  0  0
  3  4  1  0  0  0  0
  4  5  1  0  0  0  0
  4  6  2  0  0  0  0
  5 18  1  0  0  0  0
  5 19  1  0  0  0  0
  6  7  1  0  0  0  0
  6 11  1  0  0  0  0
  7  8  1  0  0  0  0
  7 20  1  0  0  0  0
  7 21  1  0  0  0  0
  8  9  2  0  0  0  0
  8 10  1  0  0  0  0
 11 12  2  0  0  0  0
 11 13  1  0  0  0  0
 13 14  1  0  0  0  0
M  CHG  1  10  -1
M  END
> <s_m_source_file>
AV-unprocessed.smi

> <i_m_source_file_index>
913

> <i_lp_mmshare_version>
43012

> <i_f3d_flags>
0

> <s_epik_input>
W0NIM11jMW5jKFtOSDJdKWMoYyg9TylbbkhdMSlbQ0gyXUMoPU8pW09IXQ==

> <s_epik_cmdline>
J2VwaWtfcHl0aG9uJywgJy1waCcsICc3LjAnLCAnLXRuJywgJzgnLCAnLW1hJywgJzIwMCcsICctbWV0YWxfYmluZGluZycsICctaW1hZScsICc8aW5maWxlLm1hZT4nLCAnLW9tYWUnLCAnPG91dGZpbGUubWFlPic=

> <r_lp_tautomer_probability>
0.994035

> <r_epik_Ionization_Penalty>
0.00166212

> <r_epik_Ionization_Penalty_Charging>
0.00113713

> <r_epik_Ionization_Penalty_Neutral>
0.000524996

> <r_epik_State_Penalty>
7.90533e-05

> <r_epik_Charging_Adjusted_Penalty>
0.00121618

> <i_epik_Tot_Q>
-1

> <i_epik_Tot_abs_Q>
1

> <r_epik_Metal_State_Penalty>
0.236869

> <b_epik_Metal_Only>
0

> <s_lp_Force_Field>
OPLS_2005

> <r_lp_Energy>
5.01011

> <b_lp_Chiralities_Consistent>
1

> <s_lp_Variant>
AV-unprocessed.smi:913-1

> <Gold.Version>
5.8.1

> <Gold.Id.Protein>
6NUR|6NUR_protein|mol2

> <Gold.PLP.Fitness>
40.0196

> <Gold.PLP.PLP>
-25.0038

> <Gold.PLP.part.hbond>
-5.6673

> <Gold.PLP.part.metal>
0.0000

> <Gold.PLP.part.buried>
-3.4839

> <Gold.PLP.part.nonpolar>
-16.6390

> <Gold.PLP.part.repulsive>
0.6271

> <Gold.PLP.ligand.clash>
0.0000

> <Gold.PLP.ligand.torsion>
0.1599

> <Gold.PLP.Chemscore.Hbond>
5.1118

> <Gold.PLP.Chemscore.CHOScore>
0.0000

> <Gold.PLP.Chemscore.Metal>
0.0000

> <Gold.Chemscore.Hbonds>
donor molecule, donor type, donor heavy atom, donor atom, acceptor molecule, acceptor atom, score
      L1  H    13    14       P1  8028  1.00
      P1  H  7997  8009       L1     9  2.00
      P1  H  8011  8017       L1    12  0.15
      P1  H 10752 10765       L1    10  1.73

> <Gold.PLP.Chemscore.Internal.Correction>
0.0003

> <Gold.Rescore>
     Score         DG    S(hbond)    S(metal)    S(lipo)     H(rot)  DE(clash)    DE(int)     intcor
     14.11     -14.45       3.12        0.00      24.26       1.68       0.19       0.15       ----

> <Gold.Chemscore.Fitness>
14.1134

> <Gold.Chemscore.DG>
-14.4498

> <Gold.Chemscore.ZeroCoef>
-5.4800

> <Gold.Chemscore.Hbond>
3.1238

> <Gold.Chemscore.Metal>
0.0000

> <Gold.Chemscore.Lipo>
24.2603

> <Gold.Chemscore.Internal_Hbond>
0.0000

> <Gold.Chemscore.DEClash>
0.1861

> <Gold.Chemscore.DEInternal>
0.1504

> <Gold.Chemscore.Rot>
1.6806

> <Gold.Chemscore.Internal.Correction>
   9.000000E+99

> <Gold.Chemscore.Hbonds>
donor molecule, donor type, donor heavy atom, donor atom, acceptor molecule, acceptor atom, score
      L1  H    13    14       P1  8028  0.98
      P1  H  7997  8009       L1     9  1.00
      P1  H  8011  8017       L1    12  0.15
      P1  H 10752 10765       L1    10  0.85

> <Gold.Chemscore.Hbond.Weighted>
-10.4336

> <Gold.Chemscore.Metal.Weighted>
-0.0000

> <Gold.Chemscore.Lipo.Weighted>
-2.8385

> <Gold.Chemscore.Internal_Hbond.Weighted>
0.0000

> <Gold.Chemscore.DEClash.Weighted>
0.1861

> <Gold.Chemscore.DEInternal.Weighted>
0.1504

> <Gold.Chemscore.Rot.Weighted>
4.3022

> <Gold.Chemscore.Internal.Correction.Weighted>
   9.000000E+99

> <Gold.Protein.RotatedTorsions>
[ 6907 6896 6895 6894 ] final  -21.35 input  -60.11 | X-H torsion
[ 7974 7965 7964 7962 ] final   64.47 input  175.53 | X-H torsion
[ 8008 7997 7996 7995 ] final -140.54 input   59.86 | X-H torsion
[ 10167 10162 10161 10158 ] final    2.81 input  -65.29 | X-H torsion
[ 10718 10713 10712 10709 ] final  -83.50 input   66.30 | X-H torsion
[ 10763 10752 10751 10750 ] final  153.62 input  -60.55 | X-H torsion
[ 11005 11000 10999 10996 ] final  137.78 input  -57.11 | X-H torsion

> <Gold.Protein.ActiveResidues>
 VAL166  LYS551  ARG553  GLY616  TRP617  ASP618  TYR619  PRO620  LYS621  CYS622 
 ASP623  PHE694  ASN695  SER759  ASP760  ASP761  ALA762  ILE779  LEU786  VAL792 
 PHE793  MET794  SER795  GLU796  ALA797  LYS798  CYS799  TRP800  GLU811  SER814 

> <Gold.Protein.RotatedAtoms>
  151.2347  135.0567  159.9001 H   0  0  0  0  0  0  0  0  0  0  0  0  # atno 6907 bound_to 6896
  152.5400  134.0499  159.8115 H   0  0  0  0  0  0  0  0  0  0  0  0  # atno 6908 bound_to 6896
  151.0684  133.5438  159.2660 H   0  0  0  0  0  0  0  0  0  0  0  0  # atno 6909 bound_to 6896
  145.8498  139.3247  143.0882 H   0  0  0  0  0  0  0  0  0  0  0  0  # atno 7974 bound_to 7965
  155.4631  140.0547  157.2988 H   0  0  0  0  0  0  0  0  0  0  0  0  # atno 8008 bound_to 7997
  154.4729  140.2048  155.9904 H   0  0  0  0  0  0  0  0  0  0  0  0  # atno 8009 bound_to 7997
  156.1085  140.3208  155.8044 H   0  0  0  0  0  0  0  0  0  0  0  0  # atno 8010 bound_to 7997
  140.6617  143.7287  150.7751 H   0  0  0  0  0  0  0  0  0  0  0  0  # atno 10167 bound_to 10162
  156.0017  130.4668  150.4267 H   0  0  0  0  0  0  0  0  0  0  0  0  # atno 10718 bound_to 10713
  154.1391  135.2822  155.3165 H   0  0  0  0  0  0  0  0  0  0  0  0  # atno 10763 bound_to 10752
  154.6300  135.5438  153.7673 H   0  0  0  0  0  0  0  0  0  0  0  0  # atno 10764 bound_to 10752
  153.0256  135.6460  154.1539 H   0  0  0  0  0  0  0  0  0  0  0  0  # atno 10765 bound_to 10752
  140.0138  134.9427  157.0333 H   0  0  0  0  0  0  0  0  0  0  0  0  # atno 11005 bound_to 11000
  145.9370  140.9007  143.0327 LP  0  0  0  0  0  0  0  0  0  0  0  0  # atno 17320 bound_to 7965
  144.6729  140.1496  143.7431 LP  0  0  0  0  0  0  0  0  0  0  0  0  # atno 17321 bound_to 7965
  140.0956  143.4836  152.2454 LP  0  0  0  0  0  0  0  0  0  0  0  0  # atno 17342 bound_to 10162
  139.5853  144.7528  151.3536 LP  0  0  0  0  0  0  0  0  0  0  0  0  # atno 17343 bound_to 10162
  157.2319  131.0506  151.2487 LP  0  0  0  0  0  0  0  0  0  0  0  0  # atno 17370 bound_to 10713
  157.3702  130.7177  149.6560 LP  0  0  0  0  0  0  0  0  0  0  0  0  # atno 17371 bound_to 10713
  140.4508  134.1585  155.7181 LP  0  0  0  0  0  0  0  0  0  0  0  0  # atno 17394 bound_to 11000
  141.1729  133.8573  157.1515 LP  0  0  0  0  0  0  0  0  0  0  0  0  # atno 17395 bound_to 11000

$$$$
