AV-unprocessed.smi:3111|AV-procd|sdf|11833|dock4
  -GOLD-   2272017203D 1   1.00000     0.00000
 Structure written by MMmdl.
 29 29  0  0  0  0  0  0  0  0  1 V2000
  150.1338  125.9473  153.9804 C   0  0  0  0  0  0  0  0  0  0  0  0
  149.5802  126.7302  152.8862 N   0  0  0  0  0  0  0  0  0  0  0  0
  148.2727  126.9717  152.7186 C   0  0  0  0  0  0  0  0  0  0  0  0
  147.4079  126.5573  153.4924 O   0  0  0  0  0  0  0  0  0  0  0  0
  147.8961  127.8264  151.5014 C   0  0  0  0  0  0  0  0  0  0  0  0
  147.4904  129.1808  151.8669 N   0  0  0  0  0  0  0  0  0  0  0  0
  146.2309  129.5690  152.1247 C   0  0  0  0  0  0  0  0  0  0  0  0
  145.2617  128.8156  152.0247 O   0  0  0  0  0  0  0  0  0  0  0  0
  146.0524  131.0274  152.5757 C   0  0  1  0  0  0  0  0  0  0  0  0
  147.3852  131.7197  152.9186 C   0  0  0  0  0  0  0  0  0  0  0  0
  145.3105  131.7790  151.5728 N   0  0  0  0  0  0  0  0  0  0  0  0
  145.6129  131.8860  150.2206 C   0  0  0  0  0  0  0  0  0  0  0  0
  144.6517  132.6981  149.6628 C   0  0  0  0  0  0  0  0  0  0  0  0
  143.7525  133.1038  150.6453 N   0  0  0  0  0  0  0  0  0  0  0  0
  144.2062  132.5224  151.7480 C   0  0  0  0  0  0  0  0  0  0  0  0
  151.2196  125.9047  153.8950 H   0  0  0  0  0  0  0  0  0  0  0  0
  149.7499  124.9265  153.9602 H   0  0  0  0  0  0  0  0  0  0  0  0
  149.8844  126.3945  154.9434 H   0  0  0  0  0  0  0  0  0  0  0  0
  150.2301  127.1073  152.2117 H   0  0  0  0  0  0  0  0  0  0  0  0
  148.7630  127.8940  150.8439 H   0  0  0  0  0  0  0  0  0  0  0  0
  147.1055  127.3368  150.9296 H   0  0  0  0  0  0  0  0  0  0  0  0
  148.2281  129.8609  151.9806 H   0  0  0  0  0  0  0  0  0  0  0  0
  145.4498  131.0097  153.4854 H   0  0  0  0  0  0  0  0  0  0  0  0
  147.9292  131.1706  153.6879 H   0  0  0  0  0  0  0  0  0  0  0  0
  147.2119  132.7271  153.2983 H   0  0  0  0  0  0  0  0  0  0  0  0
  148.0357  131.8042  152.0470 H   0  0  0  0  0  0  0  0  0  0  0  0
  146.4644  131.3902  149.7782 H   0  0  0  0  0  0  0  0  0  0  0  0
  144.5402  133.0203  148.6380 H   0  0  0  0  0  0  0  0  0  0  0  0
  143.7254  132.6424  152.7079 H   0  0  0  0  0  0  0  0  0  0  0  0
  1  2  1  0  0  0  0
  1 16  1  0  0  0  0
  1 17  1  0  0  0  0
  1 18  1  0  0  0  0
  2  3  1  0  0  0  0
  2 19  1  0  0  0  0
  3  4  2  0  0  0  0
  3  5  1  0  0  0  0
  5  6  1  0  0  0  0
  5 20  1  0  0  0  0
  5 21  1  0  0  0  0
  6  7  1  0  0  0  0
  6 22  1  0  0  0  0
  7  8  2  0  0  0  0
  7  9  1  0  0  0  0
  9 10  1  0  0  0  0
  9 11  1  0  0  0  0
  9 23  1  0  0  0  0
 10 24  1  0  0  0  0
 10 25  1  0  0  0  0
 10 26  1  0  0  0  0
 11 15  1  0  0  0  0
 11 12  1  0  0  0  0
 12 13  2  0  0  0  0
 12 27  1  0  0  0  0
 13 14  1  0  0  0  0
 13 28  1  0  0  0  0
 14 15  2  0  0  0  0
 15 29  1  0  0  0  0
M  END
> <s_m_source_file>
AV-unprocessed.smi

> <i_m_source_file_index>
3111

> <i_lp_mmshare_version>
43012

> <i_f3d_flags>
0

> <s_epik_input>
W0NIM11bTkhdQyg9TylbQ0gyXVtOSF1DKD1PKVtDQEhdKFtDSDNdKW4xW2NIXVtjSF1uW2NIXTE=

> <s_epik_cmdline>
J2VwaWtfcHl0aG9uJywgJy1waCcsICc3LjAnLCAnLXRuJywgJzgnLCAnLW1hJywgJzIwMCcsICctbWV0YWxfYmluZGluZycsICctaW1hZScsICc8aW5maWxlLm1hZT4nLCAnLW9tYWUnLCAnPG91dGZpbGUubWFlPic=

> <r_lp_tautomer_probability>
1

> <r_epik_Ionization_Penalty>
0.278299

> <r_epik_Ionization_Penalty_Charging>
0.278299

> <r_epik_Ionization_Penalty_Neutral>
1.78617e-07

> <r_epik_State_Penalty>
0.270759

> <r_epik_Charging_Adjusted_Penalty>
0.549058

> <i_epik_Tot_Q>
0

> <i_epik_Tot_abs_Q>
0

> <r_epik_Metal_State_Penalty>
0.183212

> <b_epik_Metal_Only>
0

> <s_lp_Force_Field>
OPLS_2005

> <r_lp_Energy>
4.73549

> <b_lp_Chiralities_Consistent>
1

> <s_lp_Variant>
AV-unprocessed.smi:3111-2

> <Gold.Version>
5.8.1

> <Gold.Id.Protein>
6NUR|6NUR_protein|mol2

> <Gold.PLP.Fitness>
37.9931

> <Gold.PLP.PLP>
-27.4483

> <Gold.PLP.part.hbond>
-2.8679

> <Gold.PLP.part.metal>
0.0000

> <Gold.PLP.part.buried>
-3.9403

> <Gold.PLP.part.nonpolar>
-20.9647

> <Gold.PLP.part.repulsive>
0.3822

> <Gold.PLP.ligand.clash>
0.0000

> <Gold.PLP.ligand.torsion>
0.6892

> <Gold.PLP.Chemscore.Hbond>
1.3489

> <Gold.PLP.Chemscore.CHOScore>
2.5985

> <Gold.PLP.Chemscore.Metal>
0.0000

> <Gold.Chemscore.Hbonds>
donor molecule, donor type, donor heavy atom, donor atom, acceptor molecule, acceptor atom, score
      L1  H     2    19       P1 10737  1.00
      L1  H     6    22       P1 10747  0.34
      L1  C    12    27       P1 10747  0.83
      L1  C    13    28       P1  7921  0.72
      L1  C    15    29       P1 10957  0.75

> <Gold.PLP.Chemscore.Internal.Correction>
0.0812

> <Gold.Rescore>
     Score         DG    S(hbond)    S(metal)    S(lipo)     H(rot)  DE(clash)    DE(int)     intcor
      8.91      -9.23       1.27        0.00      45.54       2.27       0.01       0.30       ----

> <Gold.Chemscore.Fitness>
8.9148

> <Gold.Chemscore.DG>
-9.2296

> <Gold.Chemscore.ZeroCoef>
-5.4800

> <Gold.Chemscore.Hbond>
1.2679

> <Gold.Chemscore.Metal>
0.0000

> <Gold.Chemscore.Lipo>
45.5422

> <Gold.Chemscore.Internal_Hbond>
0.0000

> <Gold.Chemscore.DEClash>
0.0135

> <Gold.Chemscore.DEInternal>
0.3012

> <Gold.Chemscore.Rot>
2.2709

> <Gold.Chemscore.Internal.Correction>
   9.000000E+99

> <Gold.Chemscore.Hbonds>
donor molecule, donor type, donor heavy atom, donor atom, acceptor molecule, acceptor atom, score
      L1  H     2    19       P1 10737  0.95
      L1  H     6    22       P1 10747  0.24

> <Gold.Chemscore.Hbond.Weighted>
-4.2346

> <Gold.Chemscore.Metal.Weighted>
-0.0000

> <Gold.Chemscore.Lipo.Weighted>
-5.3284

> <Gold.Chemscore.Internal_Hbond.Weighted>
0.0000

> <Gold.Chemscore.DEClash.Weighted>
0.0135

> <Gold.Chemscore.DEInternal.Weighted>
0.3012

> <Gold.Chemscore.Rot.Weighted>
5.8135

> <Gold.Chemscore.Internal.Correction.Weighted>
   9.000000E+99

> <Gold.Protein.RotatedTorsions>
[ 6907 6896 6895 6894 ] final  108.58 input  -60.11 | X-H torsion
[ 7974 7965 7964 7962 ] final   97.89 input  175.53 | X-H torsion
[ 8008 7997 7996 7995 ] final   25.57 input   59.86 | X-H torsion
[ 10167 10162 10161 10158 ] final   39.43 input  -65.29 | X-H torsion
[ 10718 10713 10712 10709 ] final  169.97 input   66.30 | X-H torsion
[ 10763 10752 10751 10750 ] final -170.61 input  -60.55 | X-H torsion
[ 11005 11000 10999 10996 ] final -133.16 input  -57.11 | X-H torsion

> <Gold.Protein.ActiveResidues>
 VAL166  LYS551  ARG553  GLY616  TRP617  ASP618  TYR619  PRO620  LYS621  CYS622 
 ASP623  PHE694  ASN695  SER759  ASP760  ASP761  ALA762  ILE779  LEU786  VAL792 
 PHE793  MET794  SER795  GLU796  ALA797  LYS798  CYS799  TRP800  GLU811  SER814 

> <Gold.Protein.RotatedAtoms>
  152.5106  133.9068  159.7467 H   0  0  0  0  0  0  0  0  0  0  0  0  # atno 6907 bound_to 6896
  150.9471  133.6582  159.2786 H   0  0  0  0  0  0  0  0  0  0  0  0  # atno 6908 bound_to 6896
  151.3874  135.0955  159.9568 H   0  0  0  0  0  0  0  0  0  0  0  0  # atno 6909 bound_to 6896
  145.4195  139.2323  143.3204 H   0  0  0  0  0  0  0  0  0  0  0  0  # atno 7974 bound_to 7965
  155.0138  140.3139  155.4819 H   0  0  0  0  0  0  0  0  0  0  0  0  # atno 8008 bound_to 7997
  156.2904  140.2210  156.5194 H   0  0  0  0  0  0  0  0  0  0  0  0  # atno 8009 bound_to 7997
  154.7512  140.0466  157.0882 H   0  0  0  0  0  0  0  0  0  0  0  0  # atno 8010 bound_to 7997
  140.3840  144.1942  150.6130 H   0  0  0  0  0  0  0  0  0  0  0  0  # atno 10167 bound_to 10162
  157.0149  131.0215  151.2792 H   0  0  0  0  0  0  0  0  0  0  0  0  # atno 10718 bound_to 10713
  154.6396  135.2897  155.0120 H   0  0  0  0  0  0  0  0  0  0  0  0  # atno 10763 bound_to 10752
  154.1251  135.6542  153.4914 H   0  0  0  0  0  0  0  0  0  0  0  0  # atno 10764 bound_to 10752
  153.0319  135.5297  154.7257 H   0  0  0  0  0  0  0  0  0  0  0  0  # atno 10765 bound_to 10752
  140.9105  134.1574  157.4393 H   0  0  0  0  0  0  0  0  0  0  0  0  # atno 11005 bound_to 11000
  146.2664  140.4917  142.8832 LP  0  0  0  0  0  0  0  0  0  0  0  0  # atno 17320 bound_to 7965
  144.8255  140.6621  143.6325 LP  0  0  0  0  0  0  0  0  0  0  0  0  # atno 17321 bound_to 7965
  140.4908  143.2348  151.8821 LP  0  0  0  0  0  0  0  0  0  0  0  0  # atno 17342 bound_to 10162
  139.4793  144.5168  151.8857 LP  0  0  0  0  0  0  0  0  0  0  0  0  # atno 17343 bound_to 10162
  157.5293  130.8048  149.7898 LP  0  0  0  0  0  0  0  0  0  0  0  0  # atno 17370 bound_to 10713
  156.0123  130.3828  150.2224 LP  0  0  0  0  0  0  0  0  0  0  0  0  # atno 17371 bound_to 10713
  139.8757  134.9934  156.5642 LP  0  0  0  0  0  0  0  0  0  0  0  0  # atno 17394 bound_to 11000
  140.8116  133.8425  155.8815 LP  0  0  0  0  0  0  0  0  0  0  0  0  # atno 17395 bound_to 11000

$$$$
