#       Name:                AV-unprocessed.smi:1776
#       Creating user name   scv26
#       Creation time:       Fri Mar 27 08:41:28 2020


#       File generated by GOLD software.
#

@<TRIPOS>MOLECULE
AV-unprocessed.smi:1776
    39    40     1
SMALL
NO_CHARGES


@<TRIPOS>ATOM
      1 ****        -0.4495   1.6552   0.6846 O.2            1 S1                 0.0000
      2 ****        -0.7737   0.5057   0.3870 C.2            1 S1                 0.0000
      3 ****         0.0862  -0.5051   0.1466 N.am           1 S1                 0.0000
      4 ****         1.4918  -0.5292   0.1742 C.2            1 S1                 0.0000
      5 ****         2.2888   0.4884   0.5952 C.2            1 S1                 0.0000
      6 ****         3.7384   0.3828   0.6000 C.2            1 S1                 0.0000
      7 ****         4.6181   1.5556   1.0050 C.3            1 S1                 0.0000
      8 ****         5.8136   1.4929   0.4169 F              1 S1                 0.0000
      9 ****         4.0491   2.7148   0.6736 F              1 S1                 0.0000
     10 ****         4.8030   1.5477   2.3243 F              1 S1                 0.0000
     11 ****         4.2579  -0.7751   0.1523 C.2            1 S1                 0.0000
     12 ****         3.4469  -1.8314  -0.2671 N.am           1 S1                 0.0000
     13 ****         2.0959  -1.7907  -0.2872 C.2            1 S1                 0.0000
     14 ****         1.4522  -2.7660  -0.6730 O.2            1 S1                 0.0000
     15 ****        -2.2601   0.1339   0.2765 C.3            1 S1                 0.0000
     16 ****        -3.1932   1.3643   0.1884 C.3            1 S1                 0.0000
     17 ****        -4.5386   0.9255   0.0491 O.3            1 S1                 0.0000
     18 ****        -4.7082   0.1399  -1.1226 C.3            1 S1                 0.0000
     19 ****        -3.7914  -1.0908  -1.0332 C.3            1 S1                 0.0000
     20 ****        -2.4452  -0.6566  -0.8953 O.3            1 S1                 0.0000
     21 ****         3.9125  -2.6725  -0.5763 H              1 S1                 0.0000
     22 ****        -0.3377  -1.3841  -0.1150 H              1 S1                 0.0000
     23 ****         1.8745   1.4141   0.9566 H              1 S1                 0.0000
     24 ****         5.3157  -0.9796   0.0766 H              1 S1                 0.0000
     25 ****        -2.5176  -0.4596   1.1556 H              1 S1                 0.0000
     26 ****        -3.1217   1.9682   1.0938 H              1 S1                 0.0000
     27 ****        -2.9233   2.0081  -0.6509 H              1 S1                 0.0000
     28 ****        -5.7511  -0.1681  -1.1984 H              1 S1                 0.0000
     29 ****        -4.4815   0.7315  -2.0111 H              1 S1                 0.0000
     30 ****        -4.0717  -1.7259  -0.1913 H              1 S1                 0.0000
     31 ****        -3.8793  -1.6951  -1.9361 H              1 S1                 0.0000
     32 ****         0.5175   1.8973   0.7640 LP             1 S1                 0.0000
     33 ****        -1.1531   2.3470   0.8470 LP             1 S1                 0.0000
     34 ****         0.4528  -2.7320  -0.6863 LP             1 S1                 0.0000
     35 ****         1.9284  -3.5924  -0.9731 LP             1 S1                 0.0000
     36 ****        -5.1376   1.7245  -0.0051 LP             1 S1                 0.0000
     37 ****        -4.7864   0.3768   0.8476 LP             1 S1                 0.0000
     38 ****        -1.8505  -1.4587  -0.8416 LP             1 S1                 0.0000
     39 ****        -2.1977  -0.1110  -1.6959 LP             1 S1                 0.0000
@<TRIPOS>BOND
    1    1    2 2     
    2    2    3 am    
    3    2   15 1     
    4    3    4 1     
    5    3   22 1     
    6    4   13 1     
    7    4    5 2     
    8    5    6 1     
    9    5   23 1     
   10    6    7 1     
   11    6   11 2     
   12    7    8 1     
   13    7    9 1     
   14    7   10 1     
   15   11   12 1     
   16   11   24 1     
   17   12   21 1     
   18   12   13 am    
   19   13   14 2     
   20   15   20 1     
   21   15   16 1     
   22   15   25 1     
   23   16   17 1     
   24   16   26 1     
   25   16   27 1     
   26   17   18 1     
   27   18   19 1     
   28   18   28 1     
   29   18   29 1     
   30   19   20 1     
   31   19   30 1     
   32   19   31 1     
   33    1   32 1     
   34    1   33 1     
   35   14   34 1     
   36   14   35 1     
   37   17   36 1     
   38   17   37 1     
   39   20   38 1     
   40   20   39 1     
@<TRIPOS>SUBSTRUCTURE
      1 S1             1
@<TRIPOS>SET
LONE_PAIRS      STATIC     ATOMS    <user>   **** ""
8 32 33 34 35 36 37 38 39
DONOR_HYDROGENS      STATIC     ATOMS    <user>   **** ""
2 22 21
ATOM$BLUE        STATIC     ATOMS    COLORGROUP SYSTEM
8 32 33 34 35 36 37 38 39
ATOM$RED        STATIC     ATOMS    COLORGROUP SYSTEM
2 22 21
