#       Name:                AV-unprocessed.smi:1433
#       Creating user name   scv26
#       Creation time:       Fri Mar 27 05:49:58 2020


#       File generated by GOLD software.
#

@<TRIPOS>MOLECULE
AV-unprocessed.smi:1433
    50    51     1
SMALL
NO_CHARGES


@<TRIPOS>ATOM
      1 ****        -1.1795  -3.2245   3.0260 C.3            1 S1                 0.0000
      2 ****        -2.0484  -2.9645   1.7833 C.3            1 S1                 0.0000
      3 ****        -1.2995  -2.2228   0.6581 C.3            1 S1                 0.0000
      4 ****        -1.0796  -0.7983   0.9340 N.3            1 S1                 0.0000
      5 ****        -0.3874  -0.1006  -0.1755 C.3            1 S1                 0.0000
      6 ****        -0.1826   1.4118   0.1022 C.3            1 S1                 0.0000
      7 ****         0.9853  -0.7318  -0.5384 C.3            1 S1                 0.0000
      8 ****         1.6118  -0.0691  -1.6755 N.am           1 S1                 0.0000
      9 ****         2.9068  -0.1695  -2.0080 C.2            1 S1                 0.0000
     10 ****         3.7110  -0.8778  -1.4026 O.2            1 S1                 0.0000
     11 ****         3.3660   0.6593  -3.2089 C.3            1 S1                 0.0000
     12 ****         3.3132   2.0812  -2.9161 N.pl3          1 S1                 0.0000
     13 ****         4.2634   2.8617  -2.2911 C.2            1 S1                 0.0000
     14 ****         3.7669   4.1319  -2.2256 C.2            1 S1                 0.0000
     15 ****         2.4892   4.0283  -2.8436 C.2            1 S1                 0.0000
     16 ****         2.2204   2.8003  -3.2568 N.2            1 S1                 0.0000
     17 ****        -2.3770  -0.1958   1.2546 C.3            1 S1                 0.0000
     18 ****        -3.0953  -0.9019   2.4185 C.3            1 S1                 0.0000
     19 ****        -4.4848  -0.3110   2.6804 C.3            1 S1                 0.0000
     20 ****        -3.2563  -2.2823   2.1112 O.3            1 S1                 0.0000
     21 ****        -0.3248  -3.8533   2.7756 H              1 S1                 0.0000
     22 ****        -1.7510  -3.7379   3.7995 H              1 S1                 0.0000
     23 ****        -0.7884  -2.3021   3.4547 H              1 S1                 0.0000
     24 ****        -2.3461  -3.9399   1.3977 H              1 S1                 0.0000
     25 ****        -0.3552  -2.7421   0.5093 H              1 S1                 0.0000
     26 ****        -1.8634  -2.3273  -0.2702 H              1 S1                 0.0000
     27 ****        -1.0164  -0.1779  -1.0639 H              1 S1                 0.0000
     28 ****         0.3787   1.9122  -0.6864 H              1 S1                 0.0000
     29 ****         0.3569   1.5708   1.0364 H              1 S1                 0.0000
     30 ****        -1.1258   1.9530   0.1607 H              1 S1                 0.0000
     31 ****         1.6482  -0.6984   0.3283 H              1 S1                 0.0000
     32 ****         0.8874  -1.7765  -0.8285 H              1 S1                 0.0000
     33 ****         1.0257   0.5380  -2.2309 H              1 S1                 0.0000
     34 ****         4.3899   0.3949  -3.4765 H              1 S1                 0.0000
     35 ****         2.7394   0.4401  -4.0750 H              1 S1                 0.0000
     36 ****         5.2013   2.4506  -1.9472 H              1 S1                 0.0000
     37 ****         4.2427   5.0025  -1.7993 H              1 S1                 0.0000
     38 ****         1.7544   4.8036  -3.0030 H              1 S1                 0.0000
     39 ****        -2.2542   0.8453   1.5468 H              1 S1                 0.0000
     40 ****        -3.0156  -0.2031   0.3699 H              1 S1                 0.0000
     41 ****        -2.5034  -0.7974   3.3283 H              1 S1                 0.0000
     42 ****        -4.4205   0.7476   2.9337 H              1 S1                 0.0000
     43 ****        -4.9751  -0.8216   3.5095 H              1 S1                 0.0000
     44 ****        -5.1264  -0.4076   1.8040 H              1 S1                 0.0000
     45 ****        -0.4622  -0.7015   1.7146 LP             1 S1                 0.0000
     46 ****         3.4091  -1.4178  -0.6169 LP             1 S1                 0.0000
     47 ****         4.6662  -0.9132  -1.6964 LP             1 S1                 0.0000
     48 ****         1.3940   2.4768  -3.7178 LP             1 S1                 0.0000
     49 ****        -3.6627  -2.7330   2.9060 LP             1 S1                 0.0000
     50 ****        -3.8780  -2.3573   1.3315 LP             1 S1                 0.0000
@<TRIPOS>BOND
    1    1    2 1     
    2    1   21 1     
    3    1   22 1     
    4    1   23 1     
    5    2   20 1     
    6    2    3 1     
    7    2   24 1     
    8    3    4 1     
    9    3   25 1     
   10    3   26 1     
   11    4    5 1     
   12    4   17 1     
   13    5    6 1     
   14    5    7 1     
   15    5   27 1     
   16    6   28 1     
   17    6   29 1     
   18    6   30 1     
   19    7    8 1     
   20    7   31 1     
   21    7   32 1     
   22    8    9 am    
   23    8   33 1     
   24    9   10 2     
   25    9   11 1     
   26   11   12 1     
   27   11   34 1     
   28   11   35 1     
   29   12   16 1     
   30   12   13 1     
   31   13   14 2     
   32   13   36 1     
   33   14   15 1     
   34   14   37 1     
   35   15   16 2     
   36   15   38 1     
   37   17   18 1     
   38   17   39 1     
   39   17   40 1     
   40   18   19 1     
   41   18   20 1     
   42   18   41 1     
   43   19   42 1     
   44   19   43 1     
   45   19   44 1     
   46    4   45 1     
   47   10   46 1     
   48   10   47 1     
   49   16   48 1     
   50   20   49 1     
   51   20   50 1     
@<TRIPOS>SUBSTRUCTURE
      1 S1             1
@<TRIPOS>SET
LONE_PAIRS      STATIC     ATOMS    <user>   **** ""
6 45 46 47 48 49 50
DONOR_HYDROGENS      STATIC     ATOMS    <user>   **** ""
1 33
ATOM$BLUE        STATIC     ATOMS    COLORGROUP SYSTEM
6 45 46 47 48 49 50
ATOM$RED        STATIC     ATOMS    COLORGROUP SYSTEM
1 33
