#       Name:                AV-unprocessed.smi:2438
#       Creating user name   scv26
#       Creation time:       Fri Mar 27 13:23:32 2020


#       File generated by GOLD software.
#

@<TRIPOS>MOLECULE
AV-unprocessed.smi:2438
    48    49     1
SMALL
NO_CHARGES


@<TRIPOS>ATOM
      1 ****        -1.7887  -1.7384  -4.6949 C.3            1 S1                 0.0000
      2 ****        -1.1106  -0.8327  -3.7756 N.3            1 S1                 0.0000
      3 ****        -1.7447   0.4612  -3.5633 C.3            1 S1                 0.0000
      4 ****         0.2926  -0.7602  -3.8842 C.ar           1 S1                 0.0000
      5 ****         0.8399  -0.8682  -5.1169 N.ar           1 S1                 0.0000
      6 ****         2.1659  -0.7890  -5.2648 C.ar           1 S1                 0.0000
      7 ****         3.0023  -0.6076  -4.2351 N.pl3          1 S1                 1.0000
      8 ****         2.5062  -0.4968  -2.9798 C.ar           1 S1                 0.0000
      9 ****         1.1113  -0.5638  -2.7455 C.ar           1 S1                 0.0000
     10 ****         0.5178  -0.4940  -1.4511 N.am           1 S1                 0.0000
     11 ****         1.0668  -0.1147  -0.2849 C.2            1 S1                 0.0000
     12 ****         2.2283   0.2624  -0.1358 O.2            1 S1                 0.0000
     13 ****         0.1739  -0.1903   0.7121 N.am           1 S1                 0.0000
     14 ****         0.4240   0.1354   2.1139 C.3            1 S1                 0.0000
     15 ****         0.2730  -1.1304   2.9764 C.3            1 S1                 0.0000
     16 ****         0.4473  -0.8115   4.4685 C.3            1 S1                 0.0000
     17 ****        -0.5272   0.2870   4.9217 C.3            1 S1                 0.0000
     18 ****        -0.3769   1.5679   4.0735 C.3            1 S1                 0.0000
     19 ****        -1.3386   2.6828   4.5337 C.3            1 S1                 0.0000
     20 ****        -2.6088   2.3020   4.3937 F              1 S1                 0.0000
     21 ****        -1.1162   2.9780   5.8144 F              1 S1                 0.0000
     22 ****        -1.1373   3.7856   3.8125 F              1 S1                 0.0000
     23 ****        -0.5505   1.2354   2.5755 C.3            1 S1                 0.0000
     24 ****        -1.2782  -2.7014  -4.7411 H              1 S1                 0.0000
     25 ****        -1.8289  -1.3172  -5.7004 H              1 S1                 0.0000
     26 ****        -2.8108  -1.9181  -4.3608 H              1 S1                 0.0000
     27 ****        -1.2753   1.0156  -2.7505 H              1 S1                 0.0000
     28 ****        -2.7977   0.3299  -3.3124 H              1 S1                 0.0000
     29 ****        -1.6846   1.0672  -4.4682 H              1 S1                 0.0000
     30 ****         2.6115  -0.8759  -6.2449 H              1 S1                 0.0000
     31 ****         3.2607  -0.3750  -2.2186 H              1 S1                 0.0000
     32 ****        -0.4637  -0.7300  -1.4193 H              1 S1                 0.0000
     33 ****        -0.7577  -0.5071   0.4862 H              1 S1                 0.0000
     34 ****         1.4406   0.5125   2.2403 H              1 S1                 0.0000
     35 ****        -0.7106  -1.5744   2.8150 H              1 S1                 0.0000
     36 ****         1.0042  -1.8806   2.6728 H              1 S1                 0.0000
     37 ****         0.2918  -1.7135   5.0611 H              1 S1                 0.0000
     38 ****         1.4729  -0.4914   4.6567 H              1 S1                 0.0000
     39 ****        -1.5502  -0.0851   4.8525 H              1 S1                 0.0000
     40 ****        -0.3528   0.5110   5.9745 H              1 S1                 0.0000
     41 ****         0.6398   1.9392   4.2133 H              1 S1                 0.0000
     42 ****        -0.3929   2.1331   1.9765 H              1 S1                 0.0000
     43 ****        -1.5775   0.9180   2.3891 H              1 S1                 0.0000
     44 ****         4.0105  -0.5589  -4.3845 H              1 S1                 0.0000
     45 ****        -1.2564  -1.3206  -2.9150 LP             1 S1                 0.0000
     46 ****         0.2538  -1.0069  -5.9152 LP             1 S1                 0.0000
     47 ****         2.8453   0.3040  -0.9217 LP             1 S1                 0.0000
     48 ****         2.5554   0.5274   0.7712 LP             1 S1                 0.0000
@<TRIPOS>BOND
    1    1    2 1     
    2    1   24 1     
    3    1   25 1     
    4    1   26 1     
    5    2    3 1     
    6    2    4 1     
    7    3   27 1     
    8    3   28 1     
    9    3   29 1     
   10    4    9 ar    
   11    4    5 ar    
   12    5    6 ar    
   13    6    7 ar    
   14    6   30 1     
   15    7    8 ar    
   16    7   44 1     
   17    8    9 ar    
   18    8   31 1     
   19    9   10 1     
   20   10   11 am    
   21   10   32 1     
   22   11   12 2     
   23   11   13 am    
   24   13   14 1     
   25   13   33 1     
   26   14   23 1     
   27   14   15 1     
   28   14   34 1     
   29   15   16 1     
   30   15   35 1     
   31   15   36 1     
   32   16   17 1     
   33   16   37 1     
   34   16   38 1     
   35   17   18 1     
   36   17   39 1     
   37   17   40 1     
   38   18   19 1     
   39   18   23 1     
   40   18   41 1     
   41   19   20 1     
   42   19   21 1     
   43   19   22 1     
   44   23   42 1     
   45   23   43 1     
   46    2   45 1     
   47    5   46 1     
   48   12   47 1     
   49   12   48 1     
@<TRIPOS>SUBSTRUCTURE
      1 S1             1
@<TRIPOS>SET
LONE_PAIRS      STATIC     ATOMS    <user>   **** ""
4 45 46 47 48
DONOR_HYDROGENS      STATIC     ATOMS    <user>   **** ""
3 44 32 33
ATOM$BLUE        STATIC     ATOMS    COLORGROUP SYSTEM
4 45 46 47 48
ATOM$RED        STATIC     ATOMS    COLORGROUP SYSTEM
3 44 32 33
