#       Name:                AV-unprocessed.smi:2188
#       Creating user name   scv26
#       Creation time:       Fri Mar 27 12:08:26 2020


#       File generated by GOLD software.
#

@<TRIPOS>MOLECULE
AV-unprocessed.smi:2188
    43    45     1
SMALL
NO_CHARGES


@<TRIPOS>ATOM
      1 ****         0.0815   1.4834  -1.1187 O.2            1 S1                 0.0000
      2 ****        -0.3499   0.5309  -0.4554 C.2            1 S1                 0.0000
      3 ****         0.4300  -0.4118   0.1599 N.pl3          1 S1                -1.0000
      4 ****         1.8913  -0.4549   0.1375 C.3            1 S1                 0.0000
      5 ****         2.3627  -1.9225   0.1404 C.3            1 S1                 0.0000
      6 ****         3.8760  -2.0777   0.0810 C.ar           1 S1                 0.0000
      7 ****         4.5467  -2.1453  -1.1627 C.ar           1 S1                 0.0000
      8 ****         5.9485  -2.2974  -1.1878 C.ar           1 S1                 0.0000
      9 ****         6.6511  -2.3841   0.0311 C.ar           1 S1                 0.0000
     10 ****         5.9783  -2.3226   1.2011 N.pl3          1 S1                 1.0000
     11 ****         4.6368  -2.1770   1.2681 C.ar           1 S1                 0.0000
     12 ****        -1.8108   0.3542  -0.3217 C.2            1 S1                 0.0000
     13 ****        -2.3135  -0.9092  -0.3036 C.2            1 S1                 0.0000
     14 ****        -3.7244  -1.1674  -0.1604 C.2            1 S1                 0.0000
     15 ****        -4.5491  -0.1186  -0.0772 C.2            1 S1                 0.0000
     16 ****        -4.1100   1.2033  -0.1220 N.pl3          1 S1                 0.0000
     17 ****        -5.1369   2.2395  -0.1227 C.3            1 S1                 0.0000
     18 ****        -4.7193   3.3988   0.7631 C.3            1 S1                 0.0000
     19 ****        -3.2175   4.0983  -0.0098 S.o2           1 S1                 0.0000
     20 ****        -3.5679   4.5402  -1.3688 O.2            1 S1                 0.0000
     21 ****        -2.6261   5.0613   0.9315 O.2            1 S1                 0.0000
     22 ****        -2.2587   2.7283  -0.1039 N.2            1 S1                 0.0000
     23 ****        -2.7216   1.5127  -0.1890 C.2            1 S1                 0.0000
     24 ****         2.3087   0.0395  -0.7408 H              1 S1                 0.0000
     25 ****         2.3182   0.0580   0.9999 H              1 S1                 0.0000
     26 ****         1.9948  -2.4283   1.0345 H              1 S1                 0.0000
     27 ****         1.9280  -2.4534  -0.7081 H              1 S1                 0.0000
     28 ****         3.9923  -2.0760  -2.0875 H              1 S1                 0.0000
     29 ****         6.4757  -2.3458  -2.1294 H              1 S1                 0.0000
     30 ****         7.7224  -2.5006   0.1050 H              1 S1                 0.0000
     31 ****         4.2141  -2.1403   2.2618 H              1 S1                 0.0000
     32 ****        -1.6663  -1.7685  -0.4072 H              1 S1                 0.0000
     33 ****        -4.1028  -2.1780  -0.1214 H              1 S1                 0.0000
     34 ****        -5.6163  -0.2480   0.0298 H              1 S1                 0.0000
     35 ****        -5.3111   2.5732  -1.1461 H              1 S1                 0.0000
     36 ****        -6.0853   1.8437   0.2417 H              1 S1                 0.0000
     37 ****        -5.4846   4.1732   0.8066 H              1 S1                 0.0000
     38 ****        -4.4888   3.0780   1.7796 H              1 S1                 0.0000
     39 ****         6.5056  -2.3882   2.0720 H              1 S1                 0.0000
     40 ****         1.0670   1.6056  -1.2356 LP             1 S1                 0.0000
     41 ****        -0.5558   2.1303  -1.5375 LP             1 S1                 0.0000
     42 ****        -0.0406  -1.1329   0.6684 LP             1 S1                 0.0000
     43 ****        -1.2663   2.8508  -0.0942 LP             1 S1                 0.0000
@<TRIPOS>BOND
    1    1    2 2     
    2    2    3 1     
    3    2   12 1     
    4    3    4 1     
    5    4    5 1     
    6    4   24 1     
    7    4   25 1     
    8    5    6 1     
    9    5   26 1     
   10    5   27 1     
   11    6   11 ar    
   12    6    7 ar    
   13    7    8 ar    
   14    7   28 1     
   15    8    9 ar    
   16    8   29 1     
   17    9   10 ar    
   18    9   30 1     
   19   10   11 ar    
   20   10   39 1     
   21   11   31 1     
   22   12   23 1     
   23   12   13 2     
   24   13   14 1     
   25   13   32 1     
   26   14   15 2     
   27   14   33 1     
   28   15   16 1     
   29   15   34 1     
   30   16   23 1     
   31   16   17 1     
   32   17   18 1     
   33   17   35 1     
   34   17   36 1     
   35   18   19 1     
   36   18   37 1     
   37   18   38 1     
   38   19   20 2     
   39   19   21 2     
   40   19   22 1     
   41   22   23 2     
   42    1   40 1     
   43    1   41 1     
   44    3   42 1     
   45   22   43 1     
@<TRIPOS>SUBSTRUCTURE
      1 S1             1
@<TRIPOS>SET
LONE_PAIRS      STATIC     ATOMS    <user>   **** ""
6 40 41 42 20 21 43
DONOR_HYDROGENS      STATIC     ATOMS    <user>   **** ""
1 39
ATOM$BLUE        STATIC     ATOMS    COLORGROUP SYSTEM
6 40 41 42 20 21 43
ATOM$RED        STATIC     ATOMS    COLORGROUP SYSTEM
1 39
