AV-unprocessed.smi:940|AV-procd|sdf|4219|dock6
  -GOLD-   22720 2133D 1   1.00000     0.00000
 Structure written by MMmdl.
 36 36  0  0  0  0  0  0  0  0  1 V2000
  154.1504  137.4811  161.5681 C   0  0  0  0  0  0  0  0  0  0  0  0
  154.8884  138.5827  160.7964 C   0  0  0  0  0  0  0  0  0  0  0  0
  154.2793  139.8893  161.0144 N   0  0  0  0  0  0  0  0  0  0  0  0
  153.7880  140.6827  160.0491 C   0  0  0  0  0  0  0  0  0  0  0  0
  153.7928  140.3819  158.8558 O   0  0  0  0  0  0  0  0  0  0  0  0
  153.1951  142.0195  160.4979 C   0  0  0  0  0  0  0  0  0  0  0  0
  152.5487  142.7059  159.3936 N   0  0  0  0  0  0  0  0  0  0  0  0
  152.5738  144.0523  159.0896 C   0  0  0  0  0  0  0  0  0  0  0  0
  151.8312  144.2326  157.9578 C   0  0  0  0  0  0  0  0  0  0  0  0
  151.3910  142.9120  157.6419 C   0  0  0  0  0  0  0  0  0  0  0  0
  150.5695  142.5443  156.5452 N   0  0  0  0  0  0  0  0  0  0  0  0
  150.5044  141.3622  155.9063 C   0  0  0  0  0  0  0  0  0  0  0  0
  151.1652  140.3669  156.2018 O   0  0  0  0  0  0  0  0  0  0  0  0
  149.5206  141.2889  154.7395 C   0  0  0  0  0  0  0  0  0  0  0  0
  148.2153  141.5496  155.2295 O   0  0  0  0  0  0  0  0  0  0  0  0
  147.2874  141.8327  154.1964 C   0  0  0  0  0  0  0  0  0  0  0  0
  147.1759  140.6096  153.2833 C   0  0  0  0  0  0  0  0  0  0  0  0
  151.8142  142.0031  158.5032 N   0  0  0  0  0  0  0  0  0  0  0  0
  154.6313  136.5145  161.4169 H   0  0  0  0  0  0  0  0  0  0  0  0
  153.1152  137.3901  161.2381 H   0  0  0  0  0  0  0  0  0  0  0  0
  154.1453  137.6856  162.6390 H   0  0  0  0  0  0  0  0  0  0  0  0
  155.9258  138.6313  161.1277 H   0  0  0  0  0  0  0  0  0  0  0  0
  154.9140  138.3488  159.7308 H   0  0  0  0  0  0  0  0  0  0  0  0
  154.2311  140.2162  161.9684 H   0  0  0  0  0  0  0  0  0  0  0  0
  152.4696  141.8592  161.2973 H   0  0  0  0  0  0  0  0  0  0  0  0
  153.9805  142.6594  160.9019 H   0  0  0  0  0  0  0  0  0  0  0  0
  153.1133  144.7631  159.6979 H   0  0  0  0  0  0  0  0  0  0  0  0
  151.6428  145.1675  157.4519 H   0  0  0  0  0  0  0  0  0  0  0  0
  149.9468  143.2658  156.2118 H   0  0  0  0  0  0  0  0  0  0  0  0
  149.8032  142.0306  153.9907 H   0  0  0  0  0  0  0  0  0  0  0  0
  149.5567  140.3054  154.2673 H   0  0  0  0  0  0  0  0  0  0  0  0
  146.3114  142.0693  154.6225 H   0  0  0  0  0  0  0  0  0  0  0  0
  147.6165  142.6989  153.6206 H   0  0  0  0  0  0  0  0  0  0  0  0
  146.4678  140.7904  152.4745 H   0  0  0  0  0  0  0  0  0  0  0  0
  146.8336  139.7365  153.8395 H   0  0  0  0  0  0  0  0  0  0  0  0
  148.1399  140.3657  152.8364 H   0  0  0  0  0  0  0  0  0  0  0  0
  1  2  1  0  0  0  0
  1 19  1  0  0  0  0
  1 20  1  0  0  0  0
  1 21  1  0  0  0  0
  2  3  1  0  0  0  0
  2 22  1  0  0  0  0
  2 23  1  0  0  0  0
  3  4  1  0  0  0  0
  3 24  1  0  0  0  0
  4  5  2  0  0  0  0
  4  6  1  0  0  0  0
  6  7  1  0  0  0  0
  6 25  1  0  0  0  0
  6 26  1  0  0  0  0
  7 18  1  0  0  0  0
  7  8  1  0  0  0  0
  8  9  2  0  0  0  0
  8 27  1  0  0  0  0
  9 10  1  0  0  0  0
  9 28  1  0  0  0  0
 10 11  1  0  0  0  0
 10 18  2  0  0  0  0
 11 12  1  0  0  0  0
 11 29  1  0  0  0  0
 12 13  2  0  0  0  0
 12 14  1  0  0  0  0
 14 15  1  0  0  0  0
 14 30  1  0  0  0  0
 14 31  1  0  0  0  0
 15 16  1  0  0  0  0
 16 17  1  0  0  0  0
 16 32  1  0  0  0  0
 16 33  1  0  0  0  0
 17 34  1  0  0  0  0
 17 35  1  0  0  0  0
 17 36  1  0  0  0  0
M  END
> <s_m_source_file>
AV-unprocessed.smi

> <i_m_source_file_index>
940

> <i_lp_mmshare_version>
43012

> <i_f3d_flags>
0

> <s_epik_input>
W0NIM11bQ0gyXVtOSF1DKD1PKVtDSDJdbjFbY0hdW2NIXWMobjEpW05IXUMoPU8pW0NIMl1PW0NIMl1bQ0gzXQ==

> <s_epik_cmdline>
J2VwaWtfcHl0aG9uJywgJy1waCcsICc3LjAnLCAnLXRuJywgJzgnLCAnLW1hJywgJzIwMCcsICctbWV0YWxfYmluZGluZycsICctaW1hZScsICc8aW5maWxlLm1hZT4nLCAnLW9tYWUnLCAnPG91dGZpbGUubWFlPic=

> <r_lp_tautomer_probability>
1

> <r_epik_Ionization_Penalty>
3.22351e-06

> <r_epik_Ionization_Penalty_Charging>
0

> <r_epik_Ionization_Penalty_Neutral>
3.22351e-06

> <r_epik_State_Penalty>
-0

> <r_epik_Charging_Adjusted_Penalty>
0

> <i_epik_Tot_Q>
0

> <i_epik_Tot_abs_Q>
0

> <r_epik_Metal_State_Penalty>
-0

> <b_epik_Metal_Only>
0

> <s_lp_Force_Field>
OPLS_2005

> <r_lp_Energy>
6.8138

> <b_lp_Chiralities_Consistent>
1

> <s_lp_Variant>
AV-unprocessed.smi:940-1

> <Gold.Version>
5.8.1

> <Gold.Id.Protein>
6NUR|6NUR_protein|mol2

> <Gold.PLP.Fitness>
47.0642

> <Gold.PLP.PLP>
-42.4313

> <Gold.PLP.part.hbond>
-2.0000

> <Gold.PLP.part.metal>
0.0000

> <Gold.PLP.part.buried>
-4.5454

> <Gold.PLP.part.nonpolar>
-35.6528

> <Gold.PLP.part.repulsive>
0.3055

> <Gold.PLP.ligand.clash>
0.0000

> <Gold.PLP.ligand.torsion>
0.5344

> <Gold.PLP.Chemscore.Hbond>
1.8800

> <Gold.PLP.Chemscore.CHOScore>
0.0000

> <Gold.PLP.Chemscore.Metal>
0.0000

> <Gold.Chemscore.Hbonds>
donor molecule, donor type, donor heavy atom, donor atom, acceptor molecule, acceptor atom, score
      L1  H    11    29       P1  8028  1.00
      P1  H  7997  8009       L1     5  0.83

> <Gold.PLP.Chemscore.Internal.Correction>
0.0617

> <Gold.Rescore>
     Score         DG    S(hbond)    S(metal)    S(lipo)     H(rot)  DE(clash)    DE(int)     intcor
     10.11     -13.57       1.72        0.00      71.16       2.34       0.00       3.46       ----

> <Gold.Chemscore.Fitness>
10.1091

> <Gold.Chemscore.DG>
-13.5691

> <Gold.Chemscore.ZeroCoef>
-5.4800

> <Gold.Chemscore.Hbond>
1.7204

> <Gold.Chemscore.Metal>
0.0000

> <Gold.Chemscore.Lipo>
71.1634

> <Gold.Chemscore.Internal_Hbond>
0.0000

> <Gold.Chemscore.DEClash>
0.0043

> <Gold.Chemscore.DEInternal>
3.4557

> <Gold.Chemscore.Rot>
2.3372

> <Gold.Chemscore.Internal.Correction>
   9.000000E+99

> <Gold.Chemscore.Hbonds>
donor molecule, donor type, donor heavy atom, donor atom, acceptor molecule, acceptor atom, score
      L1  H    11    29       P1  8028  1.00
      P1  H  7997  8009       L1     5  0.82

> <Gold.Chemscore.Hbond.Weighted>
-5.7463

> <Gold.Chemscore.Metal.Weighted>
-0.0000

> <Gold.Chemscore.Lipo.Weighted>
-8.3261

> <Gold.Chemscore.Internal_Hbond.Weighted>
0.0000

> <Gold.Chemscore.DEClash.Weighted>
0.0043

> <Gold.Chemscore.DEInternal.Weighted>
3.4557

> <Gold.Chemscore.Rot.Weighted>
5.9833

> <Gold.Chemscore.Internal.Correction.Weighted>
   9.000000E+99

> <Gold.Protein.RotatedTorsions>
[ 6907 6896 6895 6894 ] final  -46.48 input  -60.11 | X-H torsion
[ 7974 7965 7964 7962 ] final  -44.35 input  175.53 | X-H torsion
[ 8008 7997 7996 7995 ] final  139.31 input   59.86 | X-H torsion
[ 10167 10162 10161 10158 ] final  159.43 input  -65.29 | X-H torsion
[ 10718 10713 10712 10709 ] final  -64.95 input   66.30 | X-H torsion
[ 10763 10752 10751 10750 ] final  -22.69 input  -60.55 | X-H torsion
[ 11005 11000 10999 10996 ] final  -41.16 input  -57.11 | X-H torsion

> <Gold.Protein.ActiveResidues>
 VAL166  LYS551  ARG553  GLY616  TRP617  ASP618  TYR619  PRO620  LYS621  CYS622 
 ASP623  PHE694  ASN695  SER759  ASP760  ASP761  ALA762  ILE779  LEU786  VAL792 
 PHE793  MET794  SER795  GLU796  ALA797  LYS798  CYS799  TRP800  GLU811  SER814 

> <Gold.Protein.RotatedAtoms>
  150.9109  134.8525  159.7423 H   0  0  0  0  0  0  0  0  0  0  0  0  # atno 6907 bound_to 6896
  152.4943  134.4361  159.9538 H   0  0  0  0  0  0  0  0  0  0  0  0  # atno 6908 bound_to 6896
  151.4404  133.3605  159.2816 H   0  0  0  0  0  0  0  0  0  0  0  0  # atno 6909 bound_to 6896
  145.9930  140.7160  142.9308 H   0  0  0  0  0  0  0  0  0  0  0  0  # atno 7974 bound_to 7965
  156.2991  140.2371  156.4216 H   0  0  0  0  0  0  0  0  0  0  0  0  # atno 8008 bound_to 7997
  154.8350  140.0431  157.1523 H   0  0  0  0  0  0  0  0  0  0  0  0  # atno 8009 bound_to 7997
  154.9166  140.2998  155.5242 H   0  0  0  0  0  0  0  0  0  0  0  0  # atno 8010 bound_to 7997
  139.4832  144.4730  151.8550 H   0  0  0  0  0  0  0  0  0  0  0  0  # atno 10167 bound_to 10162
  156.0698  130.4240  150.1494 H   0  0  0  0  0  0  0  0  0  0  0  0  # atno 10718 bound_to 10713
  153.6560  135.6978  153.5193 H   0  0  0  0  0  0  0  0  0  0  0  0  # atno 10763 bound_to 10752
  153.2669  135.4227  155.0949 H   0  0  0  0  0  0  0  0  0  0  0  0  # atno 10764 bound_to 10752
  154.8464  135.3569  154.6104 H   0  0  0  0  0  0  0  0  0  0  0  0  # atno 10765 bound_to 10752
  141.0226  133.6855  156.2420 H   0  0  0  0  0  0  0  0  0  0  0  0  # atno 11005 bound_to 11000
  144.6895  140.3101  143.7249 LP  0  0  0  0  0  0  0  0  0  0  0  0  # atno 17320 bound_to 7965
  145.7602  139.1822  143.2271 LP  0  0  0  0  0  0  0  0  0  0  0  0  # atno 17321 bound_to 7965
  140.4200  144.2255  150.5887 LP  0  0  0  0  0  0  0  0  0  0  0  0  # atno 17342 bound_to 10162
  140.4883  143.2356  151.8856 LP  0  0  0  0  0  0  0  0  0  0  0  0  # atno 17343 bound_to 10162
  156.9547  130.9786  151.3491 LP  0  0  0  0  0  0  0  0  0  0  0  0  # atno 17370 bound_to 10713
  157.5762  130.8345  149.8459 LP  0  0  0  0  0  0  0  0  0  0  0  0  # atno 17371 bound_to 10713
  140.6546  134.5031  157.5580 LP  0  0  0  0  0  0  0  0  0  0  0  0  # atno 17394 bound_to 11000
  139.9156  134.8254  156.1379 LP  0  0  0  0  0  0  0  0  0  0  0  0  # atno 17395 bound_to 11000

$$$$
