AV-unprocessed.smi:546|AV-procd|sdf|2883|dock9
  -GOLD-   2262023373D 1   1.00000     0.00000
 Structure written by MMmdl.
 52 54  0  0  0  0  0  0  0  0  1 V2000
  148.9268  141.1248  154.5757 C   0  0  0  0  0  0  0  0  0  0  0  0
  147.5065  140.8386  155.0680 C   0  0  0  0  0  0  0  0  0  0  0  0
  147.4460  139.5152  155.5724 O   0  0  0  0  0  0  0  0  0  0  0  0
  147.9869  139.4051  156.8793 C   0  0  0  0  0  0  0  0  0  0  0  0
  148.1428  137.9250  157.2539 C   0  0  0  0  0  0  0  0  0  0  0  0
  149.2091  137.7211  158.2331 N   0  0  0  0  0  0  0  0  0  0  0  0
  149.1771  137.0702  159.4309 C   0  0  0  0  0  0  0  0  0  0  0  0
  148.0127  136.5069  159.9593 N   0  0  0  0  0  0  0  0  0  0  0  0
  146.6813  137.0763  159.7547 C   0  0  0  0  0  0  0  0  0  0  0  0
  145.9067  137.2052  161.0808 C   0  0  1  0  0  0  0  0  0  0  0  0
  144.5286  137.8447  160.8678 C   0  0  0  0  0  0  0  0  0  0  0  0
  145.7948  135.8319  161.7641 C   0  0  0  0  0  0  0  0  0  0  0  0
  147.1828  135.1828  161.8949 C   0  0  1  0  0  0  0  0  0  0  0  0
  147.0953  133.7767  162.5018 C   0  0  0  0  0  0  0  0  0  0  0  0
  147.8739  135.1613  160.5168 C   0  0  0  0  0  0  0  0  0  0  0  0
  150.3619  136.9827  160.0436 N   0  0  0  0  0  0  0  0  0  0  0  0
  151.2145  137.6590  159.1869 C   0  0  0  0  0  0  0  0  0  0  0  0
  150.5438  138.1088  158.0969 C   0  0  0  0  0  0  0  0  0  0  0  0
  151.2108  138.8375  157.0087 C   0  0  0  0  0  0  0  0  0  0  0  0
  150.6264  139.2488  156.0088 O   0  0  0  0  0  0  0  0  0  0  0  0
  152.5389  139.0073  157.2179 N   0  0  0  0  0  0  0  0  0  0  0  0
  153.2729  138.5810  158.2904 C   0  0  0  0  0  0  0  0  0  0  0  0
  154.4822  138.8059  158.3365 O   0  0  0  0  0  0  0  0  0  0  0  0
  152.6136  137.9064  159.2858 N   0  0  0  0  0  0  0  0  0  0  0  0
  153.3504  137.4228  160.4551 C   0  0  0  0  0  0  0  0  0  0  0  0
  153.0454  139.5032  156.4990 H   0  0  0  0  0  0  0  0  0  0  0  0
  149.0136  142.1486  154.2115 H   0  0  0  0  0  0  0  0  0  0  0  0
  149.1983  140.4571  153.7580 H   0  0  0  0  0  0  0  0  0  0  0  0
  149.6542  140.9907  155.3767 H   0  0  0  0  0  0  0  0  0  0  0  0
  147.2353  141.5486  155.8507 H   0  0  0  0  0  0  0  0  0  0  0  0
  146.7984  140.9637  154.2475 H   0  0  0  0  0  0  0  0  0  0  0  0
  148.9549  139.9058  156.9273 H   0  0  0  0  0  0  0  0  0  0  0  0
  147.3298  139.9002  157.5954 H   0  0  0  0  0  0  0  0  0  0  0  0
  147.2098  137.5334  157.6578 H   0  0  0  0  0  0  0  0  0  0  0  0
  148.3255  137.3466  156.3557 H   0  0  0  0  0  0  0  0  0  0  0  0
  146.7764  138.0612  159.2956 H   0  0  0  0  0  0  0  0  0  0  0  0
  146.1284  136.4573  159.0469 H   0  0  0  0  0  0  0  0  0  0  0  0
  146.4773  137.8621  161.7371 H   0  0  0  0  0  0  0  0  0  0  0  0
  143.9060  137.2354  160.2118 H   0  0  0  0  0  0  0  0  0  0  0  0
  144.6211  138.8329  160.4165 H   0  0  0  0  0  0  0  0  0  0  0  0
  144.0005  137.9626  161.8144 H   0  0  0  0  0  0  0  0  0  0  0  0
  145.3356  135.9376  162.7476 H   0  0  0  0  0  0  0  0  0  0  0  0
  145.1392  135.1842  161.1801 H   0  0  0  0  0  0  0  0  0  0  0  0
  147.7786  135.7969  162.5714 H   0  0  0  0  0  0  0  0  0  0  0  0
  146.5105  133.1074  161.8699 H   0  0  0  0  0  0  0  0  0  0  0  0
  146.6251  133.8026  163.4852 H   0  0  0  0  0  0  0  0  0  0  0  0
  148.0872  133.3401  162.6217 H   0  0  0  0  0  0  0  0  0  0  0  0
  147.2899  134.5558  159.8221 H   0  0  0  0  0  0  0  0  0  0  0  0
  148.8463  134.6735  160.5740 H   0  0  0  0  0  0  0  0  0  0  0  0
  153.9105  138.2339  160.9227 H   0  0  0  0  0  0  0  0  0  0  0  0
  154.0570  136.6450  160.1627 H   0  0  0  0  0  0  0  0  0  0  0  0
  152.6959  137.0029  161.2187 H   0  0  0  0  0  0  0  0  0  0  0  0
  1  2  1  0  0  0  0
  1 27  1  0  0  0  0
  1 28  1  0  0  0  0
  1 29  1  0  0  0  0
  2  3  1  0  0  0  0
  2 30  1  0  0  0  0
  2 31  1  0  0  0  0
  3  4  1  0  0  0  0
  4  5  1  0  0  0  0
  4 32  1  0  0  0  0
  4 33  1  0  0  0  0
  5  6  1  0  0  0  0
  5 34  1  0  0  0  0
  5 35  1  0  0  0  0
  6 18  1  0  0  0  0
  6  7  1  0  0  0  0
  7  8  1  0  0  0  0
  7 16  2  0  0  0  0
  8 15  1  0  0  0  0
  8  9  1  0  0  0  0
  9 10  1  0  0  0  0
  9 36  1  0  0  0  0
  9 37  1  0  0  0  0
 10 11  1  0  0  0  0
 10 12  1  0  0  0  0
 10 38  1  0  0  0  0
 11 39  1  0  0  0  0
 11 40  1  0  0  0  0
 11 41  1  0  0  0  0
 12 13  1  0  0  0  0
 12 42  1  0  0  0  0
 12 43  1  0  0  0  0
 13 14  1  0  0  0  0
 13 15  1  0  0  0  0
 13 44  1  0  0  0  0
 14 45  1  0  0  0  0
 14 46  1  0  0  0  0
 14 47  1  0  0  0  0
 15 48  1  0  0  0  0
 15 49  1  0  0  0  0
 16 17  1  0  0  0  0
 17 24  1  0  0  0  0
 17 18  2  0  0  0  0
 18 19  1  0  0  0  0
 19 20  2  0  0  0  0
 19 21  1  0  0  0  0
 21 26  1  0  0  0  0
 21 22  1  0  0  0  0
 22 23  2  0  0  0  0
 22 24  1  0  0  0  0
 24 25  1  0  0  0  0
 25 50  1  0  0  0  0
 25 51  1  0  0  0  0
 25 52  1  0  0  0  0
M  END
> <s_m_source_file>
AV-unprocessed.smi

> <i_m_source_file_index>
546

> <i_lp_mmshare_version>
43012

> <i_f3d_flags>
0

> <s_epik_input>
W0NIM11uMWMoPU8pW25IXWMoPU8pYyhjMTIpbihbQ0gyXVtDSDJdT1tDSDJdW0NIM10pYyhuMilOM1tDSDJdW0NAQEhdKFtDSDNdKVtDSDJdW0NAQEhdKFtDSDNdKVtDSDJdMw==

> <s_epik_cmdline>
J2VwaWtfcHl0aG9uJywgJy1waCcsICc3LjAnLCAnLXRuJywgJzgnLCAnLW1hJywgJzIwMCcsICctbWV0YWxfYmluZGluZycsICctaW1hZScsICc8aW5maWxlLm1hZT4nLCAnLW9tYWUnLCAnPG91dGZpbGUubWFlPic=

> <r_lp_tautomer_probability>
1

> <r_epik_Ionization_Penalty>
0.000576472

> <r_epik_Ionization_Penalty_Charging>
0.000118943

> <r_epik_Ionization_Penalty_Neutral>
0.000457529

> <r_epik_State_Penalty>
-0

> <r_epik_Charging_Adjusted_Penalty>
0.000118943

> <i_epik_Tot_Q>
0

> <i_epik_Tot_abs_Q>
0

> <r_epik_Metal_State_Penalty>
0.0916165

> <b_epik_Metal_Only>
0

> <s_lp_Force_Field>
OPLS_2005

> <r_lp_Energy>
35.568

> <b_lp_Chiralities_Consistent>
1

> <s_lp_Variant>
AV-unprocessed.smi:546-1

> <Gold.Version>
5.8.1

> <Gold.Id.Protein>
6NUR|6NUR_protein|mol2

> <Gold.PLP.Fitness>
36.0954

> <Gold.PLP.PLP>
-31.6640

> <Gold.PLP.part.hbond>
-2.8568

> <Gold.PLP.part.metal>
0.0000

> <Gold.PLP.part.buried>
-4.1869

> <Gold.PLP.part.nonpolar>
-25.3910

> <Gold.PLP.part.repulsive>
0.0975

> <Gold.PLP.ligand.clash>
0.0000

> <Gold.PLP.ligand.torsion>
0.9217

> <Gold.PLP.Chemscore.Hbond>
1.9913

> <Gold.PLP.Chemscore.CHOScore>
0.0000

> <Gold.PLP.Chemscore.Metal>
0.0000

> <Gold.Chemscore.Hbonds>
donor molecule, donor type, donor heavy atom, donor atom, acceptor molecule, acceptor atom, score
      P1  H  6896  6909       L1    16  0.91
      P1  H  7997  8010       L1    23  1.00

> <Gold.PLP.Chemscore.Internal.Correction>
0.3012

> <Gold.Rescore>
     Score         DG    S(hbond)    S(metal)    S(lipo)     H(rot)  DE(clash)    DE(int)     intcor
     10.36     -13.69       1.61        0.00      57.91       1.55       0.00       3.32       ----

> <Gold.Chemscore.Fitness>
10.3624

> <Gold.Chemscore.DG>
-13.6887

> <Gold.Chemscore.ZeroCoef>
-5.4800

> <Gold.Chemscore.Hbond>
1.6144

> <Gold.Chemscore.Metal>
0.0000

> <Gold.Chemscore.Lipo>
57.9119

> <Gold.Chemscore.Internal_Hbond>
0.0000

> <Gold.Chemscore.DEClash>
0.0029

> <Gold.Chemscore.DEInternal>
3.3234

> <Gold.Chemscore.Rot>
1.5465

> <Gold.Chemscore.Internal.Correction>
   9.000000E+99

> <Gold.Chemscore.Hbonds>
donor molecule, donor type, donor heavy atom, donor atom, acceptor molecule, acceptor atom, score
      P1  H  6896  6909       L1    16  0.17
      P1  H  7997  8010       L1    23  0.92

> <Gold.Chemscore.Hbond.Weighted>
-5.3921

> <Gold.Chemscore.Metal.Weighted>
-0.0000

> <Gold.Chemscore.Lipo.Weighted>
-6.7757

> <Gold.Chemscore.Internal_Hbond.Weighted>
0.0000

> <Gold.Chemscore.DEClash.Weighted>
0.0029

> <Gold.Chemscore.DEInternal.Weighted>
3.3234

> <Gold.Chemscore.Rot.Weighted>
3.9591

> <Gold.Chemscore.Internal.Correction.Weighted>
   9.000000E+99

> <Gold.Protein.RotatedTorsions>
[ 6907 6896 6895 6894 ] final   97.02 input  -60.11 | X-H torsion
[ 7974 7965 7964 7962 ] final -100.39 input  175.53 | X-H torsion
[ 8008 7997 7996 7995 ] final    2.83 input   59.86 | X-H torsion
[ 10167 10162 10161 10158 ] final  -15.39 input  -65.29 | X-H torsion
[ 10718 10713 10712 10709 ] final  -58.77 input   66.30 | X-H torsion
[ 10763 10752 10751 10750 ] final  135.33 input  -60.55 | X-H torsion
[ 11005 11000 10999 10996 ] final  130.97 input  -57.11 | X-H torsion

> <Gold.Protein.ActiveResidues>
 VAL166  LYS551  ARG553  GLY616  TRP617  ASP618  TYR619  PRO620  LYS621  CYS622 
 ASP623  PHE694  ASN695  SER759  ASP760  ASP761  ALA762  ILE779  LEU786  VAL792 
 PHE793  MET794  SER795  GLU796  ALA797  LYS798  CYS799  TRP800  GLU811  SER814 

> <Gold.Protein.RotatedAtoms>
  152.5428  134.0796  159.8229 H   0  0  0  0  0  0  0  0  0  0  0  0  # atno 6907 bound_to 6896
  151.0900  133.5316  159.2623 H   0  0  0  0  0  0  0  0  0  0  0  0  # atno 6908 bound_to 6896
  151.2111  135.0490  159.8965 H   0  0  0  0  0  0  0  0  0  0  0  0  # atno 6909 bound_to 6896
  145.2952  140.9363  143.2855 H   0  0  0  0  0  0  0  0  0  0  0  0  # atno 7974 bound_to 7965
  154.6963  140.2664  155.6763 H   0  0  0  0  0  0  0  0  0  0  0  0  # atno 8008 bound_to 7997
  156.2750  140.2781  156.1482 H   0  0  0  0  0  0  0  0  0  0  0  0  # atno 8009 bound_to 7997
  155.0826  140.0373  157.2634 H   0  0  0  0  0  0  0  0  0  0  0  0  # atno 8010 bound_to 7997
  140.7217  143.5223  150.9619 H   0  0  0  0  0  0  0  0  0  0  0  0  # atno 10167 bound_to 10162
  156.1110  130.4175  150.0623 H   0  0  0  0  0  0  0  0  0  0  0  0  # atno 10718 bound_to 10713
  153.8383  135.3095  155.3424 H   0  0  0  0  0  0  0  0  0  0  0  0  # atno 10763 bound_to 10752
  154.7944  135.4764  154.0129 H   0  0  0  0  0  0  0  0  0  0  0  0  # atno 10764 bound_to 10752
  153.1592  135.6857  153.8859 H   0  0  0  0  0  0  0  0  0  0  0  0  # atno 10765 bound_to 10752
  139.9703  134.9579  156.9371 H   0  0  0  0  0  0  0  0  0  0  0  0  # atno 11005 bound_to 11000
  144.9139  139.4494  143.6573 LP  0  0  0  0  0  0  0  0  0  0  0  0  # atno 17320 bound_to 7965
  146.3171  139.7962  142.8975 LP  0  0  0  0  0  0  0  0  0  0  0  0  # atno 17321 bound_to 7965
  139.8940  143.6918  152.3141 LP  0  0  0  0  0  0  0  0  0  0  0  0  # atno 17342 bound_to 10162
  139.7243  144.7596  151.0903 LP  0  0  0  0  0  0  0  0  0  0  0  0  # atno 17343 bound_to 10162
  156.8587  130.9484  151.3620 LP  0  0  0  0  0  0  0  0  0  0  0  0  # atno 17370 bound_to 10713
  157.6291  130.8715  149.9242 LP  0  0  0  0  0  0  0  0  0  0  0  0  # atno 17371 bound_to 10713
  140.5308  134.0815  155.7315 LP  0  0  0  0  0  0  0  0  0  0  0  0  # atno 17394 bound_to 11000
  141.1382  133.9184  157.2385 LP  0  0  0  0  0  0  0  0  0  0  0  0  # atno 17395 bound_to 11000

$$$$
