AV-unprocessed.smi:3222|AV-procd|sdf|12304|dock6
  -GOLD-   2272018143D 1   1.00000     0.00000
 Structure written by MMmdl.
 41 42  0  0  0  0  0  0  0  0  2 V2000
  149.3380  141.1948  154.4213 C   0  0  0  0  0  0  0  0  0  0  0  0
  148.8429  141.1091  155.8812 C   0  0  1  0  0  0  0  0  0  0  0  0
  149.2738  142.3041  156.6440 N   0  3  0  0  0  0  0  0  0  0  0  0
  150.6514  142.2578  157.1764 C   0  0  0  0  0  0  0  0  0  0  0  0
  151.1119  143.6544  157.6221 C   0  0  0  0  0  0  0  0  0  0  0  0
  151.7514  143.6151  158.9344 N   0  0  0  0  0  0  0  0  0  0  0  0
  151.6437  144.7388  159.8497 C   0  0  0  0  0  0  0  0  0  0  0  0
  152.2889  144.2543  161.1566 C   0  0  0  0  0  0  0  0  0  0  0  0
  153.0213  142.9537  160.8072 C   0  0  0  0  0  0  0  0  0  0  0  0
  152.5111  142.6238  159.4150 C   0  0  0  0  0  0  0  0  0  0  0  0
  152.7813  141.5733  158.8348 O   0  0  0  0  0  0  0  0  0  0  0  0
  147.3013  140.9512  155.9854 C   0  0  2  0  0  0  0  0  0  0  0  0
  146.8081  139.5927  155.4501 C   0  0  0  0  0  0  0  0  0  0  0  0
  146.5859  142.0346  155.3219 N   0  0  0  0  0  0  0  0  0  0  0  0
  146.6148  142.3868  153.9879 C   0  0  0  0  0  0  0  0  0  0  0  0
  145.7923  143.4654  153.8321 C   0  0  0  0  0  0  0  0  0  0  0  0
  145.3008  143.7087  155.1446 C   0  0  0  0  0  0  0  0  0  0  0  0
  145.7791  142.8539  156.0341 N   0  0  0  0  0  0  0  0  0  0  0  0
  149.0851  140.2989  153.8544 H   0  0  0  0  0  0  0  0  0  0  0  0
  150.4213  141.2957  154.3645 H   0  0  0  0  0  0  0  0  0  0  0  0
  148.8973  142.0478  153.9043 H   0  0  0  0  0  0  0  0  0  0  0  0
  149.2996  140.2324  156.3435 H   0  0  0  0  0  0  0  0  0  0  0  0
  149.1671  143.1228  156.0624 H   0  0  0  0  0  0  0  0  0  0  0  0
  150.6898  141.5714  158.0233 H   0  0  0  0  0  0  0  0  0  0  0  0
  151.3255  141.8684  156.4141 H   0  0  0  0  0  0  0  0  0  0  0  0
  151.8110  144.0717  156.8955 H   0  0  0  0  0  0  0  0  0  0  0  0
  150.2602  144.3355  157.6558 H   0  0  0  0  0  0  0  0  0  0  0  0
  152.1837  145.5935  159.4399 H   0  0  0  0  0  0  0  0  0  0  0  0
  150.6028  145.0298  159.9975 H   0  0  0  0  0  0  0  0  0  0  0  0
  152.9660  145.0019  161.5714 H   0  0  0  0  0  0  0  0  0  0  0  0
  151.5202  144.0586  161.9054 H   0  0  0  0  0  0  0  0  0  0  0  0
  154.1014  143.1001  160.7748 H   0  0  0  0  0  0  0  0  0  0  0  0
  152.7965  142.1530  161.5127 H   0  0  0  0  0  0  0  0  0  0  0  0
  147.0316  141.0044  157.0416 H   0  0  0  0  0  0  0  0  0  0  0  0
  147.2316  138.7604  156.0121 H   0  0  0  0  0  0  0  0  0  0  0  0
  147.0754  139.4542  154.4020 H   0  0  0  0  0  0  0  0  0  0  0  0
  145.7232  139.5140  155.5274 H   0  0  0  0  0  0  0  0  0  0  0  0
  147.2104  141.8466  153.2668 H   0  0  0  0  0  0  0  0  0  0  0  0
  145.5759  144.0006  152.9194 H   0  0  0  0  0  0  0  0  0  0  0  0
  144.6165  144.4763  155.4751 H   0  0  0  0  0  0  0  0  0  0  0  0
  148.6538  142.3928  157.4364 H   0  0  0  0  0  0  0  0  0  0  0  0
  1  2  1  0  0  0  0
  1 19  1  0  0  0  0
  1 20  1  0  0  0  0
  1 21  1  0  0  0  0
  2  3  1  0  0  0  0
  2 12  1  0  0  0  0
  2 22  1  0  0  0  0
  3  4  1  0  0  0  0
  3 23  1  0  0  0  0
  3 41  1  0  0  0  0
  4  5  1  0  0  0  0
  4 24  1  0  0  0  0
  4 25  1  0  0  0  0
  5  6  1  0  0  0  0
  5 26  1  0  0  0  0
  5 27  1  0  0  0  0
  6 10  1  0  0  0  0
  6  7  1  0  0  0  0
  7  8  1  0  0  0  0
  7 28  1  0  0  0  0
  7 29  1  0  0  0  0
  8  9  1  0  0  0  0
  8 30  1  0  0  0  0
  8 31  1  0  0  0  0
  9 10  1  0  0  0  0
  9 32  1  0  0  0  0
  9 33  1  0  0  0  0
 10 11  2  0  0  0  0
 12 13  1  0  0  0  0
 12 14  1  0  0  0  0
 12 34  1  0  0  0  0
 13 35  1  0  0  0  0
 13 36  1  0  0  0  0
 13 37  1  0  0  0  0
 14 18  1  0  0  0  0
 14 15  1  0  0  0  0
 15 16  2  0  0  0  0
 15 38  1  0  0  0  0
 16 17  1  0  0  0  0
 16 39  1  0  0  0  0
 17 18  2  0  0  0  0
 17 40  1  0  0  0  0
M  CHG  1   3   1
M  END
> <s_m_source_file>
AV-unprocessed.smi

> <i_m_source_file_index>
3222

> <i_lp_mmshare_version>
43012

> <i_f3d_flags>
0

> <s_epik_input>
bjFbY0hdW2NIXVtjSF1uMVtDQEBIXShbQ0gzXSlbQ0BIXShbQ0gzXSlbTkhdW0NIMl1bQ0gyXU4yW0NIMl1bQ0gyXVtDSDJdQzI9Tw==

> <s_epik_cmdline>
J2VwaWtfcHl0aG9uJywgJy1waCcsICc3LjAnLCAnLXRuJywgJzgnLCAnLW1hJywgJzIwMCcsICctbWV0YWxfYmluZGluZycsICctaW1hZScsICc8aW5maWxlLm1hZT4nLCAnLW9tYWUnLCAnPG91dGZpbGUubWFlPic=

> <r_lp_tautomer_probability>
1

> <r_epik_Ionization_Penalty>
0.0064019

> <r_epik_Ionization_Penalty_Charging>
0.00639164

> <r_epik_Ionization_Penalty_Neutral>
1.02567e-05

> <r_epik_State_Penalty>
0.00472531

> <r_epik_Charging_Adjusted_Penalty>
0.011117

> <i_epik_Tot_Q>
1

> <i_epik_Tot_abs_Q>
1

> <r_epik_Metal_State_Penalty>
-0

> <b_epik_Metal_Only>
0

> <s_lp_Force_Field>
OPLS_2005

> <r_lp_Energy>
24.0012

> <b_lp_Chiralities_Consistent>
1

> <s_lp_Variant>
AV-unprocessed.smi:3222-2

> <Gold.Version>
5.8.1

> <Gold.Id.Protein>
6NUR|6NUR_protein|mol2

> <Gold.PLP.Fitness>
44.3737

> <Gold.PLP.PLP>
-40.4426

> <Gold.PLP.part.hbond>
-1.0000

> <Gold.PLP.part.metal>
0.0000

> <Gold.PLP.part.buried>
-4.3763

> <Gold.PLP.part.nonpolar>
-34.8106

> <Gold.PLP.part.repulsive>
0.1641

> <Gold.PLP.ligand.clash>
0.0000

> <Gold.PLP.ligand.torsion>
1.1014

> <Gold.PLP.Chemscore.Hbond>
2.0000

> <Gold.PLP.Chemscore.CHOScore>
0.0000

> <Gold.PLP.Chemscore.Metal>
0.0000

> <Gold.Chemscore.Hbonds>
donor molecule, donor type, donor heavy atom, donor atom, acceptor molecule, acceptor atom, score
      L1  H     3    23       P1  8028  2.00

> <Gold.PLP.Chemscore.Internal.Correction>
0.1339

> <Gold.Rescore>
     Score         DG    S(hbond)    S(metal)    S(lipo)     H(rot)  DE(clash)    DE(int)     intcor
     11.55     -13.85       0.99        0.00      86.71       1.99       0.01       2.28       ----

> <Gold.Chemscore.Fitness>
11.5526

> <Gold.Chemscore.DG>
-13.8465

> <Gold.Chemscore.ZeroCoef>
-5.4800

> <Gold.Chemscore.Hbond>
0.9943

> <Gold.Chemscore.Metal>
0.0000

> <Gold.Chemscore.Lipo>
86.7145

> <Gold.Chemscore.Internal_Hbond>
0.0000

> <Gold.Chemscore.DEClash>
0.0141

> <Gold.Chemscore.DEInternal>
2.2797

> <Gold.Chemscore.Rot>
1.9922

> <Gold.Chemscore.Internal.Correction>
   9.000000E+99

> <Gold.Chemscore.Hbonds>
donor molecule, donor type, donor heavy atom, donor atom, acceptor molecule, acceptor atom, score
      L1  H     3    23       P1  8028  0.99

> <Gold.Chemscore.Hbond.Weighted>
-3.3210

> <Gold.Chemscore.Metal.Weighted>
-0.0000

> <Gold.Chemscore.Lipo.Weighted>
-10.1456

> <Gold.Chemscore.Internal_Hbond.Weighted>
0.0000

> <Gold.Chemscore.DEClash.Weighted>
0.0141

> <Gold.Chemscore.DEInternal.Weighted>
2.2797

> <Gold.Chemscore.Rot.Weighted>
5.1002

> <Gold.Chemscore.Internal.Correction.Weighted>
   9.000000E+99

> <Gold.Protein.RotatedTorsions>
[ 6907 6896 6895 6894 ] final  -71.90 input  -60.11 | X-H torsion
[ 7974 7965 7964 7962 ] final  -19.44 input  175.53 | X-H torsion
[ 8008 7997 7996 7995 ] final  162.69 input   59.86 | X-H torsion
[ 10167 10162 10161 10158 ] final -139.55 input  -65.29 | X-H torsion
[ 10718 10713 10712 10709 ] final  -11.48 input   66.30 | X-H torsion
[ 10763 10752 10751 10750 ] final   78.87 input  -60.55 | X-H torsion
[ 11005 11000 10999 10996 ] final -114.01 input  -57.11 | X-H torsion

> <Gold.Protein.ActiveResidues>
 VAL166  LYS551  ARG553  GLY616  TRP617  ASP618  TYR619  PRO620  LYS621  CYS622 
 ASP623  PHE694  ASN695  SER759  ASP760  ASP761  ALA762  ILE779  LEU786  VAL792 
 PHE793  MET794  SER795  GLU796  ALA797  LYS798  CYS799  TRP800  GLU811  SER814 

> <Gold.Protein.RotatedAtoms>
  150.7192  134.5241  159.5667 H   0  0  0  0  0  0  0  0  0  0  0  0  # atno 6907 bound_to 6896
  152.2790  134.7847  160.0409 H   0  0  0  0  0  0  0  0  0  0  0  0  # atno 6908 bound_to 6896
  151.8500  133.3403  159.3707 H   0  0  0  0  0  0  0  0  0  0  0  0  # atno 6909 bound_to 6896
  146.1841  140.4062  142.8483 H   0  0  0  0  0  0  0  0  0  0  0  0  # atno 7974 bound_to 7965
  156.2012  140.1743  156.7894 H   0  0  0  0  0  0  0  0  0  0  0  0  # atno 8008 bound_to 7997
  154.5595  140.0702  156.8827 H   0  0  0  0  0  0  0  0  0  0  0  0  # atno 8009 bound_to 7997
  155.2875  140.3353  155.4257 H   0  0  0  0  0  0  0  0  0  0  0  0  # atno 8010 bound_to 7997
  139.8368  143.7374  152.2664 H   0  0  0  0  0  0  0  0  0  0  0  0  # atno 10167 bound_to 10162
  156.6585  130.4975  149.6038 H   0  0  0  0  0  0  0  0  0  0  0  0  # atno 10718 bound_to 10713
  153.0908  135.4861  154.8685 H   0  0  0  0  0  0  0  0  0  0  0  0  # atno 10763 bound_to 10752
  154.7266  135.3051  154.8963 H   0  0  0  0  0  0  0  0  0  0  0  0  # atno 10764 bound_to 10752
  153.9611  135.6812  153.4798 H   0  0  0  0  0  0  0  0  0  0  0  0  # atno 10765 bound_to 10752
  141.0579  133.9583  157.2721 H   0  0  0  0  0  0  0  0  0  0  0  0  # atno 11005 bound_to 11000
  144.8366  140.6792  143.6256 LP  0  0  0  0  0  0  0  0  0  0  0  0  # atno 17320 bound_to 7965
  145.3990  139.1601  143.4188 LP  0  0  0  0  0  0  0  0  0  0  0  0  # atno 17321 bound_to 7965
  139.7598  144.7510  151.0380 LP  0  0  0  0  0  0  0  0  0  0  0  0  # atno 17342 bound_to 10162
  140.7802  143.4763  151.0078 LP  0  0  0  0  0  0  0  0  0  0  0  0  # atno 17343 bound_to 10162
  156.2029  130.6631  151.1187 LP  0  0  0  0  0  0  0  0  0  0  0  0  # atno 17370 bound_to 10713
  157.7117  131.0730  150.6475 LP  0  0  0  0  0  0  0  0  0  0  0  0  # atno 17371 bound_to 10713
  139.9406  135.0191  156.8696 LP  0  0  0  0  0  0  0  0  0  0  0  0  # atno 17394 bound_to 11000
  140.5928  134.0245  155.7506 LP  0  0  0  0  0  0  0  0  0  0  0  0  # atno 17395 bound_to 11000

$$$$
