AV-unprocessed.smi:249|AV-procd|sdf|1900|dock3
  -GOLD-   2262020573D 1   1.00000     0.00000
 Structure written by MMmdl.
 64 67  0  0  0  0  0  0  0  0  2 V2000
  147.9448  128.2517  151.6738 C   0  0  0  0  0  0  0  0  0  0  0  0
  148.2181  129.0150  152.9801 C   0  0  0  0  0  0  0  0  0  0  0  0
  148.2516  130.4971  152.8115 N   0  3  2  0  0  0  0  0  0  0  0  0
  149.1258  131.1499  153.8287 C   0  0  0  0  0  0  0  0  0  0  0  0
  149.2299  132.6694  153.6204 C   0  0  0  0  0  0  0  0  0  0  0  0
  147.8428  133.3420  153.6560 C   0  0  2  0  0  0  0  0  0  0  0  0
  147.1976  133.2950  154.9786 N   0  0  0  0  0  0  0  0  0  0  0  0
  145.8565  133.8614  155.0888 C   0  0  0  0  0  0  0  0  0  0  0  0
  147.9716  133.7180  156.0034 C   0  0  0  0  0  0  0  0  0  0  0  0
  148.3314  132.7992  156.9327 N   0  0  0  0  0  0  0  0  0  0  0  0
  149.1002  133.1618  157.9645 C   0  0  0  0  0  0  0  0  0  0  0  0
  149.6033  134.3652  158.2491 N   0  0  0  0  0  0  0  0  0  0  0  0
  149.2371  135.2911  157.3169 C   0  0  0  0  0  0  0  0  0  0  0  0
  148.4296  135.0552  156.1695 C   0  0  0  0  0  0  0  0  0  0  0  0
  148.2681  136.2328  155.4499 N   0  0  0  0  0  0  0  0  0  0  0  0
  148.9389  137.1176  156.1362 C   0  0  0  0  0  0  0  0  0  0  0  0
  149.5569  136.6367  157.2683 N   0  0  0  0  0  0  0  0  0  0  0  0
  150.3586  137.4025  158.2069 C   0  0  0  0  0  0  0  0  0  0  0  0
  151.7857  137.7049  157.6867 C   0  0  2  0  0  0  0  0  0  0  0  0
  152.8344  137.7702  158.8238 C   0  0  0  0  0  0  0  0  0  0  0  0
  152.8501  136.5775  159.5812 O   0  0  0  0  0  0  0  0  0  0  0  0
  151.8124  138.9697  156.7911 C   0  0  2  0  0  0  0  0  0  0  0  0
  150.8684  140.0783  157.2226 C   0  0  0  0  0  0  0  0  0  0  0  0
  150.7721  140.9237  155.9585 C   0  0  0  0  0  0  0  0  0  0  0  0
  150.8569  140.0007  154.8797 O   0  0  0  0  0  0  0  0  0  0  0  0
  151.3414  138.7458  155.3494 C   0  0  0  0  0  0  0  0  0  0  0  0
  146.9998  132.6579  152.5637 C   0  0  0  0  0  0  0  0  0  0  0  0
  146.8917  131.1274  152.7576 C   0  0  1  0  0  0  0  0  0  0  0  0
  146.0025  130.5535  151.6346 C   0  0  0  0  0  0  0  0  0  0  0  0
  147.7678  127.1961  151.8819 H   0  0  0  0  0  0  0  0  0  0  0  0
  148.7856  128.2976  150.9823 H   0  0  0  0  0  0  0  0  0  0  0  0
  147.0608  128.6385  151.1661 H   0  0  0  0  0  0  0  0  0  0  0  0
  147.4191  128.7308  153.6608 H   0  0  0  0  0  0  0  0  0  0  0  0
  149.1494  128.6712  153.4325 H   0  0  0  0  0  0  0  0  0  0  0  0
  148.7486  130.9285  154.8280 H   0  0  0  0  0  0  0  0  0  0  0  0
  150.1353  130.7454  153.7797 H   0  0  0  0  0  0  0  0  0  0  0  0
  149.9057  133.1046  154.3570 H   0  0  0  0  0  0  0  0  0  0  0  0
  149.6968  132.8626  152.6537 H   0  0  0  0  0  0  0  0  0  0  0  0
  147.9602  134.3916  153.3844 H   0  0  0  0  0  0  0  0  0  0  0  0
  145.5737  134.0457  156.1269 H   0  0  0  0  0  0  0  0  0  0  0  0
  145.1216  133.1725  154.6723 H   0  0  0  0  0  0  0  0  0  0  0  0
  145.7883  134.8048  154.5457 H   0  0  0  0  0  0  0  0  0  0  0  0
  149.3470  132.3763  158.6635 H   0  0  0  0  0  0  0  0  0  0  0  0
  149.0044  138.1526  155.8333 H   0  0  0  0  0  0  0  0  0  0  0  0
  149.8213  138.3285  158.4123 H   0  0  0  0  0  0  0  0  0  0  0  0
  150.4070  136.8603  159.1519 H   0  0  0  0  0  0  0  0  0  0  0  0
  152.0730  136.8625  157.0557 H   0  0  0  0  0  0  0  0  0  0  0  0
  153.8342  137.9458  158.4266 H   0  0  0  0  0  0  0  0  0  0  0  0
  152.6283  138.6046  159.4936 H   0  0  0  0  0  0  0  0  0  0  0  0
  153.4722  136.6759  160.2856 H   0  0  0  0  0  0  0  0  0  0  0  0
  152.8241  139.3780  156.7650 H   0  0  0  0  0  0  0  0  0  0  0  0
  149.8888  139.6707  157.4761 H   0  0  0  0  0  0  0  0  0  0  0  0
  151.2345  140.6494  158.0762 H   0  0  0  0  0  0  0  0  0  0  0  0
  149.8537  141.5095  155.9145 H   0  0  0  0  0  0  0  0  0  0  0  0
  151.6168  141.6107  155.8957 H   0  0  0  0  0  0  0  0  0  0  0  0
  152.1382  138.3703  154.7066 H   0  0  0  0  0  0  0  0  0  0  0  0
  150.5176  138.0315  155.3161 H   0  0  0  0  0  0  0  0  0  0  0  0
  146.0075  133.1065  152.5121 H   0  0  0  0  0  0  0  0  0  0  0  0
  147.4533  132.8606  151.5921 H   0  0  0  0  0  0  0  0  0  0  0  0
  146.3941  130.9345  153.7095 H   0  0  0  0  0  0  0  0  0  0  0  0
  145.0888  131.1384  151.5251 H   0  0  0  0  0  0  0  0  0  0  0  0
  145.6799  129.5331  151.8381 H   0  0  0  0  0  0  0  0  0  0  0  0
  146.5157  130.5669  150.6724 H   0  0  0  0  0  0  0  0  0  0  0  0
  148.6767  130.6727  151.9123 H   0  0  0  0  0  0  0  0  0  0  0  0
  1  2  1  0  0  0  0
  1 30  1  0  0  0  0
  1 31  1  0  0  0  0
  1 32  1  0  0  0  0
  2  3  1  0  0  0  0
  2 33  1  0  0  0  0
  2 34  1  0  0  0  0
  3 28  1  0  0  0  0
  3  4  1  0  0  0  0
  3 64  1  0  0  0  0
  4  5  1  0  0  0  0
  4 35  1  0  0  0  0
  4 36  1  0  0  0  0
  5  6  1  0  0  0  0
  5 37  1  0  0  0  0
  5 38  1  0  0  0  0
  6  7  1  0  0  0  0
  6 27  1  0  0  0  0
  6 39  1  0  0  0  0
  7  8  1  0  0  0  0
  7  9  1  0  0  0  0
  8 40  1  0  0  0  0
  8 41  1  0  0  0  0
  8 42  1  0  0  0  0
  9 14  1  0  0  0  0
  9 10  2  0  0  0  0
 10 11  1  0  0  0  0
 11 12  2  0  0  0  0
 11 43  1  0  0  0  0
 12 13  1  0  0  0  0
 13 17  1  0  0  0  0
 13 14  2  0  0  0  0
 14 15  1  0  0  0  0
 15 16  2  0  0  0  0
 16 17  1  0  0  0  0
 16 44  1  0  0  0  0
 17 18  1  0  0  0  0
 18 19  1  0  0  0  0
 18 45  1  0  0  0  0
 18 46  1  0  0  0  0
 19 20  1  0  0  0  0
 19 22  1  0  0  0  0
 19 47  1  0  0  0  0
 20 21  1  0  0  0  0
 20 48  1  0  0  0  0
 20 49  1  0  0  0  0
 21 50  1  0  0  0  0
 22 26  1  0  0  0  0
 22 23  1  0  0  0  0
 22 51  1  0  0  0  0
 23 24  1  0  0  0  0
 23 52  1  0  0  0  0
 23 53  1  0  0  0  0
 24 25  1  0  0  0  0
 24 54  1  0  0  0  0
 24 55  1  0  0  0  0
 25 26  1  0  0  0  0
 26 56  1  0  0  0  0
 26 57  1  0  0  0  0
 27 28  1  0  0  0  0
 27 58  1  0  0  0  0
 27 59  1  0  0  0  0
 28 29  1  0  0  0  0
 28 60  1  0  0  0  0
 29 61  1  0  0  0  0
 29 62  1  0  0  0  0
 29 63  1  0  0  0  0
M  CHG  1   3   1
M  END
> <s_m_source_file>
AV-unprocessed.smi

> <i_m_source_file_index>
249

> <i_lp_mmshare_version>
43012

> <i_f3d_flags>
0

> <s_epik_input>
W0NIM11bQ0gyXU4xW0NIMl1bQ0gyXVtDQEhdKFtDSDJdW0NASF0xW0NIM10pTihbQ0gzXSljKG5bY0hdbjIpYyhjMjMpbltjSF1uM1tDSDJdW0NASF0oW0NIMl1bT0hdKVtDQEBIXTRbQ0gyXVtDSDJdT1tDSDJdNA==

> <s_epik_cmdline>
J2VwaWtfcHl0aG9uJywgJy1waCcsICc3LjAnLCAnLXRuJywgJzgnLCAnLW1hJywgJzIwMCcsICctbWV0YWxfYmluZGluZycsICctaW1hZScsICc8aW5maWxlLm1hZT4nLCAnLW9tYWUnLCAnPG91dGZpbGUubWFlPic=

> <r_lp_tautomer_probability>
1

> <r_epik_Ionization_Penalty>
0.00294688

> <r_epik_Ionization_Penalty_Charging>
0.00169971

> <r_epik_Ionization_Penalty_Neutral>
0.00124717

> <r_epik_State_Penalty>
-0

> <r_epik_Charging_Adjusted_Penalty>
0.00169971

> <i_epik_Tot_Q>
1

> <i_epik_Tot_abs_Q>
1

> <r_epik_Metal_State_Penalty>
-0

> <b_epik_Metal_Only>
0

> <s_lp_Force_Field>
OPLS_2005

> <r_lp_Energy>
57.7525

> <b_lp_Chiralities_Consistent>
1

> <s_lp_Variant>
AV-unprocessed.smi:249-3

> <Gold.Version>
5.8.1

> <Gold.Id.Protein>
6NUR|6NUR_protein|mol2

> <Gold.PLP.Fitness>
46.2111

> <Gold.PLP.PLP>
-36.5263

> <Gold.PLP.part.hbond>
-4.0000

> <Gold.PLP.part.metal>
0.0000

> <Gold.PLP.part.buried>
-5.4390

> <Gold.PLP.part.nonpolar>
-27.4649

> <Gold.PLP.part.repulsive>
0.2228

> <Gold.PLP.ligand.clash>
0.0000

> <Gold.PLP.ligand.torsion>
1.5801

> <Gold.PLP.Chemscore.Hbond>
4.0000

> <Gold.PLP.Chemscore.CHOScore>
0.0000

> <Gold.PLP.Chemscore.Metal>
0.0000

> <Gold.Chemscore.Hbonds>
donor molecule, donor type, donor heavy atom, donor atom, acceptor molecule, acceptor atom, score
      L1  H     3    64       P1 10747  1.00
      P1  H  6896  6907       L1    21  1.00
      P1  H  6896  6909       L1    12  1.00
      P1  H  7989  7998       L1    25  1.00

> <Gold.PLP.Chemscore.Internal.Correction>
0.8451

> <Gold.Rescore>
     Score         DG    S(hbond)    S(metal)    S(lipo)     H(rot)  DE(clash)    DE(int)     intcor
     15.93     -18.67       3.04        0.00      89.38       2.90       0.01       2.73       ----

> <Gold.Chemscore.Fitness>
15.9252

> <Gold.Chemscore.DG>
-18.6663

> <Gold.Chemscore.ZeroCoef>
-5.4800

> <Gold.Chemscore.Hbond>
3.0402

> <Gold.Chemscore.Metal>
0.0000

> <Gold.Chemscore.Lipo>
89.3803

> <Gold.Chemscore.Internal_Hbond>
0.0000

> <Gold.Chemscore.DEClash>
0.0106

> <Gold.Chemscore.DEInternal>
2.7305

> <Gold.Chemscore.Rot>
2.9006

> <Gold.Chemscore.Internal.Correction>
   9.000000E+99

> <Gold.Chemscore.Hbonds>
donor molecule, donor type, donor heavy atom, donor atom, acceptor molecule, acceptor atom, score
      L1  H     3    64       P1 10747  0.78
      P1  H  6896  6907       L1    21  0.53
      P1  H  6896  6909       L1    12  0.29
      P1  H  7989  7998       L1    25  0.60

> <Gold.Chemscore.Hbond.Weighted>
-10.1544

> <Gold.Chemscore.Metal.Weighted>
-0.0000

> <Gold.Chemscore.Lipo.Weighted>
-10.4575

> <Gold.Chemscore.Internal_Hbond.Weighted>
0.0000

> <Gold.Chemscore.DEClash.Weighted>
0.0106

> <Gold.Chemscore.DEInternal.Weighted>
2.7305

> <Gold.Chemscore.Rot.Weighted>
7.4256

> <Gold.Chemscore.Internal.Correction.Weighted>
   9.000000E+99

> <Gold.Protein.RotatedTorsions>
[ 6907 6896 6895 6894 ] final   12.90 input  -60.11 | X-H torsion
[ 7974 7965 7964 7962 ] final  -28.01 input  175.53 | X-H torsion
[ 8008 7997 7996 7995 ] final  128.03 input   59.86 | X-H torsion
[ 10167 10162 10161 10158 ] final   43.22 input  -65.29 | X-H torsion
[ 10718 10713 10712 10709 ] final   41.42 input   66.30 | X-H torsion
[ 10763 10752 10751 10750 ] final   -8.77 input  -60.55 | X-H torsion
[ 11005 11000 10999 10996 ] final  114.47 input  -57.11 | X-H torsion

> <Gold.Protein.ActiveResidues>
 VAL166  LYS551  ARG553  GLY616  TRP617  ASP618  TYR619  PRO620  LYS621  CYS622 
 ASP623  PHE694  ASN695  SER759  ASP760  ASP761  ALA762  ILE779  LEU786  VAL792 
 PHE793  MET794  SER795  GLU796  ALA797  LYS798  CYS799  TRP800  GLU811  SER814 

> <Gold.Protein.RotatedAtoms>
  151.7778  135.0769  160.0369 H   0  0  0  0  0  0  0  0  0  0  0  0  # atno 6907 bound_to 6896
  152.3244  133.5884  159.5775 H   0  0  0  0  0  0  0  0  0  0  0  0  # atno 6908 bound_to 6896
  150.7387  133.9879  159.3639 H   0  0  0  0  0  0  0  0  0  0  0  0  # atno 6909 bound_to 6896
  146.1318  140.5226  142.8690 H   0  0  0  0  0  0  0  0  0  0  0  0  # atno 7974 bound_to 7965
  156.2905  140.2654  156.2370 H   0  0  0  0  0  0  0  0  0  0  0  0  # atno 8008 bound_to 7997
  155.0015  140.0388  157.2380 H   0  0  0  0  0  0  0  0  0  0  0  0  # atno 8009 bound_to 7997
  154.7597  140.2758  155.6229 H   0  0  0  0  0  0  0  0  0  0  0  0  # atno 8010 bound_to 7997
  140.3465  144.2404  150.6150 H   0  0  0  0  0  0  0  0  0  0  0  0  # atno 10167 bound_to 10162
  157.3934  130.7819  149.7288 H   0  0  0  0  0  0  0  0  0  0  0  0  # atno 10718 bound_to 10713
  153.4452  135.7014  153.6143 H   0  0  0  0  0  0  0  0  0  0  0  0  # atno 10763 bound_to 10752
  153.4501  135.3760  155.2279 H   0  0  0  0  0  0  0  0  0  0  0  0  # atno 10764 bound_to 10752
  154.8728  135.3995  154.3857 H   0  0  0  0  0  0  0  0  0  0  0  0  # atno 10765 bound_to 10752
  139.8981  134.9568  156.6897 H   0  0  0  0  0  0  0  0  0  0  0  0  # atno 11005 bound_to 11000
  144.7698  140.5613  143.6678 LP  0  0  0  0  0  0  0  0  0  0  0  0  # atno 17320 bound_to 7965
  145.5243  139.1476  143.3535 LP  0  0  0  0  0  0  0  0  0  0  0  0  # atno 17321 bound_to 7965
  140.5259  143.2254  151.8315 LP  0  0  0  0  0  0  0  0  0  0  0  0  # atno 17342 bound_to 10162
  139.4832  144.4780  151.9343 LP  0  0  0  0  0  0  0  0  0  0  0  0  # atno 17343 bound_to 10162
  155.9804  130.4030  150.3531 LP  0  0  0  0  0  0  0  0  0  0  0  0  # atno 17370 bound_to 10713
  157.1649  131.0354  151.2823 LP  0  0  0  0  0  0  0  0  0  0  0  0  # atno 17371 bound_to 10713
  140.7234  133.9121  155.8162 LP  0  0  0  0  0  0  0  0  0  0  0  0  # atno 17394 bound_to 11000
  141.0209  134.0890  157.4121 LP  0  0  0  0  0  0  0  0  0  0  0  0  # atno 17395 bound_to 11000

$$$$
