AV-unprocessed.smi:1972|AV-procd|sdf|7974|dock1
  -GOLD-   2272010143D 1   1.00000     0.00000
 Structure written by MMmdl.
 44 45  0  0  0  0  0  0  0  0  1 V2000
  149.0983  132.0589  156.2375 C   0  0  0  0  0  0  0  0  0  0  0  0
  147.7670  132.7851  155.2467 S   0  0  0  0  0  0  0  0  0  0  0  0
  148.6080  134.2876  154.6684 C   0  0  0  0  0  0  0  0  0  0  0  0
  148.9210  135.2634  155.8175 C   0  0  0  0  0  0  0  0  0  0  0  0
  149.9930  136.3011  155.4666 C   0  0  0  0  0  0  0  0  0  0  0  0
  151.1012  136.2581  156.0012 O   0  0  0  0  0  0  0  0  0  0  0  0
  149.6419  137.2382  154.5720 N   0  0  0  0  0  0  0  0  0  0  0  0
  150.5020  138.3124  154.0823 C   0  0  0  0  0  0  0  0  0  0  0  0
  150.8753  139.3494  155.1330 C   0  0  0  0  0  0  0  0  0  0  0  0
  150.2910  140.6307  155.0969 C   0  0  0  0  0  0  0  0  0  0  0  0
  150.6553  141.5804  156.0702 C   0  0  0  0  0  0  0  0  0  0  0  0
  151.6077  141.2288  157.0563 C   0  0  0  0  0  0  0  0  0  0  0  0
  151.9906  142.1636  158.0437 N   0  0  0  0  0  0  0  0  0  0  0  0
  151.7619  143.5817  157.7719 C   0  0  0  0  0  0  0  0  0  0  0  0
  152.4997  144.4512  158.8033 C   0  0  0  0  0  0  0  0  0  0  0  0
  152.1123  144.0685  160.1187 O   0  0  0  0  0  0  0  0  0  0  0  0
  152.4496  142.7140  160.4042 C   0  0  1  0  0  0  0  0  0  0  0  0
  152.0843  142.4242  161.8637 C   0  0  0  0  0  0  0  0  0  0  0  0
  151.7023  141.7871  159.4257 C   0  0  0  0  0  0  0  0  0  0  0  0
  152.1697  139.9952  157.0874 N   0  0  0  0  0  0  0  0  0  0  0  0
  151.8165  139.0885  156.1522 C   0  0  0  0  0  0  0  0  0  0  0  0
  148.7688  131.1186  156.6796 H   0  0  0  0  0  0  0  0  0  0  0  0
  149.3882  132.7363  157.0408 H   0  0  0  0  0  0  0  0  0  0  0  0
  149.9713  131.8615  155.6150 H   0  0  0  0  0  0  0  0  0  0  0  0
  149.5387  133.9888  154.1856 H   0  0  0  0  0  0  0  0  0  0  0  0
  148.0014  134.7674  153.8993 H   0  0  0  0  0  0  0  0  0  0  0  0
  148.0050  135.7601  156.1416 H   0  0  0  0  0  0  0  0  0  0  0  0
  149.2838  134.6991  156.6769 H   0  0  0  0  0  0  0  0  0  0  0  0
  148.7081  137.1965  154.1896 H   0  0  0  0  0  0  0  0  0  0  0  0
  151.4176  137.9120  153.6443 H   0  0  0  0  0  0  0  0  0  0  0  0
  149.9709  138.8080  153.2692 H   0  0  0  0  0  0  0  0  0  0  0  0
  149.5666  140.8848  154.3370 H   0  0  0  0  0  0  0  0  0  0  0  0
  150.1913  142.5550  156.0557 H   0  0  0  0  0  0  0  0  0  0  0  0
  152.1114  143.8371  156.7707 H   0  0  0  0  0  0  0  0  0  0  0  0
  150.6912  143.7874  157.8077 H   0  0  0  0  0  0  0  0  0  0  0  0
  153.5809  144.3578  158.6887 H   0  0  0  0  0  0  0  0  0  0  0  0
  152.2539  145.5022  158.6517 H   0  0  0  0  0  0  0  0  0  0  0  0
  153.5266  142.5815  160.2844 H   0  0  0  0  0  0  0  0  0  0  0  0
  152.3370  141.3989  162.1349 H   0  0  0  0  0  0  0  0  0  0  0  0
  151.0172  142.5641  162.0389 H   0  0  0  0  0  0  0  0  0  0  0  0
  152.6233  143.0890  162.5392 H   0  0  0  0  0  0  0  0  0  0  0  0
  150.6261  141.8578  159.5891 H   0  0  0  0  0  0  0  0  0  0  0  0
  151.9858  140.7559  159.6304 H   0  0  0  0  0  0  0  0  0  0  0  0
  152.3087  138.1306  156.2265 H   0  0  0  0  0  0  0  0  0  0  0  0
  1  2  1  0  0  0  0
  1 22  1  0  0  0  0
  1 23  1  0  0  0  0
  1 24  1  0  0  0  0
  2  3  1  0  0  0  0
  3  4  1  0  0  0  0
  3 25  1  0  0  0  0
  3 26  1  0  0  0  0
  4  5  1  0  0  0  0
  4 27  1  0  0  0  0
  4 28  1  0  0  0  0
  5  6  2  0  0  0  0
  5  7  1  0  0  0  0
  7  8  1  0  0  0  0
  7 29  1  0  0  0  0
  8  9  1  0  0  0  0
  8 30  1  0  0  0  0
  8 31  1  0  0  0  0
  9 21  1  0  0  0  0
  9 10  2  0  0  0  0
 10 11  1  0  0  0  0
 10 32  1  0  0  0  0
 11 12  2  0  0  0  0
 11 33  1  0  0  0  0
 12 13  1  0  0  0  0
 12 20  1  0  0  0  0
 13 19  1  0  0  0  0
 13 14  1  0  0  0  0
 14 15  1  0  0  0  0
 14 34  1  0  0  0  0
 14 35  1  0  0  0  0
 15 16  1  0  0  0  0
 15 36  1  0  0  0  0
 15 37  1  0  0  0  0
 16 17  1  0  0  0  0
 17 18  1  0  0  0  0
 17 19  1  0  0  0  0
 17 38  1  0  0  0  0
 18 39  1  0  0  0  0
 18 40  1  0  0  0  0
 18 41  1  0  0  0  0
 19 42  1  0  0  0  0
 19 43  1  0  0  0  0
 20 21  2  0  0  0  0
 21 44  1  0  0  0  0
M  END
> <s_m_source_file>
AV-unprocessed.smi

> <i_m_source_file_index>
1972

> <i_lp_mmshare_version>
43012

> <i_f3d_flags>
0

> <s_epik_input>
W0NIM11TW0NIMl1bQ0gyXUMoPU8pW05IXVtDSDJdYzFbY0hdW2NIXWMobltjSF0xKU4yW0NIMl1bQ0gyXU9bQ0BASF0oW0NIM10pW0NIMl0y

> <s_epik_cmdline>
J2VwaWtfcHl0aG9uJywgJy1waCcsICc3LjAnLCAnLXRuJywgJzgnLCAnLW1hJywgJzIwMCcsICctbWV0YWxfYmluZGluZycsICctaW1hZScsICc8aW5maWxlLm1hZT4nLCAnLW9tYWUnLCAnPG91dGZpbGUubWFlPic=

> <r_lp_tautomer_probability>
1

> <r_epik_Ionization_Penalty>
0.00559088

> <r_epik_Ionization_Penalty_Charging>
0

> <r_epik_Ionization_Penalty_Neutral>
0.00559088

> <r_epik_State_Penalty>
0.00409544

> <r_epik_Charging_Adjusted_Penalty>
0.00409544

> <i_epik_Tot_Q>
0

> <i_epik_Tot_abs_Q>
0

> <r_epik_Metal_State_Penalty>
-0

> <b_epik_Metal_Only>
0

> <s_lp_Force_Field>
OPLS_2005

> <r_lp_Energy>
17.6906

> <b_lp_Chiralities_Consistent>
1

> <s_lp_Variant>
AV-unprocessed.smi:1972-1

> <Gold.Version>
5.8.1

> <Gold.Id.Protein>
6NUR|6NUR_protein|mol2

> <Gold.PLP.Fitness>
50.1411

> <Gold.PLP.PLP>
-45.2539

> <Gold.PLP.part.hbond>
-3.0000

> <Gold.PLP.part.metal>
0.0000

> <Gold.PLP.part.buried>
-3.5962

> <Gold.PLP.part.nonpolar>
-39.1416

> <Gold.PLP.part.repulsive>
0.1631

> <Gold.PLP.ligand.clash>
0.0000

> <Gold.PLP.ligand.torsion>
0.6552

> <Gold.PLP.Chemscore.Hbond>
1.9040

> <Gold.PLP.Chemscore.CHOScore>
0.0000

> <Gold.PLP.Chemscore.Metal>
0.0000

> <Gold.Chemscore.Hbonds>
donor molecule, donor type, donor heavy atom, donor atom, acceptor molecule, acceptor atom, score
      P1  H  7997  8009       L1    20  0.42

> <Gold.PLP.Chemscore.Internal.Correction>
0.4855

> <Gold.Rescore>
     Score         DG    S(hbond)    S(metal)    S(lipo)     H(rot)  DE(clash)    DE(int)     intcor
     17.91     -20.00       1.88        0.00     108.55       1.75       0.05       2.04       ----

> <Gold.Chemscore.Fitness>
17.9061

> <Gold.Chemscore.DG>
-20.0022

> <Gold.Chemscore.ZeroCoef>
-5.4800

> <Gold.Chemscore.Hbond>
1.8838

> <Gold.Chemscore.Metal>
0.0000

> <Gold.Chemscore.Lipo>
108.5474

> <Gold.Chemscore.Internal_Hbond>
0.0000

> <Gold.Chemscore.DEClash>
0.0526

> <Gold.Chemscore.DEInternal>
2.0435

> <Gold.Chemscore.Rot>
1.7460

> <Gold.Chemscore.Internal.Correction>
   9.000000E+99

> <Gold.Chemscore.Hbonds>
donor molecule, donor type, donor heavy atom, donor atom, acceptor molecule, acceptor atom, score
      P1  H  7997  8009       L1    20  0.07
      P1  H 10752 10764       L1     6  0.03

> <Gold.Chemscore.Hbond.Weighted>
-6.2918

> <Gold.Chemscore.Metal.Weighted>
-0.0000

> <Gold.Chemscore.Lipo.Weighted>
-12.7000

> <Gold.Chemscore.Internal_Hbond.Weighted>
0.0000

> <Gold.Chemscore.DEClash.Weighted>
0.0526

> <Gold.Chemscore.DEInternal.Weighted>
2.0435

> <Gold.Chemscore.Rot.Weighted>
4.4697

> <Gold.Chemscore.Internal.Correction.Weighted>
   9.000000E+99

> <Gold.Protein.RotatedTorsions>
[ 6907 6896 6895 6894 ] final  -33.54 input  -60.11 | X-H torsion
[ 7974 7965 7964 7962 ] final   34.50 input  175.53 | X-H torsion
[ 8008 7997 7996 7995 ] final  176.62 input   59.86 | X-H torsion
[ 10167 10162 10161 10158 ] final   78.24 input  -65.29 | X-H torsion
[ 10718 10713 10712 10709 ] final   27.96 input   66.30 | X-H torsion
[ 10763 10752 10751 10750 ] final  -67.22 input  -60.55 | X-H torsion
[ 11005 11000 10999 10996 ] final   54.08 input  -57.11 | X-H torsion

> <Gold.Protein.ActiveResidues>
 VAL166  LYS551  ARG553  GLY616  TRP617  ASP618  TYR619  PRO620  LYS621  CYS622 
 ASP623  PHE694  ASN695  SER759  ASP760  ASP761  ALA762  ILE779  LEU786  VAL792 
 PHE793  MET794  SER795  GLU796  ALA797  LYS798  CYS799  TRP800  GLU811  SER814 

> <Gold.Protein.RotatedAtoms>
  151.0643  134.9757  159.8275 H   0  0  0  0  0  0  0  0  0  0  0  0  # atno 6907 bound_to 6896
  152.5400  134.2379  159.8860 H   0  0  0  0  0  0  0  0  0  0  0  0  # atno 6908 bound_to 6896
  151.2400  133.4361  159.2640 H   0  0  0  0  0  0  0  0  0  0  0  0  # atno 6909 bound_to 6896
  146.1348  139.6261  142.9202 H   0  0  0  0  0  0  0  0  0  0  0  0  # atno 7974 bound_to 7965
  156.0744  140.1379  156.9789 H   0  0  0  0  0  0  0  0  0  0  0  0  # atno 8008 bound_to 7997
  154.4550  140.0965  156.6780 H   0  0  0  0  0  0  0  0  0  0  0  0  # atno 8009 bound_to 7997
  155.5176  140.3455  155.4402 H   0  0  0  0  0  0  0  0  0  0  0  0  # atno 8010 bound_to 7997
  139.9730  144.5880  150.7968 H   0  0  0  0  0  0  0  0  0  0  0  0  # atno 10167 bound_to 10162
  157.2271  130.7006  149.6296 H   0  0  0  0  0  0  0  0  0  0  0  0  # atno 10718 bound_to 10713
  154.3712  135.6094  153.5741 H   0  0  0  0  0  0  0  0  0  0  0  0  # atno 10763 bound_to 10752
  152.9790  135.5838  154.4519 H   0  0  0  0  0  0  0  0  0  0  0  0  # atno 10764 bound_to 10752
  154.4273  135.2847  155.1913 H   0  0  0  0  0  0  0  0  0  0  0  0  # atno 10765 bound_to 10752
  140.0715  134.5463  155.9041 H   0  0  0  0  0  0  0  0  0  0  0  0  # atno 11005 bound_to 11000
  145.5180  141.0433  143.2451 LP  0  0  0  0  0  0  0  0  0  0  0  0  # atno 17320 bound_to 7965
  144.7728  139.6695  143.7187 LP  0  0  0  0  0  0  0  0  0  0  0  0  # atno 17321 bound_to 7965
  140.7515  143.2974  151.3169 LP  0  0  0  0  0  0  0  0  0  0  0  0  # atno 17342 bound_to 10162
  139.6466  144.0439  152.2595 LP  0  0  0  0  0  0  0  0  0  0  0  0  # atno 17343 bound_to 10162
  155.9678  130.4501  150.5683 LP  0  0  0  0  0  0  0  0  0  0  0  0  # atno 17370 bound_to 10713
  157.3516  131.0734  151.1708 LP  0  0  0  0  0  0  0  0  0  0  0  0  # atno 17371 bound_to 10713
  141.2013  133.6618  156.5946 LP  0  0  0  0  0  0  0  0  0  0  0  0  # atno 17394 bound_to 11000
  140.3620  134.7679  157.4540 LP  0  0  0  0  0  0  0  0  0  0  0  0  # atno 17395 bound_to 11000

$$$$
