AV-unprocessed.smi:408|AV-procd|sdf|2504|dock10
  -GOLD-   2262022453D 1   1.00000     0.00000
 Structure written by MMmdl.
 40 41  0  0  0  0  0  0  0  0  2 V2000
  152.3442  143.1060  160.9355 C   0  0  0  0  0  0  0  0  0  0  0  0
  152.4366  143.7294  159.5330 C   0  0  0  0  0  0  0  0  0  0  0  0
  152.0220  145.2075  159.5762 C   0  0  0  0  0  0  0  0  0  0  0  0
  151.5933  142.9530  158.4966 C   0  0  0  0  0  0  0  0  0  0  0  0
  151.6861  141.4168  158.5840 C   0  0  0  0  0  0  0  0  0  0  0  0
  150.7076  140.7766  157.7127 N   0  0  0  0  0  0  0  0  0  0  0  0
  149.3732  140.8828  157.8143 C   0  0  0  0  0  0  0  0  0  0  0  0
  148.8067  141.6295  158.6119 O   0  0  0  0  0  0  0  0  0  0  0  0
  148.5534  139.9824  156.8879 C   0  0  0  0  0  0  0  0  0  0  0  0
  148.9612  138.5527  157.0955 C   0  0  0  0  0  0  0  0  0  0  0  0
  149.5867  137.7322  156.1919 C   0  0  0  0  0  0  0  0  0  0  0  0
  149.9598  136.1802  156.8830 S   0  0  0  0  0  0  0  0  0  0  0  0
  149.2296  136.6937  158.4038 C   0  0  0  0  0  0  0  0  0  0  0  0
  149.1656  135.9344  159.5125 N   0  5  0  0  0  0  0  0  0  0  0  0
  148.1155  135.9680  160.3797 C   0  0  0  0  0  0  0  0  0  0  0  0
  147.5610  136.9901  160.7805 O   0  0  0  0  0  0  0  0  0  0  0  0
  147.6449  134.6229  160.8599 C   0  0  0  0  0  0  0  0  0  0  0  0
  146.3044  134.5317  161.5645 C   0  0  0  0  0  0  0  0  0  0  0  0
  147.5787  134.4229  162.3609 C   0  0  0  0  0  0  0  0  0  0  0  0
  148.7333  137.9341  158.3270 N   0  0  0  0  0  0  0  0  0  0  0  0
  151.3106  143.0522  161.2787 H   0  0  0  0  0  0  0  0  0  0  0  0
  152.9023  143.6943  161.6639 H   0  0  0  0  0  0  0  0  0  0  0  0
  152.7572  142.0978  160.9538 H   0  0  0  0  0  0  0  0  0  0  0  0
  153.4817  143.7088  159.2234 H   0  0  0  0  0  0  0  0  0  0  0  0
  150.9758  145.3185  159.8620 H   0  0  0  0  0  0  0  0  0  0  0  0
  152.1556  145.6812  158.6033 H   0  0  0  0  0  0  0  0  0  0  0  0
  152.6247  145.7641  160.2946 H   0  0  0  0  0  0  0  0  0  0  0  0
  150.5482  143.2509  158.5904 H   0  0  0  0  0  0  0  0  0  0  0  0
  151.8954  143.2550  157.4927 H   0  0  0  0  0  0  0  0  0  0  0  0
  152.7004  141.0733  158.3776 H   0  0  0  0  0  0  0  0  0  0  0  0
  151.4682  141.1033  159.6050 H   0  0  0  0  0  0  0  0  0  0  0  0
  151.0722  140.1377  157.0211 H   0  0  0  0  0  0  0  0  0  0  0  0
  147.4909  140.1192  157.0932 H   0  0  0  0  0  0  0  0  0  0  0  0
  148.7121  140.2853  155.8524 H   0  0  0  0  0  0  0  0  0  0  0  0
  149.8735  137.9535  155.1749 H   0  0  0  0  0  0  0  0  0  0  0  0
  147.9190  133.7662  160.2465 H   0  0  0  0  0  0  0  0  0  0  0  0
  145.7152  135.4374  161.6956 H   0  0  0  0  0  0  0  0  0  0  0  0
  145.7244  133.6255  161.4033 H   0  0  0  0  0  0  0  0  0  0  0  0
  147.8790  133.4492  162.7391 H   0  0  0  0  0  0  0  0  0  0  0  0
  147.8445  135.2637  162.9994 H   0  0  0  0  0  0  0  0  0  0  0  0
  1  2  1  0  0  0  0
  1 21  1  0  0  0  0
  1 22  1  0  0  0  0
  1 23  1  0  0  0  0
  2  3  1  0  0  0  0
  2  4  1  0  0  0  0
  2 24  1  0  0  0  0
  3 25  1  0  0  0  0
  3 26  1  0  0  0  0
  3 27  1  0  0  0  0
  4  5  1  0  0  0  0
  4 28  1  0  0  0  0
  4 29  1  0  0  0  0
  5  6  1  0  0  0  0
  5 30  1  0  0  0  0
  5 31  1  0  0  0  0
  6  7  1  0  0  0  0
  6 32  1  0  0  0  0
  7  8  2  0  0  0  0
  7  9  1  0  0  0  0
  9 10  1  0  0  0  0
  9 33  1  0  0  0  0
  9 34  1  0  0  0  0
 10 20  1  0  0  0  0
 10 11  2  0  0  0  0
 11 12  1  0  0  0  0
 11 35  1  0  0  0  0
 12 13  1  0  0  0  0
 13 14  1  0  0  0  0
 13 20  2  0  0  0  0
 14 15  1  0  0  0  0
 15 16  2  0  0  0  0
 15 17  1  0  0  0  0
 17 19  1  0  0  0  0
 17 18  1  0  0  0  0
 17 36  1  0  0  0  0
 18 19  1  0  0  0  0
 18 37  1  0  0  0  0
 18 38  1  0  0  0  0
 19 39  1  0  0  0  0
 19 40  1  0  0  0  0
M  CHG  1  14  -1
M  END
> <s_m_source_file>
AV-unprocessed.smi

> <i_m_source_file_index>
408

> <i_lp_mmshare_version>
43012

> <i_f3d_flags>
0

> <s_epik_input>
W0NIM11bQ0hdKFtDSDNdKVtDSDJdW0NIMl1bTkhdQyg9TylbQ0gyXWMxW2NIXXNjKG4xKVtOSF1DKD1PKVtDSF0yW0NIMl1bQ0gyXTI=

> <s_epik_cmdline>
J2VwaWtfcHl0aG9uJywgJy1waCcsICc3LjAnLCAnLXRuJywgJzgnLCAnLW1hJywgJzIwMCcsICctbWV0YWxfYmluZGluZycsICctaW1hZScsICc8aW5maWxlLm1hZT4nLCAnLW9tYWUnLCAnPG91dGZpbGUubWFlPic=

> <r_lp_tautomer_probability>
1

> <r_epik_Ionization_Penalty>
5.55111

> <r_epik_Ionization_Penalty_Charging>
5.01898

> <r_epik_Ionization_Penalty_Neutral>
0.532133

> <r_epik_State_Penalty>
5.01885

> <r_epik_Charging_Adjusted_Penalty>
10.0378

> <i_epik_Tot_Q>
-1

> <i_epik_Tot_abs_Q>
1

> <r_epik_Metal_State_Penalty>
1.13336

> <b_epik_Metal_Only>
1

> <s_lp_Force_Field>
OPLS_2005

> <r_lp_Energy>
8.36317

> <b_lp_Chiralities_Consistent>
1

> <s_lp_Variant>
AV-unprocessed.smi:408-2

> <Gold.Version>
5.8.1

> <Gold.Id.Protein>
6NUR|6NUR_protein|mol2

> <Gold.PLP.Fitness>
46.1203

> <Gold.PLP.PLP>
-36.4846

> <Gold.PLP.part.hbond>
-4.0366

> <Gold.PLP.part.metal>
0.0000

> <Gold.PLP.part.buried>
-5.0828

> <Gold.PLP.part.nonpolar>
-26.8613

> <Gold.PLP.part.repulsive>
0.1351

> <Gold.PLP.ligand.clash>
0.0000

> <Gold.PLP.ligand.torsion>
0.9773

> <Gold.PLP.Chemscore.Hbond>
3.8240

> <Gold.PLP.Chemscore.CHOScore>
0.0000

> <Gold.PLP.Chemscore.Metal>
0.0000

> <Gold.Chemscore.Hbonds>
donor molecule, donor type, donor heavy atom, donor atom, acceptor molecule, acceptor atom, score
      P1  H  6896  6908       L1    14  2.00
      P1  H  6931  6943       L1    16  0.44
      P1  H  6934  6947       L1    16  0.89

> <Gold.PLP.Chemscore.Internal.Correction>
0.1184

> <Gold.Rescore>
     Score         DG    S(hbond)    S(metal)    S(lipo)     H(rot)  DE(clash)    DE(int)     intcor
     17.99     -19.24       2.53        0.00      87.31       1.92       0.08       1.18       ----

> <Gold.Chemscore.Fitness>
17.9884

> <Gold.Chemscore.DG>
-19.2420

> <Gold.Chemscore.ZeroCoef>
-5.4800

> <Gold.Chemscore.Hbond>
2.5334

> <Gold.Chemscore.Metal>
0.0000

> <Gold.Chemscore.Lipo>
87.3101

> <Gold.Chemscore.Internal_Hbond>
0.0000

> <Gold.Chemscore.DEClash>
0.0762

> <Gold.Chemscore.DEInternal>
1.1774

> <Gold.Chemscore.Rot>
1.9198

> <Gold.Chemscore.Internal.Correction>
   9.000000E+99

> <Gold.Chemscore.Hbonds>
donor molecule, donor type, donor heavy atom, donor atom, acceptor molecule, acceptor atom, score
      P1  H  6896  6908       L1    14  0.76
      P1  H  6931  6943       L1    16  0.31
      P1  H  6934  6947       L1    16  0.83

> <Gold.Chemscore.Hbond.Weighted>
-8.4615

> <Gold.Chemscore.Metal.Weighted>
-0.0000

> <Gold.Chemscore.Lipo.Weighted>
-10.2153

> <Gold.Chemscore.Internal_Hbond.Weighted>
0.0000

> <Gold.Chemscore.DEClash.Weighted>
0.0762

> <Gold.Chemscore.DEInternal.Weighted>
1.1774

> <Gold.Chemscore.Rot.Weighted>
4.9148

> <Gold.Chemscore.Internal.Correction.Weighted>
   9.000000E+99

> <Gold.Protein.RotatedTorsions>
[ 6907 6896 6895 6894 ] final -172.65 input  -60.11 | X-H torsion
[ 7974 7965 7964 7962 ] final    3.59 input  175.53 | X-H torsion
[ 8008 7997 7996 7995 ] final  -50.00 input   59.86 | X-H torsion
[ 10167 10162 10161 10158 ] final -155.70 input  -65.29 | X-H torsion
[ 10718 10713 10712 10709 ] final  -39.55 input   66.30 | X-H torsion
[ 10763 10752 10751 10750 ] final    6.36 input  -60.55 | X-H torsion
[ 11005 11000 10999 10996 ] final  143.44 input  -57.11 | X-H torsion

> <Gold.Protein.ActiveResidues>
 VAL166  LYS551  ARG553  GLY616  TRP617  ASP618  TYR619  PRO620  LYS621  CYS622 
 ASP623  PHE694  ASN695  SER759  ASP760  ASP761  ALA762  ILE779  LEU786  VAL792 
 PHE793  MET794  SER795  GLU796  ALA797  LYS798  CYS799  TRP800  GLU811  SER814 

> <Gold.Protein.RotatedAtoms>
  151.5435  133.3429  159.2939 H   0  0  0  0  0  0  0  0  0  0  0  0  # atno 6907 bound_to 6896
  150.8521  134.7852  159.7028 H   0  0  0  0  0  0  0  0  0  0  0  0  # atno 6908 bound_to 6896
  152.4565  134.5289  159.9856 H   0  0  0  0  0  0  0  0  0  0  0  0  # atno 6909 bound_to 6896
  146.2445  140.0663  142.8365 H   0  0  0  0  0  0  0  0  0  0  0  0  # atno 7974 bound_to 7965
  154.4054  140.1283  156.4594 H   0  0  0  0  0  0  0  0  0  0  0  0  # atno 8008 bound_to 7997
  155.7288  140.3491  155.5030 H   0  0  0  0  0  0  0  0  0  0  0  0  # atno 8009 bound_to 7997
  155.9146  140.1042  157.1243 H   0  0  0  0  0  0  0  0  0  0  0  0  # atno 8010 bound_to 7997
  139.6910  143.9421  152.2384 H   0  0  0  0  0  0  0  0  0  0  0  0  # atno 10167 bound_to 10162
  156.2912  130.4228  149.8237 H   0  0  0  0  0  0  0  0  0  0  0  0  # atno 10718 bound_to 10713
  153.2486  135.6911  153.7704 H   0  0  0  0  0  0  0  0  0  0  0  0  # atno 10763 bound_to 10752
  153.6807  135.3329  155.3178 H   0  0  0  0  0  0  0  0  0  0  0  0  # atno 10764 bound_to 10752
  154.8385  135.4522  154.1434 H   0  0  0  0  0  0  0  0  0  0  0  0  # atno 10765 bound_to 10752
  140.0554  134.9233  157.1091 H   0  0  0  0  0  0  0  0  0  0  0  0  # atno 11005 bound_to 11000
  145.0856  140.9250  143.4800 LP  0  0  0  0  0  0  0  0  0  0  0  0  # atno 17320 bound_to 7965
  145.0825  139.2949  143.5776 LP  0  0  0  0  0  0  0  0  0  0  0  0  # atno 17321 bound_to 7965
  139.9237  144.6784  150.8434 LP  0  0  0  0  0  0  0  0  0  0  0  0  # atno 17342 bound_to 10162
  140.7682  143.3357  151.2315 LP  0  0  0  0  0  0  0  0  0  0  0  0  # atno 17343 bound_to 10162
  156.5649  130.8399  151.3339 LP  0  0  0  0  0  0  0  0  0  0  0  0  # atno 17370 bound_to 10713
  157.7343  130.9744  150.2021 LP  0  0  0  0  0  0  0  0  0  0  0  0  # atno 17371 bound_to 10713
  140.3852  134.2244  155.7169 LP  0  0  0  0  0  0  0  0  0  0  0  0  # atno 17394 bound_to 11000
  141.1949  133.8117  157.0736 LP  0  0  0  0  0  0  0  0  0  0  0  0  # atno 17395 bound_to 11000

$$$$
