#       Name:                AV-unprocessed.smi:1891
#       Creating user name   scv26
#       Creation time:       Fri Mar 27 09:40:32 2020


#       File generated by GOLD software.
#

@<TRIPOS>MOLECULE
AV-unprocessed.smi:1891
    41    43     1
SMALL
NO_CHARGES


@<TRIPOS>ATOM
      1 ****        -1.5570   3.4382  -0.4676 O.3            1 S1                 0.0000
      2 ****        -1.7243   2.8869   0.8192 C.3            1 S1                 0.0000
      3 ****        -2.0577   1.4318   0.7743 C.2            1 S1                 0.0000
      4 ****        -3.3152   0.9062   0.7942 N.pl3          1 S1                 1.0000
      5 ****        -3.2478  -0.4860   0.7308 C.ar           1 S1                 0.0000
      6 ****        -4.2527  -1.4486   0.7241 C.ar           1 S1                 0.0000
      7 ****        -3.8387  -2.7950   0.6498 C.ar           1 S1                 0.0000
      8 ****        -2.4732  -3.1411   0.5855 C.ar           1 S1                 0.0000
      9 ****        -1.4635  -2.1562   0.5923 C.ar           1 S1                 0.0000
     10 ****        -1.8818  -0.8277   0.6664 C.ar           1 S1                 0.0000
     11 ****        -1.1845   0.3851   0.6930 N.pl3          1 S1                 0.0000
     12 ****         0.2857   0.3612   0.6332 C.3            1 S1                 0.0000
     13 ****         0.8286   0.1688  -0.7969 C.3            1 S1                 0.0000
     14 ****         0.3498   1.2051  -1.6331 O.3            1 S1                 0.0000
     15 ****         2.3482   0.0730  -0.7970 C.ar           1 S1                 0.0000
     16 ****         3.1398   1.2437  -0.7902 C.ar           1 S1                 0.0000
     17 ****         4.5450   1.1530  -0.7802 C.ar           1 S1                 0.0000
     18 ****         5.1694  -0.1085  -0.7734 C.ar           1 S1                 0.0000
     19 ****         6.5206  -0.1959  -0.7639 F              1 S1                 0.0000
     20 ****         4.3874  -1.2791  -0.7728 C.ar           1 S1                 0.0000
     21 ****         2.9815  -1.1907  -0.7814 C.ar           1 S1                 0.0000
     22 ****         2.2438  -2.3273  -0.7690 F              1 S1                 0.0000
     23 ****        -0.8290   3.0034  -0.8869 H              1 S1                 0.0000
     24 ****        -0.8165   3.0436   1.4014 H              1 S1                 0.0000
     25 ****        -2.5243   3.4241   1.3291 H              1 S1                 0.0000
     26 ****        -5.2994  -1.1860   0.7732 H              1 S1                 0.0000
     27 ****        -4.5832  -3.5780   0.6418 H              1 S1                 0.0000
     28 ****        -2.1939  -4.1833   0.5296 H              1 S1                 0.0000
     29 ****        -0.4204  -2.4317   0.5414 H              1 S1                 0.0000
     30 ****         0.6574   1.2940   1.0572 H              1 S1                 0.0000
     31 ****         0.6402  -0.4328   1.2919 H              1 S1                 0.0000
     32 ****         0.4264  -0.7569  -1.2086 H              1 S1                 0.0000
     33 ****         0.6123   1.0178  -2.5216 H              1 S1                 0.0000
     34 ****         2.6731   2.2179  -0.7892 H              1 S1                 0.0000
     35 ****         5.1435   2.0521  -0.7761 H              1 S1                 0.0000
     36 ****         4.8667  -2.2469  -0.7631 H              1 S1                 0.0000
     37 ****        -4.1574   1.4649   0.8443 H              1 S1                 0.0000
     38 ****        -1.3681   4.4174  -0.3935 LP             1 S1                 0.0000
     39 ****        -2.3885   3.2989  -1.0053 LP             1 S1                 0.0000
     40 ****         0.7389   2.0796  -1.3434 LP             1 S1                 0.0000
     41 ****        -0.6477   1.2496  -1.5781 LP             1 S1                 0.0000
@<TRIPOS>BOND
    1    1    2 1     
    2    1   23 1     
    3    2    3 1     
    4    2   24 1     
    5    2   25 1     
    6    3   11 1     
    7    3    4 2     
    8    4    5 1     
    9    4   37 1     
   10    5   10 ar    
   11    5    6 ar    
   12    6    7 ar    
   13    6   26 1     
   14    7    8 ar    
   15    7   27 1     
   16    8    9 ar    
   17    8   28 1     
   18    9   10 ar    
   19    9   29 1     
   20   10   11 1     
   21   11   12 1     
   22   12   13 1     
   23   12   30 1     
   24   12   31 1     
   25   13   14 1     
   26   13   15 1     
   27   13   32 1     
   28   14   33 1     
   29   15   21 ar    
   30   15   16 ar    
   31   16   17 ar    
   32   16   34 1     
   33   17   18 ar    
   34   17   35 1     
   35   18   19 1     
   36   18   20 ar    
   37   20   21 ar    
   38   20   36 1     
   39   21   22 1     
   40    1   38 1     
   41    1   39 1     
   42   14   40 1     
   43   14   41 1     
@<TRIPOS>SUBSTRUCTURE
      1 S1             1
@<TRIPOS>SET
LONE_PAIRS      STATIC     ATOMS    <user>   **** ""
4 38 39 40 41
DONOR_HYDROGENS      STATIC     ATOMS    <user>   **** ""
3 23 37 33
ATOM$BLUE        STATIC     ATOMS    COLORGROUP SYSTEM
4 38 39 40 41
ATOM$RED        STATIC     ATOMS    COLORGROUP SYSTEM
3 23 37 33
