AV-unprocessed.smi:635|AV-procd|sdf|3139|dock8
  -GOLD-   22720 0 63D 1   1.00000     0.00000
 Structure written by MMmdl.
 37 38  0  0  0  0  0  0  0  0  1 V2000
  155.3626  145.1041  167.5124 C   0  0  0  0  0  0  0  0  0  0  0  0
  156.3139  144.2960  168.4017 C   0  0  0  0  0  0  0  0  0  0  0  0
  155.6752  143.0000  168.9246 C   0  0  0  0  0  0  0  0  0  0  0  0
  155.3353  142.0054  167.8074 C   0  0  0  0  0  0  0  0  0  0  0  0
  156.4521  141.8860  166.9336 O   0  0  0  0  0  0  0  0  0  0  0  0
  156.2097  141.1314  165.7496 C   0  0  0  0  0  0  0  0  0  0  0  0
  155.3563  141.9176  164.7481 C   0  0  0  0  0  0  0  0  0  0  0  0
  154.8607  142.9906  165.0910 O   0  0  0  0  0  0  0  0  0  0  0  0
  155.2000  141.3521  163.5363 N   0  0  0  0  0  0  0  0  0  0  0  0
  154.4586  141.8401  162.4290 C   0  0  0  0  0  0  0  0  0  0  0  0
  153.4271  142.7487  162.7454 C   0  0  0  0  0  0  0  0  0  0  0  0
  152.6572  143.2754  161.6945 C   0  0  0  0  0  0  0  0  0  0  0  0
  152.9701  142.8556  160.3882 C   0  0  0  0  0  0  0  0  0  0  0  0
  152.2319  143.3568  159.1863 C   0  0  0  0  0  0  0  0  0  0  0  0
  152.4416  144.7605  158.6632 C   0  0  0  0  0  0  0  0  0  0  0  0
  151.1380  144.3906  159.3260 C   0  0  0  0  0  0  0  0  0  0  0  0
  153.9739  141.9865  160.1353 N   0  0  0  0  0  0  0  0  0  0  0  0
  154.7009  141.4870  161.1401 N   0  0  0  0  0  0  0  0  0  0  0  0
  155.8445  146.0145  167.1554 H   0  0  0  0  0  0  0  0  0  0  0  0
  154.4646  145.3948  168.0583 H   0  0  0  0  0  0  0  0  0  0  0  0
  155.0536  144.5273  166.6401 H   0  0  0  0  0  0  0  0  0  0  0  0
  157.2161  144.0601  167.8365 H   0  0  0  0  0  0  0  0  0  0  0  0
  156.6302  144.9136  169.2429 H   0  0  0  0  0  0  0  0  0  0  0  0
  156.3607  142.5226  169.6257 H   0  0  0  0  0  0  0  0  0  0  0  0
  154.7721  143.2332  169.4898 H   0  0  0  0  0  0  0  0  0  0  0  0
  155.0804  141.0338  168.2329 H   0  0  0  0  0  0  0  0  0  0  0  0
  154.4595  142.3614  167.2639 H   0  0  0  0  0  0  0  0  0  0  0  0
  157.1684  140.9085  165.2806 H   0  0  0  0  0  0  0  0  0  0  0  0
  155.7431  140.1745  165.9895 H   0  0  0  0  0  0  0  0  0  0  0  0
  155.6777  140.4747  163.3904 H   0  0  0  0  0  0  0  0  0  0  0  0
  153.2289  143.0381  163.7672 H   0  0  0  0  0  0  0  0  0  0  0  0
  151.8584  143.9766  161.8853 H   0  0  0  0  0  0  0  0  0  0  0  0
  152.0888  142.5625  158.4560 H   0  0  0  0  0  0  0  0  0  0  0  0
  153.1070  145.4223  159.2140 H   0  0  0  0  0  0  0  0  0  0  0  0
  152.4181  144.9107  157.5857 H   0  0  0  0  0  0  0  0  0  0  0  0
  150.2663  144.2971  158.6816 H   0  0  0  0  0  0  0  0  0  0  0  0
  150.9479  144.7997  160.3165 H   0  0  0  0  0  0  0  0  0  0  0  0
  1  2  1  0  0  0  0
  1 19  1  0  0  0  0
  1 20  1  0  0  0  0
  1 21  1  0  0  0  0
  2  3  1  0  0  0  0
  2 22  1  0  0  0  0
  2 23  1  0  0  0  0
  3  4  1  0  0  0  0
  3 24  1  0  0  0  0
  3 25  1  0  0  0  0
  4  5  1  0  0  0  0
  4 26  1  0  0  0  0
  4 27  1  0  0  0  0
  5  6  1  0  0  0  0
  6  7  1  0  0  0  0
  6 28  1  0  0  0  0
  6 29  1  0  0  0  0
  7  8  2  0  0  0  0
  7  9  1  0  0  0  0
  9 10  1  0  0  0  0
  9 30  1  0  0  0  0
 10 18  1  0  0  0  0
 10 11  2  0  0  0  0
 11 12  1  0  0  0  0
 11 31  1  0  0  0  0
 12 13  2  0  0  0  0
 12 32  1  0  0  0  0
 13 14  1  0  0  0  0
 13 17  1  0  0  0  0
 14 16  1  0  0  0  0
 14 15  1  0  0  0  0
 14 33  1  0  0  0  0
 15 16  1  0  0  0  0
 15 34  1  0  0  0  0
 15 35  1  0  0  0  0
 16 36  1  0  0  0  0
 16 37  1  0  0  0  0
 17 18  2  0  0  0  0
M  END
> <s_m_source_file>
AV-unprocessed.smi

> <i_m_source_file_index>
635

> <i_lp_mmshare_version>
43012

> <i_f3d_flags>
0

> <s_epik_input>
W0NIM11bQ0gyXVtDSDJdW0NIMl1PW0NIMl1DKD1PKVtOSF1jMVtjSF1bY0hdYyhubjEpW0NIXTJbQ0gyXVtDSDJdMg==

> <s_epik_cmdline>
J2VwaWtfcHl0aG9uJywgJy1waCcsICc3LjAnLCAnLXRuJywgJzgnLCAnLW1hJywgJzIwMCcsICctbWV0YWxfYmluZGluZycsICctaW1hZScsICc8aW5maWxlLm1hZT4nLCAnLW9tYWUnLCAnPG91dGZpbGUubWFlPic=

> <r_lp_tautomer_probability>
1

> <r_epik_Ionization_Penalty>
0.00559584

> <r_epik_Ionization_Penalty_Charging>
0

> <r_epik_Ionization_Penalty_Neutral>
0.00559584

> <r_epik_State_Penalty>
-0

> <r_epik_Charging_Adjusted_Penalty>
0

> <i_epik_Tot_Q>
0

> <i_epik_Tot_abs_Q>
0

> <r_epik_Metal_State_Penalty>
-0

> <b_epik_Metal_Only>
0

> <s_lp_Force_Field>
OPLS_2005

> <r_lp_Energy>
16.6483

> <b_lp_Chiralities_Consistent>
1

> <s_lp_Variant>
AV-unprocessed.smi:635-1

> <Gold.Version>
5.8.1

> <Gold.Id.Protein>
6NUR|6NUR_protein|mol2

> <Gold.PLP.Fitness>
44.6786

> <Gold.PLP.PLP>
-45.4116

> <Gold.PLP.part.hbond>
-2.0569

> <Gold.PLP.part.metal>
0.0000

> <Gold.PLP.part.buried>
-4.2156

> <Gold.PLP.part.nonpolar>
-37.8256

> <Gold.PLP.part.repulsive>
0.0404

> <Gold.PLP.ligand.clash>
0.0000

> <Gold.PLP.ligand.torsion>
0.4622

> <Gold.PLP.Chemscore.Hbond>
0.0000

> <Gold.PLP.Chemscore.CHOScore>
0.0000

> <Gold.PLP.Chemscore.Metal>
0.0000

> <Gold.PLP.Chemscore.Internal.Correction>
0.1915

> <Gold.Rescore>
     Score         DG    S(hbond)    S(metal)    S(lipo)     H(rot)  DE(clash)    DE(int)     intcor
     10.24     -13.11       0.00        0.00     104.92       1.82       0.21       2.66       ----

> <Gold.Chemscore.Fitness>
10.2376

> <Gold.Chemscore.DG>
-13.1086

> <Gold.Chemscore.ZeroCoef>
-5.4800

> <Gold.Chemscore.Hbond>
0.0000

> <Gold.Chemscore.Metal>
0.0000

> <Gold.Chemscore.Lipo>
104.9212

> <Gold.Chemscore.Internal_Hbond>
0.0000

> <Gold.Chemscore.DEClash>
0.2127

> <Gold.Chemscore.DEInternal>
2.6582

> <Gold.Chemscore.Rot>
1.8153

> <Gold.Chemscore.Internal.Correction>
   9.000000E+99

> <Gold.Chemscore.Hbond.Weighted>
-0.0000

> <Gold.Chemscore.Metal.Weighted>
-0.0000

> <Gold.Chemscore.Lipo.Weighted>
-12.2758

> <Gold.Chemscore.Internal_Hbond.Weighted>
0.0000

> <Gold.Chemscore.DEClash.Weighted>
0.2127

> <Gold.Chemscore.DEInternal.Weighted>
2.6582

> <Gold.Chemscore.Rot.Weighted>
4.6472

> <Gold.Chemscore.Internal.Correction.Weighted>
   9.000000E+99

> <Gold.Protein.RotatedTorsions>
[ 6907 6896 6895 6894 ] final -121.45 input  -60.11 | X-H torsion
[ 7974 7965 7964 7962 ] final  105.76 input  175.53 | X-H torsion
[ 8008 7997 7996 7995 ] final  -33.57 input   59.86 | X-H torsion
[ 10167 10162 10161 10158 ] final   44.34 input  -65.29 | X-H torsion
[ 10718 10713 10712 10709 ] final  108.73 input   66.30 | X-H torsion
[ 10763 10752 10751 10750 ] final  -91.20 input  -60.55 | X-H torsion
[ 11005 11000 10999 10996 ] final   73.66 input  -57.11 | X-H torsion

> <Gold.Protein.ActiveResidues>
 VAL166  LYS551  ARG553  GLY616  TRP617  ASP618  TYR619  PRO620  LYS621  CYS622 
 ASP623  PHE694  ASN695  SER759  ASP760  ASP761  ALA762  ILE779  LEU786  VAL792 
 PHE793  MET794  SER795  GLU796  ALA797  LYS798  CYS799  TRP800  GLU811  SER814 

> <Gold.Protein.RotatedAtoms>
  150.8484  133.7824  159.3034 H   0  0  0  0  0  0  0  0  0  0  0  0  # atno 6907 bound_to 6896
  151.5504  135.1066  159.9958 H   0  0  0  0  0  0  0  0  0  0  0  0  # atno 6908 bound_to 6896
  152.4533  133.7629  159.6812 H   0  0  0  0  0  0  0  0  0  0  0  0  # atno 6909 bound_to 6896
  145.3155  139.2528  143.3740 H   0  0  0  0  0  0  0  0  0  0  0  0  # atno 7974 bound_to 7965
  154.4145  140.1707  156.1909 H   0  0  0  0  0  0  0  0  0  0  0  0  # atno 8008 bound_to 7997
  155.9604  140.3394  155.6462 H   0  0  0  0  0  0  0  0  0  0  0  0  # atno 8009 bound_to 7997
  155.6756  140.0716  157.2494 H   0  0  0  0  0  0  0  0  0  0  0  0  # atno 8010 bound_to 7997
  140.3353  144.2538  150.6162 H   0  0  0  0  0  0  0  0  0  0  0  0  # atno 10167 bound_to 10162
  157.6573  131.0899  150.6348 H   0  0  0  0  0  0  0  0  0  0  0  0  # atno 10718 bound_to 10713
  154.6736  135.5276  153.8170 H   0  0  0  0  0  0  0  0  0  0  0  0  # atno 10763 bound_to 10752
  153.0517  135.6535  154.0686 H   0  0  0  0  0  0  0  0  0  0  0  0  # atno 10764 bound_to 10752
  154.0582  135.2964  155.3309 H   0  0  0  0  0  0  0  0  0  0  0  0  # atno 10765 bound_to 10752
  139.9429  134.7366  156.1053 H   0  0  0  0  0  0  0  0  0  0  0  0  # atno 11005 bound_to 11000
  146.3102  140.3700  142.8673 LP  0  0  0  0  0  0  0  0  0  0  0  0  # atno 17320 bound_to 7965
  144.8981  140.7609  143.5884 LP  0  0  0  0  0  0  0  0  0  0  0  0  # atno 17321 bound_to 7965
  140.5359  143.2233  151.8163 LP  0  0  0  0  0  0  0  0  0  0  0  0  # atno 17342 bound_to 10162
  139.4849  144.4661  151.9482 LP  0  0  0  0  0  0  0  0  0  0  0  0  # atno 17343 bound_to 10162
  156.6653  130.4524  149.5674 LP  0  0  0  0  0  0  0  0  0  0  0  0  # atno 17370 bound_to 10713
  156.2037  130.6635  151.1195 LP  0  0  0  0  0  0  0  0  0  0  0  0  # atno 17371 bound_to 10713
  141.1070  133.6656  156.2887 LP  0  0  0  0  0  0  0  0  0  0  0  0  # atno 17394 bound_to 11000
  140.5906  134.5654  157.5499 LP  0  0  0  0  0  0  0  0  0  0  0  0  # atno 17395 bound_to 11000

$$$$
