#       Name:                AV-unprocessed.smi:53
#       Creating user name   scv26
#       Creation time:       Thu Mar 26 16:39:49 2020


#       File generated by GOLD software.
#

@<TRIPOS>MOLECULE
AV-unprocessed.smi:53
    41    42     1
SMALL
NO_CHARGES


@<TRIPOS>ATOM
      1 ****        -4.9964  -0.2842   0.0752 N.pl3          1 S1                 0.0000
      2 ****        -3.6657  -0.4310   0.1391 C.2            1 S1                 0.0000
      3 ****        -2.8542   0.5510   0.8207 C.2            1 S1                 0.0000
      4 ****        -1.5201   0.3365   0.8377 C.2            1 S1                 0.0000
      5 ****        -0.9368  -0.7637   0.2180 N.am           1 S1                 0.0000
      6 ****         0.5607  -1.0230   0.2476 C.3            1 S1                 0.0000
      7 ****         1.1908  -0.0421   1.0185 O.3            1 S1                 0.0000
      8 ****         1.6963   0.9835   0.1695 C.3            1 S1                 0.0000
      9 ****         2.7249   1.8605   0.9037 C.3            1 S1                 0.0000
     10 ****         2.0602   2.8549   1.6538 O.3            1 S1                 0.0000
     11 ****         2.2326   0.1724  -1.0136 C.3            1 S1                 0.0000
     12 ****         3.5163  -0.3536  -0.7159 O.3            1 S1                 0.0000
     13 ****         1.1699  -0.9154  -1.1701 C.3            1 S1                 0.0000
     14 ****         1.7055  -2.1352  -1.6500 O.3            1 S1                 0.0000
     15 ****        -1.7652  -1.7220  -0.4159 C.2            1 S1                 0.0000
     16 ****        -1.2994  -2.7327  -0.9411 O.2            1 S1                 0.0000
     17 ****        -3.1135  -1.4867  -0.4257 N.2            1 S1                 0.0000
     18 ****         0.6773  -1.9976   0.7262 H              1 S1                 0.0000
     19 ****         0.8707   1.6008  -0.1902 H              1 S1                 0.0000
     20 ****         2.3173   0.7806  -1.9148 H              1 S1                 0.0000
     21 ****         0.4069  -0.5650  -1.8668 H              1 S1                 0.0000
     22 ****        -5.5612  -0.9740  -0.3989 H              1 S1                 0.0000
     23 ****        -5.4328   0.5180   0.5061 H              1 S1                 0.0000
     24 ****        -3.2624   1.4268   1.3044 H              1 S1                 0.0000
     25 ****        -0.9182   1.0667   1.3571 H              1 S1                 0.0000
     26 ****         3.3682   1.2641   1.5518 H              1 S1                 0.0000
     27 ****         3.3674   2.3685   0.1839 H              1 S1                 0.0000
     28 ****         2.7094   3.3836   2.0924 H              1 S1                 0.0000
     29 ****         3.7471  -0.9694  -1.3949 H              1 S1                 0.0000
     30 ****         1.0037  -2.7672  -1.6988 H              1 S1                 0.0000
     31 ****         1.9461  -0.4541   1.5283 LP             1 S1                 0.0000
     32 ****         0.5317   0.3515   1.6593 LP             1 S1                 0.0000
     33 ****         1.4628   2.4242   2.3303 LP             1 S1                 0.0000
     34 ****         1.5138   3.4287   1.0438 LP             1 S1                 0.0000
     35 ****         3.4951  -0.8180   0.1695 LP             1 S1                 0.0000
     36 ****         4.1877   0.3870  -0.6878 LP             1 S1                 0.0000
     37 ****         2.4136  -2.4633  -1.0247 LP             1 S1                 0.0000
     38 ****         2.1007  -1.9974  -2.5582 LP             1 S1                 0.0000
     39 ****        -0.3126  -2.8939  -0.9272 LP             1 S1                 0.0000
     40 ****        -1.9077  -3.3929  -1.3818 LP             1 S1                 0.0000
     41 ****        -3.7085  -2.1474  -0.8833 LP             1 S1                 0.0000
@<TRIPOS>BOND
    1    1    2 1     
    2    1   22 1     
    3    1   23 1     
    4    2   17 2     
    5    2    3 1     
    6    3    4 2     
    7    3   24 1     
    8    4    5 1     
    9    4   25 1     
   10    5    6 1     
   11    5   15 am    
   12    6   18 1     
   13    6   13 1     
   14    6    7 1     
   15    7    8 1     
   16    8   19 1     
   17    8    9 1     
   18    8   11 1     
   19    9   10 1     
   20    9   26 1     
   21    9   27 1     
   22   10   28 1     
   23   11   20 1     
   24   11   12 1     
   25   11   13 1     
   26   12   29 1     
   27   13   21 1     
   28   13   14 1     
   29   14   30 1     
   30   15   16 2     
   31   15   17 1     
   32    7   31 1     
   33    7   32 1     
   34   10   33 1     
   35   10   34 1     
   36   12   35 1     
   37   12   36 1     
   38   14   37 1     
   39   14   38 1     
   40   16   39 1     
   41   16   40 1     
   42   17   41 1     
@<TRIPOS>SUBSTRUCTURE
      1 S1             1
@<TRIPOS>SET
LONE_PAIRS      STATIC     ATOMS    <user>   **** ""
11 31 32 33 34 35 36 37 38 39 40 41
DONOR_HYDROGENS      STATIC     ATOMS    <user>   **** ""
5 22 23 28 29 30
ATOM$BLUE        STATIC     ATOMS    COLORGROUP SYSTEM
11 31 32 33 34 35 36 37 38 39 40 41
ATOM$RED        STATIC     ATOMS    COLORGROUP SYSTEM
5 22 23 28 29 30
