AV-unprocessed.smi:1843|AV-procd|sdf|7507|dock2
  -GOLD-   22720 9213D 1   1.00000     0.00000
 Structure written by MMmdl.
 36 38  0  0  0  0  0  0  0  0  2 V2000
  149.2137  141.7105  155.7566 O   0  0  0  0  0  0  0  0  0  0  0  0
  150.3085  141.1538  155.6459 C   0  0  0  0  0  0  0  0  0  0  0  0
  150.6451  140.2230  154.7245 N   0  5  0  0  0  0  0  0  0  0  0  0
  150.4267  138.9214  154.9741 C   0  0  0  0  0  0  0  0  0  0  0  0
  149.3720  138.4908  155.6804 N   0  0  0  0  0  0  0  0  0  0  0  0
  149.3342  137.1102  155.8149 N   0  0  0  0  0  0  0  0  0  0  0  0
  150.3604  136.5161  155.2015 C   0  0  0  0  0  0  0  0  0  0  0  0
  150.5462  135.0356  155.2038 C   0  0  0  0  0  0  0  0  0  0  0  0
  149.6312  134.1400  154.4006 C   0  0  0  0  0  0  0  0  0  0  0  0
  149.5703  134.1172  155.9065 C   0  0  0  0  0  0  0  0  0  0  0  0
  151.4629  137.6185  154.3937 S   0  0  0  0  0  0  0  0  0  0  0  0
  151.3010  141.4509  156.4966 N   0  0  0  0  0  0  0  0  0  0  0  0
  151.2338  142.4053  157.6020 C   0  0  1  0  0  0  0  0  0  0  0  0
  151.8442  141.7514  158.8627 C   0  0  0  0  0  0  0  0  0  0  0  0
  151.9779  142.7406  160.0292 C   0  0  0  0  0  0  0  0  0  0  0  0
  152.7966  143.9696  159.6138 C   0  0  0  0  0  0  0  0  0  0  0  0
  152.1579  144.6573  158.4003 C   0  0  0  0  0  0  0  0  0  0  0  0
  152.0017  143.6898  157.2113 C   0  0  2  0  0  0  0  0  0  0  0  0
  151.2920  144.3753  156.1988 O   0  0  0  0  0  0  0  0  0  0  0  0
  151.6034  134.7812  155.2446 H   0  0  0  0  0  0  0  0  0  0  0  0
  148.8026  134.6075  153.8721 H   0  0  0  0  0  0  0  0  0  0  0  0
  150.0796  133.2837  153.9014 H   0  0  0  0  0  0  0  0  0  0  0  0
  149.9786  133.2454  156.4133 H   0  0  0  0  0  0  0  0  0  0  0  0
  148.6928  134.5590  156.3744 H   0  0  0  0  0  0  0  0  0  0  0  0
  152.1772  140.9667  156.3678 H   0  0  0  0  0  0  0  0  0  0  0  0
  150.1939  142.6670  157.8087 H   0  0  0  0  0  0  0  0  0  0  0  0
  151.2368  140.9012  159.1757 H   0  0  0  0  0  0  0  0  0  0  0  0
  152.8306  141.3503  158.6255 H   0  0  0  0  0  0  0  0  0  0  0  0
  150.9867  143.0521  160.3613 H   0  0  0  0  0  0  0  0  0  0  0  0
  152.4501  142.2488  160.8799 H   0  0  0  0  0  0  0  0  0  0  0  0
  152.8646  144.6705  160.4460 H   0  0  0  0  0  0  0  0  0  0  0  0
  153.8177  143.6706  159.3742 H   0  0  0  0  0  0  0  0  0  0  0  0
  151.1806  145.0490  158.6878 H   0  0  0  0  0  0  0  0  0  0  0  0
  152.7596  145.5181  158.1058 H   0  0  0  0  0  0  0  0  0  0  0  0
  152.9903  143.4288  156.8303 H   0  0  0  0  0  0  0  0  0  0  0  0
  150.3678  144.3086  156.3869 H   0  0  0  0  0  0  0  0  0  0  0  0
  1  2  2  0  0  0  0
  2  3  1  0  0  0  0
  2 12  1  0  0  0  0
  3  4  1  0  0  0  0
  4 11  1  0  0  0  0
  4  5  2  0  0  0  0
  5  6  1  0  0  0  0
  6  7  2  0  0  0  0
  7  8  1  0  0  0  0
  7 11  1  0  0  0  0
  8 10  1  0  0  0  0
  8  9  1  0  0  0  0
  8 20  1  0  0  0  0
  9 10  1  0  0  0  0
  9 21  1  0  0  0  0
  9 22  1  0  0  0  0
 10 23  1  0  0  0  0
 10 24  1  0  0  0  0
 12 13  1  0  0  0  0
 12 25  1  0  0  0  0
 13 18  1  0  0  0  0
 13 14  1  0  0  0  0
 13 26  1  0  0  0  0
 14 15  1  0  0  0  0
 14 27  1  0  0  0  0
 14 28  1  0  0  0  0
 15 16  1  0  0  0  0
 15 29  1  0  0  0  0
 15 30  1  0  0  0  0
 16 17  1  0  0  0  0
 16 31  1  0  0  0  0
 16 32  1  0  0  0  0
 17 18  1  0  0  0  0
 17 33  1  0  0  0  0
 17 34  1  0  0  0  0
 18 19  1  0  0  0  0
 18 35  1  0  0  0  0
 19 36  1  0  0  0  0
M  CHG  1   3  -1
M  END
> <s_m_source_file>
AV-unprocessed.smi

> <i_m_source_file_index>
1843

> <i_lp_mmshare_version>
43012

> <i_f3d_flags>
0

> <s_epik_input>
W09IXVtDQEBIXTFbQ0gyXVtDSDJdW0NIMl1bQ0gyXVtDQEhdMVtOSF1DKD1PKVtOSF1jMm5uYyhzMilbQ0hdM1tDSDJdW0NIMl0z

> <s_epik_cmdline>
J2VwaWtfcHl0aG9uJywgJy1waCcsICc3LjAnLCAnLXRuJywgJzgnLCAnLW1hJywgJzIwMCcsICctbWV0YWxfYmluZGluZycsICctaW1hZScsICc8aW5maWxlLm1hZT4nLCAnLW9tYWUnLCAnPG91dGZpbGUubWFlPic=

> <r_lp_tautomer_probability>
1

> <r_epik_Ionization_Penalty>
4.7996

> <r_epik_Ionization_Penalty_Charging>
4.64516

> <r_epik_Ionization_Penalty_Neutral>
0.154442

> <r_epik_State_Penalty>
4.64493

> <r_epik_Charging_Adjusted_Penalty>
9.29009

> <i_epik_Tot_Q>
-1

> <i_epik_Tot_abs_Q>
1

> <r_epik_Metal_State_Penalty>
0.896144

> <b_epik_Metal_Only>
1

> <s_lp_Force_Field>
OPLS_2005

> <r_lp_Energy>
6.73246

> <b_lp_Chiralities_Consistent>
1

> <s_lp_Variant>
AV-unprocessed.smi:1843-8

> <Gold.Version>
5.8.1

> <Gold.Id.Protein>
6NUR|6NUR_protein|mol2

> <Gold.PLP.Fitness>
37.8187

> <Gold.PLP.PLP>
-34.8883

> <Gold.PLP.part.hbond>
-1.7766

> <Gold.PLP.part.metal>
0.0000

> <Gold.PLP.part.buried>
-3.9145

> <Gold.PLP.part.nonpolar>
-29.6055

> <Gold.PLP.part.repulsive>
1.0765

> <Gold.PLP.ligand.clash>
0.0000

> <Gold.PLP.ligand.torsion>
1.2715

> <Gold.PLP.Chemscore.Hbond>
1.7680

> <Gold.PLP.Chemscore.CHOScore>
0.0000

> <Gold.PLP.Chemscore.Metal>
0.0000

> <Gold.Chemscore.Hbonds>
donor molecule, donor type, donor heavy atom, donor atom, acceptor molecule, acceptor atom, score
      L1  H    19    36       P1  8028  0.75
      P1  H  7989  7998       L1     3  1.00

> <Gold.PLP.Chemscore.Internal.Correction>
0.1694

> <Gold.Rescore>
     Score         DG    S(hbond)    S(metal)    S(lipo)     H(rot)  DE(clash)    DE(int)     intcor
     15.25     -16.75       1.43        0.00      93.02       1.72       0.20       1.30       ----

> <Gold.Chemscore.Fitness>
15.2474

> <Gold.Chemscore.DG>
-16.7519

> <Gold.Chemscore.ZeroCoef>
-5.4800

> <Gold.Chemscore.Hbond>
1.4315

> <Gold.Chemscore.Metal>
0.0000

> <Gold.Chemscore.Lipo>
93.0220

> <Gold.Chemscore.Internal_Hbond>
0.0000

> <Gold.Chemscore.DEClash>
0.2047

> <Gold.Chemscore.DEInternal>
1.2999

> <Gold.Chemscore.Rot>
1.7160

> <Gold.Chemscore.Internal.Correction>
   9.000000E+99

> <Gold.Chemscore.Hbonds>
donor molecule, donor type, donor heavy atom, donor atom, acceptor molecule, acceptor atom, score
      L1  H    19    36       P1  8028  0.76
      P1  H  7989  7998       L1     3  0.82

> <Gold.Chemscore.Hbond.Weighted>
-4.7813

> <Gold.Chemscore.Metal.Weighted>
-0.0000

> <Gold.Chemscore.Lipo.Weighted>
-10.8836

> <Gold.Chemscore.Internal_Hbond.Weighted>
0.0000

> <Gold.Chemscore.DEClash.Weighted>
0.2047

> <Gold.Chemscore.DEInternal.Weighted>
1.2999

> <Gold.Chemscore.Rot.Weighted>
4.3930

> <Gold.Chemscore.Internal.Correction.Weighted>
   9.000000E+99

> <Gold.Protein.RotatedTorsions>
[ 6907 6896 6895 6894 ] final  -78.87 input  -60.11 | X-H torsion
[ 7974 7965 7964 7962 ] final    5.11 input  175.53 | X-H torsion
[ 8008 7997 7996 7995 ] final  -35.62 input   59.86 | X-H torsion
[ 10167 10162 10161 10158 ] final -127.51 input  -65.29 | X-H torsion
[ 10718 10713 10712 10709 ] final   92.61 input   66.30 | X-H torsion
[ 10763 10752 10751 10750 ] final  133.08 input  -60.55 | X-H torsion
[ 11005 11000 10999 10996 ] final  115.35 input  -57.11 | X-H torsion

> <Gold.Protein.ActiveResidues>
 VAL166  LYS551  ARG553  GLY616  TRP617  ASP618  TYR619  PRO620  LYS621  CYS622 
 ASP623  PHE694  ASN695  SER759  ASP760  ASP761  ALA762  ILE779  LEU786  VAL792 
 PHE793  MET794  SER795  GLU796  ALA797  LYS798  CYS799  TRP800  GLU811  SER814 

> <Gold.Protein.RotatedAtoms>
  150.6962  134.4206  159.5203 H   0  0  0  0  0  0  0  0  0  0  0  0  # atno 6907 bound_to 6896
  152.1950  134.8636  160.0523 H   0  0  0  0  0  0  0  0  0  0  0  0  # atno 6908 bound_to 6896
  151.9577  133.3650  159.4060 H   0  0  0  0  0  0  0  0  0  0  0  0  # atno 6909 bound_to 6896
  146.2442  140.0434  142.8380 H   0  0  0  0  0  0  0  0  0  0  0  0  # atno 7974 bound_to 7965
  154.4091  140.1652  156.2241 H   0  0  0  0  0  0  0  0  0  0  0  0  # atno 8008 bound_to 7997
  155.9338  140.3413  155.6248 H   0  0  0  0  0  0  0  0  0  0  0  0  # atno 8009 bound_to 7997
  155.7073  140.0752  157.2376 H   0  0  0  0  0  0  0  0  0  0  0  0  # atno 8010 bound_to 7997
  139.9601  143.5959  152.2448 H   0  0  0  0  0  0  0  0  0  0  0  0  # atno 10167 bound_to 10162
  157.6958  131.0449  150.3907 H   0  0  0  0  0  0  0  0  0  0  0  0  # atno 10718 bound_to 10713
  153.8012  135.3141  155.3390 H   0  0  0  0  0  0  0  0  0  0  0  0  # atno 10763 bound_to 10752
  154.8088  135.4680  154.0465 H   0  0  0  0  0  0  0  0  0  0  0  0  # atno 10764 bound_to 10752
  153.1813  135.6894  153.8561 H   0  0  0  0  0  0  0  0  0  0  0  0  # atno 10765 bound_to 10752
  139.9007  134.9582  156.7032 H   0  0  0  0  0  0  0  0  0  0  0  0  # atno 11005 bound_to 11000
  145.1049  140.9369  143.4691 LP  0  0  0  0  0  0  0  0  0  0  0  0  # atno 17320 bound_to 7965
  145.0635  139.3087  143.5868 LP  0  0  0  0  0  0  0  0  0  0  0  0  # atno 17321 bound_to 7965
  139.6560  144.7662  151.2054 LP  0  0  0  0  0  0  0  0  0  0  0  0  # atno 17342 bound_to 10162
  140.7556  143.6084  150.8629 LP  0  0  0  0  0  0  0  0  0  0  0  0  # atno 17343 bound_to 10162
  156.4311  130.3972  149.6760 LP  0  0  0  0  0  0  0  0  0  0  0  0  # atno 17370 bound_to 10713
  156.3977  130.7659  151.2664 LP  0  0  0  0  0  0  0  0  0  0  0  0  # atno 17371 bound_to 10713
  140.7134  133.9203  155.8099 LP  0  0  0  0  0  0  0  0  0  0  0  0  # atno 17394 bound_to 11000
  141.0283  134.0792  157.4044 LP  0  0  0  0  0  0  0  0  0  0  0  0  # atno 17395 bound_to 11000

$$$$
