AV-unprocessed.smi:38|AV-procd|sdf|340|dock10
  -GOLD-   2262016173D 1   1.00000     0.00000
 Structure written by MMmdl.
 28 29  0  0  0  0  0  0  0  0  1 V2000
  153.0779  138.6305  156.6872 O   0  0  0  0  0  0  0  0  0  0  0  0
  152.1392  139.2709  156.2178 C   0  0  0  0  0  0  0  0  0  0  0  0
  151.6335  140.3797  156.9016 N   0  0  0  0  0  0  0  0  0  0  0  0
  150.5728  141.1803  156.4752 C   0  0  0  0  0  0  0  0  0  0  0  0
  150.2232  142.1474  157.1505 O   0  0  0  0  0  0  0  0  0  0  0  0
  149.9433  140.8308  155.2594 N   0  0  0  0  0  0  0  0  0  0  0  0
  148.7990  141.6952  154.7685 C   0  0  2  0  0  0  0  0  0  0  0  0
  147.5253  141.4602  155.5946 C   0  0  0  0  0  0  0  0  0  0  0  0
  146.4568  141.5039  154.5247 C   0  0  2  0  0  0  0  0  0  0  0  0
  145.2640  140.8653  154.9339 O   0  0  0  0  0  0  0  0  0  0  0  0
  147.1573  140.8490  153.3282 C   0  0  2  0  0  0  0  0  0  0  0  0
  147.2058  139.3050  153.3635 C   0  0  0  0  0  0  0  0  0  0  0  0
  147.6667  138.8124  152.1236 O   0  0  0  0  0  0  0  0  0  0  0  0
  148.4850  141.3654  153.4423 O   0  0  0  0  0  0  0  0  0  0  0  0
  150.4330  139.7511  154.5315 C   0  0  0  0  0  0  0  0  0  0  0  0
  151.4665  138.9850  154.9543 C   0  0  0  0  0  0  0  0  0  0  0  0
  151.8814  137.9548  154.1978 F   0  0  0  0  0  0  0  0  0  0  0  0
  152.0759  140.6248  157.7753 H   0  0  0  0  0  0  0  0  0  0  0  0
  149.1679  142.7218  154.8079 H   0  0  0  0  0  0  0  0  0  0  0  0
  146.2325  142.5444  154.2852 H   0  0  0  0  0  0  0  0  0  0  0  0
  146.6969  141.1833  152.3975 H   0  0  0  0  0  0  0  0  0  0  0  0
  147.5643  140.4763  156.0658 H   0  0  0  0  0  0  0  0  0  0  0  0
  147.4030  142.2213  156.3657 H   0  0  0  0  0  0  0  0  0  0  0  0
  144.7228  140.7213  154.1725 H   0  0  0  0  0  0  0  0  0  0  0  0
  147.8291  138.9298  154.1746 H   0  0  0  0  0  0  0  0  0  0  0  0
  146.2088  138.8907  153.5117 H   0  0  0  0  0  0  0  0  0  0  0  0
  148.1465  138.0130  152.2772 H   0  0  0  0  0  0  0  0  0  0  0  0
  149.9911  139.4880  153.5823 H   0  0  0  0  0  0  0  0  0  0  0  0
  1  2  2  0  0  0  0
  2 16  1  0  0  0  0
  2  3  1  0  0  0  0
  3 18  1  0  0  0  0
  3  4  1  0  0  0  0
  4  5  2  0  0  0  0
  4  6  1  0  0  0  0
  6  7  1  0  0  0  0
  6 15  1  0  0  0  0
  7 19  1  0  0  0  0
  7 14  1  0  0  0  0
  7  8  1  0  0  0  0
  8  9  1  0  0  0  0
  8 22  1  0  0  0  0
  8 23  1  0  0  0  0
  9 20  1  0  0  0  0
  9 10  1  0  0  0  0
  9 11  1  0  0  0  0
 10 24  1  0  0  0  0
 11 21  1  0  0  0  0
 11 12  1  0  0  0  0
 11 14  1  0  0  0  0
 12 13  1  0  0  0  0
 12 25  1  0  0  0  0
 12 26  1  0  0  0  0
 13 27  1  0  0  0  0
 15 16  2  0  0  0  0
 15 28  1  0  0  0  0
 16 17  1  0  0  0  0
M  END
> <s_m_source_file>
AV-unprocessed.smi

> <i_m_source_file_index>
38

> <i_lp_mmshare_version>
43012

> <i_f3d_flags>
0

> <s_epik_input>
Tz1jMVtuSF1jKD1PKW4oW2NIXWMxRilbQ0BIXTJbQ0gyXVtDQEhdKFtPSF0pW0NASF0oTzIpW0NIMl1bT0hd

> <s_epik_cmdline>
J2VwaWtfcHl0aG9uJywgJy1waCcsICc3LjAnLCAnLXRuJywgJzgnLCAnLW1hJywgJzIwMCcsICctbWV0YWxfYmluZGluZycsICctaW1hZScsICc8aW5maWxlLm1hZT4nLCAnLW9tYWUnLCAnPG91dGZpbGUubWFlPic=

> <r_lp_tautomer_probability>
0.999537

> <r_epik_Ionization_Penalty>
0.0357432

> <r_epik_Ionization_Penalty_Charging>
0.0357431

> <r_epik_Ionization_Penalty_Neutral>
1.19946e-07

> <r_epik_State_Penalty>
0.0298169

> <r_epik_Charging_Adjusted_Penalty>
0.06556

> <i_epik_Tot_Q>
0

> <i_epik_Tot_abs_Q>
0

> <r_epik_Metal_State_Penalty>
2.348

> <b_epik_Metal_Only>
0

> <s_epik_Chemistry_Notes>
This compound contains an acetal/aminal-like group ( X-CH(R)-Y where X, Y are N, S, or O) that may be acid/base labile, releasing an aldehyde.

> <s_lp_Force_Field>
OPLS_2005

> <r_lp_Energy>
30.3129

> <b_lp_Chiralities_Consistent>
1

> <s_lp_Variant>
AV-unprocessed.smi:38-6

> <Gold.Version>
5.8.1

> <Gold.Id.Protein>
6NUR|6NUR_protein|mol2

> <Gold.PLP.Fitness>
44.4313

> <Gold.PLP.PLP>
-30.5838

> <Gold.PLP.part.hbond>
-4.9141

> <Gold.PLP.part.metal>
0.0000

> <Gold.PLP.part.buried>
-1.7299

> <Gold.PLP.part.nonpolar>
-26.3419

> <Gold.PLP.part.repulsive>
2.3348

> <Gold.PLP.ligand.clash>
0.0000

> <Gold.PLP.ligand.torsion>
0.3187

> <Gold.PLP.Chemscore.Hbond>
3.8320

> <Gold.PLP.Chemscore.CHOScore>
0.9886

> <Gold.PLP.Chemscore.Metal>
0.0000

> <Gold.Chemscore.Hbonds>
donor molecule, donor type, donor heavy atom, donor atom, acceptor molecule, acceptor atom, score
      L1  H    10    24       P1 10175  1.00
      L1  H    13    27       P1  7948  1.00
      P1  H  7997  8010       L1     1  1.00
      P1  H  8011  8017       L1    14  0.80
      L1  C    15    28       P1  7957  1.00

> <Gold.PLP.Chemscore.Internal.Correction>
0.0229

> <Gold.Rescore>
     Score         DG    S(hbond)    S(metal)    S(lipo)     H(rot)  DE(clash)    DE(int)     intcor
     11.80     -12.98       3.15        0.00      38.03       2.91       0.72       0.46       ----

> <Gold.Chemscore.Fitness>
11.8010

> <Gold.Chemscore.DG>
-12.9798

> <Gold.Chemscore.ZeroCoef>
-5.4800

> <Gold.Chemscore.Hbond>
3.1470

> <Gold.Chemscore.Metal>
0.0000

> <Gold.Chemscore.Lipo>
38.0255

> <Gold.Chemscore.Internal_Hbond>
0.0000

> <Gold.Chemscore.DEClash>
0.7226

> <Gold.Chemscore.DEInternal>
0.4562

> <Gold.Chemscore.Rot>
2.9141

> <Gold.Chemscore.Internal.Correction>
   9.000000E+99

> <Gold.Chemscore.Hbonds>
donor molecule, donor type, donor heavy atom, donor atom, acceptor molecule, acceptor atom, score
      L1  H    10    24       P1 10175  0.96
      L1  H    13    27       P1  7948  0.97
      P1  H  7997  8010       L1     1  0.24
      P1  H  8011  8017       L1    14  0.38

> <Gold.Chemscore.Hbond.Weighted>
-10.5109

> <Gold.Chemscore.Metal.Weighted>
-0.0000

> <Gold.Chemscore.Lipo.Weighted>
-4.4490

> <Gold.Chemscore.Internal_Hbond.Weighted>
0.0000

> <Gold.Chemscore.DEClash.Weighted>
0.7226

> <Gold.Chemscore.DEInternal.Weighted>
0.4562

> <Gold.Chemscore.Rot.Weighted>
7.4601

> <Gold.Chemscore.Internal.Correction.Weighted>
   9.000000E+99

> <Gold.Protein.RotatedTorsions>
[ 6907 6896 6895 6894 ] final -126.51 input  -60.11 | X-H torsion
[ 7974 7965 7964 7962 ] final    6.18 input  175.53 | X-H torsion
[ 8008 7997 7996 7995 ] final   51.14 input   59.86 | X-H torsion
[ 10167 10162 10161 10158 ] final  -19.58 input  -65.29 | X-H torsion
[ 10718 10713 10712 10709 ] final -142.65 input   66.30 | X-H torsion
[ 10763 10752 10751 10750 ] final   31.01 input  -60.55 | X-H torsion
[ 11005 11000 10999 10996 ] final  126.29 input  -57.11 | X-H torsion

> <Gold.Protein.ActiveResidues>
 VAL166  LYS551  ARG553  GLY616  TRP617  ASP618  TYR619  PRO620  LYS621  CYS622 
 ASP623  PHE694  ASN695  SER759  ASP760  ASP761  ALA762  ILE779  LEU786  VAL792 
 PHE793  MET794  SER795  GLU796  ALA797  LYS798  CYS799  TRP800  GLU811  SER814 

> <Gold.Protein.RotatedAtoms>
  150.8977  133.7159  159.2887 H   0  0  0  0  0  0  0  0  0  0  0  0  # atno 6907 bound_to 6896
  151.4689  135.1043  159.9755 H   0  0  0  0  0  0  0  0  0  0  0  0  # atno 6908 bound_to 6896
  152.4858  133.8322  159.7164 H   0  0  0  0  0  0  0  0  0  0  0  0  # atno 6909 bound_to 6896
  146.2436  140.0273  142.8393 H   0  0  0  0  0  0  0  0  0  0  0  0  # atno 7974 bound_to 7965
  155.4304  140.3450  155.4279 H   0  0  0  0  0  0  0  0  0  0  0  0  # atno 8008 bound_to 7997
  156.1340  140.1522  156.9053 H   0  0  0  0  0  0  0  0  0  0  0  0  # atno 8009 bound_to 7997
  154.4917  140.0839  156.7589 H   0  0  0  0  0  0  0  0  0  0  0  0  # atno 8010 bound_to 7997
  140.7269  143.4805  151.0124 H   0  0  0  0  0  0  0  0  0  0  0  0  # atno 10167 bound_to 10162
  156.3485  130.7675  151.1824 H   0  0  0  0  0  0  0  0  0  0  0  0  # atno 10718 bound_to 10713
  153.0339  135.6450  154.1133 H   0  0  0  0  0  0  0  0  0  0  0  0  # atno 10763 bound_to 10752
  154.0850  135.2870  155.3284 H   0  0  0  0  0  0  0  0  0  0  0  0  # atno 10764 bound_to 10752
  154.6504  135.5428  153.7958 H   0  0  0  0  0  0  0  0  0  0  0  0  # atno 10765 bound_to 10752
  139.9449  134.9631  156.8685 H   0  0  0  0  0  0  0  0  0  0  0  0  # atno 11005 bound_to 11000
  145.1187  140.9449  143.4613 LP  0  0  0  0  0  0  0  0  0  0  0  0  # atno 17320 bound_to 7965
  145.0503  139.3187  143.5932 LP  0  0  0  0  0  0  0  0  0  0  0  0  # atno 17321 bound_to 7965
  139.8503  143.7447  152.3178 LP  0  0  0  0  0  0  0  0  0  0  0  0  # atno 17342 bound_to 10162
  139.7627  144.7501  151.0340 LP  0  0  0  0  0  0  0  0  0  0  0  0  # atno 17343 bound_to 10162
  157.7457  131.0434  150.4743 LP  0  0  0  0  0  0  0  0  0  0  0  0  # atno 17370 bound_to 10713
  156.4935  130.4100  149.6393 LP  0  0  0  0  0  0  0  0  0  0  0  0  # atno 17371 bound_to 10713
  140.5860  134.0307  155.7481 LP  0  0  0  0  0  0  0  0  0  0  0  0  # atno 17394 bound_to 11000
  141.1096  133.9638  157.2935 LP  0  0  0  0  0  0  0  0  0  0  0  0  # atno 17395 bound_to 11000

$$$$
