AV-unprocessed.smi:275|AV-procd|sdf|2062|dock5
  -GOLD-   2262021313D 1   1.00000     0.00000
 Structure written by MMmdl.
 65 69  0  0  0  0  0  0  0  0  1 V2000
  153.4646  141.7392  161.4316 C   0  0  0  0  0  0  0  0  0  0  0  0
  153.2317  140.5322  160.4986 C   0  0  0  0  0  0  0  0  0  0  0  0
  154.5814  139.9525  160.0445 C   0  0  0  0  0  0  0  0  0  0  0  0
  152.3084  140.7745  159.2836 C   0  0  2  0  0  0  0  0  0  0  0  0
  152.9039  140.4643  157.9893 N   0  0  0  0  0  0  0  0  0  0  0  0
  152.7502  139.1234  157.5477 C   0  0  0  0  0  0  0  0  0  0  0  0
  153.4407  138.1811  158.2379 N   0  0  0  0  0  0  0  0  0  0  0  0
  153.3609  136.8878  157.9132 C   0  0  0  0  0  0  0  0  0  0  0  0
  152.6558  136.3162  156.9373 N   0  0  0  0  0  0  0  0  0  0  0  0
  151.9546  137.2482  156.2332 C   0  0  0  0  0  0  0  0  0  0  0  0
  151.9432  138.6536  156.4671 C   0  0  0  0  0  0  0  0  0  0  0  0
  151.1053  139.2708  155.5437 N   0  0  0  0  0  0  0  0  0  0  0  0
  150.6503  138.2914  154.8115 C   0  0  0  0  0  0  0  0  0  0  0  0
  151.1166  137.0431  155.1524 N   0  0  0  0  0  0  0  0  0  0  0  0
  150.7884  135.7823  154.5104 C   0  0  0  0  0  0  0  0  0  0  0  0
  149.4899  135.1398  155.0591 C   0  0  2  0  0  0  0  0  0  0  0  0
  149.2414  135.4766  156.5495 C   0  0  0  0  0  0  0  0  0  0  0  0
  150.0682  134.7068  157.3984 O   0  0  0  0  0  0  0  0  0  0  0  0
  149.4466  133.6149  154.7864 C   0  0  2  0  0  0  0  0  0  0  0  0
  149.4861  133.2294  153.3181 C   0  0  0  0  0  0  0  0  0  0  0  0
  148.9678  131.7956  153.3462 C   0  0  0  0  0  0  0  0  0  0  0  0
  148.0487  131.7384  154.4313 O   0  0  0  0  0  0  0  0  0  0  0  0
  148.1503  132.9211  155.2179 C   0  0  0  0  0  0  0  0  0  0  0  0
  152.0485  141.4408  157.3316 C   0  0  0  0  0  0  0  0  0  0  0  0
  151.9574  142.1609  158.6900 C   0  0  0  0  0  0  0  0  0  0  0  0
  150.5658  142.6808  159.0901 C   0  0  0  0  0  0  0  0  0  0  0  0
  150.1312  143.9256  158.3004 C   0  0  0  0  0  0  0  0  0  0  0  0
  151.1420  145.0644  158.4705 C   0  0  0  0  0  0  0  0  0  0  0  0
  152.5550  144.5971  158.1055 C   0  0  0  0  0  0  0  0  0  0  0  0
  152.9495  143.3279  158.8810 C   0  0  0  0  0  0  0  0  0  0  0  0
  153.8664  142.5991  160.8951 H   0  0  0  0  0  0  0  0  0  0  0  0
  154.1835  141.4858  162.2110 H   0  0  0  0  0  0  0  0  0  0  0  0
  152.5602  142.0505  161.9473 H   0  0  0  0  0  0  0  0  0  0  0  0
  152.7659  139.7567  161.1080 H   0  0  0  0  0  0  0  0  0  0  0  0
  155.1430  140.6724  159.4486 H   0  0  0  0  0  0  0  0  0  0  0  0
  154.4429  139.0565  159.4389 H   0  0  0  0  0  0  0  0  0  0  0  0
  155.2001  139.6761  160.8985 H   0  0  0  0  0  0  0  0  0  0  0  0
  151.3726  140.2293  159.4126 H   0  0  0  0  0  0  0  0  0  0  0  0
  153.9466  136.2158  158.5231 H   0  0  0  0  0  0  0  0  0  0  0  0
  149.9652  138.4543  153.9920 H   0  0  0  0  0  0  0  0  0  0  0  0
  150.7018  135.9718  153.4404 H   0  0  0  0  0  0  0  0  0  0  0  0
  151.6308  135.1004  154.6348 H   0  0  0  0  0  0  0  0  0  0  0  0
  148.6613  135.5851  154.5061 H   0  0  0  0  0  0  0  0  0  0  0  0
  149.4220  136.5330  156.7483 H   0  0  0  0  0  0  0  0  0  0  0  0
  148.2009  135.2977  156.8197 H   0  0  0  0  0  0  0  0  0  0  0  0
  150.9619  134.7868  157.1011 H   0  0  0  0  0  0  0  0  0  0  0  0
  150.2840  133.1290  155.2900 H   0  0  0  0  0  0  0  0  0  0  0  0
  148.8102  133.8602  152.7387 H   0  0  0  0  0  0  0  0  0  0  0  0
  150.4811  133.3018  152.8787 H   0  0  0  0  0  0  0  0  0  0  0  0
  148.4967  131.5042  152.4072 H   0  0  0  0  0  0  0  0  0  0  0  0
  149.7837  131.1001  153.5467 H   0  0  0  0  0  0  0  0  0  0  0  0
  148.1382  132.6838  156.2820 H   0  0  0  0  0  0  0  0  0  0  0  0
  147.2848  133.5491  155.0023 H   0  0  0  0  0  0  0  0  0  0  0  0
  152.5578  142.0060  156.5509 H   0  0  0  0  0  0  0  0  0  0  0  0
  151.0942  141.0430  156.9856 H   0  0  0  0  0  0  0  0  0  0  0  0
  149.8163  141.9012  158.9482 H   0  0  0  0  0  0  0  0  0  0  0  0
  150.5496  142.9095  160.1565 H   0  0  0  0  0  0  0  0  0  0  0  0
  150.0343  143.6743  157.2435 H   0  0  0  0  0  0  0  0  0  0  0  0
  149.1456  144.2523  158.6328 H   0  0  0  0  0  0  0  0  0  0  0  0
  150.8564  145.9164  157.8527 H   0  0  0  0  0  0  0  0  0  0  0  0
  151.1289  145.4116  159.5043 H   0  0  0  0  0  0  0  0  0  0  0  0
  152.6069  144.4015  157.0339 H   0  0  0  0  0  0  0  0  0  0  0  0
  153.2721  145.3935  158.3065 H   0  0  0  0  0  0  0  0  0  0  0  0
  153.0474  143.5679  159.9403 H   0  0  0  0  0  0  0  0  0  0  0  0
  153.9425  143.0405  158.5373 H   0  0  0  0  0  0  0  0  0  0  0  0
  1  2  1  0  0  0  0
  1 31  1  0  0  0  0
  1 32  1  0  0  0  0
  1 33  1  0  0  0  0
  2  3  1  0  0  0  0
  2  4  1  0  0  0  0
  2 34  1  0  0  0  0
  3 35  1  0  0  0  0
  3 36  1  0  0  0  0
  3 37  1  0  0  0  0
  4 25  1  0  0  0  0
  4  5  1  0  0  0  0
  4 38  1  0  0  0  0
  5  6  1  0  0  0  0
  5 24  1  0  0  0  0
  6 11  1  0  0  0  0
  6  7  2  0  0  0  0
  7  8  1  0  0  0  0
  8  9  2  0  0  0  0
  8 39  1  0  0  0  0
  9 10  1  0  0  0  0
 10 14  1  0  0  0  0
 10 11  2  0  0  0  0
 11 12  1  0  0  0  0
 12 13  2  0  0  0  0
 13 14  1  0  0  0  0
 13 40  1  0  0  0  0
 14 15  1  0  0  0  0
 15 16  1  0  0  0  0
 15 41  1  0  0  0  0
 15 42  1  0  0  0  0
 16 17  1  0  0  0  0
 16 19  1  0  0  0  0
 16 43  1  0  0  0  0
 17 18  1  0  0  0  0
 17 44  1  0  0  0  0
 17 45  1  0  0  0  0
 18 46  1  0  0  0  0
 19 23  1  0  0  0  0
 19 20  1  0  0  0  0
 19 47  1  0  0  0  0
 20 21  1  0  0  0  0
 20 48  1  0  0  0  0
 20 49  1  0  0  0  0
 21 22  1  0  0  0  0
 21 50  1  0  0  0  0
 21 51  1  0  0  0  0
 22 23  1  0  0  0  0
 23 52  1  0  0  0  0
 23 53  1  0  0  0  0
 24 25  1  0  0  0  0
 24 54  1  0  0  0  0
 24 55  1  0  0  0  0
 25 30  1  0  0  0  0
 25 26  1  0  0  0  0
 26 27  1  0  0  0  0
 26 56  1  0  0  0  0
 26 57  1  0  0  0  0
 27 28  1  0  0  0  0
 27 58  1  0  0  0  0
 27 59  1  0  0  0  0
 28 29  1  0  0  0  0
 28 60  1  0  0  0  0
 28 61  1  0  0  0  0
 29 30  1  0  0  0  0
 29 62  1  0  0  0  0
 29 63  1  0  0  0  0
 30 64  1  0  0  0  0
 30 65  1  0  0  0  0
M  END
> <s_m_source_file>
AV-unprocessed.smi

> <i_m_source_file_index>
275

> <i_lp_mmshare_version>
43012

> <i_f3d_flags>
0

> <s_epik_input>
W0NIMl0xW0NIMl1bQ0gyXVtDSDJdW0NIMl1DMTJbQ0BIXShbQ0hdKFtDSDNdKVtDSDNdKU4oW0NIMl0yKWMobltjSF1uMyljKGMzNCluW2NIXW40W0NIMl1bQ0BIXShbQ0gyXVtPSF0pW0NAQEhdNVtDSDJdW0NIMl1PW0NIMl01

> <s_epik_cmdline>
J2VwaWtfcHl0aG9uJywgJy1waCcsICc3LjAnLCAnLXRuJywgJzgnLCAnLW1hJywgJzIwMCcsICctbWV0YWxfYmluZGluZycsICctaW1hZScsICc8aW5maWxlLm1hZT4nLCAnLW9tYWUnLCAnPG91dGZpbGUubWFlPic=

> <r_lp_tautomer_probability>
1

> <r_epik_Ionization_Penalty>
0.00375122

> <r_epik_Ionization_Penalty_Charging>
0

> <r_epik_Ionization_Penalty_Neutral>
0.00375122

> <r_epik_State_Penalty>
0.00260593

> <r_epik_Charging_Adjusted_Penalty>
0.00260593

> <i_epik_Tot_Q>
0

> <i_epik_Tot_abs_Q>
0

> <r_epik_Metal_State_Penalty>
-0

> <b_epik_Metal_Only>
0

> <s_lp_Force_Field>
OPLS_2005

> <r_lp_Energy>
69.4255

> <b_lp_Chiralities_Consistent>
1

> <s_lp_Variant>
AV-unprocessed.smi:275-1

> <Gold.Version>
5.8.1

> <Gold.Id.Protein>
6NUR|6NUR_protein|mol2

> <Gold.PLP.Fitness>
46.3105

> <Gold.PLP.PLP>
-44.9855

> <Gold.PLP.part.hbond>
-3.0000

> <Gold.PLP.part.metal>
0.0000

> <Gold.PLP.part.buried>
-0.9431

> <Gold.PLP.part.nonpolar>
-40.8816

> <Gold.PLP.part.repulsive>
0.0179

> <Gold.PLP.ligand.clash>
0.0000

> <Gold.PLP.ligand.torsion>
2.2480

> <Gold.PLP.Chemscore.Hbond>
1.7520

> <Gold.PLP.Chemscore.CHOScore>
0.0000

> <Gold.PLP.Chemscore.Metal>
0.0000

> <Gold.Chemscore.Hbonds>
donor molecule, donor type, donor heavy atom, donor atom, acceptor molecule, acceptor atom, score
      P1  H  6896  6909       L1    18  0.37
      P1  H 10752 10765       L1     9  0.78

> <Gold.PLP.Chemscore.Internal.Correction>
0.5649

> <Gold.Rescore>
     Score         DG    S(hbond)    S(metal)    S(lipo)     H(rot)  DE(clash)    DE(int)     intcor
     12.58     -19.24       1.20        0.00     138.93       2.54       0.98       5.68       ----

> <Gold.Chemscore.Fitness>
12.5810

> <Gold.Chemscore.DG>
-19.2418

> <Gold.Chemscore.ZeroCoef>
-5.4800

> <Gold.Chemscore.Hbond>
1.1987

> <Gold.Chemscore.Metal>
0.0000

> <Gold.Chemscore.Lipo>
138.9297

> <Gold.Chemscore.Internal_Hbond>
0.0000

> <Gold.Chemscore.DEClash>
0.9762

> <Gold.Chemscore.DEInternal>
5.6846

> <Gold.Chemscore.Rot>
2.5377

> <Gold.Chemscore.Internal.Correction>
   9.000000E+99

> <Gold.Chemscore.Hbonds>
donor molecule, donor type, donor heavy atom, donor atom, acceptor molecule, acceptor atom, score
      P1  H  6896  6909       L1    18  0.03
      P1  H 10752 10765       L1     9  0.11

> <Gold.Chemscore.Hbond.Weighted>
-4.0036

> <Gold.Chemscore.Metal.Weighted>
-0.0000

> <Gold.Chemscore.Lipo.Weighted>
-16.2548

> <Gold.Chemscore.Internal_Hbond.Weighted>
0.0000

> <Gold.Chemscore.DEClash.Weighted>
0.9762

> <Gold.Chemscore.DEInternal.Weighted>
5.6846

> <Gold.Chemscore.Rot.Weighted>
6.4966

> <Gold.Chemscore.Internal.Correction.Weighted>
   9.000000E+99

> <Gold.Protein.RotatedTorsions>
[ 6907 6896 6895 6894 ] final   21.40 input  -60.11 | X-H torsion
[ 7974 7965 7964 7962 ] final  -31.63 input  175.53 | X-H torsion
[ 8008 7997 7996 7995 ] final   33.51 input   59.86 | X-H torsion
[ 10167 10162 10161 10158 ] final  115.25 input  -65.29 | X-H torsion
[ 10718 10713 10712 10709 ] final  125.94 input   66.30 | X-H torsion
[ 10763 10752 10751 10750 ] final -124.23 input  -60.55 | X-H torsion
[ 11005 11000 10999 10996 ] final  163.17 input  -57.11 | X-H torsion

> <Gold.Protein.ActiveResidues>
 VAL166  LYS551  ARG553  GLY616  TRP617  ASP618  TYR619  PRO620  LYS621  CYS622 
 ASP623  PHE694  ASN695  SER759  ASP760  ASP761  ALA762  ILE779  LEU786  VAL792 
 PHE793  MET794  SER795  GLU796  ALA797  LYS798  CYS799  TRP800  GLU811  SER814 

> <Gold.Protein.RotatedAtoms>
  151.9112  135.0338  160.0514 H   0  0  0  0  0  0  0  0  0  0  0  0  # atno 6907 bound_to 6896
  152.2278  133.5029  159.5207 H   0  0  0  0  0  0  0  0  0  0  0  0  # atno 6908 bound_to 6896
  150.7017  134.1174  159.4065 H   0  0  0  0  0  0  0  0  0  0  0  0  # atno 6909 bound_to 6896
  146.1053  140.5691  142.8802 H   0  0  0  0  0  0  0  0  0  0  0  0  # atno 7974 bound_to 7965
  155.1398  140.3265  155.4455 H   0  0  0  0  0  0  0  0  0  0  0  0  # atno 8008 bound_to 7997
  156.2608  140.1995  156.6464 H   0  0  0  0  0  0  0  0  0  0  0  0  # atno 8009 bound_to 7997
  154.6551  140.0554  156.9986 H   0  0  0  0  0  0  0  0  0  0  0  0  # atno 8010 bound_to 7997
  139.6330  144.7117  151.2392 H   0  0  0  0  0  0  0  0  0  0  0  0  # atno 10167 bound_to 10162
  157.5461  131.1095  150.8779 H   0  0  0  0  0  0  0  0  0  0  0  0  # atno 10718 bound_to 10713
  154.8720  135.4071  154.3072 H   0  0  0  0  0  0  0  0  0  0  0  0  # atno 10763 bound_to 10752
  153.3922  135.7015  153.6492 H   0  0  0  0  0  0  0  0  0  0  0  0  # atno 10764 bound_to 10752
  153.5270  135.3675  155.2629 H   0  0  0  0  0  0  0  0  0  0  0  0  # atno 10765 bound_to 10752
  140.2331  134.8108  157.3337 H   0  0  0  0  0  0  0  0  0  0  0  0  # atno 11005 bound_to 11000
  144.7466  140.5082  143.6832 LP  0  0  0  0  0  0  0  0  0  0  0  0  # atno 17320 bound_to 7965
  145.5773  139.1487  143.3255 LP  0  0  0  0  0  0  0  0  0  0  0  0  # atno 17321 bound_to 7965
  140.7450  143.6446  150.8304 LP  0  0  0  0  0  0  0  0  0  0  0  0  # atno 17342 bound_to 10162
  140.0073  143.5680  152.2852 LP  0  0  0  0  0  0  0  0  0  0  0  0  # atno 17343 bound_to 10162
  156.9318  130.5352  149.5279 LP  0  0  0  0  0  0  0  0  0  0  0  0  # atno 17370 bound_to 10713
  156.0537  130.5602  150.9045 LP  0  0  0  0  0  0  0  0  0  0  0  0  # atno 17371 bound_to 10713
  140.1730  134.4585  155.7820 LP  0  0  0  0  0  0  0  0  0  0  0  0  # atno 17394 bound_to 11000
  141.2216  133.6950  156.7739 LP  0  0  0  0  0  0  0  0  0  0  0  0  # atno 17395 bound_to 11000

$$$$
