AV-unprocessed.smi:3303|AV-procd|sdf|12679|dock2
  -GOLD-   2272019 13D 1   1.00000     0.00000
 Structure written by MMmdl.
 44 45  0  0  0  0  0  0  0  0  2 V2000
  146.6043  142.3875  154.2411 C   0  0  0  0  0  0  0  0  0  0  0  0
  147.6340  141.2892  153.9278 C   0  0  2  0  0  0  0  0  0  0  0  0
  147.1178  139.8867  154.3068 C   0  0  0  0  0  0  0  0  0  0  0  0
  148.0716  138.8667  153.8695 N   0  0  0  0  0  0  0  0  0  0  0  0
  147.5037  137.5328  154.0227 C   0  0  0  0  0  0  0  0  0  0  0  0
  149.3983  138.9995  154.4904 C   0  0  2  0  0  0  0  0  0  0  0  0
  149.4389  138.6373  155.9935 C   0  0  0  0  0  0  0  0  0  0  0  0
  149.9727  140.4021  154.1794 C   0  0  0  0  0  0  0  0  0  0  0  0
  149.0221  141.5644  154.5450 C   0  0  2  0  0  0  0  0  0  0  0  0
  148.9312  141.7876  156.0079 N   0  3  0  0  0  0  0  0  0  0  0  0
  150.2170  141.7730  156.7353 C   0  0  0  0  0  0  0  0  0  0  0  0
  150.7890  143.1907  156.8659 C   0  0  0  0  0  0  0  0  0  0  0  0
  151.2945  143.4747  158.2674 C   0  0  0  0  0  0  0  0  0  0  0  0
  150.9009  144.6430  158.9543 C   0  0  0  0  0  0  0  0  0  0  0  0
  151.4099  144.8630  160.2491 C   0  0  0  0  0  0  0  0  0  0  0  0
  152.2889  143.9122  160.8027 C   0  0  0  0  0  0  0  0  0  0  0  0
  152.6206  142.7784  160.0347 C   0  0  0  0  0  0  0  0  0  0  0  0
  152.1388  142.5583  158.7921 N   0  0  0  0  0  0  0  0  0  0  0  0
  146.3587  142.4225  155.3028 H   0  0  0  0  0  0  0  0  0  0  0  0
  145.6752  142.2151  153.6970 H   0  0  0  0  0  0  0  0  0  0  0  0
  146.9767  143.3701  153.9498 H   0  0  0  0  0  0  0  0  0  0  0  0
  147.7631  141.2962  152.8437 H   0  0  0  0  0  0  0  0  0  0  0  0
  146.9287  139.8111  155.3776 H   0  0  0  0  0  0  0  0  0  0  0  0
  146.1632  139.7125  153.8083 H   0  0  0  0  0  0  0  0  0  0  0  0
  148.2104  136.7730  153.6880 H   0  0  0  0  0  0  0  0  0  0  0  0
  146.6019  137.4346  153.4175 H   0  0  0  0  0  0  0  0  0  0  0  0
  147.2350  137.3242  155.0587 H   0  0  0  0  0  0  0  0  0  0  0  0
  150.0480  138.2823  153.9868 H   0  0  0  0  0  0  0  0  0  0  0  0
  150.4277  138.8342  156.4091 H   0  0  0  0  0  0  0  0  0  0  0  0
  149.2403  137.5777  156.1543 H   0  0  0  0  0  0  0  0  0  0  0  0
  148.7184  139.1969  156.5876 H   0  0  0  0  0  0  0  0  0  0  0  0
  150.9510  140.5232  154.6432 H   0  0  0  0  0  0  0  0  0  0  0  0
  150.1639  140.4528  153.1063 H   0  0  0  0  0  0  0  0  0  0  0  0
  149.4093  142.4833  154.1020 H   0  0  0  0  0  0  0  0  0  0  0  0
  148.5148  142.6964  156.1509 H   0  0  0  0  0  0  0  0  0  0  0  0
  150.0756  141.3443  157.7272 H   0  0  0  0  0  0  0  0  0  0  0  0
  150.9256  141.1360  156.2042 H   0  0  0  0  0  0  0  0  0  0  0  0
  151.6032  143.3333  156.1540 H   0  0  0  0  0  0  0  0  0  0  0  0
  150.0257  143.9276  156.6108 H   0  0  0  0  0  0  0  0  0  0  0  0
  150.2266  145.3559  158.5031 H   0  0  0  0  0  0  0  0  0  0  0  0
  151.1316  145.7449  160.8071 H   0  0  0  0  0  0  0  0  0  0  0  0
  152.6991  144.0481  161.7923 H   0  0  0  0  0  0  0  0  0  0  0  0
  153.2918  142.0296  160.4284 H   0  0  0  0  0  0  0  0  0  0  0  0
  148.3181  141.0892  156.4037 H   0  0  0  0  0  0  0  0  0  0  0  0
  1  2  1  0  0  0  0
  1 19  1  0  0  0  0
  1 20  1  0  0  0  0
  1 21  1  0  0  0  0
  2  9  1  0  0  0  0
  2  3  1  0  0  0  0
  2 22  1  0  0  0  0
  3  4  1  0  0  0  0
  3 23  1  0  0  0  0
  3 24  1  0  0  0  0
  4  5  1  0  0  0  0
  4  6  1  0  0  0  0
  5 25  1  0  0  0  0
  5 26  1  0  0  0  0
  5 27  1  0  0  0  0
  6  7  1  0  0  0  0
  6  8  1  0  0  0  0
  6 28  1  0  0  0  0
  7 29  1  0  0  0  0
  7 30  1  0  0  0  0
  7 31  1  0  0  0  0
  8  9  1  0  0  0  0
  8 32  1  0  0  0  0
  8 33  1  0  0  0  0
  9 10  1  0  0  0  0
  9 34  1  0  0  0  0
 10 11  1  0  0  0  0
 10 35  1  0  0  0  0
 10 44  1  0  0  0  0
 11 12  1  0  0  0  0
 11 36  1  0  0  0  0
 11 37  1  0  0  0  0
 12 13  1  0  0  0  0
 12 38  1  0  0  0  0
 12 39  1  0  0  0  0
 13 18  1  0  0  0  0
 13 14  2  0  0  0  0
 14 15  1  0  0  0  0
 14 40  1  0  0  0  0
 15 16  2  0  0  0  0
 15 41  1  0  0  0  0
 16 17  1  0  0  0  0
 16 42  1  0  0  0  0
 17 18  2  0  0  0  0
 17 43  1  0  0  0  0
M  CHG  1  10   1
M  END
> <s_m_source_file>
AV-unprocessed.smi

> <i_m_source_file_index>
3303

> <i_lp_mmshare_version>
43012

> <i_f3d_flags>
0

> <s_epik_input>
W0NIM11bQ0BASF0xW0NIMl1OKFtDSDNdKVtDQEBIXShbQ0gzXSlbQ0gyXVtDQEhdMVtOSF1bQ0gyXVtDSDJdYzJbY0hdW2NIXVtjSF1bY0hdbjI=

> <s_epik_cmdline>
J2VwaWtfcHl0aG9uJywgJy1waCcsICc3LjAnLCAnLXRuJywgJzgnLCAnLW1hJywgJzIwMCcsICctbWV0YWxfYmluZGluZycsICctaW1hZScsICc8aW5maWxlLm1hZT4nLCAnLW9tYWUnLCAnPG91dGZpbGUubWFlPic=

> <r_epik_Ionization_Penalty>
1.37325

> <r_epik_Ionization_Penalty_Charging>
0.000251572

> <r_epik_Ionization_Penalty_Neutral>
1.373

> <r_epik_State_Penalty>
1.46343

> <r_epik_Charging_Adjusted_Penalty>
1.46368

> <i_epik_Tot_Q>
1

> <i_epik_Tot_abs_Q>
1

> <r_epik_Metal_State_Penalty>
1.46331

> <b_epik_Metal_Only>
0

> <s_lp_Force_Field>
OPLS_2005

> <r_lp_Energy>
24.8082

> <b_lp_Chiralities_Consistent>
1

> <s_lp_Variant>
AV-unprocessed.smi:3303-23

> <Gold.Version>
5.8.1

> <Gold.Id.Protein>
6NUR|6NUR_protein|mol2

> <Gold.PLP.Fitness>
42.5290

> <Gold.PLP.PLP>
-37.9647

> <Gold.PLP.part.hbond>
-1.0000

> <Gold.PLP.part.metal>
0.0000

> <Gold.PLP.part.buried>
-2.6063

> <Gold.PLP.part.nonpolar>
-33.2055

> <Gold.PLP.part.repulsive>
0.2378

> <Gold.PLP.ligand.clash>
0.0000

> <Gold.PLP.ligand.torsion>
0.7228

> <Gold.PLP.Chemscore.Hbond>
2.0000

> <Gold.PLP.Chemscore.CHOScore>
0.0000

> <Gold.PLP.Chemscore.Metal>
0.0000

> <Gold.Chemscore.Hbonds>
donor molecule, donor type, donor heavy atom, donor atom, acceptor molecule, acceptor atom, score
      L1  H    10    35       P1  8028  1.30

> <Gold.PLP.Chemscore.Internal.Correction>
0.0100

> <Gold.Rescore>
     Score         DG    S(hbond)    S(metal)    S(lipo)     H(rot)  DE(clash)    DE(int)     intcor
     17.46     -18.31       0.98        0.00     110.71       1.33       0.21       0.64       ----

> <Gold.Chemscore.Fitness>
17.4583

> <Gold.Chemscore.DG>
-18.3073

> <Gold.Chemscore.ZeroCoef>
-5.4800

> <Gold.Chemscore.Hbond>
0.9817

> <Gold.Chemscore.Metal>
0.0000

> <Gold.Chemscore.Lipo>
110.7061

> <Gold.Chemscore.Internal_Hbond>
0.0000

> <Gold.Chemscore.DEClash>
0.2073

> <Gold.Chemscore.DEInternal>
0.6417

> <Gold.Chemscore.Rot>
1.3298

> <Gold.Chemscore.Internal.Correction>
   9.000000E+99

> <Gold.Chemscore.Hbonds>
donor molecule, donor type, donor heavy atom, donor atom, acceptor molecule, acceptor atom, score
      L1  H    10    35       P1  8028  0.63

> <Gold.Chemscore.Hbond.Weighted>
-3.2790

> <Gold.Chemscore.Metal.Weighted>
-0.0000

> <Gold.Chemscore.Lipo.Weighted>
-12.9526

> <Gold.Chemscore.Internal_Hbond.Weighted>
0.0000

> <Gold.Chemscore.DEClash.Weighted>
0.2073

> <Gold.Chemscore.DEInternal.Weighted>
0.6417

> <Gold.Chemscore.Rot.Weighted>
3.4043

> <Gold.Chemscore.Internal.Correction.Weighted>
   9.000000E+99

> <Gold.Protein.RotatedTorsions>
[ 6907 6896 6895 6894 ] final  144.20 input  -60.11 | X-H torsion
[ 7974 7965 7964 7962 ] final  143.18 input  175.53 | X-H torsion
[ 8008 7997 7996 7995 ] final  164.53 input   59.86 | X-H torsion
[ 10167 10162 10161 10158 ] final  139.31 input  -65.29 | X-H torsion
[ 10718 10713 10712 10709 ] final  -85.58 input   66.30 | X-H torsion
[ 10763 10752 10751 10750 ] final  100.43 input  -60.55 | X-H torsion
[ 11005 11000 10999 10996 ] final  -40.23 input  -57.11 | X-H torsion

> <Gold.Protein.ActiveResidues>
 VAL166  LYS551  ARG553  GLY616  TRP617  ASP618  TYR619  PRO620  LYS621  CYS622 
 ASP623  PHE694  ASN695  SER759  ASP760  ASP761  ALA762  ILE779  LEU786  VAL792 
 PHE793  MET794  SER795  GLU796  ALA797  LYS798  CYS799  TRP800  GLU811  SER814 

> <Gold.Protein.RotatedAtoms>
  152.1967  133.4811  159.5036 H   0  0  0  0  0  0  0  0  0  0  0  0  # atno 6907 bound_to 6896
  150.6961  134.1643  159.4197 H   0  0  0  0  0  0  0  0  0  0  0  0  # atno 6908 bound_to 6896
  151.9559  135.0146  160.0595 H   0  0  0  0  0  0  0  0  0  0  0  0  # atno 6909 bound_to 6896
  144.8943  139.5514  143.5784 H   0  0  0  0  0  0  0  0  0  0  0  0  # atno 7974 bound_to 7965
  156.1873  140.1694  156.8161 H   0  0  0  0  0  0  0  0  0  0  0  0  # atno 8008 bound_to 7997
  154.5429  140.0733  156.8572 H   0  0  0  0  0  0  0  0  0  0  0  0  # atno 8009 bound_to 7997
  155.3180  140.3371  155.4244 H   0  0  0  0  0  0  0  0  0  0  0  0  # atno 8010 bound_to 7997
  139.5083  144.6302  151.5836 H   0  0  0  0  0  0  0  0  0  0  0  0  # atno 10167 bound_to 10162
  155.9995  130.4736  150.4584 H   0  0  0  0  0  0  0  0  0  0  0  0  # atno 10718 bound_to 10713
  153.3138  135.4079  155.1359 H   0  0  0  0  0  0  0  0  0  0  0  0  # atno 10763 bound_to 10752
  154.8583  135.3571  154.5687 H   0  0  0  0  0  0  0  0  0  0  0  0  # atno 10764 bound_to 10752
  153.6118  135.7067  153.5403 H   0  0  0  0  0  0  0  0  0  0  0  0  # atno 10765 bound_to 10752
  141.0160  133.6885  156.2294 H   0  0  0  0  0  0  0  0  0  0  0  0  # atno 11005 bound_to 11000
  146.3072  139.7620  142.9047 LP  0  0  0  0  0  0  0  0  0  0  0  0  # atno 17320 bound_to 7965
  145.3728  141.0345  143.3221 LP  0  0  0  0  0  0  0  0  0  0  0  0  # atno 17321 bound_to 7965
  140.6033  143.9571  150.6401 LP  0  0  0  0  0  0  0  0  0  0  0  0  # atno 17342 bound_to 10162
  140.2789  143.3403  152.1169 LP  0  0  0  0  0  0  0  0  0  0  0  0  # atno 17343 bound_to 10162
  157.2610  131.0567  151.2320 LP  0  0  0  0  0  0  0  0  0  0  0  0  # atno 17370 bound_to 10713
  157.3434  130.7045  149.6396 LP  0  0  0  0  0  0  0  0  0  0  0  0  # atno 17371 bound_to 10713
  140.6654  134.4924  157.5585 LP  0  0  0  0  0  0  0  0  0  0  0  0  # atno 17394 bound_to 11000
  139.9117  134.8331  156.1505 LP  0  0  0  0  0  0  0  0  0  0  0  0  # atno 17395 bound_to 11000

$$$$
