AV-unprocessed.smi:1705|AV-procd|sdf|6885|dock10
  -GOLD-   22720 8 93D 1   1.00000     0.00000
 Structure written by MMmdl.
 38 39  0  0  0  0  0  0  0  0  1 V2000
  151.2423  139.5853  155.0629 C   0  0  0  0  0  0  0  0  0  0  0  0
  150.1709  140.0183  156.0756 C   0  0  1  0  0  0  0  0  0  0  0  0
  150.6085  141.2197  156.7707 N   0  0  0  0  0  0  0  0  0  0  0  0
  151.4560  141.2791  157.8727 C   0  0  0  0  0  0  0  0  0  0  0  0
  151.9863  140.1560  158.4342 C   0  0  0  0  0  0  0  0  0  0  0  0
  151.7647  138.8376  157.9294 C   0  0  0  0  0  0  0  0  0  0  0  0
  151.5740  137.7604  157.5494 N   0  0  0  0  0  0  0  0  0  0  0  0
  152.8673  140.2144  159.5988 C   0  0  0  0  0  0  0  0  0  0  0  0
  153.3613  139.2206  160.1371 O   0  0  0  0  0  0  0  0  0  0  0  0
  153.1200  141.5127  160.0854 N   0  0  0  0  0  0  0  0  0  0  0  0
  153.9782  141.6069  161.2500 C   0  0  0  0  0  0  0  0  0  0  0  0
  152.5819  142.6904  159.5264 C   0  0  0  0  0  0  0  0  0  0  0  0
  152.8180  143.8034  160.0060 O   0  0  0  0  0  0  0  0  0  0  0  0
  151.7498  142.5448  158.3890 N   0  0  0  0  0  0  0  0  0  0  0  0
  151.2216  143.7892  157.8663 C   0  0  0  0  0  0  0  0  0  0  0  0
  148.8085  140.2803  155.4076 C   0  0  1  0  0  0  0  0  0  0  0  0
  148.7889  141.4478  154.4219 C   0  0  0  0  0  0  0  0  0  0  0  0
  147.6121  141.1207  153.5186 C   0  0  0  0  0  0  0  0  0  0  0  0
  147.4066  139.6151  153.7095 C   0  0  0  0  0  0  0  0  0  0  0  0
  148.4612  139.1926  154.5635 O   0  0  0  0  0  0  0  0  0  0  0  0
  150.9804  138.6410  154.5858 H   0  0  0  0  0  0  0  0  0  0  0  0
  152.2103  139.4472  155.5441 H   0  0  0  0  0  0  0  0  0  0  0  0
  151.3688  140.3321  154.2784 H   0  0  0  0  0  0  0  0  0  0  0  0
  150.0342  139.2162  156.8003 H   0  0  0  0  0  0  0  0  0  0  0  0
  149.8946  141.9341  156.7672 H   0  0  0  0  0  0  0  0  0  0  0  0
  154.2022  142.6429  161.5006 H   0  0  0  0  0  0  0  0  0  0  0  0
  154.9092  141.0878  161.0149 H   0  0  0  0  0  0  0  0  0  0  0  0
  153.4511  141.1251  162.0753 H   0  0  0  0  0  0  0  0  0  0  0  0
  150.5437  144.1936  158.6198 H   0  0  0  0  0  0  0  0  0  0  0  0
  150.6870  143.6200  156.9346 H   0  0  0  0  0  0  0  0  0  0  0  0
  152.0633  144.4575  157.6748 H   0  0  0  0  0  0  0  0  0  0  0  0
  148.0275  140.4126  156.1592 H   0  0  0  0  0  0  0  0  0  0  0  0
  148.6882  142.4163  154.9123 H   0  0  0  0  0  0  0  0  0  0  0  0
  149.7085  141.4591  153.8353 H   0  0  0  0  0  0  0  0  0  0  0  0
  146.7195  141.6658  153.8278 H   0  0  0  0  0  0  0  0  0  0  0  0
  147.8219  141.3800  152.4804 H   0  0  0  0  0  0  0  0  0  0  0  0
  146.4487  139.4156  154.1913 H   0  0  0  0  0  0  0  0  0  0  0  0
  147.4338  139.0683  152.7669 H   0  0  0  0  0  0  0  0  0  0  0  0
  1  2  1  0  0  0  0
  1 21  1  0  0  0  0
  1 22  1  0  0  0  0
  1 23  1  0  0  0  0
  2  3  1  0  0  0  0
  2 16  1  0  0  0  0
  2 24  1  0  0  0  0
  3  4  1  0  0  0  0
  3 25  1  0  0  0  0
  4 14  1  0  0  0  0
  4  5  2  0  0  0  0
  5  6  1  0  0  0  0
  5  8  1  0  0  0  0
  6  7  3  0  0  0  0
  8  9  2  0  0  0  0
  8 10  1  0  0  0  0
 10 11  1  0  0  0  0
 10 12  1  0  0  0  0
 11 26  1  0  0  0  0
 11 27  1  0  0  0  0
 11 28  1  0  0  0  0
 12 13  2  0  0  0  0
 12 14  1  0  0  0  0
 14 15  1  0  0  0  0
 15 29  1  0  0  0  0
 15 30  1  0  0  0  0
 15 31  1  0  0  0  0
 16 20  1  0  0  0  0
 16 17  1  0  0  0  0
 16 32  1  0  0  0  0
 17 18  1  0  0  0  0
 17 33  1  0  0  0  0
 17 34  1  0  0  0  0
 18 19  1  0  0  0  0
 18 35  1  0  0  0  0
 18 36  1  0  0  0  0
 19 20  1  0  0  0  0
 19 37  1  0  0  0  0
 19 38  1  0  0  0  0
M  END
> <s_m_source_file>
AV-unprocessed.smi

> <i_m_source_file_index>
1705

> <i_lp_mmshare_version>
43012

> <i_f3d_flags>
0

> <s_epik_input>
TzFbQ0gyXVtDSDJdW0NIMl1bQ0BIXTFbQ0BIXShbQ0gzXSlbTkhdYzJjKEMjTiljKD1PKW4oW0NIM10pYyg9TyluMltDSDNd

> <s_epik_cmdline>
J2VwaWtfcHl0aG9uJywgJy1waCcsICc3LjAnLCAnLXRuJywgJzgnLCAnLW1hJywgJzIwMCcsICctbWV0YWxfYmluZGluZycsICctaW1hZScsICc8aW5maWxlLm1hZT4nLCAnLW9tYWUnLCAnPG91dGZpbGUubWFlPic=

> <r_epik_Ionization_Penalty>
0.000446268

> <r_epik_Ionization_Penalty_Charging>
9.41922e-10

> <r_epik_Ionization_Penalty_Neutral>
0.000446267

> <r_epik_State_Penalty>
0.000275531

> <r_epik_Charging_Adjusted_Penalty>
0.000275532

> <i_epik_Tot_Q>
0

> <i_epik_Tot_abs_Q>
0

> <r_epik_Metal_State_Penalty>
-0

> <b_epik_Metal_Only>
0

> <s_lp_Force_Field>
OPLS_2005

> <r_lp_Energy>
37.8394

> <b_lp_Chiralities_Consistent>
1

> <s_lp_Variant>
AV-unprocessed.smi:1705-4

> <Gold.Version>
5.8.1

> <Gold.Id.Protein>
6NUR|6NUR_protein|mol2

> <Gold.PLP.Fitness>
35.0856

> <Gold.PLP.PLP>
-35.8566

> <Gold.PLP.part.hbond>
0.0000

> <Gold.PLP.part.metal>
0.0000

> <Gold.PLP.part.buried>
-2.8088

> <Gold.PLP.part.nonpolar>
-33.3792

> <Gold.PLP.part.repulsive>
0.1864

> <Gold.PLP.ligand.clash>
9.0509

> <Gold.PLP.ligand.torsion>
0.4001

> <Gold.PLP.Chemscore.Hbond>
0.0000

> <Gold.PLP.Chemscore.CHOScore>
0.0000

> <Gold.PLP.Chemscore.Metal>
0.0000

> <Gold.PLP.Chemscore.Internal.Correction>
9.0800

> <Gold.Rescore>
     Score         DG    S(hbond)    S(metal)    S(lipo)     H(rot)  DE(clash)    DE(int)     intcor
      7.20      -9.97       0.00        0.00      66.31       1.28       0.01       2.75       ----

> <Gold.Chemscore.Fitness>
7.2033

> <Gold.Chemscore.DG>
-9.9670

> <Gold.Chemscore.ZeroCoef>
-5.4800

> <Gold.Chemscore.Hbond>
0.0000

> <Gold.Chemscore.Metal>
0.0000

> <Gold.Chemscore.Lipo>
66.3129

> <Gold.Chemscore.Internal_Hbond>
0.0000

> <Gold.Chemscore.DEClash>
0.0096

> <Gold.Chemscore.DEInternal>
2.7541

> <Gold.Chemscore.Rot>
1.2780

> <Gold.Chemscore.Internal.Correction>
   9.000000E+99

> <Gold.Chemscore.Hbond.Weighted>
-0.0000

> <Gold.Chemscore.Metal.Weighted>
-0.0000

> <Gold.Chemscore.Lipo.Weighted>
-7.7586

> <Gold.Chemscore.Internal_Hbond.Weighted>
0.0000

> <Gold.Chemscore.DEClash.Weighted>
0.0096

> <Gold.Chemscore.DEInternal.Weighted>
2.7541

> <Gold.Chemscore.Rot.Weighted>
3.2717

> <Gold.Chemscore.Internal.Correction.Weighted>
   9.000000E+99

> <Gold.Protein.RotatedTorsions>
[ 6907 6896 6895 6894 ] final -128.81 input  -60.11 | X-H torsion
[ 7974 7965 7964 7962 ] final    7.21 input  175.53 | X-H torsion
[ 8008 7997 7996 7995 ] final   41.11 input   59.86 | X-H torsion
[ 10167 10162 10161 10158 ] final   75.05 input  -65.29 | X-H torsion
[ 10718 10713 10712 10709 ] final   30.94 input   66.30 | X-H torsion
[ 10763 10752 10751 10750 ] final -140.46 input  -60.55 | X-H torsion
[ 11005 11000 10999 10996 ] final  149.75 input  -57.11 | X-H torsion

> <Gold.Protein.ActiveResidues>
 VAL166  LYS551  ARG553  GLY616  TRP617  ASP618  TYR619  PRO620  LYS621  CYS622 
 ASP623  PHE694  ASN695  SER759  ASP760  ASP761  ALA762  ILE779  LEU786  VAL792 
 PHE793  MET794  SER795  GLU796  ALA797  LYS798  CYS799  TRP800  GLU811  SER814 

> <Gold.Protein.RotatedAtoms>
  150.9219  133.6870  159.2829 H   0  0  0  0  0  0  0  0  0  0  0  0  # atno 6907 bound_to 6896
  151.4321  135.1009  159.9655 H   0  0  0  0  0  0  0  0  0  0  0  0  # atno 6908 bound_to 6896
  152.4984  133.8647  159.7323 H   0  0  0  0  0  0  0  0  0  0  0  0  # atno 6909 bound_to 6896
  146.2428  140.0117  142.8406 H   0  0  0  0  0  0  0  0  0  0  0  0  # atno 7974 bound_to 7965
  155.2643  140.3361  155.4270 H   0  0  0  0  0  0  0  0  0  0  0  0  # atno 8008 bound_to 7997
  156.2161  140.1789  156.7628 H   0  0  0  0  0  0  0  0  0  0  0  0  # atno 8009 bound_to 7997
  154.5755  140.0662  156.9013 H   0  0  0  0  0  0  0  0  0  0  0  0  # atno 8010 bound_to 7997
  140.0072  144.5642  150.7688 H   0  0  0  0  0  0  0  0  0  0  0  0  # atno 10167 bound_to 10162
  157.2661  130.7185  149.6479 H   0  0  0  0  0  0  0  0  0  0  0  0  # atno 10718 bound_to 10713
  154.8578  135.3552  154.5711 H   0  0  0  0  0  0  0  0  0  0  0  0  # atno 10763 bound_to 10752
  153.6324  135.7001  153.5275 H   0  0  0  0  0  0  0  0  0  0  0  0  # atno 10764 bound_to 10752
  153.3038  135.4198  155.1235 H   0  0  0  0  0  0  0  0  0  0  0  0  # atno 10765 bound_to 10752
  140.1071  134.8947  157.1882 H   0  0  0  0  0  0  0  0  0  0  0  0  # atno 11005 bound_to 11000
  145.1321  140.9524  143.4538 LP  0  0  0  0  0  0  0  0  0  0  0  0  # atno 17320 bound_to 7965
  145.0377  139.3286  143.5992 LP  0  0  0  0  0  0  0  0  0  0  0  0  # atno 17321 bound_to 7965
  140.7396  143.2793  151.3646 LP  0  0  0  0  0  0  0  0  0  0  0  0  # atno 17342 bound_to 10162
  139.6230  144.0869  152.2409 LP  0  0  0  0  0  0  0  0  0  0  0  0  # atno 17343 bound_to 10162
  155.9663  130.4382  150.5208 LP  0  0  0  0  0  0  0  0  0  0  0  0  # atno 17370 bound_to 10713
  157.3123  131.0666  151.1992 LP  0  0  0  0  0  0  0  0  0  0  0  0  # atno 17371 bound_to 10713
  140.3141  134.2991  155.7260 LP  0  0  0  0  0  0  0  0  0  0  0  0  # atno 17394 bound_to 11000
  141.2121  133.7668  156.9818 LP  0  0  0  0  0  0  0  0  0  0  0  0  # atno 17395 bound_to 11000

$$$$
