AV-unprocessed.smi:2256|AV-procd|sdf|9126|dock5
  -GOLD-   2272012333D 1   1.00000     0.00000
 Structure written by MMmdl.
 42 44  0  0  0  0  0  0  0  0  1 V2000
  145.4743  143.2844  153.8686 C   0  0  0  0  0  0  0  0  0  0  0  0
  146.5090  142.4243  154.5723 C   0  0  0  0  0  0  0  0  0  0  0  0
  147.5272  141.9180  153.7591 N   0  0  0  0  0  0  0  0  0  0  0  0
  148.4471  141.1666  154.2700 C   0  0  0  0  0  0  0  0  0  0  0  0
  148.4573  140.8384  155.6354 N   0  0  0  0  0  0  0  0  0  0  0  0
  149.5560  139.9699  156.0896 C   0  0  0  0  0  0  0  0  0  0  0  0
  150.9414  140.6246  155.8882 C   0  0  2  0  0  0  0  0  0  0  0  0
  151.7050  139.8888  154.9534 O   0  0  0  0  0  0  0  0  0  0  0  0
  151.7562  140.7206  157.1894 C   0  0  0  0  0  0  0  0  0  0  0  0
  151.6070  142.0152  157.7593 O   0  0  0  0  0  0  0  0  0  0  0  0
  152.1785  142.2653  158.9888 C   0  0  0  0  0  0  0  0  0  0  0  0
  153.0244  141.3496  159.6680 C   0  0  0  0  0  0  0  0  0  0  0  0
  153.5746  141.6715  160.9234 C   0  0  0  0  0  0  0  0  0  0  0  0
  153.2886  142.9114  161.5190 C   0  0  0  0  0  0  0  0  0  0  0  0
  152.4521  143.8181  160.8471 C   0  0  0  0  0  0  0  0  0  0  0  0
  152.0012  145.0822  161.1730 N   0  0  0  0  0  0  0  0  0  0  0  0
  151.1846  145.5824  160.1743 C   0  0  0  0  0  0  0  0  0  0  0  0
  151.0862  144.6508  159.1740 C   0  0  0  0  0  0  0  0  0  0  0  0
  151.8806  143.5208  159.5749 C   0  0  0  0  0  0  0  0  0  0  0  0
  147.5109  141.3025  156.5019 C   0  0  0  0  0  0  0  0  0  0  0  0
  147.5410  141.0244  157.7023 O   0  0  0  0  0  0  0  0  0  0  0  0
  146.4662  142.1502  155.9048 C   0  0  0  0  0  0  0  0  0  0  0  0
  145.3819  142.6721  156.8393 C   0  0  0  0  0  0  0  0  0  0  0  0
  152.2200  145.5938  162.0157 H   0  0  0  0  0  0  0  0  0  0  0  0
  144.4848  142.8343  153.9522 H   0  0  0  0  0  0  0  0  0  0  0  0
  145.7034  143.3933  152.8080 H   0  0  0  0  0  0  0  0  0  0  0  0
  145.4431  144.2821  154.3070 H   0  0  0  0  0  0  0  0  0  0  0  0
  149.2650  140.7495  153.6799 H   0  0  0  0  0  0  0  0  0  0  0  0
  149.4090  139.7588  157.1506 H   0  0  0  0  0  0  0  0  0  0  0  0
  149.5260  138.9860  155.6162 H   0  0  0  0  0  0  0  0  0  0  0  0
  150.8305  141.6347  155.4924 H   0  0  0  0  0  0  0  0  0  0  0  0
  152.1410  139.1845  155.4078 H   0  0  0  0  0  0  0  0  0  0  0  0
  151.4493  139.9427  157.8909 H   0  0  0  0  0  0  0  0  0  0  0  0
  152.8086  140.5569  156.9523 H   0  0  0  0  0  0  0  0  0  0  0  0
  153.2689  140.3874  159.2450 H   0  0  0  0  0  0  0  0  0  0  0  0
  154.2165  140.9649  161.4285 H   0  0  0  0  0  0  0  0  0  0  0  0
  153.7076  143.1636  162.4818 H   0  0  0  0  0  0  0  0  0  0  0  0
  150.7389  146.5628  160.2574 H   0  0  0  0  0  0  0  0  0  0  0  0
  150.5235  144.7359  158.2561 H   0  0  0  0  0  0  0  0  0  0  0  0
  145.8270  143.2685  157.6364 H   0  0  0  0  0  0  0  0  0  0  0  0
  144.8491  141.8384  157.2980 H   0  0  0  0  0  0  0  0  0  0  0  0
  144.6441  143.2948  156.3366 H   0  0  0  0  0  0  0  0  0  0  0  0
  1  2  1  0  0  0  0
  1 25  1  0  0  0  0
  1 26  1  0  0  0  0
  1 27  1  0  0  0  0
  2 22  2  0  0  0  0
  2  3  1  0  0  0  0
  3  4  2  0  0  0  0
  4  5  1  0  0  0  0
  4 28  1  0  0  0  0
  5  6  1  0  0  0  0
  5 20  1  0  0  0  0
  6  7  1  0  0  0  0
  6 29  1  0  0  0  0
  6 30  1  0  0  0  0
  7  8  1  0  0  0  0
  7  9  1  0  0  0  0
  7 31  1  0  0  0  0
  8 32  1  0  0  0  0
  9 10  1  0  0  0  0
  9 33  1  0  0  0  0
  9 34  1  0  0  0  0
 10 11  1  0  0  0  0
 11 19  1  0  0  0  0
 11 12  2  0  0  0  0
 12 13  1  0  0  0  0
 12 35  1  0  0  0  0
 13 14  2  0  0  0  0
 13 36  1  0  0  0  0
 14 15  1  0  0  0  0
 14 37  1  0  0  0  0
 15 19  2  0  0  0  0
 15 16  1  0  0  0  0
 16 24  1  0  0  0  0
 16 17  1  0  0  0  0
 17 18  2  0  0  0  0
 17 38  1  0  0  0  0
 18 19  1  0  0  0  0
 18 39  1  0  0  0  0
 20 21  2  0  0  0  0
 20 22  1  0  0  0  0
 22 23  1  0  0  0  0
 23 40  1  0  0  0  0
 23 41  1  0  0  0  0
 23 42  1  0  0  0  0
M  END
> <s_m_source_file>
AV-unprocessed.smi

> <i_m_source_file_index>
2256

> <i_lp_mmshare_version>
43012

> <i_f3d_flags>
0

> <s_epik_input>
W0NIM11jMW5bY0hdbihjKD1PKWMxW0NIM10pW0NIMl1bQ0BIXShbT0hdKVtDSDJdT2MoW2NIXVtjSF1bY0hdMiljKGMyMylbY0hdW2NIXVtuSF0z

> <s_epik_cmdline>
J2VwaWtfcHl0aG9uJywgJy1waCcsICc3LjAnLCAnLXRuJywgJzgnLCAnLW1hJywgJzIwMCcsICctbWV0YWxfYmluZGluZycsICctaW1hZScsICc8aW5maWxlLm1hZT4nLCAnLW9tYWUnLCAnPG91dGZpbGUubWFlPic=

> <r_lp_tautomer_probability>
1

> <r_epik_Ionization_Penalty>
4.18314e-05

> <r_epik_Ionization_Penalty_Charging>
1.04093e-07

> <r_epik_Ionization_Penalty_Neutral>
4.17273e-05

> <r_epik_State_Penalty>
-0

> <r_epik_Charging_Adjusted_Penalty>
1.04093e-07

> <i_epik_Tot_Q>
0

> <i_epik_Tot_abs_Q>
0

> <r_epik_Metal_State_Penalty>
-0

> <b_epik_Metal_Only>
0

> <s_lp_Force_Field>
OPLS_2005

> <r_lp_Energy>
26.398

> <b_lp_Chiralities_Consistent>
1

> <s_lp_Variant>
AV-unprocessed.smi:2256-1

> <Gold.Version>
5.8.1

> <Gold.Id.Protein>
6NUR|6NUR_protein|mol2

> <Gold.PLP.Fitness>
53.2100

> <Gold.PLP.PLP>
-49.7397

> <Gold.PLP.part.hbond>
-3.0000

> <Gold.PLP.part.metal>
0.0000

> <Gold.PLP.part.buried>
-4.1778

> <Gold.PLP.part.nonpolar>
-42.4133

> <Gold.PLP.part.repulsive>
0.3447

> <Gold.PLP.ligand.clash>
0.0000

> <Gold.PLP.ligand.torsion>
1.3284

> <Gold.PLP.Chemscore.Hbond>
1.0000

> <Gold.PLP.Chemscore.CHOScore>
1.0000

> <Gold.PLP.Chemscore.Metal>
0.0000

> <Gold.Chemscore.Hbonds>
donor molecule, donor type, donor heavy atom, donor atom, acceptor molecule, acceptor atom, score
      P1  H  7989  7998       L1     8  1.00
      L1  C     4    28       P1  7957  0.73

> <Gold.PLP.Chemscore.Internal.Correction>
0.1270

> <Gold.Rescore>
     Score         DG    S(hbond)    S(metal)    S(lipo)     H(rot)  DE(clash)    DE(int)     intcor
     13.76     -15.29       0.91        0.00     114.25       2.58       0.19       1.35       ----

> <Gold.Chemscore.Fitness>
13.7594

> <Gold.Chemscore.DG>
-15.2942

> <Gold.Chemscore.ZeroCoef>
-5.4800

> <Gold.Chemscore.Hbond>
0.9141

> <Gold.Chemscore.Metal>
0.0000

> <Gold.Chemscore.Lipo>
114.2499

> <Gold.Chemscore.Internal_Hbond>
0.0000

> <Gold.Chemscore.DEClash>
0.1854

> <Gold.Chemscore.DEInternal>
1.3494

> <Gold.Chemscore.Rot>
2.5804

> <Gold.Chemscore.Internal.Correction>
   9.000000E+99

> <Gold.Chemscore.Hbonds>
donor molecule, donor type, donor heavy atom, donor atom, acceptor molecule, acceptor atom, score
      P1  H  7989  7998       L1     8  0.43

> <Gold.Chemscore.Hbond.Weighted>
-3.0529

> <Gold.Chemscore.Metal.Weighted>
-0.0000

> <Gold.Chemscore.Lipo.Weighted>
-13.3672

> <Gold.Chemscore.Internal_Hbond.Weighted>
0.0000

> <Gold.Chemscore.DEClash.Weighted>
0.1854

> <Gold.Chemscore.DEInternal.Weighted>
1.3494

> <Gold.Chemscore.Rot.Weighted>
6.6059

> <Gold.Chemscore.Internal.Correction.Weighted>
   9.000000E+99

> <Gold.Protein.RotatedTorsions>
[ 6907 6896 6895 6894 ] final  111.52 input  -60.11 | X-H torsion
[ 7974 7965 7964 7962 ] final   70.67 input  175.53 | X-H torsion
[ 8008 7997 7996 7995 ] final   52.88 input   59.86 | X-H torsion
[ 10167 10162 10161 10158 ] final  -24.09 input  -65.29 | X-H torsion
[ 10718 10713 10712 10709 ] final   34.14 input   66.30 | X-H torsion
[ 10763 10752 10751 10750 ] final  -75.35 input  -60.55 | X-H torsion
[ 11005 11000 10999 10996 ] final  -56.44 input  -57.11 | X-H torsion

> <Gold.Protein.ActiveResidues>
 VAL166  LYS551  ARG553  GLY616  TRP617  ASP618  TYR619  PRO620  LYS621  CYS622 
 ASP623  PHE694  ASN695  SER759  ASP760  ASP761  ALA762  ILE779  LEU786  VAL792 
 PHE793  MET794  SER795  GLU796  ALA797  LYS798  CYS799  TRP800  GLU811  SER814 

> <Gold.Protein.RotatedAtoms>
  152.4965  133.8646  159.7267 H   0  0  0  0  0  0  0  0  0  0  0  0  # atno 6907 bound_to 6896
  150.9149  133.6943  159.2852 H   0  0  0  0  0  0  0  0  0  0  0  0  # atno 6908 bound_to 6896
  151.4340  135.1017  159.9703 H   0  0  0  0  0  0  0  0  0  0  0  0  # atno 6909 bound_to 6896
  145.7753  139.2862  143.1297 H   0  0  0  0  0  0  0  0  0  0  0  0  # atno 7974 bound_to 7965
  155.4591  140.3461  155.4310 H   0  0  0  0  0  0  0  0  0  0  0  0  # atno 8008 bound_to 7997
  156.1172  140.1477  156.9285 H   0  0  0  0  0  0  0  0  0  0  0  0  # atno 8009 bound_to 7997
  154.4797  140.0873  156.7327 H   0  0  0  0  0  0  0  0  0  0  0  0  # atno 8010 bound_to 7997
  140.7288  143.4384  151.0694 H   0  0  0  0  0  0  0  0  0  0  0  0  # atno 10167 bound_to 10162
  157.3066  130.7378  149.6699 H   0  0  0  0  0  0  0  0  0  0  0  0  # atno 10718 bound_to 10713
  154.4853  135.5834  153.6419 H   0  0  0  0  0  0  0  0  0  0  0  0  # atno 10763 bound_to 10752
  152.9854  135.6099  154.3194 H   0  0  0  0  0  0  0  0  0  0  0  0  # atno 10764 bound_to 10752
  154.3089  135.2845  155.2555 H   0  0  0  0  0  0  0  0  0  0  0  0  # atno 10765 bound_to 10752
  141.1120  133.6610  156.4619 H   0  0  0  0  0  0  0  0  0  0  0  0  # atno 11005 bound_to 11000
  146.0128  140.8419  142.9962 LP  0  0  0  0  0  0  0  0  0  0  0  0  # atno 17320 bound_to 7965
  144.6805  140.2515  143.7331 LP  0  0  0  0  0  0  0  0  0  0  0  0  # atno 17321 bound_to 7965
  139.8049  143.8032  152.3166 LP  0  0  0  0  0  0  0  0  0  0  0  0  # atno 17342 bound_to 10162
  139.8061  144.7354  150.9759 LP  0  0  0  0  0  0  0  0  0  0  0  0  # atno 17343 bound_to 10162
  155.9675  130.4264  150.4697 LP  0  0  0  0  0  0  0  0  0  0  0  0  # atno 17370 bound_to 10713
  157.2687  131.0582  151.2274 LP  0  0  0  0  0  0  0  0  0  0  0  0  # atno 17371 bound_to 10713
  140.4750  134.6718  157.5146 LP  0  0  0  0  0  0  0  0  0  0  0  0  # atno 17394 bound_to 11000
  140.0019  134.6823  155.9516 LP  0  0  0  0  0  0  0  0  0  0  0  0  # atno 17395 bound_to 11000

$$$$
