AV-unprocessed.smi:1172|AV-procd|sdf|4944|dock6
  -GOLD-   22720 3533D 1   1.00000     0.00000
 Structure written by MMmdl.
 36 37  0  0  0  0  0  0  0  0  1 V2000
  148.1416  138.6614  152.6090 N   0  0  0  0  0  0  0  0  0  0  0  0
  147.3882  139.3855  153.4413 C   0  0  0  0  0  0  0  0  0  0  0  0
  146.3729  138.9352  153.9677 O   0  0  0  0  0  0  0  0  0  0  0  0
  147.8429  140.8173  153.7315 C   0  0  0  0  0  0  0  0  0  0  0  0
  148.7288  140.8694  154.8811 N   0  0  0  0  0  0  0  0  0  0  0  0
  149.4563  141.9461  155.3493 C   0  0  0  0  0  0  0  0  0  0  0  0
  150.1246  141.4910  156.4505 C   0  0  0  0  0  0  0  0  0  0  0  0
  151.0176  142.1784  157.3108 N   0  0  0  0  0  0  0  0  0  0  0  0
  151.8901  141.6482  158.1891 C   0  0  0  0  0  0  0  0  0  0  0  0
  152.0934  140.4373  158.2864 O   0  0  0  0  0  0  0  0  0  0  0  0
  152.5776  142.5671  158.9145 N   0  0  0  0  0  0  0  0  0  0  0  0
  152.2553  144.0016  159.0222 C   0  0  0  0  0  0  0  0  0  0  0  0
  151.5714  144.2559  160.3786 C   0  0  0  0  0  0  0  0  0  0  0  0
  152.4628  143.7795  161.5410 C   0  0  0  0  0  0  0  0  0  0  0  0
  152.9527  142.3336  161.3228 C   0  0  2  0  0  0  0  0  0  0  0  0
  153.9092  142.0059  162.3079 O   0  0  0  0  0  0  0  0  0  0  0  0
  153.5720  142.1708  159.9208 C   0  0  0  0  0  0  0  0  0  0  0  0
  149.7574  140.1275  156.5899 C   0  0  0  0  0  0  0  0  0  0  0  0
  148.9132  139.7589  155.6387 N   0  0  0  0  0  0  0  0  0  0  0  0
  147.8734  137.7130  152.3891 H   0  0  0  0  0  0  0  0  0  0  0  0
  148.9728  139.0627  152.1999 H   0  0  0  0  0  0  0  0  0  0  0  0
  148.3559  141.2303  152.8613 H   0  0  0  0  0  0  0  0  0  0  0  0
  146.9775  141.4530  153.9232 H   0  0  0  0  0  0  0  0  0  0  0  0
  149.4285  142.9103  154.8637 H   0  0  0  0  0  0  0  0  0  0  0  0
  150.9713  143.1863  157.2770 H   0  0  0  0  0  0  0  0  0  0  0  0
  153.1775  144.5808  158.9574 H   0  0  0  0  0  0  0  0  0  0  0  0
  151.6240  144.3767  158.2170 H   0  0  0  0  0  0  0  0  0  0  0  0
  151.3450  145.3161  160.4934 H   0  0  0  0  0  0  0  0  0  0  0  0
  150.6163  143.7297  160.4098 H   0  0  0  0  0  0  0  0  0  0  0  0
  153.3226  144.4468  161.6175 H   0  0  0  0  0  0  0  0  0  0  0  0
  151.9243  143.8603  162.4858 H   0  0  0  0  0  0  0  0  0  0  0  0
  152.1119  141.6465  161.4282 H   0  0  0  0  0  0  0  0  0  0  0  0
  154.6958  141.7085  161.8765 H   0  0  0  0  0  0  0  0  0  0  0  0
  153.9265  141.1486  159.7786 H   0  0  0  0  0  0  0  0  0  0  0  0
  154.4551  142.8038  159.8198 H   0  0  0  0  0  0  0  0  0  0  0  0
  150.0681  139.4080  157.3329 H   0  0  0  0  0  0  0  0  0  0  0  0
  1  2  1  0  0  0  0
  1 20  1  0  0  0  0
  1 21  1  0  0  0  0
  2  3  2  0  0  0  0
  2  4  1  0  0  0  0
  4  5  1  0  0  0  0
  4 22  1  0  0  0  0
  4 23  1  0  0  0  0
  5 19  1  0  0  0  0
  5  6  1  0  0  0  0
  6  7  2  0  0  0  0
  6 24  1  0  0  0  0
  7  8  1  0  0  0  0
  7 18  1  0  0  0  0
  8  9  1  0  0  0  0
  8 25  1  0  0  0  0
  9 10  2  0  0  0  0
  9 11  1  0  0  0  0
 11 17  1  0  0  0  0
 11 12  1  0  0  0  0
 12 13  1  0  0  0  0
 12 26  1  0  0  0  0
 12 27  1  0  0  0  0
 13 14  1  0  0  0  0
 13 28  1  0  0  0  0
 13 29  1  0  0  0  0
 14 15  1  0  0  0  0
 14 30  1  0  0  0  0
 14 31  1  0  0  0  0
 15 16  1  0  0  0  0
 15 17  1  0  0  0  0
 15 32  1  0  0  0  0
 16 33  1  0  0  0  0
 17 34  1  0  0  0  0
 17 35  1  0  0  0  0
 18 19  2  0  0  0  0
 18 36  1  0  0  0  0
M  END
> <s_m_source_file>
AV-unprocessed.smi

> <i_m_source_file_index>
1172

> <i_lp_mmshare_version>
43012

> <i_f3d_flags>
0

> <s_epik_input>
W05IMl1DKD1PKVtDSDJdbjFbY0hdYyhbY0hdbjEpW05IXUMoPU8pTjJbQ0gyXVtDSDJdW0NIMl1bQ0BASF0oW09IXSlbQ0gyXTI=

> <s_epik_cmdline>
J2VwaWtfcHl0aG9uJywgJy1waCcsICc3LjAnLCAnLXRuJywgJzgnLCAnLW1hJywgJzIwMCcsICctbWV0YWxfYmluZGluZycsICctaW1hZScsICc8aW5maWxlLm1hZT4nLCAnLW9tYWUnLCAnPG91dGZpbGUubWFlPic=

> <r_lp_tautomer_probability>
1

> <r_epik_Ionization_Penalty>
4.44977e-05

> <r_epik_Ionization_Penalty_Charging>
0

> <r_epik_Ionization_Penalty_Neutral>
4.44977e-05

> <r_epik_State_Penalty>
-0

> <r_epik_Charging_Adjusted_Penalty>
0

> <i_epik_Tot_Q>
0

> <i_epik_Tot_abs_Q>
0

> <r_epik_Metal_State_Penalty>
-0

> <b_epik_Metal_Only>
0

> <s_lp_Force_Field>
OPLS_2005

> <r_lp_Energy>
32.958

> <b_lp_Chiralities_Consistent>
1

> <s_lp_Variant>
AV-unprocessed.smi:1172-2

> <Gold.Version>
5.8.1

> <Gold.Id.Protein>
6NUR|6NUR_protein|mol2

> <Gold.PLP.Fitness>
45.6987

> <Gold.PLP.PLP>
-39.0248

> <Gold.PLP.part.hbond>
-2.6068

> <Gold.PLP.part.metal>
0.0000

> <Gold.PLP.part.buried>
-2.9437

> <Gold.PLP.part.nonpolar>
-33.4834

> <Gold.PLP.part.repulsive>
0.2924

> <Gold.PLP.ligand.clash>
0.0000

> <Gold.PLP.ligand.torsion>
0.5334

> <Gold.PLP.Chemscore.Hbond>
1.5680

> <Gold.PLP.Chemscore.CHOScore>
0.9960

> <Gold.PLP.Chemscore.Metal>
0.0000

> <Gold.Chemscore.Hbonds>
donor molecule, donor type, donor heavy atom, donor atom, acceptor molecule, acceptor atom, score
      L1  H     1    20       P1  7948  0.58
      L1  H     1    21       P1  7957  0.96
      L1  C     6    24       P1  8028  0.99

> <Gold.PLP.Chemscore.Internal.Correction>
0.0487

> <Gold.Rescore>
     Score         DG    S(hbond)    S(metal)    S(lipo)     H(rot)  DE(clash)    DE(int)     intcor
     12.49     -15.20       1.65        0.00      83.93       2.20       0.95       1.76       ----

> <Gold.Chemscore.Fitness>
12.4880

> <Gold.Chemscore.DG>
-15.2007

> <Gold.Chemscore.ZeroCoef>
-5.4800

> <Gold.Chemscore.Hbond>
1.6540

> <Gold.Chemscore.Metal>
0.0000

> <Gold.Chemscore.Lipo>
83.9287

> <Gold.Chemscore.Internal_Hbond>
0.0000

> <Gold.Chemscore.DEClash>
0.9531

> <Gold.Chemscore.DEInternal>
1.7596

> <Gold.Chemscore.Rot>
2.1966

> <Gold.Chemscore.Internal.Correction>
   9.000000E+99

> <Gold.Chemscore.Hbonds>
donor molecule, donor type, donor heavy atom, donor atom, acceptor molecule, acceptor atom, score
      L1  H     1    20       P1  7948  0.58
      L1  H     1    21       P1  7957  0.85

> <Gold.Chemscore.Hbond.Weighted>
-5.5243

> <Gold.Chemscore.Metal.Weighted>
-0.0000

> <Gold.Chemscore.Lipo.Weighted>
-9.8197

> <Gold.Chemscore.Internal_Hbond.Weighted>
0.0000

> <Gold.Chemscore.DEClash.Weighted>
0.9531

> <Gold.Chemscore.DEInternal.Weighted>
1.7596

> <Gold.Chemscore.Rot.Weighted>
5.6232

> <Gold.Chemscore.Internal.Correction.Weighted>
   9.000000E+99

> <Gold.Protein.RotatedTorsions>
[ 6907 6896 6895 6894 ] final -132.50 input  -60.11 | X-H torsion
[ 7974 7965 7964 7962 ] final  -47.25 input  175.53 | X-H torsion
[ 8008 7997 7996 7995 ] final   28.77 input   59.86 | X-H torsion
[ 10167 10162 10161 10158 ] final   25.45 input  -65.29 | X-H torsion
[ 10718 10713 10712 10709 ] final  156.76 input   66.30 | X-H torsion
[ 10763 10752 10751 10750 ] final  -54.27 input  -60.55 | X-H torsion
[ 11005 11000 10999 10996 ] final   81.49 input  -57.11 | X-H torsion

> <Gold.Protein.ActiveResidues>
 VAL166  LYS551  ARG553  GLY616  TRP617  ASP618  TYR619  PRO620  LYS621  CYS622 
 ASP623  PHE694  ASN695  SER759  ASP760  ASP761  ALA762  ILE779  LEU786  VAL792 
 PHE793  MET794  SER795  GLU796  ALA797  LYS798  CYS799  TRP800  GLU811  SER814 

> <Gold.Protein.RotatedAtoms>
  150.9631  133.6424  159.2750 H   0  0  0  0  0  0  0  0  0  0  0  0  # atno 6907 bound_to 6896
  151.3739  135.0926  159.9484 H   0  0  0  0  0  0  0  0  0  0  0  0  # atno 6908 bound_to 6896
  152.5155  133.9179  159.7575 H   0  0  0  0  0  0  0  0  0  0  0  0  # atno 6909 bound_to 6896
  145.9636  140.7455  142.9445 H   0  0  0  0  0  0  0  0  0  0  0  0  # atno 7974 bound_to 7965
  155.0639  140.3193  155.4652 H   0  0  0  0  0  0  0  0  0  0  0  0  # atno 8008 bound_to 7997
  156.2806  140.2124  156.5711 H   0  0  0  0  0  0  0  0  0  0  0  0  # atno 8009 bound_to 7997
  154.7109  140.0498  157.0537 H   0  0  0  0  0  0  0  0  0  0  0  0  # atno 8010 bound_to 7997
  140.5105  144.0168  150.6371 H   0  0  0  0  0  0  0  0  0  0  0  0  # atno 10167 bound_to 10162
  157.2006  131.0675  151.2027 H   0  0  0  0  0  0  0  0  0  0  0  0  # atno 10718 bound_to 10713
  154.1721  135.6457  153.5012 H   0  0  0  0  0  0  0  0  0  0  0  0  # atno 10763 bound_to 10752
  153.0081  135.5386  154.6602 H   0  0  0  0  0  0  0  0  0  0  0  0  # atno 10764 bound_to 10752
  154.5944  135.2937  155.0574 H   0  0  0  0  0  0  0  0  0  0  0  0  # atno 10765 bound_to 10752
  139.9096  134.8000  156.2048 H   0  0  0  0  0  0  0  0  0  0  0  0  # atno 11005 bound_to 11000
  144.6820  140.2631  143.7316 LP  0  0  0  0  0  0  0  0  0  0  0  0  # atno 17320 bound_to 7965
  145.8006  139.1962  143.2050 LP  0  0  0  0  0  0  0  0  0  0  0  0  # atno 17321 bound_to 7965
  140.3489  143.2975  152.0508 LP  0  0  0  0  0  0  0  0  0  0  0  0  # atno 17342 bound_to 10162
  139.4895  144.6388  151.6919 LP  0  0  0  0  0  0  0  0  0  0  0  0  # atno 17343 bound_to 10162
  157.3771  130.7211  149.6604 LP  0  0  0  0  0  0  0  0  0  0  0  0  # atno 17370 bound_to 10713
  155.9701  130.4183  150.4319 LP  0  0  0  0  0  0  0  0  0  0  0  0  # atno 17371 bound_to 10713
  141.0502  133.6892  156.1758 LP  0  0  0  0  0  0  0  0  0  0  0  0  # atno 17394 bound_to 11000
  140.6821  134.4756  157.5589 LP  0  0  0  0  0  0  0  0  0  0  0  0  # atno 17395 bound_to 11000

$$$$
