AV-unprocessed.smi:1475|AV-procd|sdf|5978|dock8
  -GOLD-   22720 6 73D 1   1.00000     0.00000
 Structure written by MMmdl.
 50 51  0  0  0  0  0  0  0  0  2 V2000
  152.1644  144.6020  158.6895 C   0  0  0  0  0  0  0  0  0  0  0  0
  152.5321  143.1902  159.0393 C   0  0  0  0  0  0  0  0  0  0  0  0
  153.4106  142.7366  160.0626 C   0  0  0  0  0  0  0  0  0  0  0  0
  153.3900  141.3754  159.9465 C   0  0  0  0  0  0  0  0  0  0  0  0
  154.1098  140.3318  160.7362 C   0  0  0  0  0  0  0  0  0  0  0  0
  152.5332  141.0745  158.9024 N   0  0  0  0  0  0  0  0  0  0  0  0
  152.1494  139.7749  158.3746 C   0  0  0  0  0  0  0  0  0  0  0  0
  152.0874  139.8005  156.8469 C   0  0  0  0  0  0  0  0  0  0  0  0
  153.1054  139.6028  156.1839 O   0  0  0  0  0  0  0  0  0  0  0  0
  150.8857  140.0417  156.3000 N   0  0  0  0  0  0  0  0  0  0  0  0
  150.6071  140.0739  154.8695 C   0  0  0  0  0  0  0  0  0  0  0  0
  150.3963  138.6580  154.2956 C   0  0  0  0  0  0  0  0  0  0  0  0
  148.9886  138.4074  153.8960 N   0  3  1  0  0  0  0  0  0  0  0  0
  148.2445  137.6375  154.9264 C   0  0  0  0  0  0  0  0  0  0  0  0
  146.8410  137.2380  154.4306 C   0  0  1  0  0  0  0  0  0  0  0  0
  146.0708  136.4515  155.5010 C   0  0  0  0  0  0  0  0  0  0  0  0
  146.0571  138.4848  153.9829 C   0  0  0  0  0  0  0  0  0  0  0  0
  146.8509  139.3218  152.9632 C   0  0  2  0  0  0  0  0  0  0  0  0
  146.9006  138.6765  151.5668 C   0  0  0  0  0  0  0  0  0  0  0  0
  148.2567  139.6432  153.5076 C   0  0  0  0  0  0  0  0  0  0  0  0
  152.0085  142.1903  158.3491 N   0  0  0  0  0  0  0  0  0  0  0  0
  152.6950  145.3151  159.3206 H   0  0  0  0  0  0  0  0  0  0  0  0
  151.0959  144.7735  158.8209 H   0  0  0  0  0  0  0  0  0  0  0  0
  152.4144  144.8275  157.6526 H   0  0  0  0  0  0  0  0  0  0  0  0
  153.9722  143.3229  160.7748 H   0  0  0  0  0  0  0  0  0  0  0  0
  154.7001  140.7848  161.5328 H   0  0  0  0  0  0  0  0  0  0  0  0
  154.7876  139.7622  160.1003 H   0  0  0  0  0  0  0  0  0  0  0  0
  153.4077  139.6362  161.1957 H   0  0  0  0  0  0  0  0  0  0  0  0
  152.8622  139.0211  158.7139 H   0  0  0  0  0  0  0  0  0  0  0  0
  151.1776  139.4941  158.7815 H   0  0  0  0  0  0  0  0  0  0  0  0
  150.1033  140.1826  156.9236 H   0  0  0  0  0  0  0  0  0  0  0  0
  149.7400  140.7118  154.6981 H   0  0  0  0  0  0  0  0  0  0  0  0
  151.4499  140.5546  154.3723 H   0  0  0  0  0  0  0  0  0  0  0  0
  151.0414  138.5514  153.4222 H   0  0  0  0  0  0  0  0  0  0  0  0
  150.7115  137.8919  155.0056 H   0  0  0  0  0  0  0  0  0  0  0  0
  148.8021  136.7348  155.1801 H   0  0  0  0  0  0  0  0  0  0  0  0
  148.1718  138.2310  155.8397 H   0  0  0  0  0  0  0  0  0  0  0  0
  146.9609  136.5786  153.5702 H   0  0  0  0  0  0  0  0  0  0  0  0
  145.9164  137.0500  156.3995 H   0  0  0  0  0  0  0  0  0  0  0  0
  146.6096  135.5490  155.7910 H   0  0  0  0  0  0  0  0  0  0  0  0
  145.0909  136.1455  155.1335 H   0  0  0  0  0  0  0  0  0  0  0  0
  145.0914  138.1978  153.5647 H   0  0  0  0  0  0  0  0  0  0  0  0
  145.8385  139.1033  154.8549 H   0  0  0  0  0  0  0  0  0  0  0  0
  146.3232  140.2688  152.8430 H   0  0  0  0  0  0  0  0  0  0  0  0
  147.4432  137.7312  151.5715 H   0  0  0  0  0  0  0  0  0  0  0  0
  147.3946  139.3340  150.8508 H   0  0  0  0  0  0  0  0  0  0  0  0
  145.8963  138.4800  151.1902 H   0  0  0  0  0  0  0  0  0  0  0  0
  148.1751  140.2964  154.3780 H   0  0  0  0  0  0  0  0  0  0  0  0
  148.8096  140.2032  152.7546 H   0  0  0  0  0  0  0  0  0  0  0  0
  149.0260  137.8181  153.0766 H   0  0  0  0  0  0  0  0  0  0  0  0
  1  2  1  0  0  0  0
  1 22  1  0  0  0  0
  1 23  1  0  0  0  0
  1 24  1  0  0  0  0
  2 21  2  0  0  0  0
  2  3  1  0  0  0  0
  3  4  2  0  0  0  0
  3 25  1  0  0  0  0
  4  5  1  0  0  0  0
  4  6  1  0  0  0  0
  5 26  1  0  0  0  0
  5 27  1  0  0  0  0
  5 28  1  0  0  0  0
  6  7  1  0  0  0  0
  6 21  1  0  0  0  0
  7  8  1  0  0  0  0
  7 29  1  0  0  0  0
  7 30  1  0  0  0  0
  8  9  2  0  0  0  0
  8 10  1  0  0  0  0
 10 11  1  0  0  0  0
 10 31  1  0  0  0  0
 11 12  1  0  0  0  0
 11 32  1  0  0  0  0
 11 33  1  0  0  0  0
 12 13  1  0  0  0  0
 12 34  1  0  0  0  0
 12 35  1  0  0  0  0
 13 20  1  0  0  0  0
 13 14  1  0  0  0  0
 13 50  1  0  0  0  0
 14 15  1  0  0  0  0
 14 36  1  0  0  0  0
 14 37  1  0  0  0  0
 15 16  1  0  0  0  0
 15 17  1  0  0  0  0
 15 38  1  0  0  0  0
 16 39  1  0  0  0  0
 16 40  1  0  0  0  0
 16 41  1  0  0  0  0
 17 18  1  0  0  0  0
 17 42  1  0  0  0  0
 17 43  1  0  0  0  0
 18 19  1  0  0  0  0
 18 20  1  0  0  0  0
 18 44  1  0  0  0  0
 19 45  1  0  0  0  0
 19 46  1  0  0  0  0
 19 47  1  0  0  0  0
 20 48  1  0  0  0  0
 20 49  1  0  0  0  0
M  CHG  1  13   1
M  END
> <s_m_source_file>
AV-unprocessed.smi

> <i_m_source_file_index>
1475

> <i_lp_mmshare_version>
43012

> <i_f3d_flags>
0

> <s_epik_input>
W0NIM11jMVtjSF1jKFtDSDNdKW4objEpW0NIMl1DKD1PKVtOSF1bQ0gyXVtDSDJdTjJbQ0gyXVtDQEBIXShbQ0gzXSlbQ0gyXVtDQEBIXShbQ0gzXSlbQ0gyXTI=

> <s_epik_cmdline>
J2VwaWtfcHl0aG9uJywgJy1waCcsICc3LjAnLCAnLXRuJywgJzgnLCAnLW1hJywgJzIwMCcsICctbWV0YWxfYmluZGluZycsICctaW1hZScsICc8aW5maWxlLm1hZT4nLCAnLW9tYWUnLCAnPG91dGZpbGUubWFlPic=

> <r_lp_tautomer_probability>
1

> <r_epik_Ionization_Penalty>
0.00206431

> <r_epik_Ionization_Penalty_Charging>
0.00187095

> <r_epik_Ionization_Penalty_Neutral>
0.000193364

> <r_epik_State_Penalty>
-0

> <r_epik_Charging_Adjusted_Penalty>
0.00187095

> <i_epik_Tot_Q>
1

> <i_epik_Tot_abs_Q>
1

> <r_epik_Metal_State_Penalty>
-0

> <b_epik_Metal_Only>
0

> <s_lp_Force_Field>
OPLS_2005

> <r_lp_Energy>
16.2356

> <b_lp_Chiralities_Consistent>
1

> <s_lp_Variant>
AV-unprocessed.smi:1475-3

> <Gold.Version>
5.8.1

> <Gold.Id.Protein>
6NUR|6NUR_protein|mol2

> <Gold.PLP.Fitness>
45.2881

> <Gold.PLP.PLP>
-39.4976

> <Gold.PLP.part.hbond>
-1.7717

> <Gold.PLP.part.metal>
0.0000

> <Gold.PLP.part.buried>
-0.3349

> <Gold.PLP.part.nonpolar>
-37.3211

> <Gold.PLP.part.repulsive>
0.0899

> <Gold.PLP.ligand.clash>
0.0000

> <Gold.PLP.ligand.torsion>
1.6184

> <Gold.PLP.Chemscore.Hbond>
3.0000

> <Gold.PLP.Chemscore.CHOScore>
0.0000

> <Gold.PLP.Chemscore.Metal>
0.0000

> <Gold.Chemscore.Hbonds>
donor molecule, donor type, donor heavy atom, donor atom, acceptor molecule, acceptor atom, score
      L1  H    13    50       P1  7948  2.00
      P1  H  7997  8008       L1     9  0.67

> <Gold.PLP.Chemscore.Internal.Correction>
0.0273

> <Gold.Rescore>
     Score         DG    S(hbond)    S(metal)    S(lipo)     H(rot)  DE(clash)    DE(int)     intcor
     18.21     -19.77       1.97        0.00     101.91       1.64       0.05       1.51       ----

> <Gold.Chemscore.Fitness>
18.2061

> <Gold.Chemscore.DG>
-19.7687

> <Gold.Chemscore.ZeroCoef>
-5.4800

> <Gold.Chemscore.Hbond>
1.9650

> <Gold.Chemscore.Metal>
0.0000

> <Gold.Chemscore.Lipo>
101.9113

> <Gold.Chemscore.Internal_Hbond>
0.0000

> <Gold.Chemscore.DEClash>
0.0482

> <Gold.Chemscore.DEInternal>
1.5144

> <Gold.Chemscore.Rot>
1.6399

> <Gold.Chemscore.Internal.Correction>
   9.000000E+99

> <Gold.Chemscore.Hbonds>
donor molecule, donor type, donor heavy atom, donor atom, acceptor molecule, acceptor atom, score
      L1  H    13    50       P1  7948  0.98
      P1  H  7997  8008       L1     9  0.65

> <Gold.Chemscore.Hbond.Weighted>
-6.5632

> <Gold.Chemscore.Metal.Weighted>
-0.0000

> <Gold.Chemscore.Lipo.Weighted>
-11.9236

> <Gold.Chemscore.Internal_Hbond.Weighted>
0.0000

> <Gold.Chemscore.DEClash.Weighted>
0.0482

> <Gold.Chemscore.DEInternal.Weighted>
1.5144

> <Gold.Chemscore.Rot.Weighted>
4.1982

> <Gold.Chemscore.Internal.Correction.Weighted>
   9.000000E+99

> <Gold.Protein.RotatedTorsions>
[ 6907 6896 6895 6894 ] final -163.13 input  -60.11 | X-H torsion
[ 7974 7965 7964 7962 ] final -153.86 input  175.53 | X-H torsion
[ 8008 7997 7996 7995 ] final  -25.64 input   59.86 | X-H torsion
[ 10167 10162 10161 10158 ] final -104.47 input  -65.29 | X-H torsion
[ 10718 10713 10712 10709 ] final   86.40 input   66.30 | X-H torsion
[ 10763 10752 10751 10750 ] final  102.46 input  -60.55 | X-H torsion
[ 11005 11000 10999 10996 ] final -144.25 input  -57.11 | X-H torsion

> <Gold.Protein.ActiveResidues>
 VAL166  LYS551  ARG553  GLY616  TRP617  ASP618  TYR619  PRO620  LYS621  CYS622 
 ASP623  PHE694  ASN695  SER759  ASP760  ASP761  ALA762  ILE779  LEU786  VAL792 
 PHE793  MET794  SER795  GLU796  ALA797  LYS798  CYS799  TRP800  GLU811  SER814 

> <Gold.Protein.RotatedAtoms>
  151.3913  133.3788  159.2720 H   0  0  0  0  0  0  0  0  0  0  0  0  # atno 6907 bound_to 6896
  150.9503  134.8905  159.7678 H   0  0  0  0  0  0  0  0  0  0  0  0  # atno 6908 bound_to 6896
  152.5109  134.3867  159.9422 H   0  0  0  0  0  0  0  0  0  0  0  0  # atno 6909 bound_to 6896
  144.7719  140.4467  143.5901 H   0  0  0  0  0  0  0  0  0  0  0  0  # atno 7974 bound_to 7965
  154.4465  140.1921  156.0651 H   0  0  0  0  0  0  0  0  0  0  0  0  # atno 8008 bound_to 7997
  156.0554  140.3303  155.7372 H   0  0  0  0  0  0  0  0  0  0  0  0  # atno 8009 bound_to 7997
  155.5494  140.0593  157.2844 H   0  0  0  0  0  0  0  0  0  0  0  0  # atno 8010 bound_to 7997
  140.2089  143.3761  152.1067 H   0  0  0  0  0  0  0  0  0  0  0  0  # atno 10167 bound_to 10162
  157.6928  131.0214  150.2966 H   0  0  0  0  0  0  0  0  0  0  0  0  # atno 10718 bound_to 10713
  153.3399  135.4010  155.1563 H   0  0  0  0  0  0  0  0  0  0  0  0  # atno 10763 bound_to 10752
  154.8641  135.3631  154.5360 H   0  0  0  0  0  0  0  0  0  0  0  0  # atno 10764 bound_to 10752
  153.5804  135.7076  153.5525 H   0  0  0  0  0  0  0  0  0  0  0  0  # atno 10765 bound_to 10752
  140.8043  134.2819  157.4966 H   0  0  0  0  0  0  0  0  0  0  0  0  # atno 11005 bound_to 11000
  145.6300  139.1535  143.2974 LP  0  0  0  0  0  0  0  0  0  0  0  0  # atno 17320 bound_to 7965
  146.1871  140.6404  142.9162 LP  0  0  0  0  0  0  0  0  0  0  0  0  # atno 17321 bound_to 7965
  139.5187  144.7010  151.5494 LP  0  0  0  0  0  0  0  0  0  0  0  0  # atno 17342 bound_to 10162
  140.6337  143.9026  150.6628 LP  0  0  0  0  0  0  0  0  0  0  0  0  # atno 17343 bound_to 10162
  156.3489  130.3827  149.7346 LP  0  0  0  0  0  0  0  0  0  0  0  0  # atno 17370 bound_to 10713
  156.4830  130.8050  151.3063 LP  0  0  0  0  0  0  0  0  0  0  0  0  # atno 17371 bound_to 10713
  139.8719  134.9447  156.3889 LP  0  0  0  0  0  0  0  0  0  0  0  0  # atno 17394 bound_to 11000
  140.9263  133.7610  155.9968 LP  0  0  0  0  0  0  0  0  0  0  0  0  # atno 17395 bound_to 11000

$$$$
