AV-unprocessed.smi:771|AV-procd|sdf|3681|dock4
  -GOLD-   22720 1 93D 1   1.00000     0.00000
 Structure written by MMmdl.
 41 42  0  0  0  0  0  0  0  0  3 V2000
  145.8864  138.3486  154.7701 O   0  0  0  0  0  0  0  0  0  0  0  0
  146.6589  138.1491  153.8314 C   0  0  0  0  0  0  0  0  0  0  0  0
  147.4976  139.2940  153.2457 C   0  0  0  0  0  0  0  0  0  0  0  0
  148.5671  139.7534  154.1479 N   0  0  0  0  0  0  0  0  0  0  0  0
  149.6599  138.8846  154.3397 C   0  0  0  0  0  0  0  0  0  0  0  0
  150.6984  139.2054  155.1358 C   0  0  0  0  0  0  0  0  0  0  0  0
  151.8155  138.3042  155.3159 N   0  3  0  0  0  0  0  0  0  0  0  0
  152.8148  138.7150  155.8972 O   0  0  0  0  0  0  0  0  0  0  0  0
  151.7318  137.1581  154.8844 O   0  5  0  0  0  0  0  0  0  0  0  0
  150.6620  140.4910  155.8060 C   0  0  0  0  0  0  0  0  0  0  0  0
  149.6219  141.3281  155.6230 C   0  0  0  0  0  0  0  0  0  0  0  0
  148.4958  140.9794  154.7508 C   0  0  0  0  0  0  0  0  0  0  0  0
  147.5465  141.7429  154.5732 O   0  0  0  0  0  0  0  0  0  0  0  0
  146.8077  136.9530  153.2413 N   0  0  0  0  0  0  0  0  0  0  0  0
  146.1095  135.7263  153.6185 C   0  0  0  0  0  0  0  0  0  0  0  0
  145.0640  135.2888  152.5642 C   0  0  2  0  0  0  0  0  0  0  0  0
  144.6706  133.8008  152.7271 C   0  0  0  0  0  0  0  0  0  0  0  0
  143.6667  133.3410  151.6590 C   0  0  0  0  0  0  0  0  0  0  0  0
  144.2081  133.5913  150.2461 C   0  0  0  0  0  0  0  0  0  0  0  0
  144.5675  135.0707  150.0578 C   0  0  0  0  0  0  0  0  0  0  0  0
  145.5730  135.5466  151.1230 C   0  0  1  0  0  0  0  0  0  0  0  0
  145.7941  136.9277  150.9167 O   0  0  0  0  0  0  0  0  0  0  0  0
  147.9186  138.9808  152.2883 H   0  0  0  0  0  0  0  0  0  0  0  0
  146.8239  140.1174  153.0041 H   0  0  0  0  0  0  0  0  0  0  0  0
  149.5954  137.9558  153.7913 H   0  0  0  0  0  0  0  0  0  0  0  0
  151.4680  140.7922  156.4591 H   0  0  0  0  0  0  0  0  0  0  0  0
  149.6155  142.2810  156.1317 H   0  0  0  0  0  0  0  0  0  0  0  0
  147.4603  136.8842  152.4740 H   0  0  0  0  0  0  0  0  0  0  0  0
  146.8722  134.9558  153.7318 H   0  0  0  0  0  0  0  0  0  0  0  0
  145.6388  135.8257  154.5981 H   0  0  0  0  0  0  0  0  0  0  0  0
  144.1635  135.8868  152.7150 H   0  0  0  0  0  0  0  0  0  0  0  0
  145.5647  133.1781  152.6754 H   0  0  0  0  0  0  0  0  0  0  0  0
  144.2329  133.6267  153.7099 H   0  0  0  0  0  0  0  0  0  0  0  0
  143.4462  132.2812  151.7893 H   0  0  0  0  0  0  0  0  0  0  0  0
  142.7229  133.8719  151.7902 H   0  0  0  0  0  0  0  0  0  0  0  0
  145.0902  132.9729  150.0746 H   0  0  0  0  0  0  0  0  0  0  0  0
  143.4677  133.2901  149.5045 H   0  0  0  0  0  0  0  0  0  0  0  0
  144.9799  135.2230  149.0594 H   0  0  0  0  0  0  0  0  0  0  0  0
  143.6578  135.6706  150.1113 H   0  0  0  0  0  0  0  0  0  0  0  0
  146.5215  135.0282  150.9755 H   0  0  0  0  0  0  0  0  0  0  0  0
  145.0045  137.3095  150.5652 H   0  0  0  0  0  0  0  0  0  0  0  0
  1  2  2  0  0  0  0
  2  3  1  0  0  0  0
  2 14  1  0  0  0  0
  3  4  1  0  0  0  0
  3 23  1  0  0  0  0
  3 24  1  0  0  0  0
  4 12  1  0  0  0  0
  4  5  1  0  0  0  0
  5  6  2  0  0  0  0
  5 25  1  0  0  0  0
  6  7  1  0  0  0  0
  6 10  1  0  0  0  0
  7  8  2  0  0  0  0
  7  9  1  0  0  0  0
 10 11  2  0  0  0  0
 10 26  1  0  0  0  0
 11 12  1  0  0  0  0
 11 27  1  0  0  0  0
 12 13  2  0  0  0  0
 14 15  1  0  0  0  0
 14 28  1  0  0  0  0
 15 16  1  0  0  0  0
 15 29  1  0  0  0  0
 15 30  1  0  0  0  0
 16 21  1  0  0  0  0
 16 17  1  0  0  0  0
 16 31  1  0  0  0  0
 17 18  1  0  0  0  0
 17 32  1  0  0  0  0
 17 33  1  0  0  0  0
 18 19  1  0  0  0  0
 18 34  1  0  0  0  0
 18 35  1  0  0  0  0
 19 20  1  0  0  0  0
 19 36  1  0  0  0  0
 19 37  1  0  0  0  0
 20 21  1  0  0  0  0
 20 38  1  0  0  0  0
 20 39  1  0  0  0  0
 21 22  1  0  0  0  0
 21 40  1  0  0  0  0
 22 41  1  0  0  0  0
M  CHG  1   7   1
M  CHG  1   9  -1
M  END
> <s_m_source_file>
AV-unprocessed.smi

> <i_m_source_file_index>
771

> <i_lp_mmshare_version>
43012

> <i_f3d_flags>
0

> <s_epik_input>
Tz1jMVtjSF1bY0hdYyhbTitdKD1PKVtPLV0pW2NIXW4xW0NIMl1DKD1PKVtOSF1bQ0gyXVtDQEBIXTJbQ0gyXVtDSDJdW0NIMl1bQ0gyXVtDQEhdMltPSF0=

> <s_epik_cmdline>
J2VwaWtfcHl0aG9uJywgJy1waCcsICc3LjAnLCAnLXRuJywgJzgnLCAnLW1hJywgJzIwMCcsICctbWV0YWxfYmluZGluZycsICctaW1hZScsICc8aW5maWxlLm1hZT4nLCAnLW9tYWUnLCAnPG91dGZpbGUubWFlPic=

> <r_lp_tautomer_probability>
1

> <r_epik_Ionization_Penalty>
3.77175e-07

> <r_epik_Ionization_Penalty_Charging>
7.70067e-11

> <r_epik_Ionization_Penalty_Neutral>
3.77098e-07

> <r_epik_State_Penalty>
-0

> <r_epik_Charging_Adjusted_Penalty>
7.70067e-11

> <i_epik_Tot_Q>
0

> <i_epik_Tot_abs_Q>
2

> <r_epik_Metal_State_Penalty>
-0

> <b_epik_Metal_Only>
0

> <s_lp_Force_Field>
OPLS_2005

> <r_lp_Energy>
23.4116

> <b_lp_Chiralities_Consistent>
1

> <s_lp_Variant>
AV-unprocessed.smi:771-1

> <Gold.Version>
5.8.1

> <Gold.Id.Protein>
6NUR|6NUR_protein|mol2

> <Gold.PLP.Fitness>
51.9369

> <Gold.PLP.PLP>
-38.5931

> <Gold.PLP.part.hbond>
-4.0000

> <Gold.PLP.part.metal>
0.0000

> <Gold.PLP.part.buried>
-1.6088

> <Gold.PLP.part.nonpolar>
-33.1107

> <Gold.PLP.part.repulsive>
0.3689

> <Gold.PLP.ligand.clash>
0.0000

> <Gold.PLP.ligand.torsion>
0.4762

> <Gold.PLP.Chemscore.Hbond>
3.7600

> <Gold.PLP.Chemscore.CHOScore>
1.0000

> <Gold.PLP.Chemscore.Metal>
0.0000

> <Gold.Chemscore.Hbonds>
donor molecule, donor type, donor heavy atom, donor atom, acceptor molecule, acceptor atom, score
      L1  H    14    28       P1  7948  0.98
      L1  H    22    41       P1 10171  1.00
      P1  H  7997  8008       L1     8  0.80
      P1  H 10752 10764       L1     9  0.94
      L1  C     5    25       P1  7948  0.74

> <Gold.PLP.Chemscore.Internal.Correction>
0.0163

> <Gold.Rescore>
     Score         DG    S(hbond)    S(metal)    S(lipo)     H(rot)  DE(clash)    DE(int)     intcor
     17.11     -19.37       3.58        0.00      70.80       2.48       0.15       2.10       ----

> <Gold.Chemscore.Fitness>
17.1096

> <Gold.Chemscore.DG>
-19.3672

> <Gold.Chemscore.ZeroCoef>
-5.4800

> <Gold.Chemscore.Hbond>
3.5751

> <Gold.Chemscore.Metal>
0.0000

> <Gold.Chemscore.Lipo>
70.7972

> <Gold.Chemscore.Internal_Hbond>
0.0000

> <Gold.Chemscore.DEClash>
0.1532

> <Gold.Chemscore.DEInternal>
2.1044

> <Gold.Chemscore.Rot>
2.4753

> <Gold.Chemscore.Internal.Correction>
   9.000000E+99

> <Gold.Chemscore.Hbonds>
donor molecule, donor type, donor heavy atom, donor atom, acceptor molecule, acceptor atom, score
      L1  H    14    28       P1  7948  0.93
      L1  H    22    41       P1 10171  0.99
      P1  H  7997  8008       L1     8  0.78
      P1  H 10752 10764       L1     9  0.87

> <Gold.Chemscore.Hbond.Weighted>
-11.9409

> <Gold.Chemscore.Metal.Weighted>
-0.0000

> <Gold.Chemscore.Lipo.Weighted>
-8.2833

> <Gold.Chemscore.Internal_Hbond.Weighted>
0.0000

> <Gold.Chemscore.DEClash.Weighted>
0.1532

> <Gold.Chemscore.DEInternal.Weighted>
2.1044

> <Gold.Chemscore.Rot.Weighted>
6.3369

> <Gold.Chemscore.Internal.Correction.Weighted>
   9.000000E+99

> <Gold.Protein.RotatedTorsions>
[ 6907 6896 6895 6894 ] final  -51.90 input  -60.11 | X-H torsion
[ 7974 7965 7964 7962 ] final -157.50 input  175.53 | X-H torsion
[ 8008 7997 7996 7995 ] final  -33.80 input   59.86 | X-H torsion
[ 10167 10162 10161 10158 ] final  114.00 input  -65.29 | X-H torsion
[ 10718 10713 10712 10709 ] final   46.93 input   66.30 | X-H torsion
[ 10763 10752 10751 10750 ] final  -79.46 input  -60.55 | X-H torsion
[ 11005 11000 10999 10996 ] final -167.90 input  -57.11 | X-H torsion

> <Gold.Protein.ActiveResidues>
 VAL166  LYS551  ARG553  GLY616  TRP617  ASP618  TYR619  PRO620  LYS621  CYS622 
 ASP623  PHE694  ASN695  SER759  ASP760  ASP761  ALA762  ILE779  LEU786  VAL792 
 PHE793  MET794  SER795  GLU796  ALA797  LYS798  CYS799  TRP800  GLU811  SER814 

> <Gold.Protein.RotatedAtoms>
  150.8568  134.7909  159.7051 H   0  0  0  0  0  0  0  0  0  0  0  0  # atno 6907 bound_to 6896
  152.4617  134.5165  159.9779 H   0  0  0  0  0  0  0  0  0  0  0  0  # atno 6908 bound_to 6896
  151.5276  133.3417  159.2948 H   0  0  0  0  0  0  0  0  0  0  0  0  # atno 6909 bound_to 6896
  144.7545  140.3960  143.6022 H   0  0  0  0  0  0  0  0  0  0  0  0  # atno 7974 bound_to 7965
  154.4138  140.1701  156.1946 H   0  0  0  0  0  0  0  0  0  0  0  0  # atno 8008 bound_to 7997
  155.9574  140.3396  155.6437 H   0  0  0  0  0  0  0  0  0  0  0  0  # atno 8009 bound_to 7997
  155.6792  140.0720  157.2482 H   0  0  0  0  0  0  0  0  0  0  0  0  # atno 8010 bound_to 7997
  139.6420  144.7124  151.2217 H   0  0  0  0  0  0  0  0  0  0  0  0  # atno 10167 bound_to 10162
  157.4532  130.8151  149.7810 H   0  0  0  0  0  0  0  0  0  0  0  0  # atno 10718 bound_to 10713
  154.5389  135.5695  153.6822 H   0  0  0  0  0  0  0  0  0  0  0  0  # atno 10763 bound_to 10752
  152.9958  135.6223  154.2529 H   0  0  0  0  0  0  0  0  0  0  0  0  # atno 10764 bound_to 10752
  154.2459  135.2861  155.2815 H   0  0  0  0  0  0  0  0  0  0  0  0  # atno 10765 bound_to 10752
  140.5481  134.5456  157.5116 H   0  0  0  0  0  0  0  0  0  0  0  0  # atno 11005 bound_to 11000
  145.6825  139.1621  143.2692 LP  0  0  0  0  0  0  0  0  0  0  0  0  # atno 17320 bound_to 7965
  146.1539  140.6886  142.9309 LP  0  0  0  0  0  0  0  0  0  0  0  0  # atno 17321 bound_to 7965
  140.7496  143.6295  150.8437 LP  0  0  0  0  0  0  0  0  0  0  0  0  # atno 17342 bound_to 10162
  139.9933  143.5823  152.2902 LP  0  0  0  0  0  0  0  0  0  0  0  0  # atno 17343 bound_to 10162
  155.9996  130.3888  150.2658 LP  0  0  0  0  0  0  0  0  0  0  0  0  # atno 17370 bound_to 10713
  157.0831  131.0149  151.3149 LP  0  0  0  0  0  0  0  0  0  0  0  0  # atno 17371 bound_to 10713
  139.9469  134.7686  156.0540 LP  0  0  0  0  0  0  0  0  0  0  0  0  # atno 17394 bound_to 11000
  141.1188  133.6619  156.3161 LP  0  0  0  0  0  0  0  0  0  0  0  0  # atno 17395 bound_to 11000

$$$$
