AV-unprocessed.smi:290|AV-procd|sdf|2225|dock6
  -GOLD-   2262022 73D 1   1.00000     0.00000
 Structure written by MMmdl.
 59 62  0  0  0  0  0  0  0  0  2 V2000
  152.1286  142.2895  160.9693 C   0  0  0  0  0  0  0  0  0  0  0  0
  152.4413  142.9860  159.6347 C   0  0  2  0  0  0  0  0  0  0  0  0
  152.8407  144.3381  159.8564 O   0  0  0  0  0  0  0  0  0  0  0  0
  151.9667  145.2223  159.1700 C   0  0  0  0  0  0  0  0  0  0  0  0
  151.4688  144.4069  157.9843 C   0  0  0  0  0  0  0  0  0  0  0  0
  151.3029  143.0185  158.5872 C   0  0  2  0  0  0  0  0  0  0  0  0
  150.0323  142.9578  159.2163 O   0  0  0  0  0  0  0  0  0  0  0  0
  151.3964  141.8686  157.5561 C   0  0  0  0  0  0  0  0  0  0  0  0
  150.4737  140.7775  157.8262 N   0  0  0  0  0  0  0  0  0  0  0  0
  149.1551  140.6952  157.4364 C   0  0  0  0  0  0  0  0  0  0  0  0
  148.5286  139.6133  157.8127 N   0  0  0  0  0  0  0  0  0  0  0  0
  149.4932  138.8930  158.5049 C   0  0  0  0  0  0  0  0  0  0  0  0
  149.4966  137.6414  159.1718 C   0  0  0  0  0  0  0  0  0  0  0  0
  148.3875  136.8719  159.2317 N   0  0  0  0  0  0  0  0  0  0  0  0
  148.1355  136.2734  160.5330 C   0  0  0  0  0  0  0  0  0  0  0  0
  147.0567  135.2105  160.2964 C   0  0  0  0  0  0  0  0  0  0  0  0
  147.1340  134.8987  158.7852 C   0  0  1  0  0  0  0  0  0  0  0  0
  145.8489  135.0673  158.0368 N   0  3  2  0  0  0  0  0  0  0  0  0
  145.2118  136.4045  158.1509 C   0  0  0  0  0  0  0  0  0  0  0  0
  144.8766  133.9679  158.2651 C   0  0  0  0  0  0  0  0  0  0  0  0
  143.8176  133.8826  157.1523 C   0  0  0  0  0  0  0  0  0  0  0  0
  142.8589  132.8967  157.4731 O   0  0  0  0  0  0  0  0  0  0  0  0
  148.2888  135.7832  158.2693 C   0  0  1  0  0  0  0  0  0  0  0  0
  148.2236  136.2384  156.7974 C   0  0  0  0  0  0  0  0  0  0  0  0
  150.6551  137.2298  159.7514 N   0  0  0  0  0  0  0  0  0  0  0  0
  151.7442  138.0024  159.6837 C   0  0  0  0  0  0  0  0  0  0  0  0
  151.8869  139.1946  159.0996 N   0  0  0  0  0  0  0  0  0  0  0  0
  150.7239  139.6049  158.5169 C   0  0  0  0  0  0  0  0  0  0  0  0
  147.4596  133.8666  158.6587 H   0  0  0  0  0  0  0  0  0  0  0  0
  149.1978  135.1874  158.3705 H   0  0  0  0  0  0  0  0  0  0  0  0
  151.8025  141.2618  160.8079 H   0  0  0  0  0  0  0  0  0  0  0  0
  151.3458  142.8107  161.5211 H   0  0  0  0  0  0  0  0  0  0  0  0
  153.0129  142.2613  161.6060 H   0  0  0  0  0  0  0  0  0  0  0  0
  153.3109  142.4960  159.1947 H   0  0  0  0  0  0  0  0  0  0  0  0
  151.1394  145.4916  159.8283 H   0  0  0  0  0  0  0  0  0  0  0  0
  152.4766  146.1377  158.8694 H   0  0  0  0  0  0  0  0  0  0  0  0
  150.5562  144.8081  157.5409 H   0  0  0  0  0  0  0  0  0  0  0  0
  152.2391  144.3938  157.2119 H   0  0  0  0  0  0  0  0  0  0  0  0
  149.3768  143.2406  158.5974 H   0  0  0  0  0  0  0  0  0  0  0  0
  151.1879  142.2428  156.5529 H   0  0  0  0  0  0  0  0  0  0  0  0
  152.4107  141.4678  157.5274 H   0  0  0  0  0  0  0  0  0  0  0  0
  148.6674  141.4727  156.8664 H   0  0  0  0  0  0  0  0  0  0  0  0
  149.0426  135.8081  160.9221 H   0  0  0  0  0  0  0  0  0  0  0  0
  147.8067  137.0236  161.2528 H   0  0  0  0  0  0  0  0  0  0  0  0
  147.2524  134.3225  160.8980 H   0  0  0  0  0  0  0  0  0  0  0  0
  146.0839  135.5853  160.6086 H   0  0  0  0  0  0  0  0  0  0  0  0
  144.6755  136.5213  159.0924 H   0  0  0  0  0  0  0  0  0  0  0  0
  144.4869  136.5351  157.3467 H   0  0  0  0  0  0  0  0  0  0  0  0
  145.9346  137.2153  158.0694 H   0  0  0  0  0  0  0  0  0  0  0  0
  145.4113  133.0215  158.3572 H   0  0  0  0  0  0  0  0  0  0  0  0
  144.3611  134.1167  159.2157 H   0  0  0  0  0  0  0  0  0  0  0  0
  143.3182  134.8357  156.9812 H   0  0  0  0  0  0  0  0  0  0  0  0
  144.2936  133.6031  156.2121 H   0  0  0  0  0  0  0  0  0  0  0  0
  142.9555  132.1741  156.8708 H   0  0  0  0  0  0  0  0  0  0  0  0
  148.0936  135.3849  156.1316 H   0  0  0  0  0  0  0  0  0  0  0  0
  149.1460  136.7401  156.5033 H   0  0  0  0  0  0  0  0  0  0  0  0
  147.4067  136.9352  156.6138 H   0  0  0  0  0  0  0  0  0  0  0  0
  152.6273  137.6117  160.1677 H   0  0  0  0  0  0  0  0  0  0  0  0
  146.1013  134.9846  157.0620 H   0  0  0  0  0  0  0  0  0  0  0  0
  1  2  1  0  0  0  0
  1 31  1  0  0  0  0
  1 32  1  0  0  0  0
  1 33  1  0  0  0  0
  2  6  1  0  0  0  0
  2  3  1  0  0  0  0
  2 34  1  0  0  0  0
  3  4  1  0  0  0  0
  4  5  1  0  0  0  0
  4 35  1  0  0  0  0
  4 36  1  0  0  0  0
  5  6  1  0  0  0  0
  5 37  1  0  0  0  0
  5 38  1  0  0  0  0
  6  7  1  0  0  0  0
  6  8  1  0  0  0  0
  7 39  1  0  0  0  0
  8  9  1  0  0  0  0
  8 40  1  0  0  0  0
  8 41  1  0  0  0  0
  9 28  1  0  0  0  0
  9 10  1  0  0  0  0
 10 11  2  0  0  0  0
 10 42  1  0  0  0  0
 11 12  1  0  0  0  0
 12 28  2  0  0  0  0
 12 13  1  0  0  0  0
 13 14  1  0  0  0  0
 13 25  2  0  0  0  0
 14 23  1  0  0  0  0
 14 15  1  0  0  0  0
 15 16  1  0  0  0  0
 15 43  1  0  0  0  0
 15 44  1  0  0  0  0
 16 17  1  0  0  0  0
 16 45  1  0  0  0  0
 16 46  1  0  0  0  0
 17 29  1  0  0  0  0
 17 18  1  0  0  0  0
 17 23  1  0  0  0  0
 18 19  1  0  0  0  0
 18 20  1  0  0  0  0
 18 59  1  0  0  0  0
 19 47  1  0  0  0  0
 19 48  1  0  0  0  0
 19 49  1  0  0  0  0
 20 21  1  0  0  0  0
 20 50  1  0  0  0  0
 20 51  1  0  0  0  0
 21 22  1  0  0  0  0
 21 52  1  0  0  0  0
 21 53  1  0  0  0  0
 22 54  1  0  0  0  0
 23 30  1  0  0  0  0
 23 24  1  0  0  0  0
 24 55  1  0  0  0  0
 24 56  1  0  0  0  0
 24 57  1  0  0  0  0
 25 26  1  0  0  0  0
 26 27  2  0  0  0  0
 26 58  1  0  0  0  0
 27 28  1  0  0  0  0
M  CHG  1  18   1
M  END
> <s_m_source_file>
AV-unprocessed.smi

> <i_m_source_file_index>
290

> <i_lp_mmshare_version>
43012

> <i_f3d_flags>
0

> <s_epik_input>
W0NIMl0xW0NIMl1PW0NAQEhdKFtDSDNdKVtDQEBdMShbT0hdKVtDSDJdbihbY0hdbjIpYyhjMjMpbltjSF1uYzNONFtDSDJdW0NIMl1bQ0BIXShbQ0BIXTRbQ0gzXSlOKFtDSDNdKVtDSDJdW0NIMl1bT0hd

> <s_epik_cmdline>
J2VwaWtfcHl0aG9uJywgJy1waCcsICc3LjAnLCAnLXRuJywgJzgnLCAnLW1hJywgJzIwMCcsICctbWV0YWxfYmluZGluZycsICctaW1hZScsICc8aW5maWxlLm1hZT4nLCAnLW9tYWUnLCAnPG91dGZpbGUubWFlPic=

> <r_lp_tautomer_probability>
1

> <r_epik_Ionization_Penalty>
0.0036983

> <r_epik_Ionization_Penalty_Charging>
0.0032725

> <r_epik_Ionization_Penalty_Neutral>
0.000425798

> <r_epik_State_Penalty>
-0

> <r_epik_Charging_Adjusted_Penalty>
0.0032725

> <i_epik_Tot_Q>
1

> <i_epik_Tot_abs_Q>
1

> <r_epik_Metal_State_Penalty>
-0

> <b_epik_Metal_Only>
0

> <s_lp_Force_Field>
OPLS_2005

> <r_lp_Energy>
70.3682

> <b_lp_Chiralities_Consistent>
1

> <s_lp_Variant>
AV-unprocessed.smi:290-11

> <Gold.Version>
5.8.1

> <Gold.Id.Protein>
6NUR|6NUR_protein|mol2

> <Gold.PLP.Fitness>
41.8995

> <Gold.PLP.PLP>
-37.0261

> <Gold.PLP.part.hbond>
-3.8832

> <Gold.PLP.part.metal>
0.0000

> <Gold.PLP.part.buried>
-3.0639

> <Gold.PLP.part.nonpolar>
-29.5352

> <Gold.PLP.part.repulsive>
0.0000

> <Gold.PLP.ligand.clash>
0.0000

> <Gold.PLP.ligand.torsion>
1.9531

> <Gold.PLP.Chemscore.Hbond>
2.8538

> <Gold.PLP.Chemscore.CHOScore>
0.0000

> <Gold.PLP.Chemscore.Metal>
0.0000

> <Gold.Chemscore.Hbonds>
donor molecule, donor type, donor heavy atom, donor atom, acceptor molecule, acceptor atom, score
      L1  H    22    54       P1 10957  0.72
      P1  H  6896  6907       L1    25  0.62
      P1  H 11000 11005       L1    22  1.00

> <Gold.PLP.Chemscore.Internal.Correction>
0.2182

> <Gold.Rescore>
     Score         DG    S(hbond)    S(metal)    S(lipo)     H(rot)  DE(clash)    DE(int)     intcor
      9.94     -14.08       2.49        0.00      82.69       3.67       0.90       3.24       ----

> <Gold.Chemscore.Fitness>
9.9414

> <Gold.Chemscore.DG>
-14.0831

> <Gold.Chemscore.ZeroCoef>
-5.4800

> <Gold.Chemscore.Hbond>
2.4890

> <Gold.Chemscore.Metal>
0.0000

> <Gold.Chemscore.Lipo>
82.6851

> <Gold.Chemscore.Internal_Hbond>
0.0000

> <Gold.Chemscore.DEClash>
0.9025

> <Gold.Chemscore.DEInternal>
3.2392

> <Gold.Chemscore.Rot>
3.6658

> <Gold.Chemscore.Internal.Correction>
   9.000000E+99

> <Gold.Chemscore.Hbonds>
donor molecule, donor type, donor heavy atom, donor atom, acceptor molecule, acceptor atom, score
      L1  H    22    54       P1 10957  0.68
      P1  H  6896  6907       L1    25  0.46
      P1  H 11000 11005       L1    22  0.20

> <Gold.Chemscore.Hbond.Weighted>
-8.3134

> <Gold.Chemscore.Metal.Weighted>
-0.0000

> <Gold.Chemscore.Lipo.Weighted>
-9.6742

> <Gold.Chemscore.Internal_Hbond.Weighted>
0.0000

> <Gold.Chemscore.DEClash.Weighted>
0.9025

> <Gold.Chemscore.DEInternal.Weighted>
3.2392

> <Gold.Chemscore.Rot.Weighted>
9.3844

> <Gold.Chemscore.Internal.Correction.Weighted>
   9.000000E+99

> <Gold.Protein.RotatedTorsions>
[ 6907 6896 6895 6894 ] final  -19.11 input  -60.11 | X-H torsion
[ 7974 7965 7964 7962 ] final -176.37 input  175.53 | X-H torsion
[ 8008 7997 7996 7995 ] final   80.86 input   59.86 | X-H torsion
[ 10167 10162 10161 10158 ] final -103.07 input  -65.29 | X-H torsion
[ 10718 10713 10712 10709 ] final  115.32 input   66.30 | X-H torsion
[ 10763 10752 10751 10750 ] final   79.75 input  -60.55 | X-H torsion
[ 11005 11000 10999 10996 ] final  -90.41 input  -57.11 | X-H torsion

> <Gold.Protein.ActiveResidues>
 VAL166  LYS551  ARG553  GLY616  TRP617  ASP618  TYR619  PRO620  LYS621  CYS622 
 ASP623  PHE694  ASN695  SER759  ASP760  ASP761  ALA762  ILE779  LEU786  VAL792 
 PHE793  MET794  SER795  GLU796  ALA797  LYS798  CYS799  TRP800  GLU811  SER814 

> <Gold.Protein.RotatedAtoms>
  151.2681  135.0676  159.9123 H   0  0  0  0  0  0  0  0  0  0  0  0  # atno 6907 bound_to 6896
  152.5355  134.0159  159.7970 H   0  0  0  0  0  0  0  0  0  0  0  0  # atno 6908 bound_to 6896
  151.0393  133.5670  159.2683 H   0  0  0  0  0  0  0  0  0  0  0  0  # atno 6909 bound_to 6896
  144.7127  140.1180  143.6407 H   0  0  0  0  0  0  0  0  0  0  0  0  # atno 7974 bound_to 7965
  155.8893  140.3439  155.5944 H   0  0  0  0  0  0  0  0  0  0  0  0  # atno 8008 bound_to 7997
  155.7629  140.0835  157.2165 H   0  0  0  0  0  0  0  0  0  0  0  0  # atno 8009 bound_to 7997
  154.4032  140.1532  156.2841 H   0  0  0  0  0  0  0  0  0  0  0  0  # atno 8010 bound_to 7997
  140.2239  143.3656  152.0946 H   0  0  0  0  0  0  0  0  0  0  0  0  # atno 10167 bound_to 10162
  157.6229  131.1011  150.7312 H   0  0  0  0  0  0  0  0  0  0  0  0  # atno 10718 bound_to 10713
  153.0977  135.4828  154.8810 H   0  0  0  0  0  0  0  0  0  0  0  0  # atno 10763 bound_to 10752
  154.7344  135.3067  154.8839 H   0  0  0  0  0  0  0  0  0  0  0  0  # atno 10764 bound_to 10752
  153.9466  135.6828  153.4797 H   0  0  0  0  0  0  0  0  0  0  0  0  # atno 10765 bound_to 10752
  141.1566  133.7690  156.9734 H   0  0  0  0  0  0  0  0  0  0  0  0  # atno 11005 bound_to 11000
  145.9396  139.2660  143.1277 LP  0  0  0  0  0  0  0  0  0  0  0  0  # atno 17320 bound_to 7965
  145.9438  140.8960  143.0294 LP  0  0  0  0  0  0  0  0  0  0  0  0  # atno 17321 bound_to 7965
  139.5134  144.6932  151.5702 LP  0  0  0  0  0  0  0  0  0  0  0  0  # atno 17342 bound_to 10162
  140.6235  143.9213  150.6545 LP  0  0  0  0  0  0  0  0  0  0  0  0  # atno 17343 bound_to 10162
  156.7666  130.4815  149.5426 LP  0  0  0  0  0  0  0  0  0  0  0  0  # atno 17370 bound_to 10713
  156.1384  130.6227  151.0433 LP  0  0  0  0  0  0  0  0  0  0  0  0  # atno 17371 bound_to 10713
  140.1114  134.9474  157.2071 LP  0  0  0  0  0  0  0  0  0  0  0  0  # atno 17394 bound_to 11000
  140.3189  134.2939  155.7250 LP  0  0  0  0  0  0  0  0  0  0  0  0  # atno 17395 bound_to 11000

$$$$
