AV-unprocessed.smi:2926|AV-procd|sdf|11229|dock9
  -GOLD-   2272016123D 1   1.00000     0.00000
 Structure written by MMmdl.
 31 31  0  0  0  0  0  0  0  0  2 V2000
  151.5196  144.8944  160.1481 C   0  0  0  0  0  0  0  0  0  0  0  0
  152.1793  143.8867  159.1798 C   0  0  0  0  0  0  0  0  0  0  0  0
  151.5839  144.0326  157.7597 C   0  0  0  0  0  0  0  0  0  0  0  0
  152.2060  142.4275  159.7301 C   0  0  2  0  0  0  0  0  0  0  0  0
  152.8848  142.3197  161.1120 C   0  0  0  0  0  0  0  0  0  0  0  0
  152.0018  142.6963  162.1497 O   0  0  0  0  0  0  0  0  0  0  0  0
  152.8718  141.5415  158.7796 N   0  5  0  0  0  0  0  0  0  0  0  0
  152.0674  140.2792  158.1558 S   0  0  0  0  0  0  0  0  0  0  0  0
  152.9622  139.2090  157.6866 O   0  0  0  0  0  0  0  0  0  0  0  0
  150.9210  139.8724  158.9855 O   0  0  0  0  0  0  0  0  0  0  0  0
  151.3529  141.0513  156.6413 C   0  0  0  0  0  0  0  0  0  0  0  0
  150.8640  139.9892  155.6960 C   0  0  0  0  0  0  0  0  0  0  0  0
  151.6076  138.9552  155.0618 C   0  0  0  0  0  0  0  0  0  0  0  0
  150.6685  138.2886  154.3294 C   0  0  0  0  0  0  0  0  0  0  0  0
  149.4452  138.8496  154.5017 O   0  0  0  0  0  0  0  0  0  0  0  0
  149.5792  139.9323  155.3782 N   0  0  0  0  0  0  0  0  0  0  0  0
  151.1631  142.1393  159.8729 H   0  0  0  0  0  0  0  0  0  0  0  0
  150.4509  144.7088  160.2701 H   0  0  0  0  0  0  0  0  0  0  0  0
  151.6236  145.9120  159.7705 H   0  0  0  0  0  0  0  0  0  0  0  0
  151.9765  144.8795  161.1396 H   0  0  0  0  0  0  0  0  0  0  0  0
  153.2219  144.1981  159.1026 H   0  0  0  0  0  0  0  0  0  0  0  0
  150.5262  143.7656  157.7255 H   0  0  0  0  0  0  0  0  0  0  0  0
  152.1075  143.4243  157.0208 H   0  0  0  0  0  0  0  0  0  0  0  0
  151.6601  145.0656  157.4197 H   0  0  0  0  0  0  0  0  0  0  0  0
  153.2396  141.3061  161.3014 H   0  0  0  0  0  0  0  0  0  0  0  0
  153.7537  142.9765  161.1582 H   0  0  0  0  0  0  0  0  0  0  0  0
  151.8389  143.6242  162.0844 H   0  0  0  0  0  0  0  0  0  0  0  0
  150.5388  141.7085  156.9453 H   0  0  0  0  0  0  0  0  0  0  0  0
  152.1242  141.6694  156.1812 H   0  0  0  0  0  0  0  0  0  0  0  0
  152.6647  138.7439  155.1289 H   0  0  0  0  0  0  0  0  0  0  0  0
  150.7109  137.4349  153.6696 H   0  0  0  0  0  0  0  0  0  0  0  0
  1  2  1  0  0  0  0
  1 18  1  0  0  0  0
  1 19  1  0  0  0  0
  1 20  1  0  0  0  0
  2  3  1  0  0  0  0
  2  4  1  0  0  0  0
  2 21  1  0  0  0  0
  3 22  1  0  0  0  0
  3 23  1  0  0  0  0
  3 24  1  0  0  0  0
  4 17  1  0  0  0  0
  4  5  1  0  0  0  0
  4  7  1  0  0  0  0
  5  6  1  0  0  0  0
  5 25  1  0  0  0  0
  5 26  1  0  0  0  0
  6 27  1  0  0  0  0
  7  8  1  0  0  0  0
  8  9  2  0  0  0  0
  8 10  2  0  0  0  0
  8 11  1  0  0  0  0
 11 12  1  0  0  0  0
 11 28  1  0  0  0  0
 11 29  1  0  0  0  0
 12 16  2  0  0  0  0
 12 13  1  0  0  0  0
 13 14  2  0  0  0  0
 13 30  1  0  0  0  0
 14 15  1  0  0  0  0
 14 31  1  0  0  0  0
 15 16  1  0  0  0  0
M  CHG  1   7  -1
M  END
> <s_m_source_file>
AV-unprocessed.smi

> <i_m_source_file_index>
2926

> <i_lp_mmshare_version>
43012

> <i_f3d_flags>
0

> <s_epik_input>
W0NIM11bQ0hdKFtDSDNdKVtDQEBIXShbQ0gyXVtPSF0pW05IXVMoPU8pKD1PKVtDSDJdYzFbY0hdW2NIXW9uMQ==

> <s_epik_cmdline>
J2VwaWtfcHl0aG9uJywgJy1waCcsICc3LjAnLCAnLXRuJywgJzgnLCAnLW1hJywgJzIwMCcsICctbWV0YWxfYmluZGluZycsICctaW1hZScsICc8aW5maWxlLm1hZT4nLCAnLW9tYWUnLCAnPG91dGZpbGUubWFlPic=

> <r_lp_tautomer_probability>
1

> <r_epik_Ionization_Penalty>
4.75719

> <r_epik_Ionization_Penalty_Charging>
4.75718

> <r_epik_Ionization_Penalty_Neutral>
1.48962e-06

> <r_epik_State_Penalty>
4.75699

> <r_epik_Charging_Adjusted_Penalty>
9.51417

> <i_epik_Tot_Q>
-1

> <i_epik_Tot_abs_Q>
1

> <r_epik_Metal_State_Penalty>
0.961449

> <b_epik_Metal_Only>
1

> <s_lp_Force_Field>
OPLS_2005

> <r_lp_Energy>
3.36492

> <b_lp_Chiralities_Consistent>
1

> <s_lp_Variant>
AV-unprocessed.smi:2926-4

> <Gold.Version>
5.8.1

> <Gold.Id.Protein>
6NUR|6NUR_protein|mol2

> <Gold.PLP.Fitness>
44.6077

> <Gold.PLP.PLP>
-36.7140

> <Gold.PLP.part.hbond>
-3.0000

> <Gold.PLP.part.metal>
0.0000

> <Gold.PLP.part.buried>
-5.0540

> <Gold.PLP.part.nonpolar>
-28.9881

> <Gold.PLP.part.repulsive>
0.2431

> <Gold.PLP.ligand.clash>
0.0000

> <Gold.PLP.ligand.torsion>
1.0410

> <Gold.PLP.Chemscore.Hbond>
1.9516

> <Gold.PLP.Chemscore.CHOScore>
0.9998

> <Gold.PLP.Chemscore.Metal>
0.0000

> <Gold.Chemscore.Hbonds>
donor molecule, donor type, donor heavy atom, donor atom, acceptor molecule, acceptor atom, score
      P1  H  6933  6945       L1     6  0.64
      P1  H  7997  8010       L1     9  1.00
      L1  C    14    31       P1  7948  0.28
      L1  C    14    31       P1  7949  0.54

> <Gold.PLP.Chemscore.Internal.Correction>
1.1214

> <Gold.Rescore>
     Score         DG    S(hbond)    S(metal)    S(lipo)     H(rot)  DE(clash)    DE(int)     intcor
     11.96     -14.34       1.70        0.00      83.51       2.58       1.37       1.01       ----

> <Gold.Chemscore.Fitness>
11.9616

> <Gold.Chemscore.DG>
-14.3368

> <Gold.Chemscore.ZeroCoef>
-5.4800

> <Gold.Chemscore.Hbond>
1.7021

> <Gold.Chemscore.Metal>
0.0000

> <Gold.Chemscore.Lipo>
83.5074

> <Gold.Chemscore.Internal_Hbond>
0.0000

> <Gold.Chemscore.DEClash>
1.3680

> <Gold.Chemscore.DEInternal>
1.0072

> <Gold.Chemscore.Rot>
2.5776

> <Gold.Chemscore.Internal.Correction>
   9.000000E+99

> <Gold.Chemscore.Hbonds>
donor molecule, donor type, donor heavy atom, donor atom, acceptor molecule, acceptor atom, score
      P1  H  6933  6945       L1     6  0.33
      P1  H  7997  8010       L1     9  0.60

> <Gold.Chemscore.Hbond.Weighted>
-5.6852

> <Gold.Chemscore.Metal.Weighted>
-0.0000

> <Gold.Chemscore.Lipo.Weighted>
-9.7704

> <Gold.Chemscore.Internal_Hbond.Weighted>
0.0000

> <Gold.Chemscore.DEClash.Weighted>
1.3680

> <Gold.Chemscore.DEInternal.Weighted>
1.0072

> <Gold.Chemscore.Rot.Weighted>
6.5987

> <Gold.Chemscore.Internal.Correction.Weighted>
   9.000000E+99

> <Gold.Protein.RotatedTorsions>
[ 6907 6896 6895 6894 ] final  -57.74 input  -60.11 | X-H torsion
[ 7974 7965 7964 7962 ] final  -99.43 input  175.53 | X-H torsion
[ 8008 7997 7996 7995 ] final   57.41 input   59.86 | X-H torsion
[ 10167 10162 10161 10158 ] final   57.96 input  -65.29 | X-H torsion
[ 10718 10713 10712 10709 ] final    1.05 input   66.30 | X-H torsion
[ 10763 10752 10751 10750 ] final  123.35 input  -60.55 | X-H torsion
[ 11005 11000 10999 10996 ] final   70.66 input  -57.11 | X-H torsion

> <Gold.Protein.ActiveResidues>
 VAL166  LYS551  ARG553  GLY616  TRP617  ASP618  TYR619  PRO620  LYS621  CYS622 
 ASP623  PHE694  ASN695  SER759  ASP760  ASP761  ALA762  ILE779  LEU786  VAL792 
 PHE793  MET794  SER795  GLU796  ALA797  LYS798  CYS799  TRP800  GLU811  SER814 

> <Gold.Protein.RotatedAtoms>
  150.8062  134.7188  159.6645 H   0  0  0  0  0  0  0  0  0  0  0  0  # atno 6907 bound_to 6896
  152.4181  134.6001  160.0007 H   0  0  0  0  0  0  0  0  0  0  0  0  # atno 6908 bound_to 6896
  151.6225  133.3301  159.3127 H   0  0  0  0  0  0  0  0  0  0  0  0  # atno 6909 bound_to 6896
  145.3076  140.9392  143.2788 H   0  0  0  0  0  0  0  0  0  0  0  0  # atno 7974 bound_to 7965
  155.5334  140.3482  155.4431 H   0  0  0  0  0  0  0  0  0  0  0  0  # atno 8008 bound_to 7997
  156.0702  140.1361  156.9864 H   0  0  0  0  0  0  0  0  0  0  0  0  # atno 8009 bound_to 7997
  154.4524  140.0967  156.6633 H   0  0  0  0  0  0  0  0  0  0  0  0  # atno 8010 bound_to 7997
  140.1924  144.4072  150.6565 H   0  0  0  0  0  0  0  0  0  0  0  0  # atno 10167 bound_to 10162
  156.8424  130.5525  149.5676 H   0  0  0  0  0  0  0  0  0  0  0  0  # atno 10718 bound_to 10713
  153.6442  135.3374  155.3080 H   0  0  0  0  0  0  0  0  0  0  0  0  # atno 10763 bound_to 10752
  154.8552  135.4325  154.1972 H   0  0  0  0  0  0  0  0  0  0  0  0  # atno 10764 bound_to 10752
  153.2899  135.7016  153.7378 H   0  0  0  0  0  0  0  0  0  0  0  0  # atno 10765 bound_to 10752
  139.9585  134.7102  156.0698 H   0  0  0  0  0  0  0  0  0  0  0  0  # atno 11005 bound_to 11000
  144.9042  139.4611  143.6618 LP  0  0  0  0  0  0  0  0  0  0  0  0  # atno 17320 bound_to 7965
  146.3129  139.7813  142.9006 LP  0  0  0  0  0  0  0  0  0  0  0  0  # atno 17321 bound_to 7965
  140.6447  143.2211  151.6213 LP  0  0  0  0  0  0  0  0  0  0  0  0  # atno 17342 bound_to 10162
  139.5250  144.3086  152.1012 LP  0  0  0  0  0  0  0  0  0  0  0  0  # atno 17343 bound_to 10162
  156.0873  130.5868  150.9671 LP  0  0  0  0  0  0  0  0  0  0  0  0  # atno 17370 bound_to 10713
  157.6348  131.0917  150.8369 LP  0  0  0  0  0  0  0  0  0  0  0  0  # atno 17371 bound_to 10713
  141.1260  133.6599  156.3337 LP  0  0  0  0  0  0  0  0  0  0  0  0  # atno 17394 bound_to 11000
  140.5554  134.5987  157.5419 LP  0  0  0  0  0  0  0  0  0  0  0  0  # atno 17395 bound_to 11000

$$$$
