AV-unprocessed.smi:1808|AV-procd|sdf|7308|dock4
  -GOLD-   22720 8563D 1   1.00000     0.00000
 Structure written by MMmdl.
 27 28  0  0  0  0  0  0  0  0  2 V2000
  151.3476  140.4950  155.5050 O   0  0  0  0  0  0  0  0  0  0  0  0
  150.5267  141.3333  155.8850 C   0  0  0  0  0  0  0  0  0  0  0  0
  150.6162  141.8401  157.1214 N   0  0  0  0  0  0  0  0  0  0  0  0
  151.6346  141.4868  158.1011 C   0  0  0  0  0  0  0  0  0  0  0  0
  151.9446  142.6811  159.0136 C   0  0  1  0  0  0  0  0  0  0  0  0
  152.4915  143.8993  158.2741 C   0  0  0  0  0  0  0  0  0  0  0  0
  152.1545  145.0515  159.2064 C   0  0  0  0  0  0  0  0  0  0  0  0
  151.0534  144.4890  160.1111 C   0  0  0  0  0  0  0  0  0  0  0  0
  150.7578  143.1983  159.5945 O   0  0  0  0  0  0  0  0  0  0  0  0
  149.4947  141.8294  155.1649 N   0  5  0  0  0  0  0  0  0  0  0  0
  148.6691  140.9958  154.5115 C   0  0  0  0  0  0  0  0  0  0  0  0
  148.9178  139.6895  154.3623 N   0  0  0  0  0  0  0  0  0  0  0  0
  147.9224  139.0122  153.6555 C   0  0  0  0  0  0  0  0  0  0  0  0
  146.8872  139.8195  153.2656 C   0  0  0  0  0  0  0  0  0  0  0  0
  147.1333  141.4649  153.7772 S   0  0  0  0  0  0  0  0  0  0  0  0
  149.9307  142.5276  157.3974 H   0  0  0  0  0  0  0  0  0  0  0  0
  151.2721  140.6490  158.6982 H   0  0  0  0  0  0  0  0  0  0  0  0
  152.5400  141.1540  157.5912 H   0  0  0  0  0  0  0  0  0  0  0  0
  152.6355  142.3892  159.8070 H   0  0  0  0  0  0  0  0  0  0  0  0
  153.5578  143.8212  158.0607 H   0  0  0  0  0  0  0  0  0  0  0  0
  151.9666  144.0307  157.3266 H   0  0  0  0  0  0  0  0  0  0  0  0
  153.0215  145.3421  159.8004 H   0  0  0  0  0  0  0  0  0  0  0  0
  151.8200  145.9270  158.6491 H   0  0  0  0  0  0  0  0  0  0  0  0
  151.4115  144.3932  161.1372 H   0  0  0  0  0  0  0  0  0  0  0  0
  150.1605  145.1142  160.1199 H   0  0  0  0  0  0  0  0  0  0  0  0
  148.0322  137.9529  153.4765 H   0  0  0  0  0  0  0  0  0  0  0  0
  145.9998  139.5496  152.7135 H   0  0  0  0  0  0  0  0  0  0  0  0
  1  2  2  0  0  0  0
  2  3  1  0  0  0  0
  2 10  1  0  0  0  0
  3  4  1  0  0  0  0
  3 16  1  0  0  0  0
  4  5  1  0  0  0  0
  4 17  1  0  0  0  0
  4 18  1  0  0  0  0
  5  9  1  0  0  0  0
  5  6  1  0  0  0  0
  5 19  1  0  0  0  0
  6  7  1  0  0  0  0
  6 20  1  0  0  0  0
  6 21  1  0  0  0  0
  7  8  1  0  0  0  0
  7 22  1  0  0  0  0
  7 23  1  0  0  0  0
  8  9  1  0  0  0  0
  8 24  1  0  0  0  0
  8 25  1  0  0  0  0
 10 11  1  0  0  0  0
 11 15  1  0  0  0  0
 11 12  2  0  0  0  0
 12 13  1  0  0  0  0
 13 14  2  0  0  0  0
 13 26  1  0  0  0  0
 14 15  1  0  0  0  0
 14 27  1  0  0  0  0
M  CHG  1  10  -1
M  END
> <s_m_source_file>
AV-unprocessed.smi

> <i_m_source_file_index>
1808

> <i_lp_mmshare_version>
43012

> <i_f3d_flags>
0

> <s_epik_input>
czFbY0hdW2NIXW5jMVtOSF1DKD1PKVtOSF1bQ0gyXVtDQEBIXTJbQ0gyXVtDSDJdW0NIMl1PMg==

> <s_epik_cmdline>
J2VwaWtfcHl0aG9uJywgJy1waCcsICc3LjAnLCAnLXRuJywgJzgnLCAnLW1hJywgJzIwMCcsICctbWV0YWxfYmluZGluZycsICctaW1hZScsICc8aW5maWxlLm1hZT4nLCAnLW9tYWUnLCAnPG91dGZpbGUubWFlPic=

> <r_lp_tautomer_probability>
0.999

> <r_epik_Ionization_Penalty>
8.26346

> <r_epik_Ionization_Penalty_Charging>
6.6559

> <r_epik_Ionization_Penalty_Neutral>
1.60756

> <r_epik_State_Penalty>
6.65607

> <r_epik_Charging_Adjusted_Penalty>
13.312

> <i_epik_Tot_Q>
-1

> <i_epik_Tot_abs_Q>
1

> <r_epik_Metal_State_Penalty>
2.5789

> <b_epik_Metal_Only>
1

> <s_lp_Force_Field>
OPLS_2005

> <r_lp_Energy>
13.0287

> <b_lp_Chiralities_Consistent>
1

> <s_lp_Variant>
AV-unprocessed.smi:1808-4

> <Gold.Version>
5.8.1

> <Gold.Id.Protein>
6NUR|6NUR_protein|mol2

> <Gold.PLP.Fitness>
39.2898

> <Gold.PLP.PLP>
-31.9801

> <Gold.PLP.part.hbond>
-1.5459

> <Gold.PLP.part.metal>
0.0000

> <Gold.PLP.part.buried>
-5.7104

> <Gold.PLP.part.nonpolar>
-26.4346

> <Gold.PLP.part.repulsive>
1.2571

> <Gold.PLP.ligand.clash>
0.0000

> <Gold.PLP.ligand.torsion>
0.6490

> <Gold.PLP.Chemscore.Hbond>
0.8564

> <Gold.PLP.Chemscore.CHOScore>
1.9973

> <Gold.PLP.Chemscore.Metal>
0.0000

> <Gold.Chemscore.Hbonds>
donor molecule, donor type, donor heavy atom, donor atom, acceptor molecule, acceptor atom, score
      P1  H  7989  7998       L1     1  0.81
      L1  C    13    26       P1  7948  1.00
      L1  C    14    27       P1 10175  1.00

> <Gold.PLP.Chemscore.Internal.Correction>
0.0466

> <Gold.Rescore>
     Score         DG    S(hbond)    S(metal)    S(lipo)     H(rot)  DE(clash)    DE(int)     intcor
     11.49     -13.62       0.84        0.00      73.97       1.30       0.14       2.00       ----

> <Gold.Chemscore.Fitness>
11.4854

> <Gold.Chemscore.DG>
-13.6237

> <Gold.Chemscore.ZeroCoef>
-5.4800

> <Gold.Chemscore.Hbond>
0.8434

> <Gold.Chemscore.Metal>
0.0000

> <Gold.Chemscore.Lipo>
73.9728

> <Gold.Chemscore.Internal_Hbond>
0.0000

> <Gold.Chemscore.DEClash>
0.1373

> <Gold.Chemscore.DEInternal>
2.0010

> <Gold.Chemscore.Rot>
1.3000

> <Gold.Chemscore.Internal.Correction>
   9.000000E+99

> <Gold.Chemscore.Hbonds>
donor molecule, donor type, donor heavy atom, donor atom, acceptor molecule, acceptor atom, score
      P1  H  7989  7998       L1     1  0.38

> <Gold.Chemscore.Hbond.Weighted>
-2.8169

> <Gold.Chemscore.Metal.Weighted>
-0.0000

> <Gold.Chemscore.Lipo.Weighted>
-8.6548

> <Gold.Chemscore.Internal_Hbond.Weighted>
0.0000

> <Gold.Chemscore.DEClash.Weighted>
0.1373

> <Gold.Chemscore.DEInternal.Weighted>
2.0010

> <Gold.Chemscore.Rot.Weighted>
3.3280

> <Gold.Chemscore.Internal.Correction.Weighted>
   9.000000E+99

> <Gold.Protein.RotatedTorsions>
[ 6907 6896 6895 6894 ] final   53.18 input  -60.11 | X-H torsion
[ 7974 7965 7964 7962 ] final -169.05 input  175.53 | X-H torsion
[ 8008 7997 7996 7995 ] final   32.00 input   59.86 | X-H torsion
[ 10167 10162 10161 10158 ] final -163.10 input  -65.29 | X-H torsion
[ 10718 10713 10712 10709 ] final   20.81 input   66.30 | X-H torsion
[ 10763 10752 10751 10750 ] final  171.19 input  -60.55 | X-H torsion
[ 11005 11000 10999 10996 ] final -125.73 input  -57.11 | X-H torsion

> <Gold.Protein.ActiveResidues>
 VAL166  LYS551  ARG553  GLY616  TRP617  ASP618  TYR619  PRO620  LYS621  CYS622 
 ASP623  PHE694  ASN695  SER759  ASP760  ASP761  ALA762  ILE779  LEU786  VAL792 
 PHE793  MET794  SER795  GLU796  ALA797  LYS798  CYS799  TRP800  GLU811  SER814 

> <Gold.Protein.RotatedAtoms>
  152.3310  134.7259  160.0289 H   0  0  0  0  0  0  0  0  0  0  0  0  # atno 6907 bound_to 6896
  151.7675  133.3333  159.3443 H   0  0  0  0  0  0  0  0  0  0  0  0  # atno 6908 bound_to 6896
  150.7423  134.5981  159.6066 H   0  0  0  0  0  0  0  0  0  0  0  0  # atno 6909 bound_to 6896
  144.7192  140.2279  143.6308 H   0  0  0  0  0  0  0  0  0  0  0  0  # atno 7974 bound_to 7965
  155.1154  140.3243  155.4511 H   0  0  0  0  0  0  0  0  0  0  0  0  # atno 8008 bound_to 7997
  156.2678  140.2036  156.6225 H   0  0  0  0  0  0  0  0  0  0  0  0  # atno 8009 bound_to 7997
  154.6724  140.0535  157.0166 H   0  0  0  0  0  0  0  0  0  0  0  0  # atno 8010 bound_to 7997
  139.6345  144.0376  152.2043 H   0  0  0  0  0  0  0  0  0  0  0  0  # atno 10167 bound_to 10162
  157.1297  130.6585  149.5948 H   0  0  0  0  0  0  0  0  0  0  0  0  # atno 10718 bound_to 10713
  154.4084  135.2756  155.2053 H   0  0  0  0  0  0  0  0  0  0  0  0  # atno 10763 bound_to 10752
  154.4049  135.6036  153.5922 H   0  0  0  0  0  0  0  0  0  0  0  0  # atno 10764 bound_to 10752
  152.9831  135.5935  154.4361 H   0  0  0  0  0  0  0  0  0  0  0  0  # atno 10765 bound_to 10752
  140.9739  134.0768  157.3840 H   0  0  0  0  0  0  0  0  0  0  0  0  # atno 11005 bound_to 11000
  145.8439  139.2143  143.1811 LP  0  0  0  0  0  0  0  0  0  0  0  0  # atno 17320 bound_to 7965
  146.0322  140.8247  142.9870 LP  0  0  0  0  0  0  0  0  0  0  0  0  # atno 17321 bound_to 7965
  140.0050  144.6266  150.7696 LP  0  0  0  0  0  0  0  0  0  0  0  0  # atno 17342 bound_to 10162
  140.7457  143.2880  151.3408 LP  0  0  0  0  0  0  0  0  0  0  0  0  # atno 17343 bound_to 10162
  155.9810  130.4815  150.6806 LP  0  0  0  0  0  0  0  0  0  0  0  0  # atno 17370 bound_to 10713
  157.4403  131.0860  151.0950 LP  0  0  0  0  0  0  0  0  0  0  0  0  # atno 17371 bound_to 10713
  139.8923  135.0123  156.6837 LP  0  0  0  0  0  0  0  0  0  0  0  0  # atno 17394 bound_to 11000
  140.7288  133.9077  155.8197 LP  0  0  0  0  0  0  0  0  0  0  0  0  # atno 17395 bound_to 11000

$$$$
