AV-unprocessed.smi:1380|AV-procd|sdf|5601|dock3
  -GOLD-   22720 5203D 1   1.00000     0.00000
 Structure written by MMmdl.
 34 35  0  0  0  0  0  0  0  0  2 V2000
  150.6939  140.7093  155.3021 O   0  0  0  0  0  0  0  0  0  0  0  0
  150.0537  141.7270  155.5651 C   0  0  0  0  0  0  0  0  0  0  0  0
  150.3920  142.5966  156.5273 N   0  0  0  0  0  0  0  0  0  0  0  0
  151.5576  142.4688  157.3979 C   0  0  0  0  0  0  0  0  0  0  0  0
  151.7091  143.6423  158.3875 C   0  0  0  0  0  0  0  0  0  0  0  0
  152.3760  143.2535  159.6957 C   0  0  0  0  0  0  0  0  0  0  0  0
  153.2498  142.1457  159.7536 C   0  0  0  0  0  0  0  0  0  0  0  0
  153.8589  141.8085  160.9804 C   0  0  0  0  0  0  0  0  0  0  0  0
  153.5797  142.5874  162.1221 C   0  0  0  0  0  0  0  0  0  0  0  0
  152.7380  143.6404  162.0287 N   0  3  0  0  0  0  0  0  0  0  0  0
  152.1345  143.9951  160.8731 C   0  0  0  0  0  0  0  0  0  0  0  0
  148.9265  142.0894  154.9380 N   0  0  0  0  0  0  0  0  0  0  0  0
  148.2850  141.3230  153.8779 C   0  0  0  0  0  0  0  0  0  0  0  0
  147.6639  140.0131  154.3247 C   0  0  0  0  0  0  0  0  0  0  0  0
  148.4552  138.7256  154.3085 C   0  0  0  0  0  0  0  0  0  0  0  0
  147.3405  138.9379  153.3138 C   0  0  0  0  0  0  0  0  0  0  0  0
  149.8049  143.4061  156.6662 H   0  0  0  0  0  0  0  0  0  0  0  0
  151.5179  141.5211  157.9371 H   0  0  0  0  0  0  0  0  0  0  0  0
  152.4374  142.4201  156.7559 H   0  0  0  0  0  0  0  0  0  0  0  0
  152.2834  144.4458  157.9245 H   0  0  0  0  0  0  0  0  0  0  0  0
  150.7281  144.0665  158.6040 H   0  0  0  0  0  0  0  0  0  0  0  0
  153.4527  141.5611  158.8679 H   0  0  0  0  0  0  0  0  0  0  0  0
  154.5303  140.9646  161.0441 H   0  0  0  0  0  0  0  0  0  0  0  0
  154.0008  142.4016  163.0995 H   0  0  0  0  0  0  0  0  0  0  0  0
  151.4862  144.8582  160.9239 H   0  0  0  0  0  0  0  0  0  0  0  0
  148.4738  142.9466  155.2201 H   0  0  0  0  0  0  0  0  0  0  0  0
  147.4965  141.9442  153.4528 H   0  0  0  0  0  0  0  0  0  0  0  0
  148.9950  141.1368  153.0701 H   0  0  0  0  0  0  0  0  0  0  0  0
  146.9422  140.1245  155.1319 H   0  0  0  0  0  0  0  0  0  0  0  0
  149.4757  138.7606  153.9325 H   0  0  0  0  0  0  0  0  0  0  0  0
  148.2814  138.0203  155.1185 H   0  0  0  0  0  0  0  0  0  0  0  0
  146.4233  138.3707  153.4583 H   0  0  0  0  0  0  0  0  0  0  0  0
  147.6219  139.1135  152.2773 H   0  0  0  0  0  0  0  0  0  0  0  0
  152.5494  144.1910  162.8668 H   0  0  0  0  0  0  0  0  0  0  0  0
  1  2  2  0  0  0  0
  2  3  1  0  0  0  0
  2 12  1  0  0  0  0
  3  4  1  0  0  0  0
  3 17  1  0  0  0  0
  4  5  1  0  0  0  0
  4 18  1  0  0  0  0
  4 19  1  0  0  0  0
  5  6  1  0  0  0  0
  5 20  1  0  0  0  0
  5 21  1  0  0  0  0
  6 11  1  0  0  0  0
  6  7  2  0  0  0  0
  7  8  1  0  0  0  0
  7 22  1  0  0  0  0
  8  9  2  0  0  0  0
  8 23  1  0  0  0  0
  9 10  1  0  0  0  0
  9 24  1  0  0  0  0
 10 11  2  0  0  0  0
 10 34  1  0  0  0  0
 11 25  1  0  0  0  0
 12 13  1  0  0  0  0
 12 26  1  0  0  0  0
 13 14  1  0  0  0  0
 13 27  1  0  0  0  0
 13 28  1  0  0  0  0
 14 16  1  0  0  0  0
 14 15  1  0  0  0  0
 14 29  1  0  0  0  0
 15 16  1  0  0  0  0
 15 30  1  0  0  0  0
 15 31  1  0  0  0  0
 16 32  1  0  0  0  0
 16 33  1  0  0  0  0
M  CHG  1  10   1
M  END
> <s_m_source_file>
AV-unprocessed.smi

> <i_m_source_file_index>
1380

> <i_lp_mmshare_version>
43012

> <i_f3d_flags>
0

> <s_epik_input>
W0NIMl0xW0NIMl1bQ0hdMVtDSDJdW05IXUMoPU8pW05IXVtDSDJdW0NIMl1jMltjSF1bY0hdW2NIXW5bY0hdMg==

> <s_epik_cmdline>
J2VwaWtfcHl0aG9uJywgJy1waCcsICc3LjAnLCAnLXRuJywgJzgnLCAnLW1hJywgJzIwMCcsICctbWV0YWxfYmluZGluZycsICctaW1hZScsICc8aW5maWxlLm1hZT4nLCAnLW9tYWUnLCAnPG91dGZpbGUubWFlPic=

> <r_epik_Ionization_Penalty>
2.21218

> <r_epik_Ionization_Penalty_Charging>
2.21212

> <r_epik_Ionization_Penalty_Neutral>
5.76468e-05

> <r_epik_State_Penalty>
2.35642

> <r_epik_Charging_Adjusted_Penalty>
4.56854

> <i_epik_Tot_Q>
1

> <i_epik_Tot_abs_Q>
1

> <r_epik_Metal_State_Penalty>
2.37048

> <b_epik_Metal_Only>
0

> <s_lp_Force_Field>
OPLS_2005

> <r_lp_Energy>
16.6962

> <b_lp_Chiralities_Consistent>
1

> <s_lp_Variant>
AV-unprocessed.smi:1380-2

> <Gold.Version>
5.8.1

> <Gold.Id.Protein>
6NUR|6NUR_protein|mol2

> <Gold.PLP.Fitness>
46.9088

> <Gold.PLP.PLP>
-40.4491

> <Gold.PLP.part.hbond>
-3.1705

> <Gold.PLP.part.metal>
0.0000

> <Gold.PLP.part.buried>
-3.3994

> <Gold.PLP.part.nonpolar>
-31.4253

> <Gold.PLP.part.repulsive>
0.4253

> <Gold.PLP.ligand.clash>
0.0000

> <Gold.PLP.ligand.torsion>
0.8554

> <Gold.PLP.Chemscore.Hbond>
2.5363

> <Gold.PLP.Chemscore.CHOScore>
0.0000

> <Gold.PLP.Chemscore.Metal>
0.0000

> <Gold.Chemscore.Hbonds>
donor molecule, donor type, donor heavy atom, donor atom, acceptor molecule, acceptor atom, score
      L1  H     3    17       P1  8028  0.82
      L1  H    12    26       P1  8028  0.83
      P1  H  7989  7998       L1     1  0.87

> <Gold.PLP.Chemscore.Internal.Correction>
0.5617

> <Gold.Rescore>
     Score         DG    S(hbond)    S(metal)    S(lipo)     H(rot)  DE(clash)    DE(int)     intcor
     19.50     -20.35       2.26        0.00     101.91       1.80       0.07       0.78       ----

> <Gold.Chemscore.Fitness>
19.4987

> <Gold.Chemscore.DG>
-20.3461

> <Gold.Chemscore.ZeroCoef>
-5.4800

> <Gold.Chemscore.Hbond>
2.2644

> <Gold.Chemscore.Metal>
0.0000

> <Gold.Chemscore.Lipo>
101.9052

> <Gold.Chemscore.Internal_Hbond>
0.0000

> <Gold.Chemscore.DEClash>
0.0680

> <Gold.Chemscore.DEInternal>
0.7795

> <Gold.Chemscore.Rot>
1.8047

> <Gold.Chemscore.Internal.Correction>
   9.000000E+99

> <Gold.Chemscore.Hbonds>
donor molecule, donor type, donor heavy atom, donor atom, acceptor molecule, acceptor atom, score
      L1  H     3    17       P1  8028  0.81
      L1  H    12    26       P1  8028  0.81
      P1  H  7989  7998       L1     1  0.63

> <Gold.Chemscore.Hbond.Weighted>
-7.5632

> <Gold.Chemscore.Metal.Weighted>
-0.0000

> <Gold.Chemscore.Lipo.Weighted>
-11.9229

> <Gold.Chemscore.Internal_Hbond.Weighted>
0.0000

> <Gold.Chemscore.DEClash.Weighted>
0.0680

> <Gold.Chemscore.DEInternal.Weighted>
0.7795

> <Gold.Chemscore.Rot.Weighted>
4.6199

> <Gold.Chemscore.Internal.Correction.Weighted>
   9.000000E+99

> <Gold.Protein.RotatedTorsions>
[ 6907 6896 6895 6894 ] final -145.16 input  -60.11 | X-H torsion
[ 7974 7965 7964 7962 ] final   52.08 input  175.53 | X-H torsion
[ 8008 7997 7996 7995 ] final  -35.55 input   59.86 | X-H torsion
[ 10167 10162 10161 10158 ] final -168.71 input  -65.29 | X-H torsion
[ 10718 10713 10712 10709 ] final -123.01 input   66.30 | X-H torsion
[ 10763 10752 10751 10750 ] final -175.58 input  -60.55 | X-H torsion
[ 11005 11000 10999 10996 ] final  -21.03 input  -57.11 | X-H torsion

> <Gold.Protein.ActiveResidues>
 VAL166  LYS551  ARG553  GLY616  TRP617  ASP618  TYR619  PRO620  LYS621  CYS622 
 ASP623  PHE694  ASN695  SER759  ASP760  ASP761  ALA762  ILE779  LEU786  VAL792 
 PHE793  MET794  SER795  GLU796  ALA797  LYS798  CYS799  TRP800  GLU811  SER814 

> <Gold.Protein.RotatedAtoms>
  151.1239  133.5084  159.2600 H   0  0  0  0  0  0  0  0  0  0  0  0  # atno 6907 bound_to 6896
  151.1831  135.0369  159.8811 H   0  0  0  0  0  0  0  0  0  0  0  0  # atno 6908 bound_to 6896
  152.5457  134.1088  159.8403 H   0  0  0  0  0  0  0  0  0  0  0  0  # atno 6909 bound_to 6896
  145.9849  139.4280  143.0109 H   0  0  0  0  0  0  0  0  0  0  0  0  # atno 7974 bound_to 7965
  154.4093  140.1654  156.2230 H   0  0  0  0  0  0  0  0  0  0  0  0  # atno 8008 bound_to 7997
  155.9347  140.3412  155.6255 H   0  0  0  0  0  0  0  0  0  0  0  0  # atno 8009 bound_to 7997
  155.7063  140.0751  157.2380 H   0  0  0  0  0  0  0  0  0  0  0  0  # atno 8010 bound_to 7997
  139.5968  144.1095  152.1698 H   0  0  0  0  0  0  0  0  0  0  0  0  # atno 10167 bound_to 10162
  156.1466  130.6504  150.9852 H   0  0  0  0  0  0  0  0  0  0  0  0  # atno 10718 bound_to 10713
  154.5827  135.2837  155.0716 H   0  0  0  0  0  0  0  0  0  0  0  0  # atno 10763 bound_to 10752
  154.2047  135.6418  153.5101 H   0  0  0  0  0  0  0  0  0  0  0  0  # atno 10764 bound_to 10752
  153.0093  135.5477  154.6486 H   0  0  0  0  0  0  0  0  0  0  0  0  # atno 10765 bound_to 10752
  140.8521  133.7849  155.9978 H   0  0  0  0  0  0  0  0  0  0  0  0  # atno 11005 bound_to 11000
  145.7715  140.9894  143.1147 LP  0  0  0  0  0  0  0  0  0  0  0  0  # atno 17320 bound_to 7965
  144.6872  139.9453  143.7476 LP  0  0  0  0  0  0  0  0  0  0  0  0  # atno 17321 bound_to 7965
  140.0682  144.5801  150.7211 LP  0  0  0  0  0  0  0  0  0  0  0  0  # atno 17342 bound_to 10162
  140.7218  143.2596  151.4253 LP  0  0  0  0  0  0  0  0  0  0  0  0  # atno 17343 bound_to 10162
  157.6622  131.0878  150.7812 LP  0  0  0  0  0  0  0  0  0  0  0  0  # atno 17370 bound_to 10713
  156.7883  130.4882  149.5389 LP  0  0  0  0  0  0  0  0  0  0  0  0  # atno 17371 bound_to 10713
  140.8778  134.2648  157.5159 LP  0  0  0  0  0  0  0  0  0  0  0  0  # atno 17394 bound_to 11000
  139.8704  134.9600  156.4349 LP  0  0  0  0  0  0  0  0  0  0  0  0  # atno 17395 bound_to 11000

$$$$
