AV-unprocessed.smi:1768|AV-procd|sdf|7148|dock10
  -GOLD-   22720 8383D 1   1.00000     0.00000
 Structure written by MMmdl.
 32 33  0  0  0  0  0  0  0  0  2 V2000
  148.8597  141.2040  154.5929 C   0  0  0  0  0  0  0  0  0  0  0  0
  150.0606  140.5731  155.2099 C   0  0  0  0  0  0  0  0  0  0  0  0
  150.8175  139.6804  154.5673 N   0  0  0  0  0  0  0  0  0  0  0  0
  151.8754  139.2352  155.3467 N   0  0  0  0  0  0  0  0  0  0  0  0
  151.8969  139.7859  156.5687 C   0  0  0  0  0  0  0  0  0  0  0  0
  152.8422  139.4888  157.4757 N   0  5  0  0  0  0  0  0  0  0  0  0
  152.7010  139.8956  158.7580 C   0  0  0  0  0  0  0  0  0  0  0  0
  152.4393  139.1787  159.7265 O   0  0  0  0  0  0  0  0  0  0  0  0
  152.8760  141.2143  158.9277 N   0  0  0  0  0  0  0  0  0  0  0  0
  152.7818  141.9435  160.1905 C   0  0  1  0  0  0  0  0  0  0  0  0
  153.9262  141.5115  161.1249 C   0  0  0  0  0  0  0  0  0  0  0  0
  152.8077  143.4566  159.9009 C   0  0  2  0  0  0  0  0  0  0  0  0
  152.1767  144.3297  160.9874 C   0  0  0  0  0  0  0  0  0  0  0  0
  151.7277  145.5755  160.2384 C   0  0  0  0  0  0  0  0  0  0  0  0
  151.8115  145.1755  158.7634 C   0  0  0  0  0  0  0  0  0  0  0  0
  152.0009  143.7683  158.7750 O   0  0  0  0  0  0  0  0  0  0  0  0
  150.5919  140.9402  156.8423 S   0  0  0  0  0  0  0  0  0  0  0  0
  148.0226  140.5061  154.6112 H   0  0  0  0  0  0  0  0  0  0  0  0
  149.0668  141.4793  153.5584 H   0  0  0  0  0  0  0  0  0  0  0  0
  148.5789  142.1026  155.1424 H   0  0  0  0  0  0  0  0  0  0  0  0
  153.0835  141.7604  158.1046 H   0  0  0  0  0  0  0  0  0  0  0  0
  151.8301  141.7047  160.6689 H   0  0  0  0  0  0  0  0  0  0  0  0
  153.8592  142.0096  162.0920 H   0  0  0  0  0  0  0  0  0  0  0  0
  154.8997  141.7482  160.6943 H   0  0  0  0  0  0  0  0  0  0  0  0
  153.8993  140.4380  161.3135 H   0  0  0  0  0  0  0  0  0  0  0  0
  153.8289  143.7903  159.7051 H   0  0  0  0  0  0  0  0  0  0  0  0
  151.3067  143.8295  161.4150 H   0  0  0  0  0  0  0  0  0  0  0  0
  152.8686  144.5527  161.8000 H   0  0  0  0  0  0  0  0  0  0  0  0
  150.7120  145.8525  160.5224 H   0  0  0  0  0  0  0  0  0  0  0  0
  152.3781  146.4260  160.4450 H   0  0  0  0  0  0  0  0  0  0  0  0
  150.9168  145.4475  158.2031 H   0  0  0  0  0  0  0  0  0  0  0  0
  152.6703  145.6485  158.2854 H   0  0  0  0  0  0  0  0  0  0  0  0
  1  2  1  0  0  0  0
  1 18  1  0  0  0  0
  1 19  1  0  0  0  0
  1 20  1  0  0  0  0
  2 17  1  0  0  0  0
  2  3  2  0  0  0  0
  3  4  1  0  0  0  0
  4  5  2  0  0  0  0
  5  6  1  0  0  0  0
  5 17  1  0  0  0  0
  6  7  1  0  0  0  0
  7  8  2  0  0  0  0
  7  9  1  0  0  0  0
  9 10  1  0  0  0  0
  9 21  1  0  0  0  0
 10 11  1  0  0  0  0
 10 12  1  0  0  0  0
 10 22  1  0  0  0  0
 11 23  1  0  0  0  0
 11 24  1  0  0  0  0
 11 25  1  0  0  0  0
 12 16  1  0  0  0  0
 12 13  1  0  0  0  0
 12 26  1  0  0  0  0
 13 14  1  0  0  0  0
 13 27  1  0  0  0  0
 13 28  1  0  0  0  0
 14 15  1  0  0  0  0
 14 29  1  0  0  0  0
 14 30  1  0  0  0  0
 15 16  1  0  0  0  0
 15 31  1  0  0  0  0
 15 32  1  0  0  0  0
M  CHG  1   6  -1
M  END
> <s_m_source_file>
AV-unprocessed.smi

> <i_m_source_file_index>
1768

> <i_lp_mmshare_version>
43012

> <i_f3d_flags>
0

> <s_epik_input>
W0NIM11jMW5uYyhzMSlbTkhdQyg9TylbTkhdW0NASF0oW0NIM10pW0NAQEhdMltDSDJdW0NIMl1bQ0gyXU8y

> <s_epik_cmdline>
J2VwaWtfcHl0aG9uJywgJy1waCcsICc3LjAnLCAnLXRuJywgJzgnLCAnLW1hJywgJzIwMCcsICctbWV0YWxfYmluZGluZycsICctaW1hZScsICc8aW5maWxlLm1hZT4nLCAnLW9tYWUnLCAnPG91dGZpbGUubWFlPic=

> <r_lp_tautomer_probability>
1

> <r_epik_Ionization_Penalty>
4.3376

> <r_epik_Ionization_Penalty_Charging>
4.19392

> <r_epik_Ionization_Penalty_Neutral>
0.143681

> <r_epik_State_Penalty>
4.19342

> <r_epik_Charging_Adjusted_Penalty>
8.38735

> <i_epik_Tot_Q>
-1

> <i_epik_Tot_abs_Q>
1

> <r_epik_Metal_State_Penalty>
0.686065

> <b_epik_Metal_Only>
1

> <s_lp_Force_Field>
OPLS_2005

> <r_lp_Energy>
16.4206

> <b_lp_Chiralities_Consistent>
1

> <s_lp_Variant>
AV-unprocessed.smi:1768-6

> <Gold.Version>
5.8.1

> <Gold.Id.Protein>
6NUR|6NUR_protein|mol2

> <Gold.PLP.Fitness>
46.6527

> <Gold.PLP.PLP>
-40.2142

> <Gold.PLP.part.hbond>
-2.7647

> <Gold.PLP.part.metal>
0.0000

> <Gold.PLP.part.buried>
-4.3621

> <Gold.PLP.part.nonpolar>
-33.3541

> <Gold.PLP.part.repulsive>
0.2624

> <Gold.PLP.ligand.clash>
0.0000

> <Gold.PLP.ligand.torsion>
1.1492

> <Gold.PLP.Chemscore.Hbond>
2.9000

> <Gold.PLP.Chemscore.CHOScore>
0.0000

> <Gold.PLP.Chemscore.Metal>
0.0000

> <Gold.Chemscore.Hbonds>
donor molecule, donor type, donor heavy atom, donor atom, acceptor molecule, acceptor atom, score
      P1  H  7989  7998       L1     3  0.80
      P1  H  7997  8008       L1     6  1.60

> <Gold.PLP.Chemscore.Internal.Correction>
0.0369

> <Gold.Rescore>
     Score         DG    S(hbond)    S(metal)    S(lipo)     H(rot)  DE(clash)    DE(int)     intcor
     14.24     -15.46       0.79        0.00      90.68       1.28       0.17       1.05       ----

> <Gold.Chemscore.Fitness>
14.2378

> <Gold.Chemscore.DG>
-15.4575

> <Gold.Chemscore.ZeroCoef>
-5.4800

> <Gold.Chemscore.Hbond>
0.7898

> <Gold.Chemscore.Metal>
0.0000

> <Gold.Chemscore.Lipo>
90.6848

> <Gold.Chemscore.Internal_Hbond>
0.0000

> <Gold.Chemscore.DEClash>
0.1733

> <Gold.Chemscore.DEInternal>
1.0464

> <Gold.Chemscore.Rot>
1.2776

> <Gold.Chemscore.Internal.Correction>
   9.000000E+99

> <Gold.Chemscore.Hbonds>
donor molecule, donor type, donor heavy atom, donor atom, acceptor molecule, acceptor atom, score
      P1  H  7989  7998       L1     3  0.04
      P1  H  7997  8008       L1     6  0.13

> <Gold.Chemscore.Hbond.Weighted>
-2.6380

> <Gold.Chemscore.Metal.Weighted>
-0.0000

> <Gold.Chemscore.Lipo.Weighted>
-10.6101

> <Gold.Chemscore.Internal_Hbond.Weighted>
0.0000

> <Gold.Chemscore.DEClash.Weighted>
0.1733

> <Gold.Chemscore.DEInternal.Weighted>
1.0464

> <Gold.Chemscore.Rot.Weighted>
3.2706

> <Gold.Chemscore.Internal.Correction.Weighted>
   9.000000E+99

> <Gold.Protein.RotatedTorsions>
[ 6907 6896 6895 6894 ] final  158.57 input  -60.11 | X-H torsion
[ 7974 7965 7964 7962 ] final  -13.76 input  175.53 | X-H torsion
[ 8008 7997 7996 7995 ] final  -46.74 input   59.86 | X-H torsion
[ 10167 10162 10161 10158 ] final  143.28 input  -65.29 | X-H torsion
[ 10718 10713 10712 10709 ] final   71.58 input   66.30 | X-H torsion
[ 10763 10752 10751 10750 ] final  -58.11 input  -60.55 | X-H torsion
[ 11005 11000 10999 10996 ] final  -23.59 input  -57.11 | X-H torsion

> <Gold.Protein.ActiveResidues>
 VAL166  LYS551  ARG553  GLY616  TRP617  ASP618  TYR619  PRO620  LYS621  CYS622 
 ASP623  PHE694  ASN695  SER759  ASP760  ASP761  ALA762  ILE779  LEU786  VAL792 
 PHE793  MET794  SER795  GLU796  ALA797  LYS798  CYS799  TRP800  GLU811  SER814 

> <Gold.Protein.RotatedAtoms>
  151.9984  133.3816  159.4171 H   0  0  0  0  0  0  0  0  0  0  0  0  # atno 6907 bound_to 6896
  150.6913  134.3861  159.5064 H   0  0  0  0  0  0  0  0  0  0  0  0  # atno 6908 bound_to 6896
  152.1604  134.8916  160.0592 H   0  0  0  0  0  0  0  0  0  0  0  0  # atno 6909 bound_to 6896
  146.2101  140.3250  142.8394 H   0  0  0  0  0  0  0  0  0  0  0  0  # atno 7974 bound_to 7965
  154.4010  140.1364  156.4062 H   0  0  0  0  0  0  0  0  0  0  0  0  # atno 8008 bound_to 7997
  155.7777  140.3482  155.5260 H   0  0  0  0  0  0  0  0  0  0  0  0  # atno 8009 bound_to 7997
  155.8704  140.0971  157.1544 H   0  0  0  0  0  0  0  0  0  0  0  0  # atno 8010 bound_to 7997
  139.4973  144.6051  151.6396 H   0  0  0  0  0  0  0  0  0  0  0  0  # atno 10167 bound_to 10162
  157.6459  130.9535  150.0809 H   0  0  0  0  0  0  0  0  0  0  0  0  # atno 10718 bound_to 10713
  154.2330  135.6357  153.5181 H   0  0  0  0  0  0  0  0  0  0  0  0  # atno 10763 bound_to 10752
  152.9945  135.5524  154.5992 H   0  0  0  0  0  0  0  0  0  0  0  0  # atno 10764 bound_to 10752
  154.5479  135.2899  155.1010 H   0  0  0  0  0  0  0  0  0  0  0  0  # atno 10765 bound_to 10752
  140.8766  133.7683  156.0251 H   0  0  0  0  0  0  0  0  0  0  0  0  # atno 11005 bound_to 11000
  144.8892  140.7502  143.5937 LP  0  0  0  0  0  0  0  0  0  0  0  0  # atno 17320 bound_to 7965
  145.3173  139.1799  143.4607 LP  0  0  0  0  0  0  0  0  0  0  0  0  # atno 17321 bound_to 7965
  140.5711  144.0108  150.6217 LP  0  0  0  0  0  0  0  0  0  0  0  0  # atno 17342 bound_to 10162
  140.3225  143.3128  152.0769 LP  0  0  0  0  0  0  0  0  0  0  0  0  # atno 17343 bound_to 10162
  156.1786  130.3649  149.9067 LP  0  0  0  0  0  0  0  0  0  0  0  0  # atno 17370 bound_to 10713
  156.7025  130.8938  151.3601 LP  0  0  0  0  0  0  0  0  0  0  0  0  # atno 17371 bound_to 10713
  140.8511  134.2953  157.5275 LP  0  0  0  0  0  0  0  0  0  0  0  0  # atno 17394 bound_to 11000
  139.8716  134.9468  156.3949 LP  0  0  0  0  0  0  0  0  0  0  0  0  # atno 17395 bound_to 11000

$$$$
