#       Name:                AV-unprocessed.smi:686
#       Creating user name   scv26
#       Creation time:       Fri Mar 27 00:32:37 2020


#       File generated by GOLD software.
#

@<TRIPOS>MOLECULE
AV-unprocessed.smi:686
    44    45     1
SMALL
NO_CHARGES


@<TRIPOS>ATOM
      1 ****        -1.4456   0.4187   2.4065 C.3            1 S1                 0.0000
      2 ****        -0.9248  -0.5682   1.3435 C.3            1 S1                 0.0000
      3 ****        -2.0093  -1.4997   0.7982 C.3            1 S1                 0.0000
      4 ****        -1.4531  -2.0406  -0.4625 N.4            1 S1                 1.0000
      5 ****        -2.4481  -2.6027  -1.4198 C.3            1 S1                 0.0000
      6 ****        -3.3712  -3.6346  -0.7446 C.3            1 S1                 0.0000
      7 ****        -1.7482  -3.2517  -2.6286 C.3            1 S1                 0.0000
      8 ****        -0.5494  -1.0027  -1.0224 C.3            1 S1                 0.0000
      9 ****        -0.3612   0.0699   0.0636 C.3            1 S1                 0.0000
     10 ****         1.0377   0.4382   0.2170 N.pl3          1 S1                -1.0000
     11 ****         1.4625   1.9983   0.1005 S.o2           1 S1                 0.0000
     12 ****         1.2831   2.5279  -1.2611 O.2            1 S1                 0.0000
     13 ****         0.9313   2.8100   1.2078 O.2            1 S1                 0.0000
     14 ****         3.2820   1.8816   0.3737 C.3            1 S1                 0.0000
     15 ****         3.9050   3.2467   0.2876 C.2            1 S1                 0.0000
     16 ****         3.8784   4.2934   1.2507 C.2            1 S1                 0.0000
     17 ****         4.5974   5.2909   0.6585 C.2            1 S1                 0.0000
     18 ****         5.0415   4.8965  -0.5615 O.3            1 S1                 0.0000
     19 ****         4.5972   3.5889  -0.7883 N.2            1 S1                 0.0000
     20 ****        -2.2373   1.0642   2.0216 H              1 S1                 0.0000
     21 ****        -0.6490   1.0592   2.7889 H              1 S1                 0.0000
     22 ****        -1.8567  -0.1219   3.2591 H              1 S1                 0.0000
     23 ****        -0.1543  -1.1928   1.8000 H              1 S1                 0.0000
     24 ****        -2.2423  -2.2986   1.5034 H              1 S1                 0.0000
     25 ****        -2.9366  -0.9547   0.5990 H              1 S1                 0.0000
     26 ****        -3.0691  -1.7820  -1.7823 H              1 S1                 0.0000
     27 ****        -4.0608  -4.0717  -1.4672 H              1 S1                 0.0000
     28 ****        -3.9817  -3.1867   0.0395 H              1 S1                 0.0000
     29 ****        -2.7986  -4.4496  -0.3008 H              1 S1                 0.0000
     30 ****        -2.4767  -3.6778  -3.3190 H              1 S1                 0.0000
     31 ****        -1.0816  -4.0559  -2.3150 H              1 S1                 0.0000
     32 ****        -1.1580  -2.5329  -3.1966 H              1 S1                 0.0000
     33 ****         0.3887  -1.4801  -1.3107 H              1 S1                 0.0000
     34 ****        -0.9695  -0.5413  -1.9174 H              1 S1                 0.0000
     35 ****        -0.9941   0.9191  -0.1989 H              1 S1                 0.0000
     36 ****         3.4527   1.4383   1.3543 H              1 S1                 0.0000
     37 ****         3.6969   1.2053  -0.3740 H              1 S1                 0.0000
     38 ****         3.4001   4.3102   2.2187 H              1 S1                 0.0000
     39 ****         4.8700   6.2903   0.9632 H              1 S1                 0.0000
     40 ****        -0.8487  -2.8003  -0.1844 H              1 S1                 0.0000
     41 ****         1.7291  -0.2627   0.3922 LP             1 S1                 0.0000
     42 ****         6.0410   4.9226  -0.5824 LP             1 S1                 0.0000
     43 ****         4.6774   5.5046  -1.2669 LP             1 S1                 0.0000
     44 ****         4.7677   3.0273  -1.5980 LP             1 S1                 0.0000
@<TRIPOS>BOND
    1    1    2 1     
    2    1   20 1     
    3    1   21 1     
    4    1   22 1     
    5    2    9 1     
    6    2    3 1     
    7    2   23 1     
    8    3    4 1     
    9    3   24 1     
   10    3   25 1     
   11    4    5 1     
   12    4    8 1     
   13    4   40 1     
   14    5    6 1     
   15    5    7 1     
   16    5   26 1     
   17    6   27 1     
   18    6   28 1     
   19    6   29 1     
   20    7   30 1     
   21    7   31 1     
   22    7   32 1     
   23    8    9 1     
   24    8   33 1     
   25    8   34 1     
   26    9   10 1     
   27    9   35 1     
   28   10   11 1     
   29   11   12 2     
   30   11   13 2     
   31   11   14 1     
   32   14   15 1     
   33   14   36 1     
   34   14   37 1     
   35   15   19 2     
   36   15   16 1     
   37   16   17 2     
   38   16   38 1     
   39   17   18 1     
   40   17   39 1     
   41   18   19 1     
   42   10   41 1     
   43   18   42 1     
   44   18   43 1     
   45   19   44 1     
@<TRIPOS>SUBSTRUCTURE
      1 S1             1
@<TRIPOS>SET
LONE_PAIRS      STATIC     ATOMS    <user>   **** ""
6 41 12 13 42 43 44
DONOR_HYDROGENS      STATIC     ATOMS    <user>   **** ""
1 40
ATOM$BLUE        STATIC     ATOMS    COLORGROUP SYSTEM
6 41 12 13 42 43 44
ATOM$RED        STATIC     ATOMS    COLORGROUP SYSTEM
1 40
