#       Name:                AV-unprocessed.smi:763
#       Creating user name   scv26
#       Creation time:       Fri Mar 27 01:04:06 2020


#       File generated by GOLD software.
#

@<TRIPOS>MOLECULE
AV-unprocessed.smi:763
    51    52     1
SMALL
NO_CHARGES


@<TRIPOS>ATOM
      1 ****        -4.2346   4.8485   0.4309 C.3            1 S1                 0.0000
      2 ****        -4.0868   4.0283  -0.7175 O.3            1 S1                 0.0000
      3 ****        -3.1682   2.9571  -0.5483 C.3            1 S1                 0.0000
      4 ****        -1.7095   3.4313  -0.6209 C.3            1 S1                 0.0000
      5 ****        -0.8663   2.2841  -0.6430 O.3            1 S1                 0.0000
      6 ****         0.5044   2.4606  -0.6996 C.ar           1 S1                 0.0000
      7 ****         0.9791   3.7300  -0.7789 N.ar           1 S1                 0.0000
      8 ****         2.3118   3.9167  -0.8322 C.ar           1 S1                 0.0000
      9 ****         3.2340   2.8579  -0.8076 C.ar           1 S1                 0.0000
     10 ****         2.7374   1.5447  -0.7246 C.ar           1 S1                 0.0000
     11 ****         1.3403   1.3152  -0.6692 C.ar           1 S1                 0.0000
     12 ****         0.8015   0.0863  -0.5890 N.pl3          1 S1                -1.0000
     13 ****         1.6068  -1.3115  -0.4606 S.o2           1 S1                 0.0000
     14 ****         2.3756  -1.6023  -1.6805 O.2            1 S1                 0.0000
     15 ****         2.3421  -1.3920   0.8101 O.2            1 S1                 0.0000
     16 ****         0.1845  -2.5282  -0.3913 C.3            1 S1                 0.0000
     17 ****        -0.5746  -2.4638   0.9572 C.3            1 S1                 0.0000
     18 ****         0.1555  -3.1500   2.1321 C.3            1 S1                 0.0000
     19 ****         0.6307  -4.5690   1.7768 C.3            1 S1                 0.0000
     20 ****         1.4273  -4.5982   0.4617 C.3            1 S1                 0.0000
     21 ****         0.5889  -3.9964  -0.6775 C.3            1 S1                 0.0000
     22 ****         1.2436  -4.1529  -1.9190 O.3            1 S1                 0.0000
     23 ****        -4.9933   5.6071   0.2390 H              1 S1                 0.0000
     24 ****        -3.3083   5.3650   0.6821 H              1 S1                 0.0000
     25 ****        -4.5571   4.2655   1.2947 H              1 S1                 0.0000
     26 ****        -3.3615   2.4162   0.3794 H              1 S1                 0.0000
     27 ****        -3.3476   2.2514  -1.3597 H              1 S1                 0.0000
     28 ****        -1.5627   4.0220  -1.5264 H              1 S1                 0.0000
     29 ****        -1.4679   4.0576   0.2387 H              1 S1                 0.0000
     30 ****         2.6525   4.9394  -0.8960 H              1 S1                 0.0000
     31 ****         4.2963   3.0462  -0.8514 H              1 S1                 0.0000
     32 ****         3.4414   0.7262  -0.7057 H              1 S1                 0.0000
     33 ****        -0.4981  -2.2160  -1.1826 H              1 S1                 0.0000
     34 ****        -0.8001  -1.4290   1.2155 H              1 S1                 0.0000
     35 ****        -1.5411  -2.9518   0.8268 H              1 S1                 0.0000
     36 ****         1.0029  -2.5535   2.4628 H              1 S1                 0.0000
     37 ****        -0.5123  -3.1970   2.9927 H              1 S1                 0.0000
     38 ****         1.2363  -4.9722   2.5890 H              1 S1                 0.0000
     39 ****        -0.2358  -5.2249   1.6853 H              1 S1                 0.0000
     40 ****         2.3665  -4.0565   0.5762 H              1 S1                 0.0000
     41 ****         1.6936  -5.6290   0.2249 H              1 S1                 0.0000
     42 ****        -0.3264  -4.5842  -0.7598 H              1 S1                 0.0000
     43 ****         1.9971  -3.5805  -1.9328 H              1 S1                 0.0000
     44 ****        -3.7674   4.6000  -1.4733 LP             1 S1                 0.0000
     45 ****        -4.9808   3.6429  -0.9458 LP             1 S1                 0.0000
     46 ****        -1.1257   1.7451  -1.4444 LP             1 S1                 0.0000
     47 ****        -1.0604   1.7617   0.1872 LP             1 S1                 0.0000
     48 ****         0.3529   4.5095  -0.7974 LP             1 S1                 0.0000
     49 ****        -0.1966   0.0303  -0.6109 LP             1 S1                 0.0000
     50 ****         0.6208  -3.9095  -2.6626 LP             1 S1                 0.0000
     51 ****         1.5384  -5.1022  -2.0283 LP             1 S1                 0.0000
@<TRIPOS>BOND
    1    1    2 1     
    2    1   23 1     
    3    1   24 1     
    4    1   25 1     
    5    2    3 1     
    6    3    4 1     
    7    3   26 1     
    8    3   27 1     
    9    4    5 1     
   10    4   28 1     
   11    4   29 1     
   12    5    6 1     
   13    6   11 ar    
   14    6    7 ar    
   15    7    8 ar    
   16    8    9 ar    
   17    8   30 1     
   18    9   10 ar    
   19    9   31 1     
   20   10   11 ar    
   21   10   32 1     
   22   11   12 1     
   23   12   13 1     
   24   13   14 2     
   25   13   15 2     
   26   13   16 1     
   27   16   21 1     
   28   16   17 1     
   29   16   33 1     
   30   17   18 1     
   31   17   34 1     
   32   17   35 1     
   33   18   19 1     
   34   18   36 1     
   35   18   37 1     
   36   19   20 1     
   37   19   38 1     
   38   19   39 1     
   39   20   21 1     
   40   20   40 1     
   41   20   41 1     
   42   21   22 1     
   43   21   42 1     
   44   22   43 1     
   45    2   44 1     
   46    2   45 1     
   47    5   46 1     
   48    5   47 1     
   49    7   48 1     
   50   12   49 1     
   51   22   50 1     
   52   22   51 1     
@<TRIPOS>SUBSTRUCTURE
      1 S1             1
@<TRIPOS>SET
LONE_PAIRS      STATIC     ATOMS    <user>   **** ""
10 44 45 46 47 48 49 14 15 50 51
DONOR_HYDROGENS      STATIC     ATOMS    <user>   **** ""
1 43
ATOM$BLUE        STATIC     ATOMS    COLORGROUP SYSTEM
10 44 45 46 47 48 49 14 15 50 51
ATOM$RED        STATIC     ATOMS    COLORGROUP SYSTEM
1 43
