#       Name:                AV-unprocessed.smi:2109
#       Creating user name   scv26
#       Creation time:       Fri Mar 27 11:34:45 2020


#       File generated by GOLD software.
#

@<TRIPOS>MOLECULE
AV-unprocessed.smi:2109
    51    52     1
SMALL
NO_CHARGES


@<TRIPOS>ATOM
      1 ****        -3.4148  -0.2863   1.8439 C.3            1 S1                 0.0000
      2 ****        -4.0102  -1.2386   0.7927 C.3            1 S1                 0.0000
      3 ****        -5.5422  -1.2724   0.8950 C.3            1 S1                 0.0000
      4 ****        -3.4267  -2.6649   0.8908 C.3            1 S1                 0.0000
      5 ****        -1.9769  -2.7014   0.7251 N.am           1 S1                 0.0000
      6 ****        -1.3345  -2.5935  -0.4464 C.2            1 S1                 0.0000
      7 ****        -1.8965  -2.4240  -1.5287 O.2            1 S1                 0.0000
      8 ****        -0.0066  -2.6950  -0.2987 N.am           1 S1                 0.0000
      9 ****         0.9560  -2.5953  -1.3894 C.3            1 S1                 0.0000
     10 ****         1.2911  -1.1591  -1.7530 C.ar           1 S1                 0.0000
     11 ****         1.1918  -0.7145  -3.0855 C.ar           1 S1                 0.0000
     12 ****         1.5081   0.6273  -3.3660 C.ar           1 S1                 0.0000
     13 ****         1.9122   1.5053  -2.4241 N.ar           1 S1                 0.0000
     14 ****         2.0246   1.0852  -1.1394 C.ar           1 S1                 0.0000
     15 ****         2.4640   2.0104  -0.1673 N.3            1 S1                 0.0000
     16 ****         2.5342   3.4202  -0.5485 C.3            1 S1                 0.0000
     17 ****         2.7621   4.3013   0.6912 C.3            1 S1                 0.0000
     18 ****         3.9256   3.8622   1.3840 O.3            1 S1                 0.0000
     19 ****         3.7923   2.5218   1.8446 C.3            1 S1                 0.0000
     20 ****         3.5967   1.5758   0.6473 C.3            1 S1                 0.0000
     21 ****         1.7131  -0.2440  -0.7655 C.ar           1 S1                 0.0000
     22 ****        -3.6078  -0.6430   2.8561 H              1 S1                 0.0000
     23 ****        -3.8461   0.7111   1.7555 H              1 S1                 0.0000
     24 ****        -2.3362  -0.1823   1.7259 H              1 S1                 0.0000
     25 ****        -3.7650  -0.8366  -0.1911 H              1 S1                 0.0000
     26 ****        -5.8672  -1.6642   1.8595 H              1 S1                 0.0000
     27 ****        -5.9742  -1.9025   0.1169 H              1 S1                 0.0000
     28 ****        -5.9664  -0.2745   0.7805 H              1 S1                 0.0000
     29 ****        -3.6641  -3.0967   1.8636 H              1 S1                 0.0000
     30 ****        -3.8903  -3.3155   0.1471 H              1 S1                 0.0000
     31 ****        -1.4265  -2.8332   1.5610 H              1 S1                 0.0000
     32 ****         0.3651  -2.8342   0.6293 H              1 S1                 0.0000
     33 ****         1.8746  -3.0945  -1.0806 H              1 S1                 0.0000
     34 ****         0.5924  -3.1356  -2.2654 H              1 S1                 0.0000
     35 ****         0.8731  -1.3792  -3.8750 H              1 S1                 0.0000
     36 ****         1.4370   1.0059  -4.3750 H              1 S1                 0.0000
     37 ****         3.3478   3.5623  -1.2612 H              1 S1                 0.0000
     38 ****         1.6100   3.7240  -1.0420 H              1 S1                 0.0000
     39 ****         2.8981   5.3407   0.3925 H              1 S1                 0.0000
     40 ****         1.8964   4.2713   1.3548 H              1 S1                 0.0000
     41 ****         4.6909   2.2462   2.3970 H              1 S1                 0.0000
     42 ****         2.9554   2.4458   2.5409 H              1 S1                 0.0000
     43 ****         3.4626   0.5608   1.0183 H              1 S1                 0.0000
     44 ****         4.4937   1.5701   0.0267 H              1 S1                 0.0000
     45 ****         1.7847  -0.5646   0.2631 H              1 S1                 0.0000
     46 ****        -2.8936  -2.3587  -1.5696 LP             1 S1                 0.0000
     47 ****        -1.3560  -2.3517  -2.3669 LP             1 S1                 0.0000
     48 ****         2.1254   2.4509  -2.6696 LP             1 S1                 0.0000
     49 ****         1.6699   1.9923   0.4402 LP             1 S1                 0.0000
     50 ****         4.0794   4.4608   2.1701 LP             1 S1                 0.0000
     51 ****         4.7098   3.9155   0.7658 LP             1 S1                 0.0000
@<TRIPOS>BOND
    1    1    2 1     
    2    1   22 1     
    3    1   23 1     
    4    1   24 1     
    5    2    3 1     
    6    2    4 1     
    7    2   25 1     
    8    3   26 1     
    9    3   27 1     
   10    3   28 1     
   11    4    5 1     
   12    4   29 1     
   13    4   30 1     
   14    5    6 am    
   15    5   31 1     
   16    6    7 2     
   17    6    8 am    
   18    8    9 1     
   19    8   32 1     
   20    9   10 1     
   21    9   33 1     
   22    9   34 1     
   23   10   21 ar    
   24   10   11 ar    
   25   11   12 ar    
   26   11   35 1     
   27   12   13 ar    
   28   12   36 1     
   29   13   14 ar    
   30   14   15 1     
   31   14   21 ar    
   32   15   20 1     
   33   15   16 1     
   34   16   17 1     
   35   16   37 1     
   36   16   38 1     
   37   17   18 1     
   38   17   39 1     
   39   17   40 1     
   40   18   19 1     
   41   19   20 1     
   42   19   41 1     
   43   19   42 1     
   44   20   43 1     
   45   20   44 1     
   46   21   45 1     
   47    7   46 1     
   48    7   47 1     
   49   13   48 1     
   50   15   49 1     
   51   18   50 1     
   52   18   51 1     
@<TRIPOS>SUBSTRUCTURE
      1 S1             1
@<TRIPOS>SET
LONE_PAIRS      STATIC     ATOMS    <user>   **** ""
6 46 47 48 49 50 51
DONOR_HYDROGENS      STATIC     ATOMS    <user>   **** ""
2 31 32
ATOM$BLUE        STATIC     ATOMS    COLORGROUP SYSTEM
6 46 47 48 49 50 51
ATOM$RED        STATIC     ATOMS    COLORGROUP SYSTEM
2 31 32
