AV-unprocessed.smi:1506|AV-procd|sdf|6076|dock8
  -GOLD-   22720 6203D 1   1.00000     0.00000
 Structure written by MMmdl.
 39 41  0  0  0  0  0  0  0  0  1 V2000
  144.6214  143.7990  153.4333 C   0  0  0  0  0  0  0  0  0  0  0  0
  145.2233  142.8818  154.4779 C   0  0  0  0  0  0  0  0  0  0  0  0
  144.4649  142.4813  155.5959 C   0  0  0  0  0  0  0  0  0  0  0  0
  145.0331  141.6290  156.5606 C   0  0  0  0  0  0  0  0  0  0  0  0
  146.3585  141.1763  156.4141 C   0  0  0  0  0  0  0  0  0  0  0  0
  147.1333  141.5761  155.2960 C   0  0  0  0  0  0  0  0  0  0  0  0
  148.4369  141.1866  155.0763 O   0  0  0  0  0  0  0  0  0  0  0  0
  149.2539  140.8923  156.2031 C   0  0  0  0  0  0  0  0  0  0  0  0
  150.7335  141.1300  155.8577 C   0  0  2  0  0  0  0  0  0  0  0  0
  151.0919  140.3084  154.7637 O   0  0  0  0  0  0  0  0  0  0  0  0
  151.6918  140.9356  157.0496 C   0  0  0  0  0  0  0  0  0  0  0  0
  151.6076  142.0235  158.0075 N   0  0  0  0  0  0  0  0  0  0  0  0
  150.8566  143.1370  157.9064 C   0  0  0  0  0  0  0  0  0  0  0  0
  150.9324  144.0158  158.9018 N   0  0  0  0  0  0  0  0  0  0  0  0
  151.8378  143.4005  159.7497 C   0  0  0  0  0  0  0  0  0  0  0  0
  152.3573  143.8176  160.9961 C   0  0  0  0  0  0  0  0  0  0  0  0
  153.2864  143.0130  161.6884 C   0  0  0  0  0  0  0  0  0  0  0  0
  153.7098  141.7820  161.1465 C   0  0  0  0  0  0  0  0  0  0  0  0
  153.2064  141.3454  159.9061 C   0  0  0  0  0  0  0  0  0  0  0  0
  152.2790  142.1508  159.2190 C   0  0  0  0  0  0  0  0  0  0  0  0
  146.5508  142.4287  154.3355 C   0  0  0  0  0  0  0  0  0  0  0  0
  143.5354  143.8417  153.5228 H   0  0  0  0  0  0  0  0  0  0  0  0
  144.8642  143.4470  152.4303 H   0  0  0  0  0  0  0  0  0  0  0  0
  145.0149  144.8093  153.5479 H   0  0  0  0  0  0  0  0  0  0  0  0
  143.4480  142.8247  155.7177 H   0  0  0  0  0  0  0  0  0  0  0  0
  144.4510  141.3214  157.4168 H   0  0  0  0  0  0  0  0  0  0  0  0
  146.7578  140.5232  157.1747 H   0  0  0  0  0  0  0  0  0  0  0  0
  148.9699  141.4966  157.0666 H   0  0  0  0  0  0  0  0  0  0  0  0
  149.1174  139.8438  156.4724 H   0  0  0  0  0  0  0  0  0  0  0  0
  150.8286  142.1575  155.5043 H   0  0  0  0  0  0  0  0  0  0  0  0
  151.1437  139.4142  155.0650 H   0  0  0  0  0  0  0  0  0  0  0  0
  151.4629  140.0030  157.5670 H   0  0  0  0  0  0  0  0  0  0  0  0
  152.7249  140.8568  156.7091 H   0  0  0  0  0  0  0  0  0  0  0  0
  150.2207  143.3137  157.0511 H   0  0  0  0  0  0  0  0  0  0  0  0
  152.0410  144.7589  161.4207 H   0  0  0  0  0  0  0  0  0  0  0  0
  153.6772  143.3425  162.6398 H   0  0  0  0  0  0  0  0  0  0  0  0
  154.4226  141.1731  161.6834 H   0  0  0  0  0  0  0  0  0  0  0  0
  153.5306  140.4045  159.4865 H   0  0  0  0  0  0  0  0  0  0  0  0
  147.1325  142.7392  153.4798 H   0  0  0  0  0  0  0  0  0  0  0  0
  1  2  1  0  0  0  0
  1 22  1  0  0  0  0
  1 23  1  0  0  0  0
  1 24  1  0  0  0  0
  2 21  1  0  0  0  0
  2  3  2  0  0  0  0
  3  4  1  0  0  0  0
  3 25  1  0  0  0  0
  4  5  2  0  0  0  0
  4 26  1  0  0  0  0
  5  6  1  0  0  0  0
  5 27  1  0  0  0  0
  6  7  1  0  0  0  0
  6 21  2  0  0  0  0
  7  8  1  0  0  0  0
  8  9  1  0  0  0  0
  8 28  1  0  0  0  0
  8 29  1  0  0  0  0
  9 10  1  0  0  0  0
  9 11  1  0  0  0  0
  9 30  1  0  0  0  0
 10 31  1  0  0  0  0
 11 12  1  0  0  0  0
 11 32  1  0  0  0  0
 11 33  1  0  0  0  0
 12 20  1  0  0  0  0
 12 13  1  0  0  0  0
 13 14  2  0  0  0  0
 13 34  1  0  0  0  0
 14 15  1  0  0  0  0
 15 20  2  0  0  0  0
 15 16  1  0  0  0  0
 16 17  2  0  0  0  0
 16 35  1  0  0  0  0
 17 18  1  0  0  0  0
 17 36  1  0  0  0  0
 18 19  2  0  0  0  0
 18 37  1  0  0  0  0
 19 20  1  0  0  0  0
 19 38  1  0  0  0  0
 21 39  1  0  0  0  0
M  END
> <s_m_source_file>
AV-unprocessed.smi

> <i_m_source_file_index>
1506

> <i_lp_mmshare_version>
43012

> <i_f3d_flags>
0

> <s_epik_input>
W0NIM11jMVtjSF1bY0hdW2NIXWMoW2NIXTEpT1tDSDJdW0NASF0oW09IXSlbQ0gyXW4oW2NIXW4yKWMoYzIzKVtjSF1bY0hdW2NIXVtjSF0z

> <s_epik_cmdline>
J2VwaWtfcHl0aG9uJywgJy1waCcsICc3LjAnLCAnLXRuJywgJzgnLCAnLW1hJywgJzIwMCcsICctbWV0YWxfYmluZGluZycsICctaW1hZScsICc8aW5maWxlLm1hZT4nLCAnLW9tYWUnLCAnPG91dGZpbGUubWFlPic=

> <r_lp_tautomer_probability>
1

> <r_epik_Ionization_Penalty>
0.0608485

> <r_epik_Ionization_Penalty_Charging>
0

> <r_epik_Ionization_Penalty_Neutral>
0.0608485

> <r_epik_State_Penalty>
0.0527778

> <r_epik_Charging_Adjusted_Penalty>
0.0527778

> <i_epik_Tot_Q>
0

> <i_epik_Tot_abs_Q>
0

> <r_epik_Metal_State_Penalty>
5.51973e-05

> <b_epik_Metal_Only>
0

> <s_lp_Force_Field>
OPLS_2005

> <r_lp_Energy>
16.3702

> <b_lp_Chiralities_Consistent>
1

> <s_lp_Variant>
AV-unprocessed.smi:1506-1

> <Gold.Version>
5.8.1

> <Gold.Id.Protein>
6NUR|6NUR_protein|mol2

> <Gold.PLP.Fitness>
53.5898

> <Gold.PLP.PLP>
-48.8204

> <Gold.PLP.part.hbond>
-1.0000

> <Gold.PLP.part.metal>
0.0000

> <Gold.PLP.part.buried>
-5.2172

> <Gold.PLP.part.nonpolar>
-41.2282

> <Gold.PLP.part.repulsive>
0.2400

> <Gold.PLP.ligand.clash>
0.0000

> <Gold.PLP.ligand.torsion>
0.6606

> <Gold.PLP.Chemscore.Hbond>
1.0000

> <Gold.PLP.Chemscore.CHOScore>
1.0000

> <Gold.PLP.Chemscore.Metal>
0.0000

> <Gold.Chemscore.Hbonds>
donor molecule, donor type, donor heavy atom, donor atom, acceptor molecule, acceptor atom, score
      P1  H  7989  7998       L1    10  0.88
      L1  C    13    34       P1  8028  1.00

> <Gold.PLP.Chemscore.Internal.Correction>
0.0906

> <Gold.Rescore>
     Score         DG    S(hbond)    S(metal)    S(lipo)     H(rot)  DE(clash)    DE(int)     intcor
     15.96     -17.15       0.90        0.00     121.75       2.19       0.55       0.64       ----

> <Gold.Chemscore.Fitness>
15.9562

> <Gold.Chemscore.DG>
-17.1462

> <Gold.Chemscore.ZeroCoef>
-5.4800

> <Gold.Chemscore.Hbond>
0.9047

> <Gold.Chemscore.Metal>
0.0000

> <Gold.Chemscore.Lipo>
121.7514

> <Gold.Chemscore.Internal_Hbond>
0.0000

> <Gold.Chemscore.DEClash>
0.5527

> <Gold.Chemscore.DEInternal>
0.6373

> <Gold.Chemscore.Rot>
2.1877

> <Gold.Chemscore.Internal.Correction>
   9.000000E+99

> <Gold.Chemscore.Hbonds>
donor molecule, donor type, donor heavy atom, donor atom, acceptor molecule, acceptor atom, score
      P1  H  7989  7998       L1    10  0.84

> <Gold.Chemscore.Hbond.Weighted>
-3.0217

> <Gold.Chemscore.Metal.Weighted>
-0.0000

> <Gold.Chemscore.Lipo.Weighted>
-14.2449

> <Gold.Chemscore.Internal_Hbond.Weighted>
0.0000

> <Gold.Chemscore.DEClash.Weighted>
0.5527

> <Gold.Chemscore.DEInternal.Weighted>
0.6373

> <Gold.Chemscore.Rot.Weighted>
5.6005

> <Gold.Chemscore.Internal.Correction.Weighted>
   9.000000E+99

> <Gold.Protein.RotatedTorsions>
[ 6907 6896 6895 6894 ] final  -13.88 input  -60.11 | X-H torsion
[ 7974 7965 7964 7962 ] final   74.89 input  175.53 | X-H torsion
[ 8008 7997 7996 7995 ] final  148.18 input   59.86 | X-H torsion
[ 10167 10162 10161 10158 ] final  158.00 input  -65.29 | X-H torsion
[ 10718 10713 10712 10709 ] final -100.01 input   66.30 | X-H torsion
[ 10763 10752 10751 10750 ] final  113.74 input  -60.55 | X-H torsion
[ 11005 11000 10999 10996 ] final   33.64 input  -57.11 | X-H torsion

> <Gold.Protein.ActiveResidues>
 VAL166  LYS551  ARG553  GLY616  TRP617  ASP618  TYR619  PRO620  LYS621  CYS622 
 ASP623  PHE694  ASN695  SER759  ASP760  ASP761  ALA762  ILE779  LEU786  VAL792 
 PHE793  MET794  SER795  GLU796  ALA797  LYS798  CYS799  TRP800  GLU811  SER814 

> <Gold.Protein.RotatedAtoms>
  151.3480  135.0878  159.9393 H   0  0  0  0  0  0  0  0  0  0  0  0  # atno 6907 bound_to 6896
  152.5194  133.9380  159.7623 H   0  0  0  0  0  0  0  0  0  0  0  0  # atno 6908 bound_to 6896
  150.9750  133.6250  159.2761 H   0  0  0  0  0  0  0  0  0  0  0  0  # atno 6909 bound_to 6896
  145.7226  139.2654  143.1587 H   0  0  0  0  0  0  0  0  0  0  0  0  # atno 7974 bound_to 7965
  156.2800  140.2135  156.5657 H   0  0  0  0  0  0  0  0  0  0  0  0  # atno 8008 bound_to 7997
  154.7176  140.0506  157.0632 H   0  0  0  0  0  0  0  0  0  0  0  0  # atno 8009 bound_to 7997
  155.0521  140.3157  155.4691 H   0  0  0  0  0  0  0  0  0  0  0  0  # atno 8010 bound_to 7997
  139.4825  144.4865  151.8369 H   0  0  0  0  0  0  0  0  0  0  0  0  # atno 10167 bound_to 10162
  156.0150  130.5308  150.6755 H   0  0  0  0  0  0  0  0  0  0  0  0  # atno 10718 bound_to 10713
  153.4970  135.3646  155.2520 H   0  0  0  0  0  0  0  0  0  0  0  0  # atno 10763 bound_to 10752
  154.8749  135.3991  154.3523 H   0  0  0  0  0  0  0  0  0  0  0  0  # atno 10764 bound_to 10752
  153.4152  135.7079  153.6397 H   0  0  0  0  0  0  0  0  0  0  0  0  # atno 10765 bound_to 10752
  140.2611  134.3192  155.7857 H   0  0  0  0  0  0  0  0  0  0  0  0  # atno 11005 bound_to 11000
  146.0612  140.7969  142.9734 LP  0  0  0  0  0  0  0  0  0  0  0  0  # atno 17320 bound_to 7965
  144.6913  140.3199  143.7234 LP  0  0  0  0  0  0  0  0  0  0  0  0  # atno 17321 bound_to 7965
  140.4346  144.2070  150.5889 LP  0  0  0  0  0  0  0  0  0  0  0  0  # atno 17342 bound_to 10162
  140.4745  143.2401  151.9042 LP  0  0  0  0  0  0  0  0  0  0  0  0  # atno 17343 bound_to 10162
  157.4468  131.0868  151.0887 LP  0  0  0  0  0  0  0  0  0  0  0  0  # atno 17370 bound_to 10713
  157.1414  130.6145  149.5556 LP  0  0  0  0  0  0  0  0  0  0  0  0  # atno 17371 bound_to 10713
  141.2190  133.7410  156.9187 LP  0  0  0  0  0  0  0  0  0  0  0  0  # atno 17394 bound_to 11000
  140.1464  134.9259  157.2535 LP  0  0  0  0  0  0  0  0  0  0  0  0  # atno 17395 bound_to 11000

$$$$
