#       Name:                AV-unprocessed.smi:1234
#       Creating user name   scv26
#       Creation time:       Fri Mar 27 04:24:52 2020


#       File generated by GOLD software.
#

@<TRIPOS>MOLECULE
AV-unprocessed.smi:1234
    39    40     1
SMALL
NO_CHARGES


@<TRIPOS>ATOM
      1 ****        -1.6481   1.6798   1.5047 O.2            1 S1                 0.0000
      2 ****        -2.1224   0.5752   1.7721 C.2            1 S1                 0.0000
      3 ****        -1.3764  -0.5246   1.9501 N.am           1 S1                 0.0000
      4 ****         0.0795  -0.5678   1.8703 C.3            1 S1                 0.0000
      5 ****         0.5662  -0.6397   0.4088 C.3            1 S1                 0.0000
      6 ****         2.0972  -0.6958   0.2723 C.2            1 S1                 0.0000
      7 ****         2.7998  -0.7906   1.2799 O.2            1 S1                 0.0000
      8 ****         2.6292  -0.6370  -0.9662 N.am           1 S1                 0.0000
      9 ****         1.8770  -0.5469  -2.2175 C.3            1 S1                 0.0000
     10 ****         2.9044  -0.7473  -3.3325 C.3            1 S1                 0.0000
     11 ****         4.2232  -0.3115  -2.7091 C.3            1 S1                 0.0000
     12 ****         4.0672  -0.6552  -1.2278 C.3            1 S1                 0.0000
     13 ****        -3.4313   0.3065   1.9237 N.am           1 S1                 0.0000
     14 ****        -4.5293   1.2023   1.8312 C.2            1 S1                 0.0000
     15 ****        -4.4037   2.5057   1.5355 N.2            1 S1                 0.0000
     16 ****        -5.6316   3.1539   1.5124 N.2            1 S1                 0.0000
     17 ****        -6.6336   2.3153   1.7906 C.2            1 S1                 0.0000
     18 ****        -6.1756   0.6504   2.1059 S.3            1 S1                 0.0000
     19 ****        -1.8460  -1.3916   2.1668 H              1 S1                 0.0000
     20 ****         0.5040   0.3004   2.3781 H              1 S1                 0.0000
     21 ****         0.4152  -1.4459   2.4227 H              1 S1                 0.0000
     22 ****         0.1412  -1.5214  -0.0719 H              1 S1                 0.0000
     23 ****         0.1998   0.2299  -0.1382 H              1 S1                 0.0000
     24 ****         1.0835  -1.2926  -2.2799 H              1 S1                 0.0000
     25 ****         1.4231   0.4425  -2.2912 H              1 S1                 0.0000
     26 ****         2.9583  -1.8049  -3.5944 H              1 S1                 0.0000
     27 ****         2.6598  -0.1916  -4.2381 H              1 S1                 0.0000
     28 ****         5.0880  -0.7929  -3.1666 H              1 S1                 0.0000
     29 ****         4.3416   0.7668  -2.8236 H              1 S1                 0.0000
     30 ****         4.6086   0.0523  -0.5978 H              1 S1                 0.0000
     31 ****         4.4520  -1.6554  -1.0227 H              1 S1                 0.0000
     32 ****        -3.6702  -0.6496   2.1417 H              1 S1                 0.0000
     33 ****        -7.6499   2.6802   1.8100 H              1 S1                 0.0000
     34 ****        -0.6587   1.7895   1.4099 LP             1 S1                 0.0000
     35 ****        -2.2524   2.4671   1.3824 LP             1 S1                 0.0000
     36 ****         2.3745  -0.8309   2.1841 LP             1 S1                 0.0000
     37 ****         3.7954  -0.8272   1.1936 LP             1 S1                 0.0000
     38 ****        -3.5298   2.9564   1.3535 LP             1 S1                 0.0000
     39 ****        -5.7508   4.1265   1.3126 LP             1 S1                 0.0000
@<TRIPOS>BOND
    1    1    2 2     
    2    2    3 am    
    3    2   13 am    
    4    3    4 1     
    5    3   19 1     
    6    4    5 1     
    7    4   20 1     
    8    4   21 1     
    9    5    6 1     
   10    5   22 1     
   11    5   23 1     
   12    6    7 2     
   13    6    8 am    
   14    8   12 1     
   15    8    9 1     
   16    9   10 1     
   17    9   24 1     
   18    9   25 1     
   19   10   11 1     
   20   10   26 1     
   21   10   27 1     
   22   11   12 1     
   23   11   28 1     
   24   11   29 1     
   25   12   30 1     
   26   12   31 1     
   27   13   14 1     
   28   13   32 1     
   29   14   18 1     
   30   14   15 2     
   31   15   16 1     
   32   16   17 2     
   33   17   18 1     
   34   17   33 1     
   35    1   34 1     
   36    1   35 1     
   37    7   36 1     
   38    7   37 1     
   39   15   38 1     
   40   16   39 1     
@<TRIPOS>SUBSTRUCTURE
      1 S1             1
@<TRIPOS>SET
LONE_PAIRS      STATIC     ATOMS    <user>   **** ""
6 34 35 36 37 38 39
DONOR_HYDROGENS      STATIC     ATOMS    <user>   **** ""
2 19 32
ATOM$BLUE        STATIC     ATOMS    COLORGROUP SYSTEM
6 34 35 36 37 38 39
ATOM$RED        STATIC     ATOMS    COLORGROUP SYSTEM
2 19 32
