#       Name:                AV-unprocessed.smi:2640
#       Creating user name   scv26
#       Creation time:       Fri Mar 27 14:28:00 2020


#       File generated by GOLD software.
#

@<TRIPOS>MOLECULE
AV-unprocessed.smi:2640
    47    48     1
SMALL
NO_CHARGES


@<TRIPOS>ATOM
      1 ****         0.4101   1.3892   0.9198 O.2            1 S1                 0.0000
      2 ****        -0.2997   0.5021   0.4447 C.2            1 S1                 0.0000
      3 ****         0.1222  -0.9642   0.5420 C.3            1 S1                 0.0000
      4 ****         1.5848  -1.1050   0.6903 N.4            1 S1                 1.0000
      5 ****         2.0482  -2.4993   0.8210 C.3            1 S1                 0.0000
      6 ****         3.5766  -2.5588   0.9596 C.3            1 S1                 0.0000
      7 ****         4.0555  -3.9213   1.0909 N.pl3          1 S1                 0.0000
      8 ****         4.7582  -4.6770   0.1762 C.2            1 S1                 0.0000
      9 ****         4.9940  -5.8932   0.7503 C.2            1 S1                 0.0000
     10 ****         4.3937  -5.7829   2.0355 C.2            1 S1                 0.0000
     11 ****         3.8333  -4.6008   2.2364 N.2            1 S1                 0.0000
     12 ****        -1.4691   0.7442  -0.1695 N.am           1 S1                 0.0000
     13 ****        -2.0503   2.0702  -0.3950 C.3            1 S1                 0.0000
     14 ****        -3.5718   1.8866  -0.5967 C.3            1 S1                 0.0000
     15 ****        -4.3933   3.1554  -0.3085 C.3            1 S1                 0.0000
     16 ****        -4.1277   4.3317  -1.2603 C.3            1 S1                 0.0000
     17 ****        -2.6833   4.8581  -1.2068 C.3            1 S1                 0.0000
     18 ****        -1.7599   4.0020  -1.9399 N.am           1 S1                 0.0000
     19 ****        -1.4442   2.7292  -1.6569 C.2            1 S1                 0.0000
     20 ****        -0.6858   2.0974  -2.3930 O.2            1 S1                 0.0000
     21 ****        -0.3787  -1.4162   1.3990 H              1 S1                 0.0000
     22 ****        -0.2034  -1.5009  -0.3505 H              1 S1                 0.0000
     23 ****         2.0264  -0.6897  -0.1176 H              1 S1                 0.0000
     24 ****         1.5717  -2.9514   1.6920 H              1 S1                 0.0000
     25 ****         1.7301  -3.0682  -0.0537 H              1 S1                 0.0000
     26 ****         4.0543  -2.1059   0.0896 H              1 S1                 0.0000
     27 ****         3.9049  -1.9921   1.8323 H              1 S1                 0.0000
     28 ****         5.0296  -4.2924  -0.7959 H              1 S1                 0.0000
     29 ****         5.5179  -6.7334   0.3191 H              1 S1                 0.0000
     30 ****         4.3497  -6.5210   2.8228 H              1 S1                 0.0000
     31 ****        -1.9889  -0.0424  -0.5311 H              1 S1                 0.0000
     32 ****        -1.8606   2.6930   0.4812 H              1 S1                 0.0000
     33 ****        -3.7915   1.5143  -1.5990 H              1 S1                 0.0000
     34 ****        -3.9307   1.1142   0.0857 H              1 S1                 0.0000
     35 ****        -5.4525   2.9016  -0.3617 H              1 S1                 0.0000
     36 ****        -4.2172   3.4746   0.7193 H              1 S1                 0.0000
     37 ****        -4.3908   4.0569  -2.2826 H              1 S1                 0.0000
     38 ****        -4.8009   5.1450  -0.9875 H              1 S1                 0.0000
     39 ****        -2.6440   5.8433  -1.6720 H              1 S1                 0.0000
     40 ****        -2.3481   4.9922  -0.1775 H              1 S1                 0.0000
     41 ****        -1.3395   4.4054  -2.7647 H              1 S1                 0.0000
     42 ****         1.8703  -0.5898   1.5110 H              1 S1                 0.0000
     43 ****         1.2694   1.1528   1.3734 LP             1 S1                 0.0000
     44 ****         0.1272   2.3459   0.8521 LP             1 S1                 0.0000
     45 ****         3.3529  -4.2822   3.0536 LP             1 S1                 0.0000
     46 ****        -0.4558   1.1483  -2.1778 LP             1 S1                 0.0000
     47 ****        -0.2999   2.5334  -3.2060 LP             1 S1                 0.0000
@<TRIPOS>BOND
    1    1    2 2     
    2    2    3 1     
    3    2   12 am    
    4    3    4 1     
    5    3   21 1     
    6    3   22 1     
    7    4    5 1     
    8    4   23 1     
    9    4   42 1     
   10    5    6 1     
   11    5   24 1     
   12    5   25 1     
   13    6    7 1     
   14    6   26 1     
   15    6   27 1     
   16    7   11 1     
   17    7    8 1     
   18    8    9 2     
   19    8   28 1     
   20    9   10 1     
   21    9   29 1     
   22   10   11 2     
   23   10   30 1     
   24   12   13 1     
   25   12   31 1     
   26   13   19 1     
   27   13   14 1     
   28   13   32 1     
   29   14   15 1     
   30   14   33 1     
   31   14   34 1     
   32   15   16 1     
   33   15   35 1     
   34   15   36 1     
   35   16   17 1     
   36   16   37 1     
   37   16   38 1     
   38   17   18 1     
   39   17   39 1     
   40   17   40 1     
   41   18   19 am    
   42   18   41 1     
   43   19   20 2     
   44    1   43 1     
   45    1   44 1     
   46   11   45 1     
   47   20   46 1     
   48   20   47 1     
@<TRIPOS>SUBSTRUCTURE
      1 S1             1
@<TRIPOS>SET
LONE_PAIRS      STATIC     ATOMS    <user>   **** ""
5 43 44 45 46 47
DONOR_HYDROGENS      STATIC     ATOMS    <user>   **** ""
4 23 42 31 41
ATOM$BLUE        STATIC     ATOMS    COLORGROUP SYSTEM
5 43 44 45 46 47
ATOM$RED        STATIC     ATOMS    COLORGROUP SYSTEM
4 23 42 31 41
