#       Name:                AV-unprocessed.smi:1036
#       Creating user name   scv26
#       Creation time:       Fri Mar 27 02:52:51 2020


#       File generated by GOLD software.
#

@<TRIPOS>MOLECULE
AV-unprocessed.smi:1036
    46    48     1
SMALL
NO_CHARGES


@<TRIPOS>ATOM
      1 ****        -4.6139   1.8014  -0.4813 O.3            1 S1                 0.0000
      2 ****        -3.6660   0.8670  -0.9467 C.3            1 S1                 0.0000
      3 ****        -2.2584   1.4566  -0.8072 C.3            1 S1                 0.0000
      4 ****        -1.2437   0.5158  -1.2506 N.pl3          1 S1                 0.0000
      5 ****         0.0991   0.8531  -1.0503 C.cat          1 S1                 0.0000
      6 ****         0.5872   2.1054  -0.8437 N.pl3          1 S1                 1.0000
      7 ****         1.9708   2.0133  -0.6653 C.ar           1 S1                 0.0000
      8 ****         2.9224   2.9986  -0.4209 C.ar           1 S1                 0.0000
      9 ****         4.2581   2.5684  -0.2800 C.ar           1 S1                 0.0000
     10 ****         4.6071   1.2059  -0.3822 C.ar           1 S1                 0.0000
     11 ****         3.6365   0.2134  -0.6306 C.ar           1 S1                 0.0000
     12 ****         2.3181   0.6447  -0.7709 C.ar           1 S1                 0.0000
     13 ****         1.1213  -0.0406  -1.0130 N.pl3          1 S1                 0.0000
     14 ****         1.1291  -1.5052  -1.1444 C.3            1 S1                 0.0000
     15 ****         1.0880  -2.2156   0.2238 C.3            1 S1                 0.0000
     16 ****         1.2357  -3.6028   0.0014 O.3            1 S1                 0.0000
     17 ****        -0.1793  -1.8824   1.0041 C.ar           1 S1                 0.0000
     18 ****        -1.3972  -2.5298   0.6970 C.ar           1 S1                 0.0000
     19 ****        -2.5762  -2.1960   1.3905 C.ar           1 S1                 0.0000
     20 ****        -3.7394  -2.8177   1.0852 F              1 S1                 0.0000
     21 ****        -2.5476  -1.2103   2.3947 C.ar           1 S1                 0.0000
     22 ****        -1.3388  -0.5592   2.7051 C.ar           1 S1                 0.0000
     23 ****        -0.1580  -0.8921   2.0134 C.ar           1 S1                 0.0000
     24 ****         0.9917  -0.2401   2.3114 F              1 S1                 0.0000
     25 ****        -5.4774   1.4302  -0.5829 H              1 S1                 0.0000
     26 ****        -3.7619  -0.0530  -0.3694 H              1 S1                 0.0000
     27 ****        -3.8842   0.6262  -1.9877 H              1 S1                 0.0000
     28 ****        -2.1793   2.3722  -1.3948 H              1 S1                 0.0000
     29 ****        -2.0690   1.7207   0.2345 H              1 S1                 0.0000
     30 ****        -1.4934  -0.4607  -1.3175 H              1 S1                 0.0000
     31 ****         2.6593   4.0431  -0.3395 H              1 S1                 0.0000
     32 ****         5.0311   3.2984  -0.0879 H              1 S1                 0.0000
     33 ****         5.6413   0.9153  -0.2670 H              1 S1                 0.0000
     34 ****         3.9141  -0.8277  -0.7044 H              1 S1                 0.0000
     35 ****         0.2714  -1.7929  -1.7538 H              1 S1                 0.0000
     36 ****         2.0163  -1.7932  -1.7099 H              1 S1                 0.0000
     37 ****         1.9557  -1.9115   0.8098 H              1 S1                 0.0000
     38 ****         1.3125  -4.0350   0.8386 H              1 S1                 0.0000
     39 ****        -1.4344  -3.2786  -0.0806 H              1 S1                 0.0000
     40 ****        -3.4526  -0.9507   2.9240 H              1 S1                 0.0000
     41 ****        -1.3186   0.2012   3.4717 H              1 S1                 0.0000
     42 ****         0.0237   2.9456  -0.8228 H              1 S1                 0.0000
     43 ****        -4.5450   2.6451  -1.0136 LP             1 S1                 0.0000
     44 ****        -4.4444   2.0013   0.4837 LP             1 S1                 0.0000
     45 ****         2.0582  -3.7715  -0.5418 LP             1 S1                 0.0000
     46 ****         0.4362  -3.9530  -0.4867 LP             1 S1                 0.0000
@<TRIPOS>BOND
    1    1    2 1     
    2    1   25 1     
    3    2    3 1     
    4    2   26 1     
    5    2   27 1     
    6    3    4 1     
    7    3   28 1     
    8    3   29 1     
    9    4    5 ar    
   10    4   30 1     
   11    5   13 ar    
   12    5    6 ar    
   13    6    7 1     
   14    6   42 1     
   15    7   12 ar    
   16    7    8 ar    
   17    8    9 ar    
   18    8   31 1     
   19    9   10 ar    
   20    9   32 1     
   21   10   11 ar    
   22   10   33 1     
   23   11   12 ar    
   24   11   34 1     
   25   12   13 1     
   26   13   14 1     
   27   14   15 1     
   28   14   35 1     
   29   14   36 1     
   30   15   16 1     
   31   15   17 1     
   32   15   37 1     
   33   16   38 1     
   34   17   23 ar    
   35   17   18 ar    
   36   18   19 ar    
   37   18   39 1     
   38   19   20 1     
   39   19   21 ar    
   40   21   22 ar    
   41   21   40 1     
   42   22   23 ar    
   43   22   41 1     
   44   23   24 1     
   45    1   43 1     
   46    1   44 1     
   47   16   45 1     
   48   16   46 1     
@<TRIPOS>SUBSTRUCTURE
      1 S1             1
@<TRIPOS>SET
LONE_PAIRS      STATIC     ATOMS    <user>   **** ""
4 43 44 45 46
DONOR_HYDROGENS      STATIC     ATOMS    <user>   **** ""
4 25 30 42 38
ATOM$BLUE        STATIC     ATOMS    COLORGROUP SYSTEM
4 43 44 45 46
ATOM$RED        STATIC     ATOMS    COLORGROUP SYSTEM
4 25 30 42 38
