#       Name:                AV-unprocessed.smi:2515
#       Creating user name   scv26
#       Creation time:       Fri Mar 27 13:53:23 2020


#       File generated by GOLD software.
#

@<TRIPOS>MOLECULE
AV-unprocessed.smi:2515
    41    42     1
SMALL
NO_CHARGES


@<TRIPOS>ATOM
      1 ****        -6.8987  -2.2203  -0.5008 N.1            1 S1                 0.0000
      2 ****        -6.0056  -1.5054  -0.6730 C.1            1 S1                 0.0000
      3 ****        -4.9034  -0.6286  -0.8832 C.2            1 S1                 0.0000
      4 ****        -5.0766   0.6818  -1.3258 N.2            1 S1                 0.0000
      5 ****        -3.8480   1.1869  -1.4005 C.2            1 S1                 0.0000
      6 ****        -3.5520   2.4841  -1.7924 N.pl3          1 S1                 0.0000
      7 ****        -2.8707   0.3266  -1.0523 N.pl3          1 S1                 0.0000
      8 ****        -1.4316   0.5569  -1.0180 C.3            1 S1                 0.0000
      9 ****        -0.9731   1.0373   0.3690 C.3            1 S1                 0.0000
     10 ****         0.4765   1.1735   0.4332 N.am           1 S1                 0.0000
     11 ****         1.3329   0.1569   0.6192 C.2            1 S1                 0.0000
     12 ****         0.9660  -1.0105   0.7599 O.2            1 S1                 0.0000
     13 ****         2.8284   0.5187   0.6418 C.3            1 S1                 0.0000
     14 ****         3.6340  -0.2682  -0.4035 C.3            1 S1                 0.0000
     15 ****         4.1108  -1.5537   0.2880 C.3            1 S1                 0.0000
     16 ****         3.9815  -1.3132   1.7989 C.3            1 S1                 0.0000
     17 ****         3.5026   0.1339   1.9669 C.3            1 S1                 0.0000
     18 ****        -3.5518  -0.8394  -0.7135 C.2            1 S1                 0.0000
     19 ****        -2.9368  -2.0280  -0.2653 C.1            1 S1                 0.0000
     20 ****        -2.4315  -3.0013   0.1022 N.1            1 S1                 0.0000
     21 ****        -4.2813   3.1335  -2.0500 H              1 S1                 0.0000
     22 ****        -2.6005   2.8183  -1.8439 H              1 S1                 0.0000
     23 ****        -0.9249  -0.3686  -1.2936 H              1 S1                 0.0000
     24 ****        -1.1624   1.2853  -1.7835 H              1 S1                 0.0000
     25 ****        -1.4201   2.0058   0.5946 H              1 S1                 0.0000
     26 ****        -1.3146   0.3508   1.1461 H              1 S1                 0.0000
     27 ****         0.8561   2.1032   0.3272 H              1 S1                 0.0000
     28 ****         2.9306   1.5909   0.4656 H              1 S1                 0.0000
     29 ****         3.0641  -0.4827  -1.3091 H              1 S1                 0.0000
     30 ****         4.4990   0.3230  -0.7070 H              1 S1                 0.0000
     31 ****         3.4867  -2.3984  -0.0073 H              1 S1                 0.0000
     32 ****         5.1361  -1.7937   0.0045 H              1 S1                 0.0000
     33 ****         3.2461  -2.0011   2.2181 H              1 S1                 0.0000
     34 ****         4.9221  -1.4865   2.3229 H              1 S1                 0.0000
     35 ****         4.3627   0.7841   2.1324 H              1 S1                 0.0000
     36 ****         2.8460   0.2480   2.8309 H              1 S1                 0.0000
     37 ****        -7.6707  -2.8383  -0.3519 LP             1 S1                 0.0000
     38 ****        -5.9377   1.1425  -1.5406 LP             1 S1                 0.0000
     39 ****        -0.0083  -1.2345   0.7381 LP             1 S1                 0.0000
     40 ****         1.6425  -1.7343   0.8960 LP             1 S1                 0.0000
     41 ****        -1.9946  -3.8428   0.4200 LP             1 S1                 0.0000
@<TRIPOS>BOND
    1    1    2 3     
    2    2    3 1     
    3    3   18 2     
    4    3    4 1     
    5    4    5 2     
    6    5    6 1     
    7    5    7 1     
    8    6   21 1     
    9    6   22 1     
   10    7    8 1     
   11    7   18 1     
   12    8    9 1     
   13    8   23 1     
   14    8   24 1     
   15    9   10 1     
   16    9   25 1     
   17    9   26 1     
   18   10   11 am    
   19   10   27 1     
   20   11   12 2     
   21   11   13 1     
   22   13   17 1     
   23   13   14 1     
   24   13   28 1     
   25   14   15 1     
   26   14   29 1     
   27   14   30 1     
   28   15   16 1     
   29   15   31 1     
   30   15   32 1     
   31   16   17 1     
   32   16   33 1     
   33   16   34 1     
   34   17   35 1     
   35   17   36 1     
   36   18   19 1     
   37   19   20 3     
   38    1   37 1     
   39    4   38 1     
   40   12   39 1     
   41   12   40 1     
   42   20   41 1     
@<TRIPOS>SUBSTRUCTURE
      1 S1             1
@<TRIPOS>SET
LONE_PAIRS      STATIC     ATOMS    <user>   **** ""
5 37 38 39 40 41
DONOR_HYDROGENS      STATIC     ATOMS    <user>   **** ""
3 21 22 27
ATOM$BLUE        STATIC     ATOMS    COLORGROUP SYSTEM
5 37 38 39 40 41
ATOM$RED        STATIC     ATOMS    COLORGROUP SYSTEM
3 21 22 27
