AV-unprocessed.smi:1477|AV-procd|sdf|5981|dock1
  -GOLD-   22720 6 73D 1   1.00000     0.00000
 Structure written by MMmdl.
 33 34  0  0  0  0  0  0  0  0  1 V2000
  152.4748  145.0004  158.9003 C   0  0  0  0  0  0  0  0  0  0  0  0
  152.1224  143.6149  158.5813 N   0  0  0  0  0  0  0  0  0  0  0  0
  151.2477  143.3923  157.5012 C   0  0  0  0  0  0  0  0  0  0  0  0
  150.8574  142.1609  157.1242 C   0  0  0  0  0  0  0  0  0  0  0  0
  149.9835  142.0598  156.0322 N   0  0  0  0  0  0  0  0  0  0  0  0
  149.7287  141.0041  155.2338 C   0  0  0  0  0  0  0  0  0  0  0  0
  150.2406  139.8910  155.3388 O   0  0  0  0  0  0  0  0  0  0  0  0
  148.7277  141.2529  154.1054 C   0  0  0  0  0  0  0  0  0  0  0  0
  147.4402  141.4826  154.6576 O   0  0  0  0  0  0  0  0  0  0  0  0
  146.7639  142.5570  154.0279 C   0  0  0  0  0  0  0  0  0  0  0  0
  145.4054  142.7329  154.6721 C   0  0  0  0  0  0  0  0  0  0  0  0
  144.7142  144.0770  154.6321 C   0  0  0  0  0  0  0  0  0  0  0  0
  145.2469  143.5450  155.9377 C   0  0  0  0  0  0  0  0  0  0  0  0
  151.3905  141.0415  157.8878 C   0  0  0  0  0  0  0  0  0  0  0  0
  152.2295  141.2480  158.9222 C   0  0  0  0  0  0  0  0  0  0  0  0
  152.6419  142.5951  159.3234 C   0  0  0  0  0  0  0  0  0  0  0  0
  153.4076  142.7952  160.2669 O   0  0  0  0  0  0  0  0  0  0  0  0
  151.9684  145.7229  158.2595 H   0  0  0  0  0  0  0  0  0  0  0  0
  153.5480  145.1575  158.7843 H   0  0  0  0  0  0  0  0  0  0  0  0
  152.2063  145.2374  159.9307 H   0  0  0  0  0  0  0  0  0  0  0  0
  150.9123  144.2885  156.9988 H   0  0  0  0  0  0  0  0  0  0  0  0
  149.4683  142.9026  155.8223 H   0  0  0  0  0  0  0  0  0  0  0  0
  149.0547  142.1162  153.5240 H   0  0  0  0  0  0  0  0  0  0  0  0
  148.7038  140.3893  153.4385 H   0  0  0  0  0  0  0  0  0  0  0  0
  147.3395  143.4799  154.1175 H   0  0  0  0  0  0  0  0  0  0  0  0
  146.6268  142.3476  152.9661 H   0  0  0  0  0  0  0  0  0  0  0  0
  144.7545  141.8667  154.5690 H   0  0  0  0  0  0  0  0  0  0  0  0
  145.2470  144.9087  154.1753 H   0  0  0  0  0  0  0  0  0  0  0  0
  143.6349  144.0821  154.4931 H   0  0  0  0  0  0  0  0  0  0  0  0
  144.5233  143.1946  156.6709 H   0  0  0  0  0  0  0  0  0  0  0  0
  146.1336  144.0226  156.3501 H   0  0  0  0  0  0  0  0  0  0  0  0
  151.1403  140.0206  157.6513 H   0  0  0  0  0  0  0  0  0  0  0  0
  152.6114  140.3985  159.4692 H   0  0  0  0  0  0  0  0  0  0  0  0
  1  2  1  0  0  0  0
  1 18  1  0  0  0  0
  1 19  1  0  0  0  0
  1 20  1  0  0  0  0
  2 16  1  0  0  0  0
  2  3  1  0  0  0  0
  3  4  2  0  0  0  0
  3 21  1  0  0  0  0
  4  5  1  0  0  0  0
  4 14  1  0  0  0  0
  5  6  1  0  0  0  0
  5 22  1  0  0  0  0
  6  7  2  0  0  0  0
  6  8  1  0  0  0  0
  8  9  1  0  0  0  0
  8 23  1  0  0  0  0
  8 24  1  0  0  0  0
  9 10  1  0  0  0  0
 10 11  1  0  0  0  0
 10 25  1  0  0  0  0
 10 26  1  0  0  0  0
 11 13  1  0  0  0  0
 11 12  1  0  0  0  0
 11 27  1  0  0  0  0
 12 13  1  0  0  0  0
 12 28  1  0  0  0  0
 12 29  1  0  0  0  0
 13 30  1  0  0  0  0
 13 31  1  0  0  0  0
 14 15  2  0  0  0  0
 14 32  1  0  0  0  0
 15 16  1  0  0  0  0
 15 33  1  0  0  0  0
 16 17  2  0  0  0  0
M  END
> <s_m_source_file>
AV-unprocessed.smi

> <i_m_source_file_index>
1477

> <i_lp_mmshare_version>
43012

> <i_f3d_flags>
0

> <s_epik_input>
Tz1jMVtjSF1bY0hdYyhbY0hdbjFbQ0gzXSlbTkhdQyg9TylbQ0gyXU9bQ0gyXVtDSF0yW0NIMl1bQ0gyXTI=

> <s_epik_cmdline>
J2VwaWtfcHl0aG9uJywgJy1waCcsICc3LjAnLCAnLXRuJywgJzgnLCAnLW1hJywgJzIwMCcsICctbWV0YWxfYmluZGluZycsICctaW1hZScsICc8aW5maWxlLm1hZT4nLCAnLW9tYWUnLCAnPG91dGZpbGUubWFlPic=

> <r_lp_tautomer_probability>
1

> <r_epik_Ionization_Penalty>
2.50647e-06

> <r_epik_Ionization_Penalty_Charging>
2.2009e-06

> <r_epik_Ionization_Penalty_Neutral>
3.05566e-07

> <r_epik_State_Penalty>
-0

> <r_epik_Charging_Adjusted_Penalty>
2.2009e-06

> <i_epik_Tot_Q>
0

> <i_epik_Tot_abs_Q>
0

> <r_epik_Metal_State_Penalty>
-0

> <b_epik_Metal_Only>
0

> <s_lp_Force_Field>
OPLS_2005

> <r_lp_Energy>
27.664

> <b_lp_Chiralities_Consistent>
1

> <s_lp_Variant>
AV-unprocessed.smi:1477-1

> <Gold.Version>
5.8.1

> <Gold.Id.Protein>
6NUR|6NUR_protein|mol2

> <Gold.PLP.Fitness>
44.9892

> <Gold.PLP.PLP>
-39.7932

> <Gold.PLP.part.hbond>
-1.0000

> <Gold.PLP.part.metal>
0.0000

> <Gold.PLP.part.buried>
-5.9795

> <Gold.PLP.part.nonpolar>
-33.5911

> <Gold.PLP.part.repulsive>
0.2790

> <Gold.PLP.ligand.clash>
0.0000

> <Gold.PLP.ligand.torsion>
0.7104

> <Gold.PLP.Chemscore.Hbond>
1.0000

> <Gold.PLP.Chemscore.CHOScore>
1.0000

> <Gold.PLP.Chemscore.Metal>
0.0000

> <Gold.Chemscore.Hbonds>
donor molecule, donor type, donor heavy atom, donor atom, acceptor molecule, acceptor atom, score
      L1  H     5    22       P1  8028  1.00
      L1  C     3    21       P1  8028  1.00

> <Gold.PLP.Chemscore.Internal.Correction>
0.6168

> <Gold.Rescore>
     Score         DG    S(hbond)    S(metal)    S(lipo)     H(rot)  DE(clash)    DE(int)     intcor
     12.27     -13.82       1.00        0.00      77.43       1.58       0.04       1.51       ----

> <Gold.Chemscore.Fitness>
12.2684

> <Gold.Chemscore.DG>
-13.8189

> <Gold.Chemscore.ZeroCoef>
-5.4800

> <Gold.Chemscore.Hbond>
0.9978

> <Gold.Chemscore.Metal>
0.0000

> <Gold.Chemscore.Lipo>
77.4348

> <Gold.Chemscore.Internal_Hbond>
0.0000

> <Gold.Chemscore.DEClash>
0.0371

> <Gold.Chemscore.DEInternal>
1.5134

> <Gold.Chemscore.Rot>
1.5834

> <Gold.Chemscore.Internal.Correction>
   9.000000E+99

> <Gold.Chemscore.Hbonds>
donor molecule, donor type, donor heavy atom, donor atom, acceptor molecule, acceptor atom, score
      L1  H     5    22       P1  8028  1.00

> <Gold.Chemscore.Hbond.Weighted>
-3.3326

> <Gold.Chemscore.Metal.Weighted>
-0.0000

> <Gold.Chemscore.Lipo.Weighted>
-9.0599

> <Gold.Chemscore.Internal_Hbond.Weighted>
0.0000

> <Gold.Chemscore.DEClash.Weighted>
0.0371

> <Gold.Chemscore.DEInternal.Weighted>
1.5134

> <Gold.Chemscore.Rot.Weighted>
4.0536

> <Gold.Chemscore.Internal.Correction.Weighted>
   9.000000E+99

> <Gold.Protein.RotatedTorsions>
[ 6907 6896 6895 6894 ] final  155.27 input  -60.11 | X-H torsion
[ 7974 7965 7964 7962 ] final -129.94 input  175.53 | X-H torsion
[ 8008 7997 7996 7995 ] final  147.90 input   59.86 | X-H torsion
[ 10167 10162 10161 10158 ] final  143.22 input  -65.29 | X-H torsion
[ 10718 10713 10712 10709 ] final   91.29 input   66.30 | X-H torsion
[ 10763 10752 10751 10750 ] final  142.24 input  -60.55 | X-H torsion
[ 11005 11000 10999 10996 ] final  -53.98 input  -57.11 | X-H torsion

> <Gold.Protein.ActiveResidues>
 VAL166  LYS551  ARG553  GLY616  TRP617  ASP618  TYR619  PRO620  LYS621  CYS622 
 ASP623  PHE694  ASN695  SER759  ASP760  ASP761  ALA762  ILE779  LEU786  VAL792 
 PHE793  MET794  SER795  GLU796  ALA797  LYS798  CYS799  TRP800  GLU811  SER814 

> <Gold.Protein.RotatedAtoms>
  152.0466  133.4000  159.4358 H   0  0  0  0  0  0  0  0  0  0  0  0  # atno 6907 bound_to 6896
  150.6872  134.3355  159.4855 H   0  0  0  0  0  0  0  0  0  0  0  0  # atno 6908 bound_to 6896
  152.1160  134.9240  160.0615 H   0  0  0  0  0  0  0  0  0  0  0  0  # atno 6909 bound_to 6896
  144.9523  140.7358  143.4780 H   0  0  0  0  0  0  0  0  0  0  0  0  # atno 7974 bound_to 7965
  156.2809  140.2143  156.5612 H   0  0  0  0  0  0  0  0  0  0  0  0  # atno 8008 bound_to 7997
  154.7212  140.0503  157.0664 H   0  0  0  0  0  0  0  0  0  0  0  0  # atno 8009 bound_to 7997
  155.0476  140.3152  155.4706 H   0  0  0  0  0  0  0  0  0  0  0  0  # atno 8010 bound_to 7997
  139.4975  144.6055  151.6389 H   0  0  0  0  0  0  0  0  0  0  0  0  # atno 10167 bound_to 10162
  157.6960  131.0402  150.3707 H   0  0  0  0  0  0  0  0  0  0  0  0  # atno 10718 bound_to 10713
  153.9526  135.2968  155.3438 H   0  0  0  0  0  0  0  0  0  0  0  0  # atno 10763 bound_to 10752
  154.7418  135.5021  153.9139 H   0  0  0  0  0  0  0  0  0  0  0  0  # atno 10764 bound_to 10752
  153.0986  135.6728  153.9823 H   0  0  0  0  0  0  0  0  0  0  0  0  # atno 10765 bound_to 10752
  141.1003  133.6619  156.4253 H   0  0  0  0  0  0  0  0  0  0  0  0  # atno 11005 bound_to 11000
  145.2825  139.1913  143.4783 LP  0  0  0  0  0  0  0  0  0  0  0  0  # atno 17320 bound_to 7965
  146.3325  140.2789  142.8609 LP  0  0  0  0  0  0  0  0  0  0  0  0  # atno 17321 bound_to 7965
  140.5715  144.0101  150.6219 LP  0  0  0  0  0  0  0  0  0  0  0  0  # atno 17342 bound_to 10162
  140.3220  143.3131  152.0775 LP  0  0  0  0  0  0  0  0  0  0  0  0  # atno 17343 bound_to 10162
  156.4132  130.3938  149.6877 LP  0  0  0  0  0  0  0  0  0  0  0  0  # atno 17370 bound_to 10713
  156.4153  130.7742  151.2757 LP  0  0  0  0  0  0  0  0  0  0  0  0  # atno 17371 bound_to 10713
  140.5038  134.6460  157.5259 LP  0  0  0  0  0  0  0  0  0  0  0  0  # atno 17394 bound_to 11000
  139.9852  134.7072  155.9786 LP  0  0  0  0  0  0  0  0  0  0  0  0  # atno 17395 bound_to 11000

$$$$
