AV-unprocessed.smi:160|AV-procd|sdf|1355|dock3
  -GOLD-   2262019 63D 1   1.00000     0.00000
 Structure written by MMmdl.
 29 30  0  0  0  0  0  0  0  0  1 V2000
  147.3122  136.0446  158.0178 N   0  0  0  0  0  0  0  0  0  0  0  0
  148.2655  136.0496  158.9557 C   0  0  0  0  0  0  0  0  0  0  0  0
  148.1349  135.4666  160.0310 O   0  0  0  0  0  0  0  0  0  0  0  0
  149.5175  136.8138  158.6255 C   0  0  0  0  0  0  0  0  0  0  0  0
  150.5372  136.9246  159.5278 N   0  0  0  0  0  0  0  0  0  0  0  0
  151.3758  137.6565  158.8053 C   0  0  0  0  0  0  0  0  0  0  0  0
  150.9257  137.9582  157.5833 N   0  0  0  0  0  0  0  0  0  0  0  0
  151.5650  138.7602  156.4938 C   0  0  2  0  0  0  0  0  0  0  0  0
  150.7194  139.8353  156.2136 O   0  0  0  0  0  0  0  0  0  0  0  0
  150.5124  139.9519  154.8080 C   0  0  2  0  0  0  0  0  0  0  0  0
  149.1721  140.6429  154.5009 C   0  0  0  0  0  0  0  0  0  0  0  0
  149.1860  141.1702  153.1913 O   0  0  0  0  0  0  0  0  0  0  0  0
  150.6510  138.5138  154.2889 C   0  0  2  0  0  0  0  0  0  0  0  0
  149.4320  137.8011  154.4147 O   0  0  0  0  0  0  0  0  0  0  0  0
  151.7519  137.9622  155.1869 C   0  0  2  0  0  0  0  0  0  0  0  0
  151.7275  136.5495  155.3107 O   0  0  0  0  0  0  0  0  0  0  0  0
  149.6906  137.4153  157.4477 N   0  0  0  0  0  0  0  0  0  0  0  0
  152.5070  139.1029  156.9238 H   0  0  0  0  0  0  0  0  0  0  0  0
  151.3370  140.5358  154.3939 H   0  0  0  0  0  0  0  0  0  0  0  0
  150.9443  138.4919  153.2388 H   0  0  0  0  0  0  0  0  0  0  0  0
  152.7182  138.2539  154.7731 H   0  0  0  0  0  0  0  0  0  0  0  0
  146.4472  135.5505  158.1805 H   0  0  0  0  0  0  0  0  0  0  0  0
  147.4653  136.5392  157.1507 H   0  0  0  0  0  0  0  0  0  0  0  0
  152.3391  137.9770  159.1736 H   0  0  0  0  0  0  0  0  0  0  0  0
  148.3565  139.9209  154.5510 H   0  0  0  0  0  0  0  0  0  0  0  0
  148.9557  141.4300  155.2238 H   0  0  0  0  0  0  0  0  0  0  0  0
  149.2737  140.4538  152.5811 H   0  0  0  0  0  0  0  0  0  0  0  0
  149.2958  137.3068  153.6206 H   0  0  0  0  0  0  0  0  0  0  0  0
  150.8271  136.2632  155.3221 H   0  0  0  0  0  0  0  0  0  0  0  0
  1  2  1  0  0  0  0
  1 22  1  0  0  0  0
  1 23  1  0  0  0  0
  2  3  2  0  0  0  0
  2  4  1  0  0  0  0
  4 17  2  0  0  0  0
  4  5  1  0  0  0  0
  5  6  2  0  0  0  0
  6  7  1  0  0  0  0
  6 24  1  0  0  0  0
  7  8  1  0  0  0  0
  7 17  1  0  0  0  0
  8 18  1  0  0  0  0
  8 15  1  0  0  0  0
  8  9  1  0  0  0  0
  9 10  1  0  0  0  0
 10 19  1  0  0  0  0
 10 11  1  0  0  0  0
 10 13  1  0  0  0  0
 11 12  1  0  0  0  0
 11 25  1  0  0  0  0
 11 26  1  0  0  0  0
 12 27  1  0  0  0  0
 13 20  1  0  0  0  0
 13 14  1  0  0  0  0
 13 15  1  0  0  0  0
 14 28  1  0  0  0  0
 15 21  1  0  0  0  0
 15 16  1  0  0  0  0
 16 29  1  0  0  0  0
M  END
> <s_m_source_file>
AV-unprocessed.smi

> <i_m_source_file_index>
160

> <i_lp_mmshare_version>
43012

> <i_f3d_flags>
0

> <s_epik_input>
W05IMl1DKD1PKWMxbltjSF1uKG4xKVtDQEBIXTJPW0NASF0oW0NIMl1bT0hdKVtDQEBIXShbT0hdKVtDQEhdMltPSF0=

> <s_epik_cmdline>
J2VwaWtfcHl0aG9uJywgJy1waCcsICc3LjAnLCAnLXRuJywgJzgnLCAnLW1hJywgJzIwMCcsICctbWV0YWxfYmluZGluZycsICctaW1hZScsICc8aW5maWxlLm1hZT4nLCAnLW9tYWUnLCAnPG91dGZpbGUubWFlPic=

> <r_lp_tautomer_probability>
1

> <r_epik_Ionization_Penalty>
1.06932e-05

> <r_epik_Ionization_Penalty_Charging>
0

> <r_epik_Ionization_Penalty_Neutral>
1.06932e-05

> <r_epik_State_Penalty>
-0

> <r_epik_Charging_Adjusted_Penalty>
0

> <i_epik_Tot_Q>
0

> <i_epik_Tot_abs_Q>
0

> <r_epik_Metal_State_Penalty>
0.0142097

> <b_epik_Metal_Only>
0

> <s_epik_Chemistry_Notes>
This compound contains an acetal/aminal-like group ( X-CH(R)-Y where X, Y are N, S, or O) that may be acid/base labile, releasing an aldehyde.

> <s_lp_Force_Field>
OPLS_2005

> <r_lp_Energy>
47.6598

> <b_lp_Chiralities_Consistent>
1

> <s_lp_Variant>
AV-unprocessed.smi:160-13

> <Gold.Version>
5.8.1

> <Gold.Id.Protein>
6NUR|6NUR_protein|mol2

> <Gold.PLP.Fitness>
38.1721

> <Gold.PLP.PLP>
-23.9425

> <Gold.PLP.part.hbond>
-5.4945

> <Gold.PLP.part.metal>
0.0000

> <Gold.PLP.part.buried>
-3.0486

> <Gold.PLP.part.nonpolar>
-15.2225

> <Gold.PLP.part.repulsive>
0.0000

> <Gold.PLP.ligand.clash>
0.0000

> <Gold.PLP.ligand.torsion>
0.2185

> <Gold.PLP.Chemscore.Hbond>
4.8865

> <Gold.PLP.Chemscore.CHOScore>
0.0000

> <Gold.PLP.Chemscore.Metal>
0.0000

> <Gold.Chemscore.Hbonds>
donor molecule, donor type, donor heavy atom, donor atom, acceptor molecule, acceptor atom, score
      L1  H    12    27       P1  7957  0.87
      L1  H    14    28       P1  7948  0.91
      P1  H  6896  6908       L1     5  0.90
      P1  H  8011  8017       L1    12  1.00
      P1  H 10752 10763       L1    16  1.00

> <Gold.PLP.Chemscore.Internal.Correction>
0.0071

> <Gold.Rescore>
     Score         DG    S(hbond)    S(metal)    S(lipo)     H(rot)  DE(clash)    DE(int)     intcor
     12.37     -12.65       4.21        0.00      29.94       4.06       0.01       0.27       ----

> <Gold.Chemscore.Fitness>
12.3665

> <Gold.Chemscore.DG>
-12.6500

> <Gold.Chemscore.ZeroCoef>
-5.4800

> <Gold.Chemscore.Hbond>
4.2098

> <Gold.Chemscore.Metal>
0.0000

> <Gold.Chemscore.Lipo>
29.9389

> <Gold.Chemscore.Internal_Hbond>
0.0000

> <Gold.Chemscore.DEClash>
0.0110

> <Gold.Chemscore.DEInternal>
0.2725

> <Gold.Chemscore.Rot>
4.0600

> <Gold.Chemscore.Internal.Correction>
   9.000000E+99

> <Gold.Chemscore.Hbonds>
donor molecule, donor type, donor heavy atom, donor atom, acceptor molecule, acceptor atom, score
      L1  H    12    27       P1  7957  0.82
      L1  H    14    28       P1  7948  0.86
      P1  H  6896  6908       L1     5  0.16
      P1  H  8011  8017       L1    12  0.30
      P1  H 10752 10763       L1    16  0.96

> <Gold.Chemscore.Hbond.Weighted>
-14.0607

> <Gold.Chemscore.Metal.Weighted>
-0.0000

> <Gold.Chemscore.Lipo.Weighted>
-3.5029

> <Gold.Chemscore.Internal_Hbond.Weighted>
0.0000

> <Gold.Chemscore.DEClash.Weighted>
0.0110

> <Gold.Chemscore.DEInternal.Weighted>
0.2725

> <Gold.Chemscore.Rot.Weighted>
10.3936

> <Gold.Chemscore.Internal.Correction.Weighted>
   9.000000E+99

> <Gold.Protein.RotatedTorsions>
[ 6907 6896 6895 6894 ] final -164.18 input  -60.11 | X-H torsion
[ 7974 7965 7964 7962 ] final -158.50 input  175.53 | X-H torsion
[ 8008 7997 7996 7995 ] final  111.85 input   59.86 | X-H torsion
[ 10167 10162 10161 10158 ] final -111.73 input  -65.29 | X-H torsion
[ 10718 10713 10712 10709 ] final   30.59 input   66.30 | X-H torsion
[ 10763 10752 10751 10750 ] final   56.64 input  -60.55 | X-H torsion
[ 11005 11000 10999 10996 ] final  119.57 input  -57.11 | X-H torsion

> <Gold.Protein.ActiveResidues>
 VAL166  LYS551  ARG553  GLY616  TRP617  ASP618  TYR619  PRO620  LYS621  CYS622 
 ASP623  PHE694  ASN695  SER759  ASP760  ASP761  ALA762  ILE779  LEU786  VAL792 
 PHE793  MET794  SER795  GLU796  ALA797  LYS798  CYS799  TRP800  GLU811  SER814 

> <Gold.Protein.RotatedAtoms>
  151.4078  133.3737  159.2739 H   0  0  0  0  0  0  0  0  0  0  0  0  # atno 6907 bound_to 6896
  150.9385  134.8797  159.7608 H   0  0  0  0  0  0  0  0  0  0  0  0  # atno 6908 bound_to 6896
  152.5061  134.4027  159.9474 H   0  0  0  0  0  0  0  0  0  0  0  0  # atno 6909 bound_to 6896
  144.7503  140.3818  143.6053 H   0  0  0  0  0  0  0  0  0  0  0  0  # atno 7974 bound_to 7965
  156.2152  140.3011  155.9824 H   0  0  0  0  0  0  0  0  0  0  0  0  # atno 8008 bound_to 7997
  155.2622  140.0430  157.3015 H   0  0  0  0  0  0  0  0  0  0  0  0  # atno 8009 bound_to 7997
  154.5758  140.2361  155.8133 H   0  0  0  0  0  0  0  0  0  0  0  0  # atno 8010 bound_to 7997
  140.1304  143.4365  152.1631 H   0  0  0  0  0  0  0  0  0  0  0  0  # atno 10167 bound_to 10162
  157.2616  130.7164  149.6457 H   0  0  0  0  0  0  0  0  0  0  0  0  # atno 10718 bound_to 10713
  152.9835  135.5669  154.5262 H   0  0  0  0  0  0  0  0  0  0  0  0  # atno 10763 bound_to 10752
  154.4742  135.2786  155.1622 H   0  0  0  0  0  0  0  0  0  0  0  0  # atno 10764 bound_to 10752
  154.3157  135.6279  153.5539 H   0  0  0  0  0  0  0  0  0  0  0  0  # atno 10765 bound_to 10752
  139.9152  134.9629  156.7676 H   0  0  0  0  0  0  0  0  0  0  0  0  # atno 11005 bound_to 11000
  145.6969  139.1652  143.2615 LP  0  0  0  0  0  0  0  0  0  0  0  0  # atno 17320 bound_to 7965
  146.1443  140.7014  142.9352 LP  0  0  0  0  0  0  0  0  0  0  0  0  # atno 17321 bound_to 7965
  139.5522  144.7346  151.4400 LP  0  0  0  0  0  0  0  0  0  0  0  0  # atno 17342 bound_to 10162
  140.6820  143.8060  150.7134 LP  0  0  0  0  0  0  0  0  0  0  0  0  # atno 17343 bound_to 10162
  155.9664  130.4396  150.5264 LP  0  0  0  0  0  0  0  0  0  0  0  0  # atno 17370 bound_to 10713
  157.3169  131.0674  151.1960 LP  0  0  0  0  0  0  0  0  0  0  0  0  # atno 17371 bound_to 10713
  140.6647  133.9613  155.7823 LP  0  0  0  0  0  0  0  0  0  0  0  0  # atno 17394 bound_to 11000
  141.0619  134.0333  157.3646 LP  0  0  0  0  0  0  0  0  0  0  0  0  # atno 17395 bound_to 11000

$$$$
