AV-unprocessed.smi:2761|AV-procd|sdf|10635|dock4
  -GOLD-   2272015 83D 1   1.00000     0.00000
 Structure written by MMmdl.
 26 27  0  0  0  0  0  0  0  0  2 V2000
  154.0980  140.0801  159.2022 O   0  0  0  0  0  0  0  0  0  0  0  0
  153.1850  140.8815  158.9916 C   0  0  0  0  0  0  0  0  0  0  0  0
  152.1605  140.6842  158.1340 N   0  0  0  0  0  0  0  0  0  0  0  0
  151.9200  139.5790  157.3117 C   0  0  0  0  0  0  0  0  0  0  0  0
  151.9427  139.9211  155.9127 C   0  0  0  0  0  0  0  0  0  0  0  0
  151.7242  138.9271  155.0236 C   0  0  0  0  0  0  0  0  0  0  0  0
  151.4744  137.5525  155.4653 C   0  0  0  0  0  0  0  0  0  0  0  0
  151.2816  136.6802  154.6213 O   0  0  0  0  0  0  0  0  0  0  0  0
  151.4671  137.3006  156.8130 N   0  5  0  0  0  0  0  0  0  0  0  0
  151.7031  138.3775  157.7539 N   0  0  0  0  0  0  0  0  0  0  0  0
  153.1469  142.2149  159.7529 C   0  0  1  0  0  0  0  0  0  0  0  0
  152.1882  143.2513  159.1209 C   0  0  0  0  0  0  0  0  0  0  0  0
  152.1867  144.4335  159.9110 O   0  0  0  0  0  0  0  0  0  0  0  0
  151.7594  144.1671  161.2394 C   0  0  0  0  0  0  0  0  0  0  0  0
  152.7174  143.1475  161.8760 C   0  0  0  0  0  0  0  0  0  0  0  0
  152.7220  141.9631  161.0904 O   0  0  0  0  0  0  0  0  0  0  0  0
  151.4909  141.4376  158.0851 H   0  0  0  0  0  0  0  0  0  0  0  0
  152.1232  140.9224  155.5497 H   0  0  0  0  0  0  0  0  0  0  0  0
  151.7335  139.1489  153.9666 H   0  0  0  0  0  0  0  0  0  0  0  0
  154.1622  142.6153  159.7672 H   0  0  0  0  0  0  0  0  0  0  0  0
  152.5134  143.5135  158.1136 H   0  0  0  0  0  0  0  0  0  0  0  0
  151.1736  142.8565  159.0400 H   0  0  0  0  0  0  0  0  0  0  0  0
  151.7624  145.0969  161.8084 H   0  0  0  0  0  0  0  0  0  0  0  0
  150.7348  143.7922  161.2393 H   0  0  0  0  0  0  0  0  0  0  0  0
  153.7267  143.5547  161.9508 H   0  0  0  0  0  0  0  0  0  0  0  0
  152.3930  142.9027  162.8875 H   0  0  0  0  0  0  0  0  0  0  0  0
  1  2  2  0  0  0  0
  2  3  1  0  0  0  0
  2 11  1  0  0  0  0
  3 17  1  0  0  0  0
  3  4  1  0  0  0  0
  4  5  1  0  0  0  0
  4 10  2  0  0  0  0
  5  6  2  0  0  0  0
  5 18  1  0  0  0  0
  6  7  1  0  0  0  0
  6 19  1  0  0  0  0
  7  8  2  0  0  0  0
  7  9  1  0  0  0  0
  9 10  1  0  0  0  0
 11 16  1  0  0  0  0
 11 12  1  0  0  0  0
 11 20  1  0  0  0  0
 12 13  1  0  0  0  0
 12 21  1  0  0  0  0
 12 22  1  0  0  0  0
 13 14  1  0  0  0  0
 14 15  1  0  0  0  0
 14 23  1  0  0  0  0
 14 24  1  0  0  0  0
 15 16  1  0  0  0  0
 15 25  1  0  0  0  0
 15 26  1  0  0  0  0
M  CHG  1   9  -1
M  END
> <s_m_source_file>
AV-unprocessed.smi

> <i_m_source_file_index>
2761

> <i_lp_mmshare_version>
43012

> <i_f3d_flags>
0

> <s_epik_input>
TzFbQ0gyXVtDSDJdT1tDSDJdW0NASF0xQyg9TylbTkhdYzJbY0hdW2NIXWMoW09IXSlubjI=

> <s_epik_cmdline>
J2VwaWtfcHl0aG9uJywgJy1waCcsICc3LjAnLCAnLXRuJywgJzgnLCAnLW1hJywgJzIwMCcsICctbWV0YWxfYmluZGluZycsICctaW1hZScsICc8aW5maWxlLm1hZT4nLCAnLW9tYWUnLCAnPG91dGZpbGUubWFlPic=

> <r_lp_tautomer_probability>
1

> <r_epik_Ionization_Penalty>
4.21844

> <r_epik_Ionization_Penalty_Charging>
0.119247

> <r_epik_Ionization_Penalty_Neutral>
4.0992

> <r_epik_State_Penalty>
4.09486

> <r_epik_Charging_Adjusted_Penalty>
4.2141

> <i_epik_Tot_Q>
-1

> <i_epik_Tot_abs_Q>
1

> <r_epik_Metal_State_Penalty>
0.651223

> <b_epik_Metal_Only>
1

> <s_lp_Force_Field>
OPLS_2005

> <r_lp_Energy>
28.3135

> <b_lp_Chiralities_Consistent>
1

> <s_lp_Variant>
AV-unprocessed.smi:2761-4

> <Gold.Version>
5.8.1

> <Gold.Id.Protein>
6NUR|6NUR_protein|mol2

> <Gold.PLP.Fitness>
33.5726

> <Gold.PLP.PLP>
-29.6280

> <Gold.PLP.part.hbond>
-2.0000

> <Gold.PLP.part.metal>
0.0000

> <Gold.PLP.part.buried>
-4.8730

> <Gold.PLP.part.nonpolar>
-22.7776

> <Gold.PLP.part.repulsive>
0.3192

> <Gold.PLP.ligand.clash>
0.0000

> <Gold.PLP.ligand.torsion>
0.9927

> <Gold.PLP.Chemscore.Hbond>
1.9760

> <Gold.PLP.Chemscore.CHOScore>
0.0000

> <Gold.PLP.Chemscore.Metal>
0.0000

> <Gold.Chemscore.Hbonds>
donor molecule, donor type, donor heavy atom, donor atom, acceptor molecule, acceptor atom, score
      P1  H  7997  8008       L1     1  0.80
      P1  H 10752 10765       L1     8  1.00

> <Gold.PLP.Chemscore.Internal.Correction>
0.0020

> <Gold.Rescore>
     Score         DG    S(hbond)    S(metal)    S(lipo)     H(rot)  DE(clash)    DE(int)     intcor
     14.47     -15.16       1.54        0.00      60.65       1.00       0.02       0.67       ----

> <Gold.Chemscore.Fitness>
14.4678

> <Gold.Chemscore.DG>
-15.1610

> <Gold.Chemscore.ZeroCoef>
-5.4800

> <Gold.Chemscore.Hbond>
1.5403

> <Gold.Chemscore.Metal>
0.0000

> <Gold.Chemscore.Lipo>
60.6533

> <Gold.Chemscore.Internal_Hbond>
0.0000

> <Gold.Chemscore.DEClash>
0.0218

> <Gold.Chemscore.DEInternal>
0.6714

> <Gold.Chemscore.Rot>
1.0000

> <Gold.Chemscore.Internal.Correction>
   9.000000E+99

> <Gold.Chemscore.Hbonds>
donor molecule, donor type, donor heavy atom, donor atom, acceptor molecule, acceptor atom, score
      P1  H  7997  8008       L1     1  0.17
      P1  H 10752 10765       L1     8  0.73

> <Gold.Chemscore.Hbond.Weighted>
-5.1446

> <Gold.Chemscore.Metal.Weighted>
-0.0000

> <Gold.Chemscore.Lipo.Weighted>
-7.0964

> <Gold.Chemscore.Internal_Hbond.Weighted>
0.0000

> <Gold.Chemscore.DEClash.Weighted>
0.0218

> <Gold.Chemscore.DEInternal.Weighted>
0.6714

> <Gold.Chemscore.Rot.Weighted>
2.5600

> <Gold.Chemscore.Internal.Correction.Weighted>
   9.000000E+99

> <Gold.Protein.RotatedTorsions>
[ 6907 6896 6895 6894 ] final  166.47 input  -60.11 | X-H torsion
[ 7974 7965 7964 7962 ] final   36.41 input  175.53 | X-H torsion
[ 8008 7997 7996 7995 ] final -110.55 input   59.86 | X-H torsion
[ 10167 10162 10161 10158 ] final  124.63 input  -65.29 | X-H torsion
[ 10718 10713 10712 10709 ] final  -57.53 input   66.30 | X-H torsion
[ 10763 10752 10751 10750 ] final  164.34 input  -60.55 | X-H torsion
[ 11005 11000 10999 10996 ] final  -76.07 input  -57.11 | X-H torsion

> <Gold.Protein.ActiveResidues>
 VAL166  LYS551  ARG553  GLY616  TRP617  ASP618  TYR619  PRO620  LYS621  CYS622 
 ASP623  PHE694  ASN695  SER759  ASP760  ASP761  ALA762  ILE779  LEU786  VAL792 
 PHE793  MET794  SER795  GLU796  ALA797  LYS798  CYS799  TRP800  GLU811  SER814 

> <Gold.Protein.RotatedAtoms>
  151.8784  133.3490  159.3757 H   0  0  0  0  0  0  0  0  0  0  0  0  # atno 6907 bound_to 6896
  150.7134  134.5043  159.5586 H   0  0  0  0  0  0  0  0  0  0  0  0  # atno 6908 bound_to 6896
  152.2590  134.8055  160.0485 H   0  0  0  0  0  0  0  0  0  0  0  0  # atno 6909 bound_to 6896
  146.1213  139.6020  142.9288 H   0  0  0  0  0  0  0  0  0  0  0  0  # atno 7974 bound_to 7965
  154.9763  140.0397  157.2257 H   0  0  0  0  0  0  0  0  0  0  0  0  # atno 8008 bound_to 7997
  154.7755  140.2809  155.6082 H   0  0  0  0  0  0  0  0  0  0  0  0  # atno 8009 bound_to 7997
  156.2928  140.2602  156.2568 H   0  0  0  0  0  0  0  0  0  0  0  0  # atno 8010 bound_to 7997
  139.5731  144.6949  151.3726 H   0  0  0  0  0  0  0  0  0  0  0  0  # atno 10167 bound_to 10162
  156.1204  130.4167  150.0453 H   0  0  0  0  0  0  0  0  0  0  0  0  # atno 10718 bound_to 10713
  154.3074  135.2758  155.2582 H   0  0  0  0  0  0  0  0  0  0  0  0  # atno 10763 bound_to 10752
  154.4993  135.5812  153.6522 H   0  0  0  0  0  0  0  0  0  0  0  0  # atno 10764 bound_to 10752
  152.9892  135.6154  154.3249 H   0  0  0  0  0  0  0  0  0  0  0  0  # atno 10765 bound_to 10752
  141.1651  133.6970  156.7613 H   0  0  0  0  0  0  0  0  0  0  0  0  # atno 11005 bound_to 11000
  145.5460  141.0417  143.2304 LP  0  0  0  0  0  0  0  0  0  0  0  0  # atno 17320 bound_to 7965
  144.7600  139.6981  143.7238 LP  0  0  0  0  0  0  0  0  0  0  0  0  # atno 17321 bound_to 7965
  140.7014  143.7621  150.7410 LP  0  0  0  0  0  0  0  0  0  0  0  0  # atno 17342 bound_to 10162
  140.1133  143.4679  152.2357 LP  0  0  0  0  0  0  0  0  0  0  0  0  # atno 17343 bound_to 10162
  156.8393  130.9420  151.3633 LP  0  0  0  0  0  0  0  0  0  0  0  0  # atno 17370 bound_to 10713
  157.6387  130.8788  149.9407 LP  0  0  0  0  0  0  0  0  0  0  0  0  # atno 17371 bound_to 10713
  140.2531  134.8525  157.3687 LP  0  0  0  0  0  0  0  0  0  0  0  0  # atno 17394 bound_to 11000
  140.1683  134.4641  155.7848 LP  0  0  0  0  0  0  0  0  0  0  0  0  # atno 17395 bound_to 11000

$$$$
