AV-unprocessed.smi:464|AV-procd|sdf|2637|dock6
  -GOLD-   2262023 43D 1   1.00000     0.00000
 Structure written by MMmdl.
 24 25  0  0  0  0  0  0  0  0  2 V2000
  151.9883  137.4448  154.6656 O   0  0  0  0  0  0  0  0  0  0  0  0
  151.8943  138.3970  155.4368 C   0  0  0  0  0  0  0  0  0  0  0  0
  151.4857  139.6428  155.0556 N   0  5  0  0  0  0  0  0  0  0  0  0
  151.4380  140.5825  156.0226 C   0  0  0  0  0  0  0  0  0  0  0  0
  151.7559  140.4249  157.3568 C   0  0  0  0  0  0  0  0  0  0  0  0
  151.6856  141.4394  158.2985 N   0  0  0  0  0  0  0  0  0  0  0  0
  151.0016  142.7021  158.0586 C   0  0  0  0  0  0  0  0  0  0  0  0
  152.0085  143.8654  158.1027 C   0  0  0  0  0  0  0  0  0  0  0  0
  152.7067  143.8473  159.3452 O   0  0  0  0  0  0  0  0  0  0  0  0
  153.4378  142.6380  159.5318 C   0  0  0  0  0  0  0  0  0  0  0  0
  152.4689  141.4419  159.5257 C   0  0  0  0  0  0  0  0  0  0  0  0
  152.1916  139.0829  157.7588 C   0  0  0  0  0  0  0  0  0  0  0  0
  152.5108  138.7630  158.9033 O   0  0  0  0  0  0  0  0  0  0  0  0
  152.2208  138.1782  156.7422 N   0  0  0  0  0  0  0  0  0  0  0  0
  152.5166  137.2430  156.9800 H   0  0  0  0  0  0  0  0  0  0  0  0
  151.1072  141.5910  155.6929 H   0  0  0  0  0  0  0  0  0  0  0  0
  150.4939  142.6803  157.0934 H   0  0  0  0  0  0  0  0  0  0  0  0
  150.2313  142.8384  158.8183 H   0  0  0  0  0  0  0  0  0  0  0  0
  152.7171  143.7992  157.2757 H   0  0  0  0  0  0  0  0  0  0  0  0
  151.4883  144.8176  158.0003 H   0  0  0  0  0  0  0  0  0  0  0  0
  154.1916  142.5336  158.7500 H   0  0  0  0  0  0  0  0  0  0  0  0
  153.9696  142.6867  160.4821 H   0  0  0  0  0  0  0  0  0  0  0  0
  151.7922  141.4982  160.3790 H   0  0  0  0  0  0  0  0  0  0  0  0
  153.0236  140.5077  159.6228 H   0  0  0  0  0  0  0  0  0  0  0  0
  1  2  2  0  0  0  0
  2 14  1  0  0  0  0
  2  3  1  0  0  0  0
  3  4  1  0  0  0  0
  4  5  2  0  0  0  0
  4 16  1  0  0  0  0
  5  6  1  0  0  0  0
  5 12  1  0  0  0  0
  6 11  1  0  0  0  0
  6  7  1  0  0  0  0
  7  8  1  0  0  0  0
  7 17  1  0  0  0  0
  7 18  1  0  0  0  0
  8  9  1  0  0  0  0
  8 19  1  0  0  0  0
  8 20  1  0  0  0  0
  9 10  1  0  0  0  0
 10 11  1  0  0  0  0
 10 21  1  0  0  0  0
 10 22  1  0  0  0  0
 11 23  1  0  0  0  0
 11 24  1  0  0  0  0
 12 13  2  0  0  0  0
 12 14  1  0  0  0  0
 14 15  1  0  0  0  0
M  CHG  1   3  -1
M  END
> <s_m_source_file>
AV-unprocessed.smi

> <i_m_source_file_index>
464

> <i_lp_mmshare_version>
43012

> <i_f3d_flags>
0

> <s_epik_input>
Tz1jMVtuSF1bY0hdYyhjKD1PKVtuSF0xKU4yW0NIMl1bQ0gyXU9bQ0gyXVtDSDJdMg==

> <s_epik_cmdline>
J2VwaWtfcHl0aG9uJywgJy1waCcsICc3LjAnLCAnLXRuJywgJzgnLCAnLW1hJywgJzIwMCcsICctbWV0YWxfYmluZGluZycsICctaW1hZScsICc8aW5maWxlLm1hZT4nLCAnLW9tYWUnLCAnPG91dGZpbGUubWFlPic=

> <r_lp_tautomer_probability>
0.999801

> <r_epik_Ionization_Penalty>
2.66523

> <r_epik_Ionization_Penalty_Charging>
1.22855e-06

> <r_epik_Ionization_Penalty_Neutral>
2.66523

> <r_epik_State_Penalty>
2.66349

> <r_epik_Charging_Adjusted_Penalty>
2.66349

> <i_epik_Tot_Q>
-1

> <i_epik_Tot_abs_Q>
1

> <r_epik_Metal_State_Penalty>
0.434838

> <b_epik_Metal_Only>
1

> <s_lp_Force_Field>
OPLS_2005

> <r_lp_Energy>
24.7156

> <b_lp_Chiralities_Consistent>
1

> <s_lp_Variant>
AV-unprocessed.smi:464-2

> <Gold.Version>
5.8.1

> <Gold.Id.Protein>
6NUR|6NUR_protein|mol2

> <Gold.PLP.Fitness>
32.0352

> <Gold.PLP.PLP>
-27.1133

> <Gold.PLP.part.hbond>
-2.0000

> <Gold.PLP.part.metal>
0.0000

> <Gold.PLP.part.buried>
-5.0443

> <Gold.PLP.part.nonpolar>
-20.2798

> <Gold.PLP.part.repulsive>
0.2968

> <Gold.PLP.ligand.clash>
0.0000

> <Gold.PLP.ligand.torsion>
0.1690

> <Gold.PLP.Chemscore.Hbond>
1.6406

> <Gold.PLP.Chemscore.CHOScore>
0.0000

> <Gold.PLP.Chemscore.Metal>
0.0000

> <Gold.Chemscore.Hbonds>
donor molecule, donor type, donor heavy atom, donor atom, acceptor molecule, acceptor atom, score
      P1  H  7989  7998       L1     3  0.90
      P1  H 10752 10764       L1     1  0.57

> <Gold.PLP.Chemscore.Internal.Correction>
0.3380

> <Gold.Rescore>
     Score         DG    S(hbond)    S(metal)    S(lipo)     H(rot)  DE(clash)    DE(int)     intcor
     12.89     -14.53       0.94        0.00      50.62       0.00       0.00       1.64       ----

> <Gold.Chemscore.Fitness>
12.8863

> <Gold.Chemscore.DG>
-14.5286

> <Gold.Chemscore.ZeroCoef>
-5.4800

> <Gold.Chemscore.Hbond>
0.9358

> <Gold.Chemscore.Metal>
0.0000

> <Gold.Chemscore.Lipo>
50.6250

> <Gold.Chemscore.Internal_Hbond>
0.0000

> <Gold.Chemscore.DEClash>
0.0015

> <Gold.Chemscore.DEInternal>
1.6408

> <Gold.Chemscore.Rot>
0.0000

> <Gold.Chemscore.Internal.Correction>
   9.000000E+99

> <Gold.Chemscore.Hbonds>
donor molecule, donor type, donor heavy atom, donor atom, acceptor molecule, acceptor atom, score
      P1  H  7989  7998       L1     3  0.17
      P1  H 10752 10764       L1     1  0.57

> <Gold.Chemscore.Hbond.Weighted>
-3.1255

> <Gold.Chemscore.Metal.Weighted>
-0.0000

> <Gold.Chemscore.Lipo.Weighted>
-5.9231

> <Gold.Chemscore.Internal_Hbond.Weighted>
0.0000

> <Gold.Chemscore.DEClash.Weighted>
0.0015

> <Gold.Chemscore.DEInternal.Weighted>
1.6408

> <Gold.Chemscore.Rot.Weighted>
0.0000

> <Gold.Chemscore.Internal.Correction.Weighted>
   9.000000E+99

> <Gold.Protein.RotatedTorsions>
[ 6907 6896 6895 6894 ] final  -86.37 input  -60.11 | X-H torsion
[ 7974 7965 7964 7962 ] final  156.28 input  175.53 | X-H torsion
[ 8008 7997 7996 7995 ] final   24.39 input   59.86 | X-H torsion
[ 10167 10162 10161 10158 ] final  -47.34 input  -65.29 | X-H torsion
[ 10718 10713 10712 10709 ] final   82.59 input   66.30 | X-H torsion
[ 10763 10752 10751 10750 ] final  -93.38 input  -60.55 | X-H torsion
[ 11005 11000 10999 10996 ] final    8.79 input  -57.11 | X-H torsion

> <Gold.Protein.ActiveResidues>
 VAL166  LYS551  ARG553  GLY616  TRP617  ASP618  TYR619  PRO620  LYS621  CYS622 
 ASP623  PHE694  ASN695  SER759  ASP760  ASP761  ALA762  ILE779  LEU786  VAL792 
 PHE793  MET794  SER795  GLU796  ALA797  LYS798  CYS799  TRP800  GLU811  SER814 

> <Gold.Protein.RotatedAtoms>
  150.6867  134.3061  159.4726 H   0  0  0  0  0  0  0  0  0  0  0  0  # atno 6907 bound_to 6896
  152.0952  134.9377  160.0580 H   0  0  0  0  0  0  0  0  0  0  0  0  # atno 6908 bound_to 6896
  152.0678  133.4057  159.4483 H   0  0  0  0  0  0  0  0  0  0  0  0  # atno 6909 bound_to 6896
  144.7973  139.7182  143.6196 H   0  0  0  0  0  0  0  0  0  0  0  0  # atno 7974 bound_to 7965
  154.9956  140.3119  155.4888 H   0  0  0  0  0  0  0  0  0  0  0  0  # atno 8008 bound_to 7997
  156.2933  140.2241  156.5003 H   0  0  0  0  0  0  0  0  0  0  0  0  # atno 8009 bound_to 7997
  154.7664  140.0455  157.1004 H   0  0  0  0  0  0  0  0  0  0  0  0  # atno 8010 bound_to 7997
  140.6779  143.2789  151.3912 H   0  0  0  0  0  0  0  0  0  0  0  0  # atno 10167 bound_to 10162
  157.6860  131.0054  150.2398 H   0  0  0  0  0  0  0  0  0  0  0  0  # atno 10718 bound_to 10713
  154.6954  135.5196  153.8450 H   0  0  0  0  0  0  0  0  0  0  0  0  # atno 10763 bound_to 10752
  153.0663  135.6586  154.0357 H   0  0  0  0  0  0  0  0  0  0  0  0  # atno 10764 bound_to 10752
  154.0224  135.2992  155.3359 H   0  0  0  0  0  0  0  0  0  0  0  0  # atno 10765 bound_to 10752
  140.5330  134.0448  155.7879 H   0  0  0  0  0  0  0  0  0  0  0  0  # atno 11005 bound_to 11000
  146.2245  139.5696  142.9596 LP  0  0  0  0  0  0  0  0  0  0  0  0  # atno 17320 bound_to 7965
  145.5641  141.0401  143.2210 LP  0  0  0  0  0  0  0  0  0  0  0  0  # atno 17321 bound_to 7965
  139.6083  144.1151  152.2272 LP  0  0  0  0  0  0  0  0  0  0  0  0  # atno 17342 bound_to 10162
  140.0557  144.5897  150.7301 LP  0  0  0  0  0  0  0  0  0  0  0  0  # atno 17343 bound_to 10162
  156.3014  130.3759  149.7746 LP  0  0  0  0  0  0  0  0  0  0  0  0  # atno 17370 bound_to 10713
  156.5375  130.8285  151.3258 LP  0  0  0  0  0  0  0  0  0  0  0  0  # atno 17371 bound_to 10713
  141.1270  133.9365  157.2614 LP  0  0  0  0  0  0  0  0  0  0  0  0  # atno 17394 bound_to 11000
  139.9544  135.0169  156.9086 LP  0  0  0  0  0  0  0  0  0  0  0  0  # atno 17395 bound_to 11000

$$$$
