AV-unprocessed.smi:3338|AV-procd|sdf|12870|dock10
  -GOLD-   2272019273D 1   1.00000     0.00000
 Structure written by MMmdl.
 44 45  0  0  0  0  0  0  0  0  2 V2000
  146.0590  135.7163  152.3338 C   0  0  0  0  0  0  0  0  0  0  0  0
  145.9190  134.4480  153.1935 C   0  0  1  0  0  0  0  0  0  0  0  0
  146.2817  133.1624  152.4270 C   0  0  0  0  0  0  0  0  0  0  0  0
  147.7995  133.0377  152.2333 C   0  0  0  0  0  0  0  0  0  0  0  0
  148.5392  133.1638  153.5745 C   0  0  0  0  0  0  0  0  0  0  0  0
  148.1910  134.4350  154.2599 N   0  3  2  0  0  0  0  0  0  0  0  0
  149.0039  134.6589  155.4814 C   0  0  0  0  0  0  0  0  0  0  0  0
  150.5060  134.7552  155.1696 C   0  0  0  0  0  0  0  0  0  0  0  0
  150.8465  136.1029  154.7363 N   0  0  0  0  0  0  0  0  0  0  0  0
  151.7039  136.9188  155.3680 C   0  0  0  0  0  0  0  0  0  0  0  0
  152.3145  136.5902  156.3861 O   0  0  0  0  0  0  0  0  0  0  0  0
  151.8915  138.3126  154.7465 C   0  0  2  0  0  0  0  0  0  0  0  0
  153.3668  138.7514  154.6762 C   0  0  0  0  0  0  0  0  0  0  0  0
  151.0819  139.2942  155.4584 N   0  0  0  0  0  0  0  0  0  0  0  0
  150.3290  139.1301  156.6051 C   0  0  0  0  0  0  0  0  0  0  0  0
  149.7215  140.3237  156.8701 C   0  0  0  0  0  0  0  0  0  0  0  0
  150.1617  141.1686  155.8139 C   0  0  0  0  0  0  0  0  0  0  0  0
  150.9687  140.5490  154.9682 N   0  0  0  0  0  0  0  0  0  0  0  0
  146.7268  134.5423  154.5041 C   0  0  0  0  0  0  0  0  0  0  0  0
  147.0922  135.8964  152.0373 H   0  0  0  0  0  0  0  0  0  0  0  0
  145.7160  136.5962  152.8784 H   0  0  0  0  0  0  0  0  0  0  0  0
  145.4612  135.6418  151.4248 H   0  0  0  0  0  0  0  0  0  0  0  0
  144.8646  134.3768  153.4637 H   0  0  0  0  0  0  0  0  0  0  0  0
  145.9234  132.2980  152.9877 H   0  0  0  0  0  0  0  0  0  0  0  0
  145.7721  133.1331  151.4633 H   0  0  0  0  0  0  0  0  0  0  0  0
  148.0362  132.0804  151.7680 H   0  0  0  0  0  0  0  0  0  0  0  0
  148.1522  133.8061  151.5448 H   0  0  0  0  0  0  0  0  0  0  0  0
  148.2964  132.3196  154.2221 H   0  0  0  0  0  0  0  0  0  0  0  0
  149.6135  133.1242  153.3904 H   0  0  0  0  0  0  0  0  0  0  0  0
  148.6535  135.5514  156.0024 H   0  0  0  0  0  0  0  0  0  0  0  0
  148.8586  133.8247  156.1695 H   0  0  0  0  0  0  0  0  0  0  0  0
  151.0810  134.4894  156.0583 H   0  0  0  0  0  0  0  0  0  0  0  0
  150.7939  134.0612  154.3802 H   0  0  0  0  0  0  0  0  0  0  0  0
  150.3890  136.4511  153.9055 H   0  0  0  0  0  0  0  0  0  0  0  0
  151.5244  138.2531  153.7200 H   0  0  0  0  0  0  0  0  0  0  0  0
  153.9631  138.0412  154.1021 H   0  0  0  0  0  0  0  0  0  0  0  0
  153.8146  138.8367  155.6670 H   0  0  0  0  0  0  0  0  0  0  0  0
  153.4594  139.7221  154.1882 H   0  0  0  0  0  0  0  0  0  0  0  0
  150.2872  138.1874  157.1305 H   0  0  0  0  0  0  0  0  0  0  0  0
  149.0613  140.5572  157.6921 H   0  0  0  0  0  0  0  0  0  0  0  0
  149.9173  142.2053  155.6353 H   0  0  0  0  0  0  0  0  0  0  0  0
  146.4883  135.4792  155.0067 H   0  0  0  0  0  0  0  0  0  0  0  0
  146.4213  133.7436  155.1819 H   0  0  0  0  0  0  0  0  0  0  0  0
  148.4367  135.1739  153.6165 H   0  0  0  0  0  0  0  0  0  0  0  0
  1  2  1  0  0  0  0
  1 20  1  0  0  0  0
  1 21  1  0  0  0  0
  1 22  1  0  0  0  0
  2 19  1  0  0  0  0
  2  3  1  0  0  0  0
  2 23  1  0  0  0  0
  3  4  1  0  0  0  0
  3 24  1  0  0  0  0
  3 25  1  0  0  0  0
  4  5  1  0  0  0  0
  4 26  1  0  0  0  0
  4 27  1  0  0  0  0
  5  6  1  0  0  0  0
  5 28  1  0  0  0  0
  5 29  1  0  0  0  0
  6  7  1  0  0  0  0
  6 19  1  0  0  0  0
  6 44  1  0  0  0  0
  7  8  1  0  0  0  0
  7 30  1  0  0  0  0
  7 31  1  0  0  0  0
  8  9  1  0  0  0  0
  8 32  1  0  0  0  0
  8 33  1  0  0  0  0
  9 10  1  0  0  0  0
  9 34  1  0  0  0  0
 10 11  2  0  0  0  0
 10 12  1  0  0  0  0
 12 13  1  0  0  0  0
 12 14  1  0  0  0  0
 12 35  1  0  0  0  0
 13 36  1  0  0  0  0
 13 37  1  0  0  0  0
 13 38  1  0  0  0  0
 14 18  1  0  0  0  0
 14 15  1  0  0  0  0
 15 16  2  0  0  0  0
 15 39  1  0  0  0  0
 16 17  1  0  0  0  0
 16 40  1  0  0  0  0
 17 18  2  0  0  0  0
 17 41  1  0  0  0  0
 19 42  1  0  0  0  0
 19 43  1  0  0  0  0
M  CHG  1   6   1
M  END
> <s_m_source_file>
AV-unprocessed.smi

> <i_m_source_file_index>
3338

> <i_lp_mmshare_version>
43012

> <i_f3d_flags>
0

> <s_epik_input>
W0NIM11bQ0BASF0xW0NIMl1bQ0gyXVtDSDJdTihbQ0gyXTEpW0NIMl1bQ0gyXVtOSF1DKD1PKVtDQEhdKFtDSDNdKW4yW2NIXVtjSF1bY0hdbjI=

> <s_epik_cmdline>
J2VwaWtfcHl0aG9uJywgJy1waCcsICc3LjAnLCAnLXRuJywgJzgnLCAnLW1hJywgJzIwMCcsICctbWV0YWxfYmluZGluZycsICctaW1hZScsICc8aW5maWxlLm1hZT4nLCAnLW9tYWUnLCAnPG91dGZpbGUubWFlPic=

> <r_lp_tautomer_probability>
1

> <r_epik_Ionization_Penalty>
0.00225707

> <r_epik_Ionization_Penalty_Charging>
0.00223709

> <r_epik_Ionization_Penalty_Neutral>
1.99775e-05

> <r_epik_State_Penalty>
0.00153978

> <r_epik_Charging_Adjusted_Penalty>
0.00377687

> <i_epik_Tot_Q>
1

> <i_epik_Tot_abs_Q>
1

> <r_epik_Metal_State_Penalty>
-0

> <b_epik_Metal_Only>
0

> <s_lp_Force_Field>
OPLS_2005

> <r_lp_Energy>
22.9717

> <b_lp_Chiralities_Consistent>
1

> <s_lp_Variant>
AV-unprocessed.smi:3338-2

> <Gold.Version>
5.8.1

> <Gold.Id.Protein>
6NUR|6NUR_protein|mol2

> <Gold.PLP.Fitness>
46.7925

> <Gold.PLP.PLP>
-30.7339

> <Gold.PLP.part.hbond>
-5.0000

> <Gold.PLP.part.metal>
0.0000

> <Gold.PLP.part.buried>
-2.8709

> <Gold.PLP.part.nonpolar>
-22.6664

> <Gold.PLP.part.repulsive>
0.1845

> <Gold.PLP.ligand.clash>
0.0000

> <Gold.PLP.ligand.torsion>
0.6916

> <Gold.PLP.Chemscore.Hbond>
4.8700

> <Gold.PLP.Chemscore.CHOScore>
0.8991

> <Gold.PLP.Chemscore.Metal>
0.0000

> <Gold.Chemscore.Hbonds>
donor molecule, donor type, donor heavy atom, donor atom, acceptor molecule, acceptor atom, score
      L1  H     6    44       P1  7948  1.69
      P1  H  7989  7998       L1    18  0.99
      P1  H 10752 10764       L1    11  0.05
      L1  C    17    41       P1  8028  0.54

> <Gold.PLP.Chemscore.Internal.Correction>
0.1346

> <Gold.Rescore>
     Score         DG    S(hbond)    S(metal)    S(lipo)     H(rot)  DE(clash)    DE(int)     intcor
     17.92     -18.71       2.97        0.00      66.72       1.76       0.17       0.63       ----

> <Gold.Chemscore.Fitness>
17.9190

> <Gold.Chemscore.DG>
-18.7149

> <Gold.Chemscore.ZeroCoef>
-5.4800

> <Gold.Chemscore.Hbond>
2.9719

> <Gold.Chemscore.Metal>
0.0000

> <Gold.Chemscore.Lipo>
66.7242

> <Gold.Chemscore.Internal_Hbond>
0.0000

> <Gold.Chemscore.DEClash>
0.1668

> <Gold.Chemscore.DEInternal>
0.6291

> <Gold.Chemscore.Rot>
1.7570

> <Gold.Chemscore.Internal.Correction>
   9.000000E+99

> <Gold.Chemscore.Hbonds>
donor molecule, donor type, donor heavy atom, donor atom, acceptor molecule, acceptor atom, score
      L1  H     6    44       P1  7948  0.79
      P1  H  7989  7998       L1    18  0.91

> <Gold.Chemscore.Hbond.Weighted>
-9.9260

> <Gold.Chemscore.Metal.Weighted>
-0.0000

> <Gold.Chemscore.Lipo.Weighted>
-7.8067

> <Gold.Chemscore.Internal_Hbond.Weighted>
0.0000

> <Gold.Chemscore.DEClash.Weighted>
0.1668

> <Gold.Chemscore.DEInternal.Weighted>
0.6291

> <Gold.Chemscore.Rot.Weighted>
4.4979

> <Gold.Chemscore.Internal.Correction.Weighted>
   9.000000E+99

> <Gold.Protein.RotatedTorsions>
[ 6907 6896 6895 6894 ] final  142.92 input  -60.11 | X-H torsion
[ 7974 7965 7964 7962 ] final  104.70 input  175.53 | X-H torsion
[ 8008 7997 7996 7995 ] final   67.74 input   59.86 | X-H torsion
[ 10167 10162 10161 10158 ] final   81.00 input  -65.29 | X-H torsion
[ 10718 10713 10712 10709 ] final  166.44 input   66.30 | X-H torsion
[ 10763 10752 10751 10750 ] final  -24.78 input  -60.55 | X-H torsion
[ 11005 11000 10999 10996 ] final -138.20 input  -57.11 | X-H torsion

> <Gold.Protein.ActiveResidues>
 VAL166  LYS551  ARG553  GLY616  TRP617  ASP618  TYR619  PRO620  LYS621  CYS622 
 ASP623  PHE694  ASN695  SER759  ASP760  ASP761  ALA762  ILE779  LEU786  VAL792 
 PHE793  MET794  SER795  GLU796  ALA797  LYS798  CYS799  TRP800  GLU811  SER814 

> <Gold.Protein.RotatedAtoms>
  152.2127  133.4923  159.5118 H   0  0  0  0  0  0  0  0  0  0  0  0  # atno 6907 bound_to 6896
  150.6994  134.1445  159.4126 H   0  0  0  0  0  0  0  0  0  0  0  0  # atno 6908 bound_to 6896
  151.9365  135.0233  160.0583 H   0  0  0  0  0  0  0  0  0  0  0  0  # atno 6909 bound_to 6896
  145.3294  139.2491  143.3669 H   0  0  0  0  0  0  0  0  0  0  0  0  # atno 7974 bound_to 7965
  155.6975  140.3495  155.4919 H   0  0  0  0  0  0  0  0  0  0  0  0  # atno 8008 bound_to 7997
  155.9470  140.1112  157.1031 H   0  0  0  0  0  0  0  0  0  0  0  0  # atno 8009 bound_to 7997
  154.4114  140.1201  156.4988 H   0  0  0  0  0  0  0  0  0  0  0  0  # atno 8010 bound_to 7997
  139.9438  144.6072  150.8226 H   0  0  0  0  0  0  0  0  0  0  0  0  # atno 10167 bound_to 10162
  157.0659  131.0353  151.2630 H   0  0  0  0  0  0  0  0  0  0  0  0  # atno 10718 bound_to 10713
  153.6892  135.6962  153.5095 H   0  0  0  0  0  0  0  0  0  0  0  0  # atno 10763 bound_to 10752
  153.2426  135.4301  155.0713 H   0  0  0  0  0  0  0  0  0  0  0  0  # atno 10764 bound_to 10752
  154.8377  135.3511  154.6434 H   0  0  0  0  0  0  0  0  0  0  0  0  # atno 10765 bound_to 10752
  140.8638  134.2136  157.4692 H   0  0  0  0  0  0  0  0  0  0  0  0  # atno 11005 bound_to 11000
  146.3051  140.3868  142.8690 LP  0  0  0  0  0  0  0  0  0  0  0  0  # atno 17320 bound_to 7965
  144.8876  140.7482  143.5947 LP  0  0  0  0  0  0  0  0  0  0  0  0  # atno 17321 bound_to 7965
  140.7603  143.3148  151.2758 LP  0  0  0  0  0  0  0  0  0  0  0  0  # atno 17342 bound_to 10162
  139.6683  144.0065  152.2737 LP  0  0  0  0  0  0  0  0  0  0  0  0  # atno 17343 bound_to 10162
  157.4917  130.7826  149.7515 LP  0  0  0  0  0  0  0  0  0  0  0  0  # atno 17370 bound_to 10713
  155.9965  130.3905  150.2778 LP  0  0  0  0  0  0  0  0  0  0  0  0  # atno 17371 bound_to 10713
  139.8708  134.9742  156.4837 LP  0  0  0  0  0  0  0  0  0  0  0  0  # atno 17394 bound_to 11000
  140.8652  133.8029  155.9307 LP  0  0  0  0  0  0  0  0  0  0  0  0  # atno 17395 bound_to 11000

$$$$
