AV-unprocessed.smi:99|AV-procd|sdf|887|dock1
  -GOLD-   2262017373D 1   1.00000     0.00000
 Structure written by MMmdl.
 52 55  0  0  0  0  0  0  0  0  2 V2000
  148.5024  131.0479  150.8821 O   0  0  0  0  0  0  0  0  0  0  0  0
  148.0375  132.1495  151.1828 C   0  0  0  0  0  0  0  0  0  0  0  0
  148.7284  133.0920  151.8522 O   0  0  0  0  0  0  0  0  0  0  0  0
  150.1438  133.1228  151.7739 C   0  0  0  0  0  0  0  0  0  0  0  0
  150.7237  133.3089  153.1791 C   0  0  2  0  0  0  0  0  0  0  0  0
  150.2887  134.5403  153.7299 O   0  0  0  0  0  0  0  0  0  0  0  0
  151.1665  134.9076  154.7470 C   0  0  2  0  0  0  0  0  0  0  0  0
  151.2357  136.4184  154.7977 N   0  0  0  0  0  0  0  0  0  0  0  0
  151.3266  137.1541  153.6285 C   0  0  0  0  0  0  0  0  0  0  0  0
  151.3952  138.5011  153.6509 C   0  0  0  0  0  0  0  0  0  0  0  0
  151.3762  139.1982  154.9339 C   0  0  0  0  0  0  0  0  0  0  0  0
  151.4266  140.4269  154.9451 O   0  0  0  0  0  0  0  0  0  0  0  0
  151.3042  138.4482  156.0719 N   0  5  0  0  0  0  0  0  0  0  0  0
  151.2433  137.0844  156.0530 C   0  0  0  0  0  0  0  0  0  0  0  0
  151.2015  136.3980  157.0747 O   0  0  0  0  0  0  0  0  0  0  0  0
  152.5285  134.2365  154.4567 C   0  0  2  0  0  0  0  0  0  0  0  0
  153.6012  135.1362  154.2418 O   0  0  0  0  0  0  0  0  0  0  0  0
  152.2471  133.4364  153.1875 C   0  0  1  0  0  0  0  0  0  0  0  0
  152.8239  132.1375  153.2528 O   0  0  0  0  0  0  0  0  0  0  0  0
  154.0555  131.9544  153.7742 C   0  0  0  0  0  0  0  0  0  0  0  0
  154.8632  132.8672  153.9578 O   0  0  0  0  0  0  0  0  0  0  0  0
  154.3373  130.5287  154.1087 C   0  0  0  0  0  0  0  0  0  0  0  0
  155.5824  130.1855  154.6854 C   0  0  0  0  0  0  0  0  0  0  0  0
  155.8782  128.8474  155.0103 C   0  0  0  0  0  0  0  0  0  0  0  0
  154.9328  127.8356  154.7614 C   0  0  0  0  0  0  0  0  0  0  0  0
  153.6907  128.1638  154.1876 C   0  0  0  0  0  0  0  0  0  0  0  0
  153.3925  129.5017  153.8630 C   0  0  0  0  0  0  0  0  0  0  0  0
  146.6491  132.5771  150.8451 C   0  0  0  0  0  0  0  0  0  0  0  0
  146.1351  133.7689  151.4077 C   0  0  0  0  0  0  0  0  0  0  0  0
  144.8281  134.1989  151.1065 C   0  0  0  0  0  0  0  0  0  0  0  0
  144.0189  133.4416  150.2397 C   0  0  0  0  0  0  0  0  0  0  0  0
  144.5179  132.2535  149.6749 C   0  0  0  0  0  0  0  0  0  0  0  0
  145.8250  131.8224  149.9741 C   0  0  0  0  0  0  0  0  0  0  0  0
  150.4921  132.1786  151.3527 H   0  0  0  0  0  0  0  0  0  0  0  0
  150.4796  133.9230  151.1126 H   0  0  0  0  0  0  0  0  0  0  0  0
  150.4135  132.4980  153.8414 H   0  0  0  0  0  0  0  0  0  0  0  0
  150.7269  134.5772  155.6895 H   0  0  0  0  0  0  0  0  0  0  0  0
  151.3515  136.6464  152.6757 H   0  0  0  0  0  0  0  0  0  0  0  0
  151.4683  139.0596  152.7293 H   0  0  0  0  0  0  0  0  0  0  0  0
  152.7629  133.5821  155.2976 H   0  0  0  0  0  0  0  0  0  0  0  0
  154.2059  135.0618  154.9643 H   0  0  0  0  0  0  0  0  0  0  0  0
  152.5642  133.9900  152.3016 H   0  0  0  0  0  0  0  0  0  0  0  0
  156.3249  130.9447  154.8853 H   0  0  0  0  0  0  0  0  0  0  0  0
  156.8324  128.5975  155.4507 H   0  0  0  0  0  0  0  0  0  0  0  0
  155.1600  126.8093  155.0098 H   0  0  0  0  0  0  0  0  0  0  0  0
  152.9646  127.3877  153.9951 H   0  0  0  0  0  0  0  0  0  0  0  0
  152.4302  129.7187  153.4226 H   0  0  0  0  0  0  0  0  0  0  0  0
  146.7380  134.3670  152.0760 H   0  0  0  0  0  0  0  0  0  0  0  0
  144.4468  135.1109  151.5414 H   0  0  0  0  0  0  0  0  0  0  0  0
  143.0168  133.7714  150.0085 H   0  0  0  0  0  0  0  0  0  0  0  0
  143.8974  131.6704  149.0105 H   0  0  0  0  0  0  0  0  0  0  0  0
  146.1763  130.9055  149.5237 H   0  0  0  0  0  0  0  0  0  0  0  0
  1  2  2  0  0  0  0
  2  3  1  0  0  0  0
  2 28  1  0  0  0  0
  3  4  1  0  0  0  0
  4  5  1  0  0  0  0
  4 34  1  0  0  0  0
  4 35  1  0  0  0  0
  5 18  1  0  0  0  0
  5  6  1  0  0  0  0
  5 36  1  0  0  0  0
  6  7  1  0  0  0  0
  7  8  1  0  0  0  0
  7 16  1  0  0  0  0
  7 37  1  0  0  0  0
  8 14  1  0  0  0  0
  8  9  1  0  0  0  0
  9 10  2  0  0  0  0
  9 38  1  0  0  0  0
 10 11  1  0  0  0  0
 10 39  1  0  0  0  0
 11 12  2  0  0  0  0
 11 13  1  0  0  0  0
 13 14  1  0  0  0  0
 14 15  2  0  0  0  0
 16 17  1  0  0  0  0
 16 18  1  0  0  0  0
 16 40  1  0  0  0  0
 17 41  1  0  0  0  0
 18 19  1  0  0  0  0
 18 42  1  0  0  0  0
 19 20  1  0  0  0  0
 20 21  2  0  0  0  0
 20 22  1  0  0  0  0
 22 27  1  0  0  0  0
 22 23  2  0  0  0  0
 23 24  1  0  0  0  0
 23 43  1  0  0  0  0
 24 25  2  0  0  0  0
 24 44  1  0  0  0  0
 25 26  1  0  0  0  0
 25 45  1  0  0  0  0
 26 27  2  0  0  0  0
 26 46  1  0  0  0  0
 27 47  1  0  0  0  0
 28 33  1  0  0  0  0
 28 29  2  0  0  0  0
 29 30  1  0  0  0  0
 29 48  1  0  0  0  0
 30 31  2  0  0  0  0
 30 49  1  0  0  0  0
 31 32  1  0  0  0  0
 31 50  1  0  0  0  0
 32 33  2  0  0  0  0
 32 51  1  0  0  0  0
 33 52  1  0  0  0  0
M  CHG  1  13  -1
M  END
> <s_m_source_file>
AV-unprocessed.smi

> <i_m_source_file_index>
99

> <i_lp_mmshare_version>
43012

> <i_f3d_flags>
0

> <s_epik_input>
W2NIXTFbY0hdW2NIXVtjSF1bY0hdYzFDKD1PKU9bQ0gyXVtDQEBIXTJPW0NAQEhdKG4zW2NIXVtjSF1jKD1PKVtuSF1jMz1PKVtDQEBIXShbT0hdKVtDQEhdMk9DKD1PKWM0W2NIXVtjSF1bY0hdW2NIXVtjSF00

> <s_epik_cmdline>
J2VwaWtfcHl0aG9uJywgJy1waCcsICc3LjAnLCAnLXRuJywgJzgnLCAnLW1hJywgJzIwMCcsICctbWV0YWxfYmluZGluZycsICctaW1hZScsICc8aW5maWxlLm1hZT4nLCAnLW9tYWUnLCAnPG91dGZpbGUubWFlPic=

> <r_lp_tautomer_probability>
1

> <r_epik_Ionization_Penalty>
2.89159

> <r_epik_Ionization_Penalty_Charging>
2.1077e-08

> <r_epik_Ionization_Penalty_Neutral>
2.89159

> <r_epik_State_Penalty>
2.88671

> <r_epik_Charging_Adjusted_Penalty>
2.88671

> <i_epik_Tot_Q>
-1

> <i_epik_Tot_abs_Q>
1

> <r_epik_Metal_State_Penalty>
0.0727308

> <b_epik_Metal_Only>
1

> <s_epik_Chemistry_Notes>
This compound has an ester and may undergo hydrolysis at high or low pH. This compound contains an acetal/aminal-like group ( X-CH(R)-Y where X, Y are N, S, or O) that may be acid/base labile, releasing an aldehyde.

> <s_lp_Force_Field>
OPLS_2005

> <r_lp_Energy>
47.3257

> <b_lp_Chiralities_Consistent>
1

> <s_lp_Variant>
AV-unprocessed.smi:99-23

> <Gold.Version>
5.8.1

> <Gold.Id.Protein>
6NUR|6NUR_protein|mol2

> <Gold.PLP.Fitness>
50.7602

> <Gold.PLP.PLP>
-41.3012

> <Gold.PLP.part.hbond>
-2.7742

> <Gold.PLP.part.metal>
0.0000

> <Gold.PLP.part.buried>
-6.0261

> <Gold.PLP.part.nonpolar>
-33.6638

> <Gold.PLP.part.repulsive>
0.4244

> <Gold.PLP.ligand.clash>
0.0000

> <Gold.PLP.ligand.torsion>
1.6316

> <Gold.PLP.Chemscore.Hbond>
2.9675

> <Gold.PLP.Chemscore.CHOScore>
0.9944

> <Gold.PLP.Chemscore.Metal>
0.0000

> <Gold.Chemscore.Hbonds>
donor molecule, donor type, donor heavy atom, donor atom, acceptor molecule, acceptor atom, score
      P1  H  7989  7998       L1    12  0.95

> <Gold.PLP.Chemscore.Internal.Correction>
0.8365

> <Gold.Rescore>
     Score         DG    S(hbond)    S(metal)    S(lipo)     H(rot)  DE(clash)    DE(int)     intcor
     12.00     -17.18       2.65        0.00      92.98       3.13       0.04       5.15       ----

> <Gold.Chemscore.Fitness>
11.9952

> <Gold.Chemscore.DG>
-17.1782

> <Gold.Chemscore.ZeroCoef>
-5.4800

> <Gold.Chemscore.Hbond>
2.6479

> <Gold.Chemscore.Metal>
0.0000

> <Gold.Chemscore.Lipo>
92.9808

> <Gold.Chemscore.Internal_Hbond>
0.0000

> <Gold.Chemscore.DEClash>
0.0351

> <Gold.Chemscore.DEInternal>
5.1479

> <Gold.Chemscore.Rot>
3.1346

> <Gold.Chemscore.Internal.Correction>
   9.000000E+99

> <Gold.Chemscore.Hbonds>
donor molecule, donor type, donor heavy atom, donor atom, acceptor molecule, acceptor atom, score
      P1  H  7989  7998       L1    12  0.51

> <Gold.Chemscore.Hbond.Weighted>
-8.8440

> <Gold.Chemscore.Metal.Weighted>
-0.0000

> <Gold.Chemscore.Lipo.Weighted>
-10.8788

> <Gold.Chemscore.Internal_Hbond.Weighted>
0.0000

> <Gold.Chemscore.DEClash.Weighted>
0.0351

> <Gold.Chemscore.DEInternal.Weighted>
5.1479

> <Gold.Chemscore.Rot.Weighted>
8.0246

> <Gold.Chemscore.Internal.Correction.Weighted>
   9.000000E+99

> <Gold.Protein.RotatedTorsions>
[ 6907 6896 6895 6894 ] final   32.79 input  -60.11 | X-H torsion
[ 7974 7965 7964 7962 ] final  -24.53 input  175.53 | X-H torsion
[ 8008 7997 7996 7995 ] final   22.33 input   59.86 | X-H torsion
[ 10167 10162 10161 10158 ] final  -93.37 input  -65.29 | X-H torsion
[ 10718 10713 10712 10709 ] final  -16.39 input   66.30 | X-H torsion
[ 10763 10752 10751 10750 ] final   97.84 input  -60.55 | X-H torsion
[ 11005 11000 10999 10996 ] final  115.01 input  -57.11 | X-H torsion

> <Gold.Protein.ActiveResidues>
 VAL166  LYS551  ARG553  GLY616  TRP617  ASP618  TYR619  PRO620  LYS621  CYS622 
 ASP623  PHE694  ASN695  SER759  ASP760  ASP761  ALA762  ILE779  LEU786  VAL792 
 PHE793  MET794  SER795  GLU796  ALA797  LYS798  CYS799  TRP800  GLU811  SER814 

> <Gold.Protein.RotatedAtoms>
  152.0794  134.9481  160.0573 H   0  0  0  0  0  0  0  0  0  0  0  0  # atno 6907 bound_to 6896
  152.0776  133.4132  159.4495 H   0  0  0  0  0  0  0  0  0  0  0  0  # atno 6908 bound_to 6896
  150.6836  134.2939  159.4721 H   0  0  0  0  0  0  0  0  0  0  0  0  # atno 6909 bound_to 6896
  146.1549  140.4764  142.8596 H   0  0  0  0  0  0  0  0  0  0  0  0  # atno 7974 bound_to 7965
  154.9641  140.3081  155.5017 H   0  0  0  0  0  0  0  0  0  0  0  0  # atno 8008 bound_to 7997
  156.2974  140.2296  156.4667 H   0  0  0  0  0  0  0  0  0  0  0  0  # atno 8009 bound_to 7997
  154.7938  140.0438  157.1209 H   0  0  0  0  0  0  0  0  0  0  0  0  # atno 8010 bound_to 7997
  140.3253  143.3025  152.0001 H   0  0  0  0  0  0  0  0  0  0  0  0  # atno 10167 bound_to 10162
  156.5883  130.4792  149.6290 H   0  0  0  0  0  0  0  0  0  0  0  0  # atno 10718 bound_to 10713
  153.2817  135.4169  155.1085 H   0  0  0  0  0  0  0  0  0  0  0  0  # atno 10763 bound_to 10752
  154.8491  135.3497  154.6102 H   0  0  0  0  0  0  0  0  0  0  0  0  # atno 10764 bound_to 10752
  153.6523  135.7052  153.5262 H   0  0  0  0  0  0  0  0  0  0  0  0  # atno 10765 bound_to 10752
  139.8997  134.9577  156.6979 H   0  0  0  0  0  0  0  0  0  0  0  0  # atno 11005 bound_to 11000
  144.7950  140.6105  143.6516 LP  0  0  0  0  0  0  0  0  0  0  0  0  # atno 17320 bound_to 7965
  145.4734  139.1501  143.3802 LP  0  0  0  0  0  0  0  0  0  0  0  0  # atno 17321 bound_to 7965
  139.4866  144.6278  151.7130 LP  0  0  0  0  0  0  0  0  0  0  0  0  # atno 17342 bound_to 10162
  140.5446  144.0524  150.6102 LP  0  0  0  0  0  0  0  0  0  0  0  0  # atno 17343 bound_to 10162
  156.2572  130.6941  151.1698 LP  0  0  0  0  0  0  0  0  0  0  0  0  # atno 17370 bound_to 10713
  157.7310  131.0612  150.5699 LP  0  0  0  0  0  0  0  0  0  0  0  0  # atno 17371 bound_to 10713
  140.7173  133.9171  155.8124 LP  0  0  0  0  0  0  0  0  0  0  0  0  # atno 17394 bound_to 11000
  141.0254  134.0830  157.4074 LP  0  0  0  0  0  0  0  0  0  0  0  0  # atno 17395 bound_to 11000

$$$$
