AV-unprocessed.smi:2832|AV-procd|sdf|10912|dock5
  -GOLD-   2272015363D 1   1.00000     0.00000
 Structure written by MMmdl.
 33 33  0  0  0  0  0  0  0  0  2 V2000
  153.1786  141.2254  160.3777 C   0  0  0  0  0  0  0  0  0  0  0  0
  153.1505  139.7998  159.8165 C   0  0  0  0  0  0  0  0  0  0  0  0
  152.4952  139.7335  158.4178 C   0  0  0  0  0  0  0  0  0  0  0  0
  152.2827  138.3175  157.7927 C   0  0  1  0  0  0  0  0  0  0  0  0
  151.3854  137.4793  158.7319 C   0  0  0  0  0  0  0  0  0  0  0  0
  151.6427  138.3114  156.4651 N   0  0  0  0  0  0  0  0  0  0  0  0
  152.1602  138.4464  155.2301 C   0  0  0  0  0  0  0  0  0  0  0  0
  153.3337  138.7262  154.9884 O   0  0  0  0  0  0  0  0  0  0  0  0
  151.1817  138.2470  154.0715 C   0  0  0  0  0  0  0  0  0  0  0  0
  150.0693  139.1783  154.1514 N   0  0  0  0  0  0  0  0  0  0  0  0
  148.7323  138.9405  153.9070 C   0  0  0  0  0  0  0  0  0  0  0  0
  148.0669  140.1162  154.1060 C   0  0  0  0  0  0  0  0  0  0  0  0
  149.0950  141.0273  154.4772 C   0  0  0  0  0  0  0  0  0  0  0  0
  150.2913  140.4630  154.5063 N   0  0  0  0  0  0  0  0  0  0  0  0
  153.6735  137.6501  157.6449 C   0  0  0  0  0  0  0  0  0  0  0  0
  154.6666  138.2555  158.1070 O   0  0  0  0  0  0  0  0  0  0  0  0
  153.7338  136.5448  157.0591 O   0  5  0  0  0  0  0  0  0  0  0  0
  153.6284  141.2422  161.3705 H   0  0  0  0  0  0  0  0  0  0  0  0
  152.1718  141.6357  160.4609 H   0  0  0  0  0  0  0  0  0  0  0  0
  153.7610  141.8880  159.7369 H   0  0  0  0  0  0  0  0  0  0  0  0
  154.1691  139.4161  159.7844 H   0  0  0  0  0  0  0  0  0  0  0  0
  152.6087  139.1639  160.5164 H   0  0  0  0  0  0  0  0  0  0  0  0
  151.5260  140.2307  158.4853 H   0  0  0  0  0  0  0  0  0  0  0  0
  153.0634  140.3549  157.7259 H   0  0  0  0  0  0  0  0  0  0  0  0
  151.7782  137.4452  159.7489 H   0  0  0  0  0  0  0  0  0  0  0  0
  151.2856  136.4511  158.3806 H   0  0  0  0  0  0  0  0  0  0  0  0
  150.3812  137.9004  158.7916 H   0  0  0  0  0  0  0  0  0  0  0  0
  150.6564  138.0950  156.4947 H   0  0  0  0  0  0  0  0  0  0  0  0
  151.6925  138.3967  153.1195 H   0  0  0  0  0  0  0  0  0  0  0  0
  150.8073  137.2219  154.0784 H   0  0  0  0  0  0  0  0  0  0  0  0
  148.3725  137.9659  153.6117 H   0  0  0  0  0  0  0  0  0  0  0  0
  147.0078  140.2981  154.0011 H   0  0  0  0  0  0  0  0  0  0  0  0
  149.0084  142.0748  154.7258 H   0  0  0  0  0  0  0  0  0  0  0  0
  1  2  1  0  0  0  0
  1 18  1  0  0  0  0
  1 19  1  0  0  0  0
  1 20  1  0  0  0  0
  2  3  1  0  0  0  0
  2 21  1  0  0  0  0
  2 22  1  0  0  0  0
  3  4  1  0  0  0  0
  3 23  1  0  0  0  0
  3 24  1  0  0  0  0
  4  5  1  0  0  0  0
  4  6  1  0  0  0  0
  4 15  1  0  0  0  0
  5 25  1  0  0  0  0
  5 26  1  0  0  0  0
  5 27  1  0  0  0  0
  6  7  1  0  0  0  0
  6 28  1  0  0  0  0
  7  8  2  0  0  0  0
  7  9  1  0  0  0  0
  9 10  1  0  0  0  0
  9 29  1  0  0  0  0
  9 30  1  0  0  0  0
 10 14  1  0  0  0  0
 10 11  1  0  0  0  0
 11 12  2  0  0  0  0
 11 31  1  0  0  0  0
 12 13  1  0  0  0  0
 12 32  1  0  0  0  0
 13 14  2  0  0  0  0
 13 33  1  0  0  0  0
 15 16  2  0  0  0  0
 15 17  1  0  0  0  0
M  CHG  1  17  -1
M  END
> <s_m_source_file>
AV-unprocessed.smi

> <i_m_source_file_index>
2832

> <i_lp_mmshare_version>
43012

> <i_f3d_flags>
0

> <s_epik_input>
W0NIM11bQ0gyXVtDSDJdW0NAXShbQ0gzXSkoQyg9TylbT0hdKVtOSF1DKD1PKVtDSDJdbjFbY0hdW2NIXVtjSF1uMQ==

> <s_epik_cmdline>
J2VwaWtfcHl0aG9uJywgJy1waCcsICc3LjAnLCAnLXRuJywgJzgnLCAnLW1hJywgJzIwMCcsICctbWV0YWxfYmluZGluZycsICctaW1hZScsICc8aW5maWxlLm1hZT4nLCAnLW9tYWUnLCAnPG91dGZpbGUubWFlPic=

> <r_lp_tautomer_probability>
1

> <r_epik_Ionization_Penalty>
0.000287256

> <r_epik_Ionization_Penalty_Charging>
0.00026921

> <r_epik_Ionization_Penalty_Neutral>
1.80463e-05

> <r_epik_State_Penalty>
-0

> <r_epik_Charging_Adjusted_Penalty>
0.00026921

> <i_epik_Tot_Q>
-1

> <i_epik_Tot_abs_Q>
1

> <r_epik_Metal_State_Penalty>
-0

> <b_epik_Metal_Only>
0

> <s_lp_Force_Field>
OPLS_2005

> <r_lp_Energy>
4.0175

> <b_lp_Chiralities_Consistent>
1

> <s_lp_Variant>
AV-unprocessed.smi:2832-1

> <Gold.Version>
5.8.1

> <Gold.Id.Protein>
6NUR|6NUR_protein|mol2

> <Gold.PLP.Fitness>
49.1997

> <Gold.PLP.PLP>
-29.6721

> <Gold.PLP.part.hbond>
-4.0000

> <Gold.PLP.part.metal>
0.0000

> <Gold.PLP.part.buried>
-1.2511

> <Gold.PLP.part.nonpolar>
-22.7947

> <Gold.PLP.part.repulsive>
0.2003

> <Gold.PLP.ligand.clash>
0.0000

> <Gold.PLP.ligand.torsion>
0.9682

> <Gold.PLP.Chemscore.Hbond>
5.6785

> <Gold.PLP.Chemscore.CHOScore>
1.4566

> <Gold.PLP.Chemscore.Metal>
0.0000

> <Gold.Chemscore.Hbonds>
donor molecule, donor type, donor heavy atom, donor atom, acceptor molecule, acceptor atom, score
      P1  H  7989  7998       L1    14  0.96
      P1  H  7997  8008       L1     8  0.73
      P1  H  7997  8010       L1    16  1.86
      P1  H 10752 10765       L1    17  1.92
      L1  C    11    31       P1  7948  1.00
      L1  C    13    33       P1  8028  0.34

> <Gold.PLP.Chemscore.Internal.Correction>
0.0586

> <Gold.Rescore>
     Score         DG    S(hbond)    S(metal)    S(lipo)     H(rot)  DE(clash)    DE(int)     intcor
     12.68     -14.91       2.69        0.00      57.81       2.47       0.02       2.21       ----

> <Gold.Chemscore.Fitness>
12.6828

> <Gold.Chemscore.DG>
-14.9077

> <Gold.Chemscore.ZeroCoef>
-5.4800

> <Gold.Chemscore.Hbond>
2.6926

> <Gold.Chemscore.Metal>
0.0000

> <Gold.Chemscore.Lipo>
57.8128

> <Gold.Chemscore.Internal_Hbond>
0.0000

> <Gold.Chemscore.DEClash>
0.0155

> <Gold.Chemscore.DEInternal>
2.2093

> <Gold.Chemscore.Rot>
2.4726

> <Gold.Chemscore.Internal.Correction>
   9.000000E+99

> <Gold.Chemscore.Hbonds>
donor molecule, donor type, donor heavy atom, donor atom, acceptor molecule, acceptor atom, score
      P1  H  7989  7998       L1    14  0.32
      P1  H  7997  8008       L1     8  0.71
      P1  H  7997  8010       L1    16  0.82
      P1  H 10752 10765       L1    17  0.88

> <Gold.Chemscore.Hbond.Weighted>
-8.9933

> <Gold.Chemscore.Metal.Weighted>
-0.0000

> <Gold.Chemscore.Lipo.Weighted>
-6.7641

> <Gold.Chemscore.Internal_Hbond.Weighted>
0.0000

> <Gold.Chemscore.DEClash.Weighted>
0.0155

> <Gold.Chemscore.DEInternal.Weighted>
2.2093

> <Gold.Chemscore.Rot.Weighted>
6.3297

> <Gold.Chemscore.Internal.Correction.Weighted>
   9.000000E+99

> <Gold.Protein.RotatedTorsions>
[ 6907 6896 6895 6894 ] final  165.37 input  -60.11 | X-H torsion
[ 7974 7965 7964 7962 ] final -176.55 input  175.53 | X-H torsion
[ 8008 7997 7996 7995 ] final    2.71 input   59.86 | X-H torsion
[ 10167 10162 10161 10158 ] final  -27.70 input  -65.29 | X-H torsion
[ 10718 10713 10712 10709 ] final   -2.92 input   66.30 | X-H torsion
[ 10763 10752 10751 10750 ] final -110.10 input  -60.55 | X-H torsion
[ 11005 11000 10999 10996 ] final   35.97 input  -57.11 | X-H torsion

> <Gold.Protein.ActiveResidues>
 VAL166  LYS551  ARG553  GLY616  TRP617  ASP618  TYR619  PRO620  LYS621  CYS622 
 ASP623  PHE694  ASN695  SER759  ASP760  ASP761  ALA762  ILE779  LEU786  VAL792 
 PHE793  MET794  SER795  GLU796  ALA797  LYS798  CYS799  TRP800  GLU811  SER814 

> <Gold.Protein.RotatedAtoms>
  151.8955  133.3526  159.3812 H   0  0  0  0  0  0  0  0  0  0  0  0  # atno 6907 bound_to 6896
  150.7092  134.4880  159.5511 H   0  0  0  0  0  0  0  0  0  0  0  0  # atno 6908 bound_to 6896
  152.2459  134.8182  160.0504 H   0  0  0  0  0  0  0  0  0  0  0  0  # atno 6909 bound_to 6896
  144.7127  140.1153  143.6408 H   0  0  0  0  0  0  0  0  0  0  0  0  # atno 7974 bound_to 7965
  154.6948  140.2661  155.6777 H   0  0  0  0  0  0  0  0  0  0  0  0  # atno 8008 bound_to 7997
  156.2745  140.2784  156.1462 H   0  0  0  0  0  0  0  0  0  0  0  0  # atno 8009 bound_to 7997
  155.0846  140.0373  157.2640 H   0  0  0  0  0  0  0  0  0  0  0  0  # atno 8010 bound_to 7997
  140.7275  143.4071  151.1167 H   0  0  0  0  0  0  0  0  0  0  0  0  # atno 10167 bound_to 10162
  156.7837  130.5339  149.5747 H   0  0  0  0  0  0  0  0  0  0  0  0  # atno 10718 bound_to 10713
  154.8230  135.4576  154.0833 H   0  0  0  0  0  0  0  0  0  0  0  0  # atno 10763 bound_to 10752
  153.2172  135.6889  153.8050 H   0  0  0  0  0  0  0  0  0  0  0  0  # atno 10764 bound_to 10752
  153.7480  135.3302  155.3293 H   0  0  0  0  0  0  0  0  0  0  0  0  # atno 10765 bound_to 10752
  140.2373  134.3457  155.7939 H   0  0  0  0  0  0  0  0  0  0  0  0  # atno 11005 bound_to 11000
  145.9419  139.2675  143.1263 LP  0  0  0  0  0  0  0  0  0  0  0  0  # atno 17320 bound_to 7965
  145.9415  140.8976  143.0305 LP  0  0  0  0  0  0  0  0  0  0  0  0  # atno 17321 bound_to 7965
  139.7699  143.8509  152.3118 LP  0  0  0  0  0  0  0  0  0  0  0  0  # atno 17342 bound_to 10162
  139.8424  144.7203  150.9314 LP  0  0  0  0  0  0  0  0  0  0  0  0  # atno 17343 bound_to 10162
  156.1202  130.6104  151.0182 LP  0  0  0  0  0  0  0  0  0  0  0  0  # atno 17370 bound_to 10713
  157.6634  131.0876  150.7785 LP  0  0  0  0  0  0  0  0  0  0  0  0  # atno 17371 bound_to 10713
  141.2213  133.7279  156.8828 LP  0  0  0  0  0  0  0  0  0  0  0  0  # atno 17394 bound_to 11000
  140.1689  134.9113  157.2809 LP  0  0  0  0  0  0  0  0  0  0  0  0  # atno 17395 bound_to 11000

$$$$
