AV-unprocessed.smi:910|AV-procd|sdf|4130|dock8
  -GOLD-   22720 2 33D 1   1.00000     0.00000
 Structure written by MMmdl.
 47 48  0  0  0  0  0  0  0  0  2 V2000
  149.0801  132.1136  153.3351 C   0  0  0  0  0  0  0  0  0  0  0  0
  149.4440  133.2600  154.2256 C   0  0  0  0  0  0  0  0  0  0  0  0
  149.3846  134.6076  153.9580 N   0  3  0  0  0  0  0  0  0  0  0  0
  149.8030  135.2907  155.0205 C   0  0  0  0  0  0  0  0  0  0  0  0
  149.8493  136.7015  155.0903 N   0  0  0  0  0  0  0  0  0  0  0  0
  150.9128  137.4222  155.4748 C   0  0  0  0  0  0  0  0  0  0  0  0
  152.0382  136.9580  155.6611 O   0  0  0  0  0  0  0  0  0  0  0  0
  150.6004  138.7150  155.6509 N   0  0  0  0  0  0  0  0  0  0  0  0
  151.4992  139.7187  156.2133 C   0  0  0  0  0  0  0  0  0  0  0  0
  150.7650  141.0477  156.4508 C   0  0  0  0  0  0  0  0  0  0  0  0
  151.4929  141.8103  157.4008 O   0  0  0  0  0  0  0  0  0  0  0  0
  150.9012  141.8969  158.6904 C   0  0  2  0  0  0  0  0  0  0  0  0
  150.0791  143.1982  158.7298 C   0  0  0  0  0  0  0  0  0  0  0  0
  150.9738  144.4453  158.6231 C   0  0  0  0  0  0  0  0  0  0  0  0
  152.0593  144.4477  159.7095 C   0  0  0  0  0  0  0  0  0  0  0  0
  152.8915  143.1565  159.6704 C   0  0  0  0  0  0  0  0  0  0  0  0
  151.9993  141.9035  159.7828 C   0  0  2  0  0  0  0  0  0  0  0  0
  152.8356  140.6150  159.8011 C   0  0  0  0  0  0  0  0  0  0  0  0
  150.1485  134.4444  156.0275 O   0  0  0  0  0  0  0  0  0  0  0  0
  149.9180  133.1834  155.5178 C   0  0  0  0  0  0  0  0  0  0  0  0
  150.2108  132.0295  156.4158 C   0  0  0  0  0  0  0  0  0  0  0  0
  149.9080  131.4108  153.2396 H   0  0  0  0  0  0  0  0  0  0  0  0
  148.8214  132.4555  152.3327 H   0  0  0  0  0  0  0  0  0  0  0  0
  148.2238  131.5660  153.7292 H   0  0  0  0  0  0  0  0  0  0  0  0
  149.0646  134.9813  153.0736 H   0  0  0  0  0  0  0  0  0  0  0  0
  149.6551  139.0124  155.4579 H   0  0  0  0  0  0  0  0  0  0  0  0
  151.9578  139.3606  157.1367 H   0  0  0  0  0  0  0  0  0  0  0  0
  152.3122  139.8740  155.5041 H   0  0  0  0  0  0  0  0  0  0  0  0
  150.6912  141.6108  155.5196 H   0  0  0  0  0  0  0  0  0  0  0  0
  149.7482  140.8554  156.7954 H   0  0  0  0  0  0  0  0  0  0  0  0
  150.2199  141.0607  158.8606 H   0  0  0  0  0  0  0  0  0  0  0  0
  149.3443  143.1987  157.9244 H   0  0  0  0  0  0  0  0  0  0  0  0
  149.5128  143.2406  159.6611 H   0  0  0  0  0  0  0  0  0  0  0  0
  151.4429  144.4785  157.6388 H   0  0  0  0  0  0  0  0  0  0  0  0
  150.3653  145.3464  158.7037 H   0  0  0  0  0  0  0  0  0  0  0  0
  152.7101  145.3132  159.5823 H   0  0  0  0  0  0  0  0  0  0  0  0
  151.5939  144.5524  160.6902 H   0  0  0  0  0  0  0  0  0  0  0  0
  153.4674  143.1224  158.7453 H   0  0  0  0  0  0  0  0  0  0  0  0
  153.6191  143.1701  160.4824 H   0  0  0  0  0  0  0  0  0  0  0  0
  151.4894  141.9559  160.7459 H   0  0  0  0  0  0  0  0  0  0  0  0
  153.4236  140.5059  158.8901 H   0  0  0  0  0  0  0  0  0  0  0  0
  152.1997  139.7348  159.8986 H   0  0  0  0  0  0  0  0  0  0  0  0
  153.5301  140.6132  160.6417 H   0  0  0  0  0  0  0  0  0  0  0  0
  149.8187  131.1001  156.0028 H   0  0  0  0  0  0  0  0  0  0  0  0
  149.7587  132.1784  157.3966 H   0  0  0  0  0  0  0  0  0  0  0  0
  151.2858  131.9114  156.5525 H   0  0  0  0  0  0  0  0  0  0  0  0
  148.9860  137.1927  154.9119 H   0  0  0  0  0  0  0  0  0  0  0  0
  1 22  1  0  0  0  0
  1 23  1  0  0  0  0
  1 24  1  0  0  0  0
  1  2  1  0  0  0  0
  2  3  1  0  0  0  0
  2 20  2  0  0  0  0
  3 25  1  0  0  0  0
  3  4  2  0  0  0  0
  4 19  1  0  0  0  0
  4  5  1  0  0  0  0
  5  6  1  0  0  0  0
  5 47  1  0  0  0  0
  6  8  1  0  0  0  0
  6  7  2  0  0  0  0
  8  9  1  0  0  0  0
  8 26  1  0  0  0  0
  9 10  1  0  0  0  0
  9 27  1  0  0  0  0
  9 28  1  0  0  0  0
 10 11  1  0  0  0  0
 10 29  1  0  0  0  0
 10 30  1  0  0  0  0
 11 12  1  0  0  0  0
 12 17  1  0  0  0  0
 12 13  1  0  0  0  0
 12 31  1  0  0  0  0
 13 14  1  0  0  0  0
 13 32  1  0  0  0  0
 13 33  1  0  0  0  0
 14 15  1  0  0  0  0
 14 34  1  0  0  0  0
 14 35  1  0  0  0  0
 15 16  1  0  0  0  0
 15 36  1  0  0  0  0
 15 37  1  0  0  0  0
 16 17  1  0  0  0  0
 16 38  1  0  0  0  0
 16 39  1  0  0  0  0
 17 18  1  0  0  0  0
 17 40  1  0  0  0  0
 18 41  1  0  0  0  0
 18 42  1  0  0  0  0
 18 43  1  0  0  0  0
 19 20  1  0  0  0  0
 20 21  1  0  0  0  0
 21 44  1  0  0  0  0
 21 45  1  0  0  0  0
 21 46  1  0  0  0  0
M  CHG  1   3   1
M  END
> <s_m_source_file>
AV-unprocessed.smi

> <i_m_source_file_index>
910

> <i_lp_mmshare_version>
43012

> <i_f3d_flags>
0

> <s_epik_input>
W0NIM11jMW5jKG9jMVtDSDNdKVtOSF1DKD1PKVtOSF1bQ0gyXVtDSDJdT1tDQEBIXTJbQ0gyXVtDSDJdW0NIMl1bQ0gyXVtDQEhdMltDSDNd

> <s_epik_cmdline>
J2VwaWtfcHl0aG9uJywgJy1waCcsICc3LjAnLCAnLXRuJywgJzgnLCAnLW1hJywgJzIwMCcsICctbWV0YWxfYmluZGluZycsICctaW1hZScsICc8aW5maWxlLm1hZT4nLCAnLW9tYWUnLCAnPG91dGZpbGUubWFlPic=

> <r_epik_Ionization_Penalty>
7.32931

> <r_epik_Ionization_Penalty_Charging>
7.12214

> <r_epik_Ionization_Penalty_Neutral>
0.207166

> <r_epik_State_Penalty>
2.61278

> <r_epik_Charging_Adjusted_Penalty>
9.73492

> <i_epik_Tot_Q>
1

> <i_epik_Tot_abs_Q>
1

> <r_epik_Metal_State_Penalty>
2.64585

> <b_epik_Metal_Only>
0

> <s_lp_Force_Field>
OPLS_2005

> <r_lp_Energy>
15.8254

> <b_lp_Chiralities_Consistent>
1

> <s_lp_Variant>
AV-unprocessed.smi:910-15

> <Gold.Version>
5.8.1

> <Gold.Id.Protein>
6NUR|6NUR_protein|mol2

> <Gold.PLP.Fitness>
46.2717

> <Gold.PLP.PLP>
-40.4468

> <Gold.PLP.part.hbond>
-2.0000

> <Gold.PLP.part.metal>
0.0000

> <Gold.PLP.part.buried>
-3.7097

> <Gold.PLP.part.nonpolar>
-35.0239

> <Gold.PLP.part.repulsive>
0.2207

> <Gold.PLP.ligand.clash>
0.0000

> <Gold.PLP.ligand.torsion>
1.3931

> <Gold.PLP.Chemscore.Hbond>
2.8640

> <Gold.PLP.Chemscore.CHOScore>
0.0000

> <Gold.PLP.Chemscore.Metal>
0.0000

> <Gold.Chemscore.Hbonds>
donor molecule, donor type, donor heavy atom, donor atom, acceptor molecule, acceptor atom, score
      L1  H     3    25       P1  7948  1.50
      P1  H 10752 10763       L1     7  0.99

> <Gold.PLP.Chemscore.Internal.Correction>
0.0191

> <Gold.Rescore>
     Score         DG    S(hbond)    S(metal)    S(lipo)     H(rot)  DE(clash)    DE(int)     intcor
     16.47     -19.25       1.71        0.00     106.10       1.69       1.42       1.36       ----

> <Gold.Chemscore.Fitness>
16.4715

> <Gold.Chemscore.DG>
-19.2545

> <Gold.Chemscore.ZeroCoef>
-5.4800

> <Gold.Chemscore.Hbond>
1.7067

> <Gold.Chemscore.Metal>
0.0000

> <Gold.Chemscore.Lipo>
106.0966

> <Gold.Chemscore.Internal_Hbond>
0.0000

> <Gold.Chemscore.DEClash>
1.4187

> <Gold.Chemscore.DEInternal>
1.3643

> <Gold.Chemscore.Rot>
1.6949

> <Gold.Chemscore.Internal.Correction>
   9.000000E+99

> <Gold.Chemscore.Hbonds>
donor molecule, donor type, donor heavy atom, donor atom, acceptor molecule, acceptor atom, score
      L1  H     3    25       P1  7948  0.09
      P1  H 10752 10763       L1     7  0.94

> <Gold.Chemscore.Hbond.Weighted>
-5.7002

> <Gold.Chemscore.Metal.Weighted>
-0.0000

> <Gold.Chemscore.Lipo.Weighted>
-12.4133

> <Gold.Chemscore.Internal_Hbond.Weighted>
0.0000

> <Gold.Chemscore.DEClash.Weighted>
1.4187

> <Gold.Chemscore.DEInternal.Weighted>
1.3643

> <Gold.Chemscore.Rot.Weighted>
4.3390

> <Gold.Chemscore.Internal.Correction.Weighted>
   9.000000E+99

> <Gold.Protein.RotatedTorsions>
[ 6907 6896 6895 6894 ] final -126.66 input  -60.11 | X-H torsion
[ 7974 7965 7964 7962 ] final  161.42 input  175.53 | X-H torsion
[ 8008 7997 7996 7995 ] final  -87.07 input   59.86 | X-H torsion
[ 10167 10162 10161 10158 ] final  162.52 input  -65.29 | X-H torsion
[ 10718 10713 10712 10709 ] final   26.81 input   66.30 | X-H torsion
[ 10763 10752 10751 10750 ] final   69.24 input  -60.55 | X-H torsion
[ 11005 11000 10999 10996 ] final -136.26 input  -57.11 | X-H torsion

> <Gold.Protein.ActiveResidues>
 VAL166  LYS551  ARG553  GLY616  TRP617  ASP618  TYR619  PRO620  LYS621  CYS622 
 ASP623  PHE694  ASN695  SER759  ASP760  ASP761  ALA762  ILE779  LEU786  VAL792 
 PHE793  MET794  SER795  GLU796  ALA797  LYS798  CYS799  TRP800  GLU811  SER814 

> <Gold.Protein.RotatedAtoms>
  150.8992  133.7141  159.2883 H   0  0  0  0  0  0  0  0  0  0  0  0  # atno 6907 bound_to 6896
  151.4665  135.1041  159.9749 H   0  0  0  0  0  0  0  0  0  0  0  0  # atno 6908 bound_to 6896
  152.4866  133.8342  159.7174 H   0  0  0  0  0  0  0  0  0  0  0  0  # atno 6909 bound_to 6896
  144.7686  139.7896  143.6305 H   0  0  0  0  0  0  0  0  0  0  0  0  # atno 7974 bound_to 7965
  154.6590  140.0570  157.0041 H   0  0  0  0  0  0  0  0  0  0  0  0  # atno 8008 bound_to 7997
  155.1257  140.3252  155.4468 H   0  0  0  0  0  0  0  0  0  0  0  0  # atno 8009 bound_to 7997
  156.2610  140.1989  156.6378 H   0  0  0  0  0  0  0  0  0  0  0  0  # atno 8010 bound_to 7997
  139.4862  144.4429  151.8929 H   0  0  0  0  0  0  0  0  0  0  0  0  # atno 10167 bound_to 10162
  157.2117  130.6937  149.6231 H   0  0  0  0  0  0  0  0  0  0  0  0  # atno 10718 bound_to 10713
  153.0277  135.5218  154.7258 H   0  0  0  0  0  0  0  0  0  0  0  0  # atno 10763 bound_to 10752
  154.6300  135.2899  155.0229 H   0  0  0  0  0  0  0  0  0  0  0  0  # atno 10764 bound_to 10752
  154.1185  135.6611  153.4951 H   0  0  0  0  0  0  0  0  0  0  0  0  # atno 10765 bound_to 10752
  140.8822  134.1918  157.4584 H   0  0  0  0  0  0  0  0  0  0  0  0  # atno 11005 bound_to 11000
  146.1815  139.5010  142.9863 LP  0  0  0  0  0  0  0  0  0  0  0  0  # atno 17320 bound_to 7965
  145.6392  141.0288  143.1821 LP  0  0  0  0  0  0  0  0  0  0  0  0  # atno 17321 bound_to 7965
  140.3882  144.2650  150.5902 LP  0  0  0  0  0  0  0  0  0  0  0  0  # atno 17342 bound_to 10162
  140.5171  143.2275  151.8446 LP  0  0  0  0  0  0  0  0  0  0  0  0  # atno 17343 bound_to 10162
  155.9690  130.4549  150.5866 LP  0  0  0  0  0  0  0  0  0  0  0  0  # atno 17370 bound_to 10713
  157.3665  131.0758  151.1593 LP  0  0  0  0  0  0  0  0  0  0  0  0  # atno 17371 bound_to 10713
  139.8721  134.9822  156.5147 LP  0  0  0  0  0  0  0  0  0  0  0  0  # atno 17394 bound_to 11000
  140.8448  133.8177  155.9110 LP  0  0  0  0  0  0  0  0  0  0  0  0  # atno 17395 bound_to 11000

$$$$
