AV-unprocessed.smi:2561|AV-procd|sdf|10040|dock4
  -GOLD-   2272014 83D 1   1.00000     0.00000
 Structure written by MMmdl.
 32 33  0  0  0  0  0  0  0  0  1 V2000
  146.4418  138.6874  151.8567 C   0  0  0  0  0  0  0  0  0  0  0  0
  147.7161  139.1886  152.3486 N   0  0  0  0  0  0  0  0  0  0  0  0
  147.9110  139.6633  153.5857 C   0  0  0  0  0  0  0  0  0  0  0  0
  147.0212  139.7263  154.4339 O   0  0  0  0  0  0  0  0  0  0  0  0
  149.1813  140.0679  153.7573 N   0  0  0  0  0  0  0  0  0  0  0  0
  149.7816  140.6320  154.9153 C   0  0  0  0  0  0  0  0  0  0  0  0
  151.1045  140.3624  155.3396 C   0  0  0  0  0  0  0  0  0  0  0  0
  151.5902  140.9980  156.4985 C   0  0  0  0  0  0  0  0  0  0  0  0
  150.7467  141.8897  157.1924 C   0  0  0  0  0  0  0  0  0  0  0  0
  151.2336  142.5195  158.3480 N   0  0  0  0  0  0  0  0  0  0  0  0
  152.3585  141.8623  158.9931 C   0  0  0  0  0  0  0  0  0  0  0  0
  152.9410  142.9019  159.9537 C   0  0  0  0  0  0  0  0  0  0  0  0
  152.4705  144.2534  159.4025 C   0  0  0  0  0  0  0  0  0  0  0  0
  151.6329  143.9055  158.1689 C   0  0  0  0  0  0  0  0  0  0  0  0
  149.4842  142.1616  156.7840 N   0  0  0  0  0  0  0  0  0  0  0  0
  149.0243  141.5489  155.6729 C   0  0  0  0  0  0  0  0  0  0  0  0
  146.5451  138.3606  150.8220 H   0  0  0  0  0  0  0  0  0  0  0  0
  145.6775  139.4648  151.8942 H   0  0  0  0  0  0  0  0  0  0  0  0
  146.1036  137.8376  152.4509 H   0  0  0  0  0  0  0  0  0  0  0  0
  148.4960  139.1747  151.7074 H   0  0  0  0  0  0  0  0  0  0  0  0
  149.7745  140.0231  152.9416 H   0  0  0  0  0  0  0  0  0  0  0  0
  151.7574  139.6971  154.7967 H   0  0  0  0  0  0  0  0  0  0  0  0
  152.5960  140.8066  156.8435 H   0  0  0  0  0  0  0  0  0  0  0  0
  152.0385  140.9630  159.5203 H   0  0  0  0  0  0  0  0  0  0  0  0
  153.1101  141.5727  158.2573 H   0  0  0  0  0  0  0  0  0  0  0  0
  152.5436  142.7529  160.9583 H   0  0  0  0  0  0  0  0  0  0  0  0
  154.0275  142.8311  160.0119 H   0  0  0  0  0  0  0  0  0  0  0  0
  151.8579  144.7646  160.1460 H   0  0  0  0  0  0  0  0  0  0  0  0
  153.3027  144.9110  159.1494 H   0  0  0  0  0  0  0  0  0  0  0  0
  152.2338  144.0162  157.2650 H   0  0  0  0  0  0  0  0  0  0  0  0
  150.7633  144.5569  158.0778 H   0  0  0  0  0  0  0  0  0  0  0  0
  148.0135  141.7966  155.3829 H   0  0  0  0  0  0  0  0  0  0  0  0
  1  2  1  0  0  0  0
  1 17  1  0  0  0  0
  1 18  1  0  0  0  0
  1 19  1  0  0  0  0
  2  3  1  0  0  0  0
  2 20  1  0  0  0  0
  3  4  2  0  0  0  0
  3  5  1  0  0  0  0
  5  6  1  0  0  0  0
  5 21  1  0  0  0  0
  6 16  1  0  0  0  0
  6  7  2  0  0  0  0
  7  8  1  0  0  0  0
  7 22  1  0  0  0  0
  8  9  2  0  0  0  0
  8 23  1  0  0  0  0
  9 10  1  0  0  0  0
  9 15  1  0  0  0  0
 10 14  1  0  0  0  0
 10 11  1  0  0  0  0
 11 12  1  0  0  0  0
 11 24  1  0  0  0  0
 11 25  1  0  0  0  0
 12 13  1  0  0  0  0
 12 26  1  0  0  0  0
 12 27  1  0  0  0  0
 13 14  1  0  0  0  0
 13 28  1  0  0  0  0
 13 29  1  0  0  0  0
 14 30  1  0  0  0  0
 14 31  1  0  0  0  0
 15 16  2  0  0  0  0
 16 32  1  0  0  0  0
M  END
> <s_m_source_file>
AV-unprocessed.smi

> <i_m_source_file_index>
2561

> <i_lp_mmshare_version>
43012

> <i_f3d_flags>
0

> <s_epik_input>
W0NIM11bTkhdQyg9TylbTkhdYzFbY0hdW2NIXWMobltjSF0xKU4yW0NIMl1bQ0gyXVtDSDJdW0NIMl0y

> <s_epik_cmdline>
J2VwaWtfcHl0aG9uJywgJy1waCcsICc3LjAnLCAnLXRuJywgJzgnLCAnLW1hJywgJzIwMCcsICctbWV0YWxfYmluZGluZycsICctaW1hZScsICc8aW5maWxlLm1hZT4nLCAnLW9tYWUnLCAnPG91dGZpbGUubWFlPic=

> <r_lp_tautomer_probability>
1

> <r_epik_Ionization_Penalty>
0.281536

> <r_epik_Ionization_Penalty_Charging>
0

> <r_epik_Ionization_Penalty_Neutral>
0.281536

> <r_epik_State_Penalty>
0.27354

> <r_epik_Charging_Adjusted_Penalty>
0.27354

> <i_epik_Tot_Q>
0

> <i_epik_Tot_abs_Q>
0

> <r_epik_Metal_State_Penalty>
0.184484

> <b_epik_Metal_Only>
0

> <s_lp_Force_Field>
OPLS_2005

> <r_lp_Energy>
32.7589

> <b_lp_Chiralities_Consistent>
1

> <s_lp_Variant>
AV-unprocessed.smi:2561-1

> <Gold.Version>
5.8.1

> <Gold.Id.Protein>
6NUR|6NUR_protein|mol2

> <Gold.PLP.Fitness>
37.0409

> <Gold.PLP.PLP>
-34.1646

> <Gold.PLP.part.hbond>
-2.9091

> <Gold.PLP.part.metal>
0.0000

> <Gold.PLP.part.buried>
-1.9281

> <Gold.PLP.part.nonpolar>
-30.0410

> <Gold.PLP.part.repulsive>
1.4926

> <Gold.PLP.ligand.clash>
0.0123

> <Gold.PLP.ligand.torsion>
0.8193

> <Gold.PLP.Chemscore.Hbond>
1.5040

> <Gold.PLP.Chemscore.CHOScore>
0.0000

> <Gold.PLP.Chemscore.Metal>
0.0000

> <Gold.Chemscore.Hbonds>
donor molecule, donor type, donor heavy atom, donor atom, acceptor molecule, acceptor atom, score
      L1  H     2    20       P1  7957  0.77
      L1  H     5    21       P1  7957  0.78

> <Gold.PLP.Chemscore.Internal.Correction>
0.0152

> <Gold.Rescore>
     Score         DG    S(hbond)    S(metal)    S(lipo)     H(rot)  DE(clash)    DE(int)     intcor
     15.40     -18.31       1.80        0.00      80.30       1.00       1.30       1.61       ----

> <Gold.Chemscore.Fitness>
15.4045

> <Gold.Chemscore.DG>
-18.3146

> <Gold.Chemscore.ZeroCoef>
-5.4800

> <Gold.Chemscore.Hbond>
1.7962

> <Gold.Chemscore.Metal>
0.0000

> <Gold.Chemscore.Lipo>
80.3011

> <Gold.Chemscore.Internal_Hbond>
0.0000

> <Gold.Chemscore.DEClash>
1.2977

> <Gold.Chemscore.DEInternal>
1.6125

> <Gold.Chemscore.Rot>
1.0000

> <Gold.Chemscore.Internal.Correction>
   9.000000E+99

> <Gold.Chemscore.Hbonds>
donor molecule, donor type, donor heavy atom, donor atom, acceptor molecule, acceptor atom, score
      L1  H     2    20       P1  7957  0.70
      L1  H     5    21       P1  7957  0.78

> <Gold.Chemscore.Hbond.Weighted>
-5.9994

> <Gold.Chemscore.Metal.Weighted>
-0.0000

> <Gold.Chemscore.Lipo.Weighted>
-9.3952

> <Gold.Chemscore.Internal_Hbond.Weighted>
0.0000

> <Gold.Chemscore.DEClash.Weighted>
1.2977

> <Gold.Chemscore.DEInternal.Weighted>
1.6125

> <Gold.Chemscore.Rot.Weighted>
2.5600

> <Gold.Chemscore.Internal.Correction.Weighted>
   9.000000E+99

> <Gold.Protein.RotatedTorsions>
[ 6907 6896 6895 6894 ] final   30.43 input  -60.11 | X-H torsion
[ 7974 7965 7964 7962 ] final  102.02 input  175.53 | X-H torsion
[ 8008 7997 7996 7995 ] final -135.94 input   59.86 | X-H torsion
[ 10167 10162 10161 10158 ] final  178.88 input  -65.29 | X-H torsion
[ 10718 10713 10712 10709 ] final   54.99 input   66.30 | X-H torsion
[ 10763 10752 10751 10750 ] final  -98.33 input  -60.55 | X-H torsion
[ 11005 11000 10999 10996 ] final  -13.13 input  -57.11 | X-H torsion

> <Gold.Protein.ActiveResidues>
 VAL166  LYS551  ARG553  GLY616  TRP617  ASP618  TYR619  PRO620  LYS621  CYS622 
 ASP623  PHE694  ASN695  SER759  ASP760  ASP761  ALA762  ILE779  LEU786  VAL792 
 PHE793  MET794  SER795  GLU796  ALA797  LYS798  CYS799  TRP800  GLU811  SER814 

> <Gold.Protein.RotatedAtoms>
  152.0459  134.9683  160.0574 H   0  0  0  0  0  0  0  0  0  0  0  0  # atno 6907 bound_to 6896
  152.1103  133.4292  159.4636 H   0  0  0  0  0  0  0  0  0  0  0  0  # atno 6908 bound_to 6896
  150.6843  134.2575  159.4579 H   0  0  0  0  0  0  0  0  0  0  0  0  # atno 6909 bound_to 6896
  145.3646  139.2410  143.3488 H   0  0  0  0  0  0  0  0  0  0  0  0  # atno 7974 bound_to 7965
  155.3870  140.0497  157.3042 H   0  0  0  0  0  0  0  0  0  0  0  0  # atno 8008 bound_to 7997
  154.5055  140.2172  155.9222 H   0  0  0  0  0  0  0  0  0  0  0  0  # atno 8009 bound_to 7997
  156.1520  140.3134  155.8668 H   0  0  0  0  0  0  0  0  0  0  0  0  # atno 8010 bound_to 7997
  139.5313  144.2627  152.0694 H   0  0  0  0  0  0  0  0  0  0  0  0  # atno 10167 bound_to 10162
  157.5306  130.8627  149.8682 H   0  0  0  0  0  0  0  0  0  0  0  0  # atno 10718 bound_to 10713
  154.7405  135.5013  153.9115 H   0  0  0  0  0  0  0  0  0  0  0  0  # atno 10763 bound_to 10752
  153.1038  135.6692  153.9631 H   0  0  0  0  0  0  0  0  0  0  0  0  # atno 10764 bound_to 10752
  153.9409  135.3068  155.3422 H   0  0  0  0  0  0  0  0  0  0  0  0  # atno 10765 bound_to 10752
  140.7729  133.8424  155.9223 H   0  0  0  0  0  0  0  0  0  0  0  0  # atno 11005 bound_to 11000
  146.2912  140.4286  142.8739 LP  0  0  0  0  0  0  0  0  0  0  0  0  # atno 17320 bound_to 7965
  144.8621  140.7154  143.6101 LP  0  0  0  0  0  0  0  0  0  0  0  0  # atno 17321 bound_to 7965
  140.2091  144.4581  150.6394 LP  0  0  0  0  0  0  0  0  0  0  0  0  # atno 17342 bound_to 10162
  140.6492  143.2221  151.6116 LP  0  0  0  0  0  0  0  0  0  0  0  0  # atno 17343 bound_to 10162
  156.0419  130.3737  150.1413 LP  0  0  0  0  0  0  0  0  0  0  0  0  # atno 17370 bound_to 10713
  156.9598  130.9801  151.3481 LP  0  0  0  0  0  0  0  0  0  0  0  0  # atno 17371 bound_to 10713
  140.9556  134.1722  157.4694 LP  0  0  0  0  0  0  0  0  0  0  0  0  # atno 17394 bound_to 11000
  139.8753  134.9926  156.5603 LP  0  0  0  0  0  0  0  0  0  0  0  0  # atno 17395 bound_to 11000

$$$$
