AV-unprocessed.smi:3136|AV-procd|sdf|11951|dock4
  -GOLD-   2272017343D 1   1.00000     0.00000
 Structure written by MMmdl.
 40 40  0  0  0  0  0  0  0  0  2 V2000
  146.1411  133.8261  150.9080 C   0  0  0  0  0  0  0  0  0  0  0  0
  145.5402  135.2381  150.9230 C   0  0  0  0  0  0  0  0  0  0  0  0
  146.1744  136.0816  151.9297 N   0  0  0  0  0  0  0  0  0  0  0  0
  145.5266  136.9270  152.7465 C   0  0  0  0  0  0  0  0  0  0  0  0
  144.3067  137.0894  152.7202 O   0  0  0  0  0  0  0  0  0  0  0  0
  146.3883  137.7087  153.7426 C   0  0  0  0  0  0  0  0  0  0  0  0
  147.0500  138.9439  153.1084 C   0  0  0  0  0  0  0  0  0  0  0  0
  148.5158  138.7804  153.0300 N   0  3  0  0  0  0  0  0  0  0  0  0
  149.2354  139.0152  154.3024 C   0  0  1  0  0  0  0  0  0  0  0  0
  150.5158  138.1604  154.3136 C   0  0  0  0  0  0  0  0  0  0  0  0
  149.5084  140.5311  154.4968 C   0  0  1  0  0  0  0  0  0  0  0  0
  148.2225  141.3781  154.4424 C   0  0  0  0  0  0  0  0  0  0  0  0
  150.2340  140.8056  155.7309 N   0  0  0  0  0  0  0  0  0  0  0  0
  150.7090  142.0166  156.1917 C   0  0  0  0  0  0  0  0  0  0  0  0
  151.3195  141.7865  157.3911 C   0  0  0  0  0  0  0  0  0  0  0  0
  151.1633  140.3863  157.5873 C   0  0  0  0  0  0  0  0  0  0  0  0
  150.5128  139.8024  156.5940 N   0  0  0  0  0  0  0  0  0  0  0  0
  145.6849  133.2204  150.1250 H   0  0  0  0  0  0  0  0  0  0  0  0
  145.9797  133.3142  151.8573 H   0  0  0  0  0  0  0  0  0  0  0  0
  147.2149  133.8561  150.7208 H   0  0  0  0  0  0  0  0  0  0  0  0
  145.6817  135.7073  149.9492 H   0  0  0  0  0  0  0  0  0  0  0  0
  144.4631  135.1913  151.0912 H   0  0  0  0  0  0  0  0  0  0  0  0
  147.1787  136.0137  152.0112 H   0  0  0  0  0  0  0  0  0  0  0  0
  145.7741  138.0157  154.5910 H   0  0  0  0  0  0  0  0  0  0  0  0
  147.1519  137.0356  154.1342 H   0  0  0  0  0  0  0  0  0  0  0  0
  146.6601  139.1106  152.1030 H   0  0  0  0  0  0  0  0  0  0  0  0
  146.8228  139.8348  153.6962 H   0  0  0  0  0  0  0  0  0  0  0  0
  148.7137  137.8384  152.7244 H   0  0  0  0  0  0  0  0  0  0  0  0
  148.6152  138.6706  155.1319 H   0  0  0  0  0  0  0  0  0  0  0  0
  151.0282  138.2083  155.2746 H   0  0  0  0  0  0  0  0  0  0  0  0
  151.2176  138.4872  153.5453 H   0  0  0  0  0  0  0  0  0  0  0  0
  150.2860  137.1105  154.1288 H   0  0  0  0  0  0  0  0  0  0  0  0
  150.1525  140.8617  153.6802 H   0  0  0  0  0  0  0  0  0  0  0  0
  147.7320  141.3009  153.4722 H   0  0  0  0  0  0  0  0  0  0  0  0
  148.4425  142.4332  154.6088 H   0  0  0  0  0  0  0  0  0  0  0  0
  147.5045  141.0658  155.2018 H   0  0  0  0  0  0  0  0  0  0  0  0
  150.5760  142.9322  155.6342 H   0  0  0  0  0  0  0  0  0  0  0  0
  151.8034  142.5087  158.0320 H   0  0  0  0  0  0  0  0  0  0  0  0
  151.5007  139.7811  158.4159 H   0  0  0  0  0  0  0  0  0  0  0  0
  148.8745  139.4235  152.3386 H   0  0  0  0  0  0  0  0  0  0  0  0
  1  2  1  0  0  0  0
  1 18  1  0  0  0  0
  1 19  1  0  0  0  0
  1 20  1  0  0  0  0
  2  3  1  0  0  0  0
  2 21  1  0  0  0  0
  2 22  1  0  0  0  0
  3  4  1  0  0  0  0
  3 23  1  0  0  0  0
  4  5  2  0  0  0  0
  4  6  1  0  0  0  0
  6  7  1  0  0  0  0
  6 24  1  0  0  0  0
  6 25  1  0  0  0  0
  7  8  1  0  0  0  0
  7 26  1  0  0  0  0
  7 27  1  0  0  0  0
  8  9  1  0  0  0  0
  8 28  1  0  0  0  0
  8 40  1  0  0  0  0
  9 10  1  0  0  0  0
  9 11  1  0  0  0  0
  9 29  1  0  0  0  0
 10 30  1  0  0  0  0
 10 31  1  0  0  0  0
 10 32  1  0  0  0  0
 11 12  1  0  0  0  0
 11 13  1  0  0  0  0
 11 33  1  0  0  0  0
 12 34  1  0  0  0  0
 12 35  1  0  0  0  0
 12 36  1  0  0  0  0
 13 17  1  0  0  0  0
 13 14  1  0  0  0  0
 14 15  2  0  0  0  0
 14 37  1  0  0  0  0
 15 16  1  0  0  0  0
 15 38  1  0  0  0  0
 16 17  2  0  0  0  0
 16 39  1  0  0  0  0
M  CHG  1   8   1
M  END
> <s_m_source_file>
AV-unprocessed.smi

> <i_m_source_file_index>
3136

> <i_lp_mmshare_version>
43012

> <i_f3d_flags>
0

> <s_epik_input>
W0NIM11bQ0gyXVtOSF1DKD1PKVtDSDJdW0NIMl1bTkhdW0NASF0oW0NIM10pW0NASF0oW0NIM10pbjFbY0hdW2NIXVtjSF1uMQ==

> <s_epik_cmdline>
J2VwaWtfcHl0aG9uJywgJy1waCcsICc3LjAnLCAnLXRuJywgJzgnLCAnLW1hJywgJzIwMCcsICctbWV0YWxfYmluZGluZycsICctaW1hZScsICc8aW5maWxlLm1hZT4nLCAnLW9tYWUnLCAnPG91dGZpbGUubWFlPic=

> <r_lp_tautomer_probability>
1

> <r_epik_Ionization_Penalty>
0.00463447

> <r_epik_Ionization_Penalty_Charging>
0.00462393

> <r_epik_Ionization_Penalty_Neutral>
1.05394e-05

> <r_epik_State_Penalty>
-0

> <r_epik_Charging_Adjusted_Penalty>
0.00462393

> <i_epik_Tot_Q>
1

> <i_epik_Tot_abs_Q>
1

> <r_epik_Metal_State_Penalty>
-0

> <b_epik_Metal_Only>
0

> <s_lp_Force_Field>
OPLS_2005

> <r_lp_Energy>
12.3637

> <b_lp_Chiralities_Consistent>
1

> <s_lp_Variant>
AV-unprocessed.smi:3136-4

> <Gold.Version>
5.8.1

> <Gold.Id.Protein>
6NUR|6NUR_protein|mol2

> <Gold.PLP.Fitness>
46.0734

> <Gold.PLP.PLP>
-33.6587

> <Gold.PLP.part.hbond>
-2.7746

> <Gold.PLP.part.metal>
0.0000

> <Gold.PLP.part.buried>
-5.3742

> <Gold.PLP.part.nonpolar>
-26.3936

> <Gold.PLP.part.repulsive>
0.3182

> <Gold.PLP.ligand.clash>
0.0000

> <Gold.PLP.ligand.torsion>
1.2040

> <Gold.PLP.Chemscore.Hbond>
3.8938

> <Gold.PLP.Chemscore.CHOScore>
1.0000

> <Gold.PLP.Chemscore.Metal>
0.0000

> <Gold.Chemscore.Hbonds>
donor molecule, donor type, donor heavy atom, donor atom, acceptor molecule, acceptor atom, score
      L1  H     3    23       P1  7948  1.00
      L1  H     8    28       P1  7948  2.00
      L1  H     8    40       P1  7957  0.94
      L1  C    14    37       P1  8028  1.00

> <Gold.PLP.Chemscore.Internal.Correction>
0.1415

> <Gold.Rescore>
     Score         DG    S(hbond)    S(metal)    S(lipo)     H(rot)  DE(clash)    DE(int)     intcor
     15.22     -17.98       2.95        0.00      73.25       2.32       0.12       2.64       ----

> <Gold.Chemscore.Fitness>
15.2182

> <Gold.Chemscore.DG>
-17.9817

> <Gold.Chemscore.ZeroCoef>
-5.4800

> <Gold.Chemscore.Hbond>
2.9521

> <Gold.Chemscore.Metal>
0.0000

> <Gold.Chemscore.Lipo>
73.2514

> <Gold.Chemscore.Internal_Hbond>
0.0000

> <Gold.Chemscore.DEClash>
0.1227

> <Gold.Chemscore.DEInternal>
2.6408

> <Gold.Chemscore.Rot>
2.3159

> <Gold.Chemscore.Internal.Correction>
   9.000000E+99

> <Gold.Chemscore.Hbonds>
donor molecule, donor type, donor heavy atom, donor atom, acceptor molecule, acceptor atom, score
      L1  H     3    23       P1  7948  1.00
      L1  H     8    28       P1  7948  1.00
      L1  H     8    40       P1  7957  0.90

> <Gold.Chemscore.Hbond.Weighted>
-9.8599

> <Gold.Chemscore.Metal.Weighted>
-0.0000

> <Gold.Chemscore.Lipo.Weighted>
-8.5704

> <Gold.Chemscore.Internal_Hbond.Weighted>
0.0000

> <Gold.Chemscore.DEClash.Weighted>
0.1227

> <Gold.Chemscore.DEInternal.Weighted>
2.6408

> <Gold.Chemscore.Rot.Weighted>
5.9286

> <Gold.Chemscore.Internal.Correction.Weighted>
   9.000000E+99

> <Gold.Protein.RotatedTorsions>
[ 6907 6896 6895 6894 ] final  -81.34 input  -60.11 | X-H torsion
[ 7974 7965 7964 7962 ] final -127.44 input  175.53 | X-H torsion
[ 8008 7997 7996 7995 ] final   83.81 input   59.86 | X-H torsion
[ 10167 10162 10161 10158 ] final   83.55 input  -65.29 | X-H torsion
[ 10718 10713 10712 10709 ] final  -97.59 input   66.30 | X-H torsion
[ 10763 10752 10751 10750 ] final -130.14 input  -60.55 | X-H torsion
[ 11005 11000 10999 10996 ] final -151.27 input  -57.11 | X-H torsion

> <Gold.Protein.ActiveResidues>
 VAL166  LYS551  ARG553  GLY616  TRP617  ASP618  TYR619  PRO620  LYS621  CYS622 
 ASP623  PHE694  ASN695  SER759  ASP760  ASP761  ALA762  ILE779  LEU786  VAL792 
 PHE793  MET794  SER795  GLU796  ALA797  LYS798  CYS799  TRP800  GLU811  SER814 

> <Gold.Protein.RotatedAtoms>
  150.6913  134.3832  159.5043 H   0  0  0  0  0  0  0  0  0  0  0  0  # atno 6907 bound_to 6896
  152.1631  134.8893  160.0549 H   0  0  0  0  0  0  0  0  0  0  0  0  # atno 6908 bound_to 6896
  151.9947  133.3769  159.4195 H   0  0  0  0  0  0  0  0  0  0  0  0  # atno 6909 bound_to 6896
  144.9770  140.7603  143.4635 H   0  0  0  0  0  0  0  0  0  0  0  0  # atno 7974 bound_to 7965
  155.9288  140.3416  155.6232 H   0  0  0  0  0  0  0  0  0  0  0  0  # atno 8008 bound_to 7997
  155.7183  140.0780  157.2360 H   0  0  0  0  0  0  0  0  0  0  0  0  # atno 8009 bound_to 7997
  154.4081  140.1610  156.2361 H   0  0  0  0  0  0  0  0  0  0  0  0  # atno 8010 bound_to 7997
  139.9173  144.6235  150.8476 H   0  0  0  0  0  0  0  0  0  0  0  0  # atno 10167 bound_to 10162
  156.0087  130.5201  150.6397 H   0  0  0  0  0  0  0  0  0  0  0  0  # atno 10718 bound_to 10713
  154.8756  135.3872  154.4034 H   0  0  0  0  0  0  0  0  0  0  0  0  # atno 10763 bound_to 10752
  153.4756  135.7030  153.5973 H   0  0  0  0  0  0  0  0  0  0  0  0  # atno 10764 bound_to 10752
  153.4411  135.3856  155.2196 H   0  0  0  0  0  0  0  0  0  0  0  0  # atno 10765 bound_to 10752
  140.7313  134.3618  157.5166 H   0  0  0  0  0  0  0  0  0  0  0  0  # atno 11005 bound_to 11000
  145.2475  139.2045  143.4960 LP  0  0  0  0  0  0  0  0  0  0  0  0  # atno 17320 bound_to 7965
  146.3398  140.2382  142.8595 LP  0  0  0  0  0  0  0  0  0  0  0  0  # atno 17321 bound_to 7965
  140.7671  143.3322  151.2385 LP  0  0  0  0  0  0  0  0  0  0  0  0  # atno 17342 bound_to 10162
  139.6892  143.9722  152.2850 LP  0  0  0  0  0  0  0  0  0  0  0  0  # atno 17343 bound_to 10162
  157.4179  131.0833  151.1159 LP  0  0  0  0  0  0  0  0  0  0  0  0  # atno 17370 bound_to 10713
  157.1770  130.6292  149.5659 LP  0  0  0  0  0  0  0  0  0  0  0  0  # atno 17371 bound_to 10713
  139.8826  134.9020  156.2823 LP  0  0  0  0  0  0  0  0  0  0  0  0  # atno 17394 bound_to 11000
  140.9918  133.7204  156.0826 LP  0  0  0  0  0  0  0  0  0  0  0  0  # atno 17395 bound_to 11000

$$$$
