AV-unprocessed.smi:1759|AV-procd|sdf|7087|dock8
  -GOLD-   22720 8303D 1   1.00000     0.00000
 Structure written by MMmdl.
 31 32  0  0  0  0  0  0  0  0  1 V2000
  150.7823  142.1665  156.5621 C   0  0  0  0  0  0  0  0  0  0  0  0
  150.5308  141.0227  155.6412 C   0  0  0  0  0  0  0  0  0  0  0  0
  149.4033  140.5506  155.0303 C   0  0  0  0  0  0  0  0  0  0  0  0
  149.8827  139.4358  154.2925 C   0  0  0  0  0  0  0  0  0  0  0  0
  149.0037  138.6574  153.4975 N   0  0  0  0  0  0  0  0  0  0  0  0
  147.6736  138.7984  153.3698 C   0  0  0  0  0  0  0  0  0  0  0  0
  146.9961  139.6673  153.9196 O   0  0  0  0  0  0  0  0  0  0  0  0
  147.1613  137.8673  152.5529 N   0  0  0  0  0  0  0  0  0  0  0  0
  145.7542  137.7627  152.1851 C   0  0  0  0  0  0  0  0  0  0  0  0
  145.2361  136.3251  152.3529 C   0  0  2  0  0  0  0  0  0  0  0  0
  145.0899  135.5692  151.0328 C   0  0  0  0  0  0  0  0  0  0  0  0
  144.0028  134.5735  151.3653 C   0  0  0  0  0  0  0  0  0  0  0  0
  143.0820  135.4120  152.2444 C   0  0  0  0  0  0  0  0  0  0  0  0
  143.9307  136.3287  152.9296 O   0  0  0  0  0  0  0  0  0  0  0  0
  151.1847  139.2439  154.4405 N   0  0  0  0  0  0  0  0  0  0  0  0
  151.6068  140.2601  155.3059 O   0  0  0  0  0  0  0  0  0  0  0  0
  149.8604  142.7100  156.7695 H   0  0  0  0  0  0  0  0  0  0  0  0
  151.4955  142.8648  156.1239 H   0  0  0  0  0  0  0  0  0  0  0  0
  151.1896  141.8163  157.5106 H   0  0  0  0  0  0  0  0  0  0  0  0
  148.3994  140.9422  155.1007 H   0  0  0  0  0  0  0  0  0  0  0  0
  149.4328  137.9083  152.9749 H   0  0  0  0  0  0  0  0  0  0  0  0
  147.7901  137.1945  152.1392 H   0  0  0  0  0  0  0  0  0  0  0  0
  145.1811  138.4438  152.8146 H   0  0  0  0  0  0  0  0  0  0  0  0
  145.6108  138.0989  151.1565 H   0  0  0  0  0  0  0  0  0  0  0  0
  145.8919  135.7550  153.0132 H   0  0  0  0  0  0  0  0  0  0  0  0
  144.7510  136.2376  150.2397 H   0  0  0  0  0  0  0  0  0  0  0  0
  146.0183  135.0979  150.7092 H   0  0  0  0  0  0  0  0  0  0  0  0
  143.5029  134.1712  150.4838 H   0  0  0  0  0  0  0  0  0  0  0  0
  144.4164  133.7416  151.9369 H   0  0  0  0  0  0  0  0  0  0  0  0
  142.3850  135.9816  151.6286 H   0  0  0  0  0  0  0  0  0  0  0  0
  142.5017  134.8056  152.9402 H   0  0  0  0  0  0  0  0  0  0  0  0
  1  2  1  0  0  0  0
  1 17  1  0  0  0  0
  1 18  1  0  0  0  0
  1 19  1  0  0  0  0
  2 16  1  0  0  0  0
  2  3  2  0  0  0  0
  3  4  1  0  0  0  0
  3 20  1  0  0  0  0
  4  5  1  0  0  0  0
  4 15  2  0  0  0  0
  5  6  1  0  0  0  0
  5 21  1  0  0  0  0
  6  7  2  0  0  0  0
  6  8  1  0  0  0  0
  8  9  1  0  0  0  0
  8 22  1  0  0  0  0
  9 10  1  0  0  0  0
  9 23  1  0  0  0  0
  9 24  1  0  0  0  0
 10 14  1  0  0  0  0
 10 11  1  0  0  0  0
 10 25  1  0  0  0  0
 11 12  1  0  0  0  0
 11 26  1  0  0  0  0
 11 27  1  0  0  0  0
 12 13  1  0  0  0  0
 12 28  1  0  0  0  0
 12 29  1  0  0  0  0
 13 14  1  0  0  0  0
 13 30  1  0  0  0  0
 13 31  1  0  0  0  0
 15 16  1  0  0  0  0
M  END
> <s_m_source_file>
AV-unprocessed.smi

> <i_m_source_file_index>
1759

> <i_lp_mmshare_version>
43012

> <i_f3d_flags>
0

> <s_epik_input>
W0NIM11jMVtjSF1jKG5vMSlbTkhdQyg9TylbTkhdW0NIMl1bQ0BASF0yW0NIMl1bQ0gyXVtDSDJdTzI=

> <s_epik_cmdline>
J2VwaWtfcHl0aG9uJywgJy1waCcsICc3LjAnLCAnLXRuJywgJzgnLCAnLW1hJywgJzIwMCcsICctbWV0YWxfYmluZGluZycsICctaW1hZScsICc8aW5maWxlLm1hZT4nLCAnLW9tYWUnLCAnPG91dGZpbGUubWFlPic=

> <r_lp_tautomer_probability>
1

> <r_epik_Ionization_Penalty>
2.1743e-05

> <r_epik_Ionization_Penalty_Charging>
0

> <r_epik_Ionization_Penalty_Neutral>
2.1743e-05

> <r_epik_State_Penalty>
-0

> <r_epik_Charging_Adjusted_Penalty>
0

> <i_epik_Tot_Q>
0

> <i_epik_Tot_abs_Q>
0

> <r_epik_Metal_State_Penalty>
-0

> <b_epik_Metal_Only>
0

> <s_lp_Force_Field>
OPLS_2005

> <r_lp_Energy>
14.3546

> <b_lp_Chiralities_Consistent>
1

> <s_lp_Variant>
AV-unprocessed.smi:1759-1

> <Gold.Version>
5.8.1

> <Gold.Id.Protein>
6NUR|6NUR_protein|mol2

> <Gold.PLP.Fitness>
31.9171

> <Gold.PLP.PLP>
-27.6733

> <Gold.PLP.part.hbond>
-4.9750

> <Gold.PLP.part.metal>
0.0000

> <Gold.PLP.part.buried>
-2.4114

> <Gold.PLP.part.nonpolar>
-21.0924

> <Gold.PLP.part.repulsive>
0.5345

> <Gold.PLP.ligand.clash>
0.0000

> <Gold.PLP.ligand.torsion>
0.6634

> <Gold.PLP.Chemscore.Hbond>
1.8564

> <Gold.PLP.Chemscore.CHOScore>
0.0000

> <Gold.PLP.Chemscore.Metal>
0.0000

> <Gold.Chemscore.Hbonds>
donor molecule, donor type, donor heavy atom, donor atom, acceptor molecule, acceptor atom, score
      L1  H     5    21       P1  7948  0.86
      L1  H     8    22       P1  7948  0.98

> <Gold.PLP.Chemscore.Internal.Correction>
0.0013

> <Gold.Rescore>
     Score         DG    S(hbond)    S(metal)    S(lipo)     H(rot)  DE(clash)    DE(int)     intcor
     12.01     -14.04       1.88        0.00      47.88       1.30       0.03       2.01       ----

> <Gold.Chemscore.Fitness>
12.0074

> <Gold.Chemscore.DG>
-14.0422

> <Gold.Chemscore.ZeroCoef>
-5.4800

> <Gold.Chemscore.Hbond>
1.8800

> <Gold.Chemscore.Metal>
0.0000

> <Gold.Chemscore.Lipo>
47.8819

> <Gold.Chemscore.Internal_Hbond>
0.0000

> <Gold.Chemscore.DEClash>
0.0294

> <Gold.Chemscore.DEInternal>
2.0053

> <Gold.Chemscore.Rot>
1.2965

> <Gold.Chemscore.Internal.Correction>
   9.000000E+99

> <Gold.Chemscore.Hbonds>
donor molecule, donor type, donor heavy atom, donor atom, acceptor molecule, acceptor atom, score
      L1  H     5    21       P1  7948  0.71
      L1  H     8    22       P1  7948  0.91

> <Gold.Chemscore.Hbond.Weighted>
-6.2792

> <Gold.Chemscore.Metal.Weighted>
-0.0000

> <Gold.Chemscore.Lipo.Weighted>
-5.6022

> <Gold.Chemscore.Internal_Hbond.Weighted>
0.0000

> <Gold.Chemscore.DEClash.Weighted>
0.0294

> <Gold.Chemscore.DEInternal.Weighted>
2.0053

> <Gold.Chemscore.Rot.Weighted>
3.3192

> <Gold.Chemscore.Internal.Correction.Weighted>
   9.000000E+99

> <Gold.Protein.RotatedTorsions>
[ 6907 6896 6895 6894 ] final  119.29 input  -60.11 | X-H torsion
[ 7974 7965 7964 7962 ] final    7.65 input  175.53 | X-H torsion
[ 8008 7997 7996 7995 ] final   77.92 input   59.86 | X-H torsion
[ 10167 10162 10161 10158 ] final -139.40 input  -65.29 | X-H torsion
[ 10718 10713 10712 10709 ] final   87.53 input   66.30 | X-H torsion
[ 10763 10752 10751 10750 ] final -145.81 input  -60.55 | X-H torsion
[ 11005 11000 10999 10996 ] final  176.27 input  -57.11 | X-H torsion

> <Gold.Protein.ActiveResidues>
 VAL166  LYS551  ARG553  GLY616  TRP617  ASP618  TYR619  PRO620  LYS621  CYS622 
 ASP623  PHE694  ASN695  SER759  ASP760  ASP761  ALA762  ILE779  LEU786  VAL792 
 PHE793  MET794  SER795  GLU796  ALA797  LYS798  CYS799  TRP800  GLU811  SER814 

> <Gold.Protein.RotatedAtoms>
  152.4482  133.7578  159.6729 H   0  0  0  0  0  0  0  0  0  0  0  0  # atno 6907 bound_to 6896
  150.8387  133.7960  159.3075 H   0  0  0  0  0  0  0  0  0  0  0  0  # atno 6908 bound_to 6896
  151.5592  135.1068  160.0020 H   0  0  0  0  0  0  0  0  0  0  0  0  # atno 6909 bound_to 6896
  146.2424  140.0051  142.8412 H   0  0  0  0  0  0  0  0  0  0  0  0  # atno 7974 bound_to 7965
  155.8484  140.3459  155.5677 H   0  0  0  0  0  0  0  0  0  0  0  0  # atno 8008 bound_to 7997
  155.8065  140.0892  157.1947 H   0  0  0  0  0  0  0  0  0  0  0  0  # atno 8009 bound_to 7997
  154.4007  140.1456  156.3323 H   0  0  0  0  0  0  0  0  0  0  0  0  # atno 8010 bound_to 7997
  139.8383  143.7355  152.2664 H   0  0  0  0  0  0  0  0  0  0  0  0  # atno 10167 bound_to 10162
  157.6941  131.0259  150.3137 H   0  0  0  0  0  0  0  0  0  0  0  0  # atno 10718 bound_to 10713
  154.8366  135.3403  154.6563 H   0  0  0  0  0  0  0  0  0  0  0  0  # atno 10763 bound_to 10752
  153.7178  135.6960  153.5025 H   0  0  0  0  0  0  0  0  0  0  0  0  # atno 10764 bound_to 10752
  153.2404  135.4386  155.0645 H   0  0  0  0  0  0  0  0  0  0  0  0  # atno 10765 bound_to 10752
  140.3712  134.7028  157.4393 H   0  0  0  0  0  0  0  0  0  0  0  0  # atno 11005 bound_to 11000
  145.1379  140.9555  143.4506 LP  0  0  0  0  0  0  0  0  0  0  0  0  # atno 17320 bound_to 7965
  145.0324  139.3329  143.6018 LP  0  0  0  0  0  0  0  0  0  0  0  0  # atno 17321 bound_to 7965
  139.7584  144.7514  151.0400 LP  0  0  0  0  0  0  0  0  0  0  0  0  # atno 17342 bound_to 10162
  140.7800  143.4778  151.0058 LP  0  0  0  0  0  0  0  0  0  0  0  0  # atno 17343 bound_to 10162
  156.3635  130.3851  149.7232 LP  0  0  0  0  0  0  0  0  0  0  0  0  # atno 17370 bound_to 10713
  156.4671  130.7979  151.2998 LP  0  0  0  0  0  0  0  0  0  0  0  0  # atno 17371 bound_to 10713
  140.0550  134.6076  155.8816 LP  0  0  0  0  0  0  0  0  0  0  0  0  # atno 17394 bound_to 11000
  141.1954  133.6587  156.5640 LP  0  0  0  0  0  0  0  0  0  0  0  0  # atno 17395 bound_to 11000

$$$$
