AV-unprocessed.smi:290|AV-procd|sdf|2217|dock5
  -GOLD-   2262022 53D 1   1.00000     0.00000
 Structure written by MMmdl.
 59 62  0  0  0  0  0  0  0  0  2 V2000
  151.4872  141.3407  156.4155 C   0  0  0  0  0  0  0  0  0  0  0  0
  151.7350  139.8287  156.2889 C   0  0  2  0  0  0  0  0  0  0  0  0
  153.0213  139.5761  155.7419 O   0  0  0  0  0  0  0  0  0  0  0  0
  153.0244  138.2323  155.2965 C   0  0  0  0  0  0  0  0  0  0  0  0
  151.6798  138.1099  154.5900 C   0  0  0  0  0  0  0  0  0  0  0  0
  150.7521  139.0227  155.3982 C   0  0  2  0  0  0  0  0  0  0  0  0
  150.0573  139.8611  154.4889 O   0  0  0  0  0  0  0  0  0  0  0  0
  149.7077  138.2195  156.2123 C   0  0  0  0  0  0  0  0  0  0  0  0
  148.6804  137.6015  155.3873 N   0  0  0  0  0  0  0  0  0  0  0  0
  148.6114  136.2794  155.0102 C   0  0  0  0  0  0  0  0  0  0  0  0
  147.5918  135.9670  154.2584 N   0  0  0  0  0  0  0  0  0  0  0  0
  146.9016  137.1640  154.1065 C   0  0  0  0  0  0  0  0  0  0  0  0
  145.7147  137.5529  153.4212 C   0  0  0  0  0  0  0  0  0  0  0  0
  144.9285  136.7314  152.6910 N   0  0  0  0  0  0  0  0  0  0  0  0
  143.5360  136.6762  153.1331 C   0  0  0  0  0  0  0  0  0  0  0  0
  143.0630  135.2378  152.8993 C   0  0  0  0  0  0  0  0  0  0  0  0
  144.3757  134.4604  153.0316 C   0  0  1  0  0  0  0  0  0  0  0  0
  144.3942  133.0295  152.5940 N   0  3  1  0  0  0  0  0  0  0  0  0
  143.6907  132.8473  151.2999 C   0  0  0  0  0  0  0  0  0  0  0  0
  145.7283  132.3659  152.6149 C   0  0  0  0  0  0  0  0  0  0  0  0
  145.7722  131.0748  151.7774 C   0  0  0  0  0  0  0  0  0  0  0  0
  146.9579  130.3579  152.0481 O   0  0  0  0  0  0  0  0  0  0  0  0
  145.4146  135.3891  152.3744 C   0  0  1  0  0  0  0  0  0  0  0  0
  145.5772  135.2532  150.8512 C   0  0  0  0  0  0  0  0  0  0  0  0
  145.3120  138.8424  153.5299 N   0  0  0  0  0  0  0  0  0  0  0  0
  146.0349  139.7115  154.2427 C   0  0  0  0  0  0  0  0  0  0  0  0
  147.1653  139.4989  154.9194 N   0  0  0  0  0  0  0  0  0  0  0  0
  147.5653  138.1985  154.8247 C   0  0  0  0  0  0  0  0  0  0  0  0
  144.6230  134.4735  154.0946 H   0  0  0  0  0  0  0  0  0  0  0  0
  146.3930  135.2033  152.8181 H   0  0  0  0  0  0  0  0  0  0  0  0
  150.4955  141.5452  156.8196 H   0  0  0  0  0  0  0  0  0  0  0  0
  151.5707  141.8432  155.4515 H   0  0  0  0  0  0  0  0  0  0  0  0
  152.2165  141.7954  157.0859 H   0  0  0  0  0  0  0  0  0  0  0  0
  151.7495  139.3977  157.2906 H   0  0  0  0  0  0  0  0  0  0  0  0
  153.8681  138.0267  154.6373 H   0  0  0  0  0  0  0  0  0  0  0  0
  153.0810  137.5584  156.1531 H   0  0  0  0  0  0  0  0  0  0  0  0
  151.7900  138.4695  153.5654 H   0  0  0  0  0  0  0  0  0  0  0  0
  151.3354  137.0765  154.5354 H   0  0  0  0  0  0  0  0  0  0  0  0
  149.1675  139.5521  154.4154 H   0  0  0  0  0  0  0  0  0  0  0  0
  150.1972  137.4354  156.7916 H   0  0  0  0  0  0  0  0  0  0  0  0
  149.2183  138.8712  156.9375 H   0  0  0  0  0  0  0  0  0  0  0  0
  149.3503  135.5497  155.3081 H   0  0  0  0  0  0  0  0  0  0  0  0
  143.4669  136.9237  154.1941 H   0  0  0  0  0  0  0  0  0  0  0  0
  142.9247  137.3930  152.5839 H   0  0  0  0  0  0  0  0  0  0  0  0
  142.3042  134.9224  153.6158 H   0  0  0  0  0  0  0  0  0  0  0  0
  142.6369  135.1672  151.8991 H   0  0  0  0  0  0  0  0  0  0  0  0
  144.2182  133.3617  150.4958 H   0  0  0  0  0  0  0  0  0  0  0  0
  142.6766  133.2450  151.3498 H   0  0  0  0  0  0  0  0  0  0  0  0
  143.5985  131.7968  151.0296 H   0  0  0  0  0  0  0  0  0  0  0  0
  146.4861  133.0663  152.2607 H   0  0  0  0  0  0  0  0  0  0  0  0
  146.0119  132.1011  153.6314 H   0  0  0  0  0  0  0  0  0  0  0  0
  144.9075  130.4353  151.9485 H   0  0  0  0  0  0  0  0  0  0  0  0
  145.7650  131.3280  150.7169 H   0  0  0  0  0  0  0  0  0  0  0  0
  147.5714  130.5122  151.3452 H   0  0  0  0  0  0  0  0  0  0  0  0
  145.9259  134.2596  150.5726 H   0  0  0  0  0  0  0  0  0  0  0  0
  146.3147  135.9658  150.4811 H   0  0  0  0  0  0  0  0  0  0  0  0
  144.6448  135.4522  150.3228 H   0  0  0  0  0  0  0  0  0  0  0  0
  145.6532  140.7216  154.2750 H   0  0  0  0  0  0  0  0  0  0  0  0
  143.8342  132.5393  153.2772 H   0  0  0  0  0  0  0  0  0  0  0  0
  1  2  1  0  0  0  0
  1 31  1  0  0  0  0
  1 32  1  0  0  0  0
  1 33  1  0  0  0  0
  2  6  1  0  0  0  0
  2  3  1  0  0  0  0
  2 34  1  0  0  0  0
  3  4  1  0  0  0  0
  4  5  1  0  0  0  0
  4 35  1  0  0  0  0
  4 36  1  0  0  0  0
  5  6  1  0  0  0  0
  5 37  1  0  0  0  0
  5 38  1  0  0  0  0
  6  7  1  0  0  0  0
  6  8  1  0  0  0  0
  7 39  1  0  0  0  0
  8  9  1  0  0  0  0
  8 40  1  0  0  0  0
  8 41  1  0  0  0  0
  9 28  1  0  0  0  0
  9 10  1  0  0  0  0
 10 11  2  0  0  0  0
 10 42  1  0  0  0  0
 11 12  1  0  0  0  0
 12 28  2  0  0  0  0
 12 13  1  0  0  0  0
 13 14  1  0  0  0  0
 13 25  2  0  0  0  0
 14 23  1  0  0  0  0
 14 15  1  0  0  0  0
 15 16  1  0  0  0  0
 15 43  1  0  0  0  0
 15 44  1  0  0  0  0
 16 17  1  0  0  0  0
 16 45  1  0  0  0  0
 16 46  1  0  0  0  0
 17 29  1  0  0  0  0
 17 18  1  0  0  0  0
 17 23  1  0  0  0  0
 18 19  1  0  0  0  0
 18 20  1  0  0  0  0
 18 59  1  0  0  0  0
 19 47  1  0  0  0  0
 19 48  1  0  0  0  0
 19 49  1  0  0  0  0
 20 21  1  0  0  0  0
 20 50  1  0  0  0  0
 20 51  1  0  0  0  0
 21 22  1  0  0  0  0
 21 52  1  0  0  0  0
 21 53  1  0  0  0  0
 22 54  1  0  0  0  0
 23 30  1  0  0  0  0
 23 24  1  0  0  0  0
 24 55  1  0  0  0  0
 24 56  1  0  0  0  0
 24 57  1  0  0  0  0
 25 26  1  0  0  0  0
 26 27  2  0  0  0  0
 26 58  1  0  0  0  0
 27 28  1  0  0  0  0
M  CHG  1  18   1
M  END
> <s_m_source_file>
AV-unprocessed.smi

> <i_m_source_file_index>
290

> <i_lp_mmshare_version>
43012

> <i_f3d_flags>
0

> <s_epik_input>
W0NIMl0xW0NIMl1PW0NAQEhdKFtDSDNdKVtDQEBdMShbT0hdKVtDSDJdbihbY0hdbjIpYyhjMjMpbltjSF1uYzNONFtDSDJdW0NIMl1bQ0BIXShbQ0BIXTRbQ0gzXSlOKFtDSDNdKVtDSDJdW0NIMl1bT0hd

> <s_epik_cmdline>
J2VwaWtfcHl0aG9uJywgJy1waCcsICc3LjAnLCAnLXRuJywgJzgnLCAnLW1hJywgJzIwMCcsICctbWV0YWxfYmluZGluZycsICctaW1hZScsICc8aW5maWxlLm1hZT4nLCAnLW9tYWUnLCAnPG91dGZpbGUubWFlPic=

> <r_lp_tautomer_probability>
1

> <r_epik_Ionization_Penalty>
0.0036983

> <r_epik_Ionization_Penalty_Charging>
0.0032725

> <r_epik_Ionization_Penalty_Neutral>
0.000425798

> <r_epik_State_Penalty>
-0

> <r_epik_Charging_Adjusted_Penalty>
0.0032725

> <i_epik_Tot_Q>
1

> <i_epik_Tot_abs_Q>
1

> <r_epik_Metal_State_Penalty>
-0

> <b_epik_Metal_Only>
0

> <s_lp_Force_Field>
OPLS_2005

> <r_lp_Energy>
65.9865

> <b_lp_Chiralities_Consistent>
1

> <s_lp_Variant>
AV-unprocessed.smi:290-3

> <Gold.Version>
5.8.1

> <Gold.Id.Protein>
6NUR|6NUR_protein|mol2

> <Gold.PLP.Fitness>
41.8762

> <Gold.PLP.PLP>
-27.4877

> <Gold.PLP.part.hbond>
-4.4034

> <Gold.PLP.part.metal>
0.0000

> <Gold.PLP.part.buried>
-2.8071

> <Gold.PLP.part.nonpolar>
-25.6361

> <Gold.PLP.part.repulsive>
7.1145

> <Gold.PLP.ligand.clash>
0.0000

> <Gold.PLP.ligand.torsion>
0.9000

> <Gold.PLP.Chemscore.Hbond>
5.0000

> <Gold.PLP.Chemscore.CHOScore>
0.2690

> <Gold.PLP.Chemscore.Metal>
0.0000

> <Gold.Chemscore.Hbonds>
donor molecule, donor type, donor heavy atom, donor atom, acceptor molecule, acceptor atom, score
      L1  H    18    59       P1 10957  1.85
      L1  H    22    54       P1 10747  1.00
      P1  H  7989  7998       L1     7  0.80
      P1  H  7997  8008       L1     3  0.94
      L1  C    26    58       P1 10175  0.25

> <Gold.PLP.Chemscore.Internal.Correction>
0.3816

> <Gold.Rescore>
     Score         DG    S(hbond)    S(metal)    S(lipo)     H(rot)  DE(clash)    DE(int)     intcor
     10.86     -16.14       3.43        0.00      73.26       3.67       2.83       2.44       ----

> <Gold.Chemscore.Fitness>
10.8613

> <Gold.Chemscore.DG>
-16.1361

> <Gold.Chemscore.ZeroCoef>
-5.4800

> <Gold.Chemscore.Hbond>
3.4337

> <Gold.Chemscore.Metal>
0.0000

> <Gold.Chemscore.Lipo>
73.2636

> <Gold.Chemscore.Internal_Hbond>
0.0000

> <Gold.Chemscore.DEClash>
2.8312

> <Gold.Chemscore.DEInternal>
2.4437

> <Gold.Chemscore.Rot>
3.6658

> <Gold.Chemscore.Internal.Correction>
   9.000000E+99

> <Gold.Chemscore.Hbonds>
donor molecule, donor type, donor heavy atom, donor atom, acceptor molecule, acceptor atom, score
      L1  H    18    59       P1 10957  0.20
      L1  H    22    54       P1 10747  1.00
      P1  H  7989  7998       L1     7  0.31
      P1  H  7997  8008       L1     3  0.83

> <Gold.Chemscore.Hbond.Weighted>
-11.4687

> <Gold.Chemscore.Metal.Weighted>
-0.0000

> <Gold.Chemscore.Lipo.Weighted>
-8.5718

> <Gold.Chemscore.Internal_Hbond.Weighted>
0.0000

> <Gold.Chemscore.DEClash.Weighted>
2.8312

> <Gold.Chemscore.DEInternal.Weighted>
2.4437

> <Gold.Chemscore.Rot.Weighted>
9.3844

> <Gold.Chemscore.Internal.Correction.Weighted>
   9.000000E+99

> <Gold.Protein.RotatedTorsions>
[ 6907 6896 6895 6894 ] final   26.12 input  -60.11 | X-H torsion
[ 7974 7965 7964 7962 ] final  -71.63 input  175.53 | X-H torsion
[ 8008 7997 7996 7995 ] final  -29.55 input   59.86 | X-H torsion
[ 10167 10162 10161 10158 ] final  166.76 input  -65.29 | X-H torsion
[ 10718 10713 10712 10709 ] final -177.31 input   66.30 | X-H torsion
[ 10763 10752 10751 10750 ] final  130.66 input  -60.55 | X-H torsion
[ 11005 11000 10999 10996 ] final -172.80 input  -57.11 | X-H torsion

> <Gold.Protein.ActiveResidues>
 VAL166  LYS551  ARG553  GLY616  TRP617  ASP618  TYR619  PRO620  LYS621  CYS622 
 ASP623  PHE694  ASN695  SER759  ASP760  ASP761  ALA762  ILE779  LEU786  VAL792 
 PHE793  MET794  SER795  GLU796  ALA797  LYS798  CYS799  TRP800  GLU811  SER814 

> <Gold.Protein.RotatedAtoms>
  151.9827  135.0020  160.0557 H   0  0  0  0  0  0  0  0  0  0  0  0  # atno 6907 bound_to 6896
  152.1681  133.4621  159.4903 H   0  0  0  0  0  0  0  0  0  0  0  0  # atno 6908 bound_to 6896
  150.6897  134.1905  159.4326 H   0  0  0  0  0  0  0  0  0  0  0  0  # atno 6909 bound_to 6896
  145.6755  140.9206  143.0860 H   0  0  0  0  0  0  0  0  0  0  0  0  # atno 7974 bound_to 7965
  154.4285  140.1815  156.1266 H   0  0  0  0  0  0  0  0  0  0  0  0  # atno 8008 bound_to 7997
  156.0101  140.3351  155.6907 H   0  0  0  0  0  0  0  0  0  0  0  0  # atno 8009 bound_to 7997
  155.6122  140.0651  157.2693 H   0  0  0  0  0  0  0  0  0  0  0  0  # atno 8010 bound_to 7997
  139.4931  144.3994  151.9427 H   0  0  0  0  0  0  0  0  0  0  0  0  # atno 10167 bound_to 10162
  156.8277  130.9642  151.3108 H   0  0  0  0  0  0  0  0  0  0  0  0  # atno 10718 bound_to 10713
  153.7616  135.3195  155.3338 H   0  0  0  0  0  0  0  0  0  0  0  0  # atno 10763 bound_to 10752
  154.8228  135.4591  154.0832 H   0  0  0  0  0  0  0  0  0  0  0  0  # atno 10764 bound_to 10752
  153.2065  135.6930  153.8250 H   0  0  0  0  0  0  0  0  0  0  0  0  # atno 10765 bound_to 10752
  140.4929  134.5968  157.4961 H   0  0  0  0  0  0  0  0  0  0  0  0  # atno 11005 bound_to 11000
  144.7043  139.8629  143.7435 LP  0  0  0  0  0  0  0  0  0  0  0  0  # atno 17320 bound_to 7965
  146.1009  139.4004  143.0348 LP  0  0  0  0  0  0  0  0  0  0  0  0  # atno 17321 bound_to 7965
  140.3432  144.3178  150.5963 LP  0  0  0  0  0  0  0  0  0  0  0  0  # atno 17342 bound_to 10162
  140.5548  143.2201  151.7866 LP  0  0  0  0  0  0  0  0  0  0  0  0  # atno 17343 bound_to 10162
  157.6423  130.8816  149.9473 LP  0  0  0  0  0  0  0  0  0  0  0  0  # atno 17370 bound_to 10713
  156.0952  130.3660  150.0319 LP  0  0  0  0  0  0  0  0  0  0  0  0  # atno 17371 bound_to 10713
  139.9759  134.7217  155.9952 LP  0  0  0  0  0  0  0  0  0  0  0  0  # atno 17394 bound_to 11000
  141.1475  133.6553  156.3912 LP  0  0  0  0  0  0  0  0  0  0  0  0  # atno 17395 bound_to 11000

$$$$
