AV-unprocessed.smi:1163|AV-procd|sdf|4925|dock10
  -GOLD-   22720 3503D 1   1.00000     0.00000
 Structure written by MMmdl.
 40 41  0  0  0  0  0  0  0  0  2 V2000
  152.5093  140.5420  158.5982 C   0  0  0  0  0  0  0  0  0  0  0  0
  152.9845  139.8119  157.4726 O   0  0  0  0  0  0  0  0  0  0  0  0
  152.0610  139.3212  156.5724 C   0  0  0  0  0  0  0  0  0  0  0  0
  152.5273  138.6305  155.4365 C   0  0  0  0  0  0  0  0  0  0  0  0
  151.5923  138.1303  154.5101 C   0  0  0  0  0  0  0  0  0  0  0  0
  150.2119  138.3324  154.7529 C   0  0  0  0  0  0  0  0  0  0  0  0
  149.1622  137.8968  153.8971 N   0  0  0  0  0  0  0  0  0  0  0  0
  147.9070  138.3643  153.7831 C   0  0  0  0  0  0  0  0  0  0  0  0
  147.4355  139.3168  154.4030 O   0  0  0  0  0  0  0  0  0  0  0  0
  147.2074  137.6570  152.8846 N   0  0  0  0  0  0  0  0  0  0  0  0
  145.8125  137.9053  152.5347 C   0  0  1  0  0  0  0  0  0  0  0  0
  145.0854  136.6699  152.0052 C   0  0  0  0  0  0  0  0  0  0  0  0
  143.6140  136.8894  152.3984 C   0  0  0  0  0  0  0  0  0  0  0  0
  143.5774  138.0704  153.2953 N   0  3  1  0  0  0  0  0  0  0  0  0
  142.5876  138.0062  154.3978 C   0  0  0  0  0  0  0  0  0  0  0  0
  141.1388  137.9039  153.8903 C   0  0  0  0  0  0  0  0  0  0  0  0
  140.3097  138.2652  154.8683 F   0  0  0  0  0  0  0  0  0  0  0  0
  140.9587  138.7208  152.8527 F   0  0  0  0  0  0  0  0  0  0  0  0
  140.8430  136.6572  153.5251 F   0  0  0  0  0  0  0  0  0  0  0  0
  144.9625  138.2975  153.7429 C   0  0  0  0  0  0  0  0  0  0  0  0
  149.8510  139.0414  155.9176 C   0  0  0  0  0  0  0  0  0  0  0  0
  150.7417  139.5242  156.8090 N   0  0  0  0  0  0  0  0  0  0  0  0
  153.3566  140.8609  159.2051 H   0  0  0  0  0  0  0  0  0  0  0  0
  151.8630  139.9292  159.2281 H   0  0  0  0  0  0  0  0  0  0  0  0
  151.9665  141.4374  158.2921 H   0  0  0  0  0  0  0  0  0  0  0  0
  153.5861  138.4907  155.2751 H   0  0  0  0  0  0  0  0  0  0  0  0
  151.9600  137.6169  153.6366 H   0  0  0  0  0  0  0  0  0  0  0  0
  149.4072  137.1394  153.2760 H   0  0  0  0  0  0  0  0  0  0  0  0
  147.6710  136.8947  152.4117 H   0  0  0  0  0  0  0  0  0  0  0  0
  145.7567  138.6947  151.7822 H   0  0  0  0  0  0  0  0  0  0  0  0
  145.2157  136.5428  150.9301 H   0  0  0  0  0  0  0  0  0  0  0  0
  145.4603  135.7685  152.4926 H   0  0  0  0  0  0  0  0  0  0  0  0
  142.9924  137.0824  151.5235 H   0  0  0  0  0  0  0  0  0  0  0  0
  143.2247  135.9977  152.8927 H   0  0  0  0  0  0  0  0  0  0  0  0
  142.8230  137.1785  155.0686 H   0  0  0  0  0  0  0  0  0  0  0  0
  142.6802  138.9187  154.9890 H   0  0  0  0  0  0  0  0  0  0  0  0
  145.1865  137.6517  154.5945 H   0  0  0  0  0  0  0  0  0  0  0  0
  145.1182  139.3326  154.0490 H   0  0  0  0  0  0  0  0  0  0  0  0
  148.8113  139.2294  156.1439 H   0  0  0  0  0  0  0  0  0  0  0  0
  143.3380  138.8656  152.7197 H   0  0  0  0  0  0  0  0  0  0  0  0
  1  2  1  0  0  0  0
  1 23  1  0  0  0  0
  1 24  1  0  0  0  0
  1 25  1  0  0  0  0
  2  3  1  0  0  0  0
  3 22  1  0  0  0  0
  3  4  2  0  0  0  0
  4  5  1  0  0  0  0
  4 26  1  0  0  0  0
  5  6  2  0  0  0  0
  5 27  1  0  0  0  0
  6  7  1  0  0  0  0
  6 21  1  0  0  0  0
  7  8  1  0  0  0  0
  7 28  1  0  0  0  0
  8  9  2  0  0  0  0
  8 10  1  0  0  0  0
 10 11  1  0  0  0  0
 10 29  1  0  0  0  0
 11 20  1  0  0  0  0
 11 12  1  0  0  0  0
 11 30  1  0  0  0  0
 12 13  1  0  0  0  0
 12 31  1  0  0  0  0
 12 32  1  0  0  0  0
 13 14  1  0  0  0  0
 13 33  1  0  0  0  0
 13 34  1  0  0  0  0
 14 15  1  0  0  0  0
 14 20  1  0  0  0  0
 14 40  1  0  0  0  0
 15 16  1  0  0  0  0
 15 35  1  0  0  0  0
 15 36  1  0  0  0  0
 16 17  1  0  0  0  0
 16 18  1  0  0  0  0
 16 19  1  0  0  0  0
 20 37  1  0  0  0  0
 20 38  1  0  0  0  0
 21 22  2  0  0  0  0
 21 39  1  0  0  0  0
M  CHG  1  14   1
M  END
> <s_m_source_file>
AV-unprocessed.smi

> <i_m_source_file_index>
1163

> <i_lp_mmshare_version>
43012

> <i_f3d_flags>
0

> <s_epik_input>
W0NIM11PYzFbY0hdW2NIXWMoW2NIXW4xKVtOSF1DKD1PKVtOSF1bQ0BASF0yW0NIMl1bQ0gyXU4oW0NIMl0yKVtDSDJdQyhGKShGKUY=

> <s_epik_cmdline>
J2VwaWtfcHl0aG9uJywgJy1waCcsICc3LjAnLCAnLXRuJywgJzgnLCAnLW1hJywgJzIwMCcsICctbWV0YWxfYmluZGluZycsICctaW1hZScsICc8aW5maWxlLm1hZT4nLCAnLW9tYWUnLCAnPG91dGZpbGUubWFlPic=

> <r_lp_tautomer_probability>
1

> <r_epik_Ionization_Penalty>
1.12054

> <r_epik_Ionization_Penalty_Charging>
1.12047

> <r_epik_Ionization_Penalty_Neutral>
7.20346e-05

> <r_epik_State_Penalty>
1.17927

> <r_epik_Charging_Adjusted_Penalty>
2.29974

> <i_epik_Tot_Q>
1

> <i_epik_Tot_abs_Q>
1

> <r_epik_Metal_State_Penalty>
1.17928

> <b_epik_Metal_Only>
0

> <s_lp_Force_Field>
OPLS_2005

> <r_lp_Energy>
29.7576

> <b_lp_Chiralities_Consistent>
1

> <s_lp_Variant>
AV-unprocessed.smi:1163-6

> <Gold.Version>
5.8.1

> <Gold.Id.Protein>
6NUR|6NUR_protein|mol2

> <Gold.PLP.Fitness>
43.7640

> <Gold.PLP.PLP>
-29.8663

> <Gold.PLP.part.hbond>
-3.8293

> <Gold.PLP.part.metal>
0.0000

> <Gold.PLP.part.buried>
-3.4575

> <Gold.PLP.part.nonpolar>
-24.1195

> <Gold.PLP.part.repulsive>
0.1524

> <Gold.PLP.ligand.clash>
0.0000

> <Gold.PLP.ligand.torsion>
0.7098

> <Gold.PLP.Chemscore.Hbond>
4.9513

> <Gold.PLP.Chemscore.CHOScore>
0.0000

> <Gold.PLP.Chemscore.Metal>
0.0000

> <Gold.Chemscore.Hbonds>
donor molecule, donor type, donor heavy atom, donor atom, acceptor molecule, acceptor atom, score
      L1  H     7    28       P1  7948  0.94
      L1  H    10    29       P1  7948  1.00
      L1  H    14    40       P1 10175  1.79
      P1  H  7997  8009       L1     2  1.00

> <Gold.PLP.Chemscore.Internal.Correction>
0.4636

> <Gold.Rescore>
     Score         DG    S(hbond)    S(metal)    S(lipo)     H(rot)  DE(clash)    DE(int)     intcor
     15.54     -19.36       3.56        0.00      53.69       1.68       0.12       3.70       ----

> <Gold.Chemscore.Fitness>
15.5442

> <Gold.Chemscore.DG>
-19.3639

> <Gold.Chemscore.ZeroCoef>
-5.4800

> <Gold.Chemscore.Hbond>
3.5621

> <Gold.Chemscore.Metal>
0.0000

> <Gold.Chemscore.Lipo>
53.6902

> <Gold.Chemscore.Internal_Hbond>
0.0000

> <Gold.Chemscore.DEClash>
0.1162

> <Gold.Chemscore.DEInternal>
3.7036

> <Gold.Chemscore.Rot>
1.6778

> <Gold.Chemscore.Internal.Correction>
   9.000000E+99

> <Gold.Chemscore.Hbonds>
donor molecule, donor type, donor heavy atom, donor atom, acceptor molecule, acceptor atom, score
      L1  H     7    28       P1  7948  0.84
      L1  H    10    29       P1  7948  0.89
      L1  H    14    40       P1 10175  0.87
      P1  H  7997  8009       L1     2  0.90

> <Gold.Chemscore.Hbond.Weighted>
-11.8973

> <Gold.Chemscore.Metal.Weighted>
-0.0000

> <Gold.Chemscore.Lipo.Weighted>
-6.2818

> <Gold.Chemscore.Internal_Hbond.Weighted>
0.0000

> <Gold.Chemscore.DEClash.Weighted>
0.1162

> <Gold.Chemscore.DEInternal.Weighted>
3.7036

> <Gold.Chemscore.Rot.Weighted>
4.2951

> <Gold.Chemscore.Internal.Correction.Weighted>
   9.000000E+99

> <Gold.Protein.RotatedTorsions>
[ 6907 6896 6895 6894 ] final  -56.47 input  -60.11 | X-H torsion
[ 7974 7965 7964 7962 ] final  177.06 input  175.53 | X-H torsion
[ 8008 7997 7996 7995 ] final  164.27 input   59.86 | X-H torsion
[ 10167 10162 10161 10158 ] final  101.30 input  -65.29 | X-H torsion
[ 10718 10713 10712 10709 ] final   11.02 input   66.30 | X-H torsion
[ 10763 10752 10751 10750 ] final   73.95 input  -60.55 | X-H torsion
[ 11005 11000 10999 10996 ] final   29.63 input  -57.11 | X-H torsion

> <Gold.Protein.ActiveResidues>
 VAL166  LYS551  ARG553  GLY616  TRP617  ASP618  TYR619  PRO620  LYS621  CYS622 
 ASP623  PHE694  ASN695  SER759  ASP760  ASP761  ALA762  ILE779  LEU786  VAL792 
 PHE793  MET794  SER795  GLU796  ALA797  LYS798  CYS799  TRP800  GLU811  SER814 

> <Gold.Protein.RotatedAtoms>
  150.8165  134.7349  159.6734 H   0  0  0  0  0  0  0  0  0  0  0  0  # atno 6907 bound_to 6896
  152.4283  134.5823  159.9961 H   0  0  0  0  0  0  0  0  0  0  0  0  # atno 6908 bound_to 6896
  151.6018  133.3318  159.3085 H   0  0  0  0  0  0  0  0  0  0  0  0  # atno 6909 bound_to 6896
  144.7174  140.0191  143.6440 H   0  0  0  0  0  0  0  0  0  0  0  0  # atno 7974 bound_to 7965
  156.1893  140.1701  156.8124 H   0  0  0  0  0  0  0  0  0  0  0  0  # atno 8008 bound_to 7997
  154.5452  140.0728  156.8608 H   0  0  0  0  0  0  0  0  0  0  0  0  # atno 8009 bound_to 7997
  155.3137  140.3369  155.4245 H   0  0  0  0  0  0  0  0  0  0  0  0  # atno 8010 bound_to 7997
  139.7450  144.7000  151.0518 H   0  0  0  0  0  0  0  0  0  0  0  0  # atno 10167 bound_to 10162
  156.9895  130.6037  149.5684 H   0  0  0  0  0  0  0  0  0  0  0  0  # atno 10718 bound_to 10713
  153.0555  135.5044  154.7970 H   0  0  0  0  0  0  0  0  0  0  0  0  # atno 10763 bound_to 10752
  154.6799  135.2966  154.9629 H   0  0  0  0  0  0  0  0  0  0  0  0  # atno 10764 bound_to 10752
  154.0419  135.6716  153.4843 H   0  0  0  0  0  0  0  0  0  0  0  0  # atno 10765 bound_to 10752
  140.3029  134.2736  155.7750 H   0  0  0  0  0  0  0  0  0  0  0  0  # atno 11005 bound_to 11000
  146.0196  139.3239  143.0821 LP  0  0  0  0  0  0  0  0  0  0  0  0  # atno 17320 bound_to 7965
  145.8585  140.9489  143.0713 LP  0  0  0  0  0  0  0  0  0  0  0  0  # atno 17321 bound_to 7965
  140.7791  143.4878  150.9933 LP  0  0  0  0  0  0  0  0  0  0  0  0  # atno 17342 bound_to 10162
  139.8566  143.7369  152.3175 LP  0  0  0  0  0  0  0  0  0  0  0  0  # atno 17343 bound_to 10162
  156.0212  130.5307  150.8282 LP  0  0  0  0  0  0  0  0  0  0  0  0  # atno 17370 bound_to 10713
  157.5469  131.0942  150.9750 LP  0  0  0  0  0  0  0  0  0  0  0  0  # atno 17371 bound_to 10713
  141.2124  133.7658  156.9794 LP  0  0  0  0  0  0  0  0  0  0  0  0  # atno 17394 bound_to 11000
  140.1093  134.9487  157.2041 LP  0  0  0  0  0  0  0  0  0  0  0  0  # atno 17395 bound_to 11000

$$$$
