#       Name:                AV-unprocessed.smi:1085
#       Creating user name   scv26
#       Creation time:       Fri Mar 27 03:25:05 2020


#       File generated by GOLD software.
#

@<TRIPOS>MOLECULE
AV-unprocessed.smi:1085
    38    39     1
SMALL
NO_CHARGES


@<TRIPOS>ATOM
      1 ****         0.8985   2.5231   1.5411 O.2            1 S1                 0.0000
      2 ****         1.5374   1.6330   0.9810 C.2            1 S1                 0.0000
      3 ****         3.0506   1.7740   0.8061 C.3            1 S1                 0.0000
      4 ****         3.4225   1.7822  -0.5972 N.pl3          1 S1                 0.0000
      5 ****         3.3690   2.7510  -1.5137 C.2            1 S1                 0.0000
      6 ****         3.7985   2.3309  -2.6940 N.2            1 S1                 0.0000
      7 ****         4.1330   1.0083  -2.4554 N.2            1 S1                 0.0000
      8 ****         3.9125   0.6770  -1.2128 N.2            1 S1                 0.0000
      9 ****         0.9805   0.5085   0.5037 N.am           1 S1                 0.0000
     10 ****        -0.4407   0.1814   0.5441 C.3            1 S1                 0.0000
     11 ****        -0.7921  -0.5348   1.8621 C.3            1 S1                 0.0000
     12 ****        -2.2671  -0.9622   1.8864 C.3            1 S1                 0.0000
     13 ****        -2.6179  -1.8333   0.6698 C.3            1 S1                 0.0000
     14 ****        -2.2825  -1.1202  -0.6573 C.3            1 S1                 0.0000
     15 ****        -2.6473  -1.9791  -1.8857 C.3            1 S1                 0.0000
     16 ****        -1.9440  -3.1119  -1.8985 F              1 S1                 0.0000
     17 ****        -3.9462  -2.2780  -1.8645 F              1 S1                 0.0000
     18 ****        -2.3951  -1.3027  -3.0064 F              1 S1                 0.0000
     19 ****        -0.7983  -0.6962  -0.6696 C.3            1 S1                 0.0000
     20 ****         3.3969   2.7017   1.2632 H              1 S1                 0.0000
     21 ****         3.5590   0.9533   1.3145 H              1 S1                 0.0000
     22 ****         3.0153   3.7527  -1.3189 H              1 S1                 0.0000
     23 ****         1.5883  -0.1673   0.0630 H              1 S1                 0.0000
     24 ****        -1.0242   1.1019   0.4769 H              1 S1                 0.0000
     25 ****        -0.1583  -1.4142   1.9866 H              1 S1                 0.0000
     26 ****        -0.5863   0.1174   2.7117 H              1 S1                 0.0000
     27 ****        -2.4801  -1.5071   2.8066 H              1 S1                 0.0000
     28 ****        -2.9036  -0.0766   1.8977 H              1 S1                 0.0000
     29 ****        -2.0741  -2.7768   0.7306 H              1 S1                 0.0000
     30 ****        -3.6779  -2.0867   0.7024 H              1 S1                 0.0000
     31 ****        -2.8857  -0.2121  -0.7060 H              1 S1                 0.0000
     32 ****        -0.5768  -0.1512  -1.5880 H              1 S1                 0.0000
     33 ****        -0.1651  -1.5847  -0.6799 H              1 S1                 0.0000
     34 ****         1.3685   3.3375   1.8814 LP             1 S1                 0.0000
     35 ****        -0.0907   2.4320   1.6560 LP             1 S1                 0.0000
     36 ****         3.8651   2.8440  -3.5497 LP             1 S1                 0.0000
     37 ****         4.4975   0.3858  -3.1480 LP             1 S1                 0.0000
     38 ****         4.0734  -0.2174  -0.7955 LP             1 S1                 0.0000
@<TRIPOS>BOND
    1    1    2 2     
    2    2    3 1     
    3    2    9 am    
    4    3    4 1     
    5    3   20 1     
    6    3   21 1     
    7    4    8 1     
    8    4    5 1     
    9    5    6 2     
   10    5   22 1     
   11    6    7 1     
   12    7    8 2     
   13    9   10 1     
   14    9   23 1     
   15   10   19 1     
   16   10   11 1     
   17   10   24 1     
   18   11   12 1     
   19   11   25 1     
   20   11   26 1     
   21   12   13 1     
   22   12   27 1     
   23   12   28 1     
   24   13   14 1     
   25   13   29 1     
   26   13   30 1     
   27   14   15 1     
   28   14   19 1     
   29   14   31 1     
   30   15   16 1     
   31   15   17 1     
   32   15   18 1     
   33   19   32 1     
   34   19   33 1     
   35    1   34 1     
   36    1   35 1     
   37    6   36 1     
   38    7   37 1     
   39    8   38 1     
@<TRIPOS>SUBSTRUCTURE
      1 S1             1
@<TRIPOS>SET
LONE_PAIRS      STATIC     ATOMS    <user>   **** ""
5 34 35 36 37 38
DONOR_HYDROGENS      STATIC     ATOMS    <user>   **** ""
1 23
ATOM$BLUE        STATIC     ATOMS    COLORGROUP SYSTEM
5 34 35 36 37 38
ATOM$RED        STATIC     ATOMS    COLORGROUP SYSTEM
1 23
