AV-unprocessed.smi:826|AV-procd|sdf|3854|dock8
  -GOLD-   22720 1303D 1   1.00000     0.00000
 Structure written by MMmdl.
 38 39  0  0  0  0  0  0  0  0  2 V2000
  145.3534  134.8816  162.3704 C   0  0  0  0  0  0  0  0  0  0  0  0
  146.4285  135.6131  161.6425 C   0  0  0  0  0  0  0  0  0  0  0  0
  146.6259  136.9273  161.7719 N   0  0  0  0  0  0  0  0  0  0  0  0
  147.6820  137.3763  160.9921 N   0  0  0  0  0  0  0  0  0  0  0  0
  148.2590  136.4009  160.2760 C   0  0  0  0  0  0  0  0  0  0  0  0
  149.2995  136.6270  159.4571 N   0  5  0  0  0  0  0  0  0  0  0  0
  149.3290  137.7443  158.6956 C   0  0  0  0  0  0  0  0  0  0  0  0
  148.3832  138.2236  158.0651 O   0  0  0  0  0  0  0  0  0  0  0  0
  150.5291  138.3434  158.6593 N   0  0  0  0  0  0  0  0  0  0  0  0
  150.8581  139.5639  157.9235 C   0  0  2  0  0  0  0  0  0  0  0  0
  151.7480  139.1766  156.7304 C   0  0  0  0  0  0  0  0  0  0  0  0
  151.6440  140.5340  158.8194 C   0  0  0  0  0  0  0  0  0  0  0  0
  151.8980  140.2431  159.9897 O   0  0  0  0  0  0  0  0  0  0  0  0
  152.0318  141.6840  158.2479 N   0  0  0  0  0  0  0  0  0  0  0  0
  152.7690  142.7478  158.9229 C   0  0  0  0  0  0  0  0  0  0  0  0
  152.2795  142.9505  160.3723 C   0  0  0  0  0  0  0  0  0  0  0  0
  152.0505  144.4540  160.5349 C   0  0  0  0  0  0  0  0  0  0  0  0
  151.6685  144.9269  159.1362 C   0  0  0  0  0  0  0  0  0  0  0  0
  152.5538  144.0946  158.2079 C   0  0  0  0  0  0  0  0  0  0  0  0
  147.5348  134.8146  160.5381 S   0  0  0  0  0  0  0  0  0  0  0  0
  144.4419  134.8714  161.7731 H   0  0  0  0  0  0  0  0  0  0  0  0
  145.1429  135.3643  163.3254 H   0  0  0  0  0  0  0  0  0  0  0  0
  145.6606  133.8532  162.5606 H   0  0  0  0  0  0  0  0  0  0  0  0
  151.2724  137.9222  159.1964 H   0  0  0  0  0  0  0  0  0  0  0  0
  149.9445  140.0362  157.5565 H   0  0  0  0  0  0  0  0  0  0  0  0
  152.0298  140.0532  156.1455 H   0  0  0  0  0  0  0  0  0  0  0  0
  151.2232  138.4947  156.0604 H   0  0  0  0  0  0  0  0  0  0  0  0
  152.6654  138.6800  157.0505 H   0  0  0  0  0  0  0  0  0  0  0  0
  151.7771  141.8428  157.2839 H   0  0  0  0  0  0  0  0  0  0  0  0
  153.8343  142.5107  158.9136 H   0  0  0  0  0  0  0  0  0  0  0  0
  151.3341  142.4298  160.5351 H   0  0  0  0  0  0  0  0  0  0  0  0
  152.9887  142.5624  161.1042 H   0  0  0  0  0  0  0  0  0  0  0  0
  151.2891  144.6840  161.2806 H   0  0  0  0  0  0  0  0  0  0  0  0
  152.9783  144.9367  160.8446 H   0  0  0  0  0  0  0  0  0  0  0  0
  150.6187  144.6992  158.9460 H   0  0  0  0  0  0  0  0  0  0  0  0
  151.8084  145.9997  159.0007 H   0  0  0  0  0  0  0  0  0  0  0  0
  153.5160  144.5947  158.0894 H   0  0  0  0  0  0  0  0  0  0  0  0
  152.1221  143.9940  157.2112 H   0  0  0  0  0  0  0  0  0  0  0  0
  1  2  1  0  0  0  0
  1 21  1  0  0  0  0
  1 22  1  0  0  0  0
  1 23  1  0  0  0  0
  2 20  1  0  0  0  0
  2  3  2  0  0  0  0
  3  4  1  0  0  0  0
  4  5  2  0  0  0  0
  5  6  1  0  0  0  0
  5 20  1  0  0  0  0
  6  7  1  0  0  0  0
  7  8  2  0  0  0  0
  7  9  1  0  0  0  0
  9 10  1  0  0  0  0
  9 24  1  0  0  0  0
 10 11  1  0  0  0  0
 10 12  1  0  0  0  0
 10 25  1  0  0  0  0
 11 26  1  0  0  0  0
 11 27  1  0  0  0  0
 11 28  1  0  0  0  0
 12 13  2  0  0  0  0
 12 14  1  0  0  0  0
 14 15  1  0  0  0  0
 14 29  1  0  0  0  0
 15 19  1  0  0  0  0
 15 16  1  0  0  0  0
 15 30  1  0  0  0  0
 16 17  1  0  0  0  0
 16 31  1  0  0  0  0
 16 32  1  0  0  0  0
 17 18  1  0  0  0  0
 17 33  1  0  0  0  0
 17 34  1  0  0  0  0
 18 19  1  0  0  0  0
 18 35  1  0  0  0  0
 18 36  1  0  0  0  0
 19 37  1  0  0  0  0
 19 38  1  0  0  0  0
M  CHG  1   6  -1
M  END
> <s_m_source_file>
AV-unprocessed.smi

> <i_m_source_file_index>
826

> <i_lp_mmshare_version>
43012

> <i_f3d_flags>
0

> <s_epik_input>
W0NIM11jMW5uYyhzMSlbTkhdQyg9TylbTkhdW0NASF0oW0NIM10pQyg9TylbTkhdW0NIXTJbQ0gyXVtDSDJdW0NIMl1bQ0gyXTI=

> <s_epik_cmdline>
J2VwaWtfcHl0aG9uJywgJy1waCcsICc3LjAnLCAnLXRuJywgJzgnLCAnLW1hJywgJzIwMCcsICctbWV0YWxfYmluZGluZycsICctaW1hZScsICc8aW5maWxlLm1hZT4nLCAnLW9tYWUnLCAnPG91dGZpbGUubWFlPic=

> <r_lp_tautomer_probability>
1

> <r_epik_Ionization_Penalty>
3.15008

> <r_epik_Ionization_Penalty_Charging>
3.01509

> <r_epik_Ionization_Penalty_Neutral>
0.134987

> <r_epik_State_Penalty>
3.01143

> <r_epik_Charging_Adjusted_Penalty>
6.02652

> <i_epik_Tot_Q>
-1

> <i_epik_Tot_abs_Q>
1

> <r_epik_Metal_State_Penalty>
0.454645

> <b_epik_Metal_Only>
1

> <s_lp_Force_Field>
OPLS_2005

> <r_lp_Energy>
15.3268

> <b_lp_Chiralities_Consistent>
1

> <s_lp_Variant>
AV-unprocessed.smi:826-3

> <Gold.Version>
5.8.1

> <Gold.Id.Protein>
6NUR|6NUR_protein|mol2

> <Gold.PLP.Fitness>
45.8381

> <Gold.PLP.PLP>
-37.7839

> <Gold.PLP.part.hbond>
-2.9599

> <Gold.PLP.part.metal>
0.0000

> <Gold.PLP.part.buried>
-4.5682

> <Gold.PLP.part.nonpolar>
-31.7628

> <Gold.PLP.part.repulsive>
0.2206

> <Gold.PLP.ligand.clash>
0.0000

> <Gold.PLP.ligand.torsion>
1.1016

> <Gold.PLP.Chemscore.Hbond>
3.4037

> <Gold.PLP.Chemscore.CHOScore>
0.0000

> <Gold.PLP.Chemscore.Metal>
0.0000

> <Gold.Chemscore.Hbonds>
donor molecule, donor type, donor heavy atom, donor atom, acceptor molecule, acceptor atom, score
      P1  H  6896  6908       L1     6  0.42
      P1  H  6931  6943       L1     4  0.80
      P1  H  6934  6947       L1     4  0.73

> <Gold.PLP.Chemscore.Internal.Correction>
0.0464

> <Gold.Rescore>
     Score         DG    S(hbond)    S(metal)    S(lipo)     H(rot)  DE(clash)    DE(int)     intcor
     14.93     -18.24       1.78        0.00      93.57       1.62       1.03       2.28       ----

> <Gold.Chemscore.Fitness>
14.9301

> <Gold.Chemscore.DG>
-18.2366

> <Gold.Chemscore.ZeroCoef>
-5.4800

> <Gold.Chemscore.Hbond>
1.7833

> <Gold.Chemscore.Metal>
0.0000

> <Gold.Chemscore.Lipo>
93.5716

> <Gold.Chemscore.Internal_Hbond>
0.0000

> <Gold.Chemscore.DEClash>
1.0315

> <Gold.Chemscore.DEInternal>
2.2751

> <Gold.Chemscore.Rot>
1.6201

> <Gold.Chemscore.Internal.Correction>
   9.000000E+99

> <Gold.Chemscore.Hbonds>
donor molecule, donor type, donor heavy atom, donor atom, acceptor molecule, acceptor atom, score
      P1  H  6896  6908       L1     6  0.15
      P1  H  6931  6943       L1     4  0.44
      P1  H  6934  6947       L1     4  0.12

> <Gold.Chemscore.Hbond.Weighted>
-5.9562

> <Gold.Chemscore.Metal.Weighted>
-0.0000

> <Gold.Chemscore.Lipo.Weighted>
-10.9479

> <Gold.Chemscore.Internal_Hbond.Weighted>
0.0000

> <Gold.Chemscore.DEClash.Weighted>
1.0315

> <Gold.Chemscore.DEInternal.Weighted>
2.2751

> <Gold.Chemscore.Rot.Weighted>
4.1475

> <Gold.Chemscore.Internal.Correction.Weighted>
   9.000000E+99

> <Gold.Protein.RotatedTorsions>
[ 6907 6896 6895 6894 ] final -161.80 input  -60.11 | X-H torsion
[ 7974 7965 7964 7962 ] final  -48.95 input  175.53 | X-H torsion
[ 8008 7997 7996 7995 ] final  -78.35 input   59.86 | X-H torsion
[ 10167 10162 10161 10158 ] final -162.75 input  -65.29 | X-H torsion
[ 10718 10713 10712 10709 ] final   24.16 input   66.30 | X-H torsion
[ 10763 10752 10751 10750 ] final   52.25 input  -60.55 | X-H torsion
[ 11005 11000 10999 10996 ] final  116.25 input  -57.11 | X-H torsion

> <Gold.Protein.ActiveResidues>
 VAL166  LYS551  ARG553  GLY616  TRP617  ASP618  TYR619  PRO620  LYS621  CYS622 
 ASP623  PHE694  ASN695  SER759  ASP760  ASP761  ALA762  ILE779  LEU786  VAL792 
 PHE793  MET794  SER795  GLU796  ALA797  LYS798  CYS799  TRP800  GLU811  SER814 

> <Gold.Protein.RotatedAtoms>
  151.3704  133.3857  159.2698 H   0  0  0  0  0  0  0  0  0  0  0  0  # atno 6907 bound_to 6896
  150.9656  134.9038  159.7767 H   0  0  0  0  0  0  0  0  0  0  0  0  # atno 6908 bound_to 6896
  152.5165  134.3664  159.9355 H   0  0  0  0  0  0  0  0  0  0  0  0  # atno 6909 bound_to 6896
  145.9457  140.7620  142.9530 H   0  0  0  0  0  0  0  0  0  0  0  0  # atno 7974 bound_to 7965
  154.5681  140.0695  156.8923 H   0  0  0  0  0  0  0  0  0  0  0  0  # atno 8008 bound_to 7997
  155.2685  140.3363  155.4249 H   0  0  0  0  0  0  0  0  0  0  0  0  # atno 8009 bound_to 7997
  156.2097  140.1754  156.7708 H   0  0  0  0  0  0  0  0  0  0  0  0  # atno 8010 bound_to 7997
  139.6370  144.0332  152.2062 H   0  0  0  0  0  0  0  0  0  0  0  0  # atno 10167 bound_to 10162
  157.1760  130.6781  149.6095 H   0  0  0  0  0  0  0  0  0  0  0  0  # atno 10718 bound_to 10713
  152.9788  135.5818  154.4548 H   0  0  0  0  0  0  0  0  0  0  0  0  # atno 10763 bound_to 10752
  154.4132  135.2770  155.2025 H   0  0  0  0  0  0  0  0  0  0  0  0  # atno 10764 bound_to 10752
  154.3806  135.6147  153.5842 H   0  0  0  0  0  0  0  0  0  0  0  0  # atno 10765 bound_to 10752
  139.9035  134.9595  156.7169 H   0  0  0  0  0  0  0  0  0  0  0  0  # atno 11005 bound_to 11000
  144.6786  140.2353  143.7350 LP  0  0  0  0  0  0  0  0  0  0  0  0  # atno 17320 bound_to 7965
  145.8239  139.2056  143.1922 LP  0  0  0  0  0  0  0  0  0  0  0  0  # atno 17321 bound_to 7965
  140.0011  144.6292  150.7729 LP  0  0  0  0  0  0  0  0  0  0  0  0  # atno 17342 bound_to 10162
  140.7470  143.2900  151.3357 LP  0  0  0  0  0  0  0  0  0  0  0  0  # atno 17343 bound_to 10162
  155.9731  130.4663  150.6284 LP  0  0  0  0  0  0  0  0  0  0  0  0  # atno 17370 bound_to 10713
  157.3998  131.0808  151.1318 LP  0  0  0  0  0  0  0  0  0  0  0  0  # atno 17371 bound_to 10713
  140.7031  133.9289  155.8037 LP  0  0  0  0  0  0  0  0  0  0  0  0  # atno 17394 bound_to 11000
  141.0357  134.0693  157.3962 LP  0  0  0  0  0  0  0  0  0  0  0  0  # atno 17395 bound_to 11000

$$$$
