AV-unprocessed.smi:1234|AV-procd|sdf|5173|dock7
  -GOLD-   22720 4243D 1   1.00000     0.00000
 Structure written by MMmdl.
 33 34  0  0  0  0  0  0  0  0  1 V2000
  151.4879  135.9434  155.6356 O   0  0  0  0  0  0  0  0  0  0  0  0
  150.7279  136.1179  154.6824 C   0  0  0  0  0  0  0  0  0  0  0  0
  150.6181  137.2843  154.0302 N   0  0  0  0  0  0  0  0  0  0  0  0
  151.3810  138.4886  154.3393 C   0  0  0  0  0  0  0  0  0  0  0  0
  150.8085  139.2237  155.5681 C   0  0  0  0  0  0  0  0  0  0  0  0
  151.8890  139.7690  156.5173 C   0  0  0  0  0  0  0  0  0  0  0  0
  152.9909  139.2208  156.5718 O   0  0  0  0  0  0  0  0  0  0  0  0
  151.5893  140.8464  157.2722 N   0  0  0  0  0  0  0  0  0  0  0  0
  150.3209  141.5748  157.2589 C   0  0  0  0  0  0  0  0  0  0  0  0
  150.5583  142.8332  158.0950 C   0  0  0  0  0  0  0  0  0  0  0  0
  151.6949  142.4505  159.0329 C   0  0  0  0  0  0  0  0  0  0  0  0
  152.5182  141.4436  158.2298 C   0  0  0  0  0  0  0  0  0  0  0  0
  149.9093  135.1879  154.1597 N   0  0  0  0  0  0  0  0  0  0  0  0
  149.7481  133.8344  154.5581 C   0  0  0  0  0  0  0  0  0  0  0  0
  150.1518  133.3548  155.7451 N   0  0  0  0  0  0  0  0  0  0  0  0
  149.8772  132.0001  155.8787 N   0  0  0  0  0  0  0  0  0  0  0  0
  149.2776  131.5120  154.7893 C   0  0  0  0  0  0  0  0  0  0  0  0
  148.9874  132.6602  153.4937 S   0  0  0  0  0  0  0  0  0  0  0  0
  149.9698  137.3420  153.2586 H   0  0  0  0  0  0  0  0  0  0  0  0
  152.4306  138.2322  154.4951 H   0  0  0  0  0  0  0  0  0  0  0  0
  151.3460  139.1364  153.4629 H   0  0  0  0  0  0  0  0  0  0  0  0
  150.1854  140.0546  155.2358 H   0  0  0  0  0  0  0  0  0  0  0  0
  150.1637  138.5452  156.1282 H   0  0  0  0  0  0  0  0  0  0  0  0
  150.0003  141.8326  156.2488 H   0  0  0  0  0  0  0  0  0  0  0  0
  149.5478  140.9546  157.7152 H   0  0  0  0  0  0  0  0  0  0  0  0
  150.8817  143.6480  157.4458 H   0  0  0  0  0  0  0  0  0  0  0  0
  149.6648  143.1638  158.6251 H   0  0  0  0  0  0  0  0  0  0  0  0
  152.2804  143.3095  159.3620 H   0  0  0  0  0  0  0  0  0  0  0  0
  151.2871  141.9644  159.9201 H   0  0  0  0  0  0  0  0  0  0  0  0
  152.9745  140.6961  158.8808 H   0  0  0  0  0  0  0  0  0  0  0  0
  153.3155  141.9486  157.6823 H   0  0  0  0  0  0  0  0  0  0  0  0
  149.3420  135.4790  153.3773 H   0  0  0  0  0  0  0  0  0  0  0  0
  149.0042  130.4680  154.7488 H   0  0  0  0  0  0  0  0  0  0  0  0
  1  2  2  0  0  0  0
  2  3  1  0  0  0  0
  2 13  1  0  0  0  0
  3  4  1  0  0  0  0
  3 19  1  0  0  0  0
  4  5  1  0  0  0  0
  4 20  1  0  0  0  0
  4 21  1  0  0  0  0
  5  6  1  0  0  0  0
  5 22  1  0  0  0  0
  5 23  1  0  0  0  0
  6  7  2  0  0  0  0
  6  8  1  0  0  0  0
  8 12  1  0  0  0  0
  8  9  1  0  0  0  0
  9 10  1  0  0  0  0
  9 24  1  0  0  0  0
  9 25  1  0  0  0  0
 10 11  1  0  0  0  0
 10 26  1  0  0  0  0
 10 27  1  0  0  0  0
 11 12  1  0  0  0  0
 11 28  1  0  0  0  0
 11 29  1  0  0  0  0
 12 30  1  0  0  0  0
 12 31  1  0  0  0  0
 13 14  1  0  0  0  0
 13 32  1  0  0  0  0
 14 18  1  0  0  0  0
 14 15  2  0  0  0  0
 15 16  1  0  0  0  0
 16 17  2  0  0  0  0
 17 18  1  0  0  0  0
 17 33  1  0  0  0  0
M  END
> <s_m_source_file>
AV-unprocessed.smi

> <i_m_source_file_index>
1234

> <i_lp_mmshare_version>
43012

> <i_f3d_flags>
0

> <s_epik_input>
czFbY0hdbm5jMVtOSF1DKD1PKVtOSF1bQ0gyXVtDSDJdQyg9TylOMltDSDJdW0NIMl1bQ0gyXVtDSDJdMg==

> <s_epik_cmdline>
J2VwaWtfcHl0aG9uJywgJy1waCcsICc3LjAnLCAnLXRuJywgJzgnLCAnLW1hJywgJzIwMCcsICctbWV0YWxfYmluZGluZycsICctaW1hZScsICc8aW5maWxlLm1hZT4nLCAnLW9tYWUnLCAnPG91dGZpbGUubWFlPic=

> <r_lp_tautomer_probability>
1

> <r_epik_Ionization_Penalty>
0.00246339

> <r_epik_Ionization_Penalty_Charging>
0

> <r_epik_Ionization_Penalty_Neutral>
0.00246339

> <r_epik_State_Penalty>
-0

> <r_epik_Charging_Adjusted_Penalty>
0

> <i_epik_Tot_Q>
0

> <i_epik_Tot_abs_Q>
0

> <r_epik_Metal_State_Penalty>
0.351039

> <b_epik_Metal_Only>
0

> <s_lp_Force_Field>
OPLS_2005

> <r_lp_Energy>
26.1559

> <b_lp_Chiralities_Consistent>
1

> <s_lp_Variant>
AV-unprocessed.smi:1234-1

> <Gold.Version>
5.8.1

> <Gold.Id.Protein>
6NUR|6NUR_protein|mol2

> <Gold.PLP.Fitness>
40.6249

> <Gold.PLP.PLP>
-30.6492

> <Gold.PLP.part.hbond>
-5.7666

> <Gold.PLP.part.metal>
0.0000

> <Gold.PLP.part.buried>
-3.2981

> <Gold.PLP.part.nonpolar>
-20.9284

> <Gold.PLP.part.repulsive>
0.1913

> <Gold.PLP.ligand.clash>
0.0000

> <Gold.PLP.ligand.torsion>
0.8494

> <Gold.PLP.Chemscore.Hbond>
3.8882

> <Gold.PLP.Chemscore.CHOScore>
0.0000

> <Gold.PLP.Chemscore.Metal>
0.0000

> <Gold.Chemscore.Hbonds>
donor molecule, donor type, donor heavy atom, donor atom, acceptor molecule, acceptor atom, score
      L1  H     3    19       P1  7948  0.86
      L1  H    13    32       P1  7948  0.95
      P1  H  7997  8009       L1     7  1.00
      P1  H 10752 10764       L1     1  1.00

> <Gold.PLP.Chemscore.Internal.Correction>
0.0100

> <Gold.Rescore>
     Score         DG    S(hbond)    S(metal)    S(lipo)     H(rot)  DE(clash)    DE(int)     intcor
     15.66     -17.71       3.14        0.00      54.03       1.79       0.00       2.05       ----

> <Gold.Chemscore.Fitness>
15.6608

> <Gold.Chemscore.DG>
-17.7126

> <Gold.Chemscore.ZeroCoef>
-5.4800

> <Gold.Chemscore.Hbond>
3.1392

> <Gold.Chemscore.Metal>
0.0000

> <Gold.Chemscore.Lipo>
54.0259

> <Gold.Chemscore.Internal_Hbond>
0.0000

> <Gold.Chemscore.DEClash>
0.0029

> <Gold.Chemscore.DEInternal>
2.0489

> <Gold.Chemscore.Rot>
1.7865

> <Gold.Chemscore.Internal.Correction>
   9.000000E+99

> <Gold.Chemscore.Hbonds>
donor molecule, donor type, donor heavy atom, donor atom, acceptor molecule, acceptor atom, score
      L1  H     3    19       P1  7948  0.24
      L1  H    13    32       P1  7948  0.21
      P1  H  7997  8009       L1     7  0.97
      P1  H 10752 10764       L1     1  0.60

> <Gold.Chemscore.Hbond.Weighted>
-10.4851

> <Gold.Chemscore.Metal.Weighted>
-0.0000

> <Gold.Chemscore.Lipo.Weighted>
-6.3210

> <Gold.Chemscore.Internal_Hbond.Weighted>
0.0000

> <Gold.Chemscore.DEClash.Weighted>
0.0029

> <Gold.Chemscore.DEInternal.Weighted>
2.0489

> <Gold.Chemscore.Rot.Weighted>
4.5735

> <Gold.Chemscore.Internal.Correction.Weighted>
   9.000000E+99

> <Gold.Protein.RotatedTorsions>
[ 6907 6896 6895 6894 ] final -107.34 input  -60.11 | X-H torsion
[ 7974 7965 7964 7962 ] final -140.07 input  175.53 | X-H torsion
[ 8008 7997 7996 7995 ] final -171.20 input   59.86 | X-H torsion
[ 10167 10162 10161 10158 ] final -117.46 input  -65.29 | X-H torsion
[ 10718 10713 10712 10709 ] final  -29.63 input   66.30 | X-H torsion
[ 10763 10752 10751 10750 ] final  -35.53 input  -60.55 | X-H torsion
[ 11005 11000 10999 10996 ] final  -42.28 input  -57.11 | X-H torsion

> <Gold.Protein.ActiveResidues>
 VAL166  LYS551  ARG553  GLY616  TRP617  ASP618  TYR619  PRO620  LYS621  CYS622 
 ASP623  PHE694  ASN695  SER759  ASP760  ASP761  ALA762  ILE779  LEU786  VAL792 
 PHE793  MET794  SER795  GLU796  ALA797  LYS798  CYS799  TRP800  GLU811  SER814 

> <Gold.Protein.RotatedAtoms>
  150.7439  133.9840  159.3585 H   0  0  0  0  0  0  0  0  0  0  0  0  # atno 6907 bound_to 6896
  151.7784  135.0766  160.0379 H   0  0  0  0  0  0  0  0  0  0  0  0  # atno 6908 bound_to 6896
  152.3291  133.5901  159.5833 H   0  0  0  0  0  0  0  0  0  0  0  0  # atno 6909 bound_to 6896
  144.8626  140.6243  143.5318 H   0  0  0  0  0  0  0  0  0  0  0  0  # atno 7974 bound_to 7965
  155.9284  140.1086  157.1152 H   0  0  0  0  0  0  0  0  0  0  0  0  # atno 8008 bound_to 7997
  154.4066  140.1242  156.4835 H   0  0  0  0  0  0  0  0  0  0  0  0  # atno 8009 bound_to 7997
  155.7111  140.3471  155.4976 H   0  0  0  0  0  0  0  0  0  0  0  0  # atno 8010 bound_to 7997
  140.0681  143.4903  152.1995 H   0  0  0  0  0  0  0  0  0  0  0  0  # atno 10167 bound_to 10162
  156.4100  130.4406  149.7259 H   0  0  0  0  0  0  0  0  0  0  0  0  # atno 10718 bound_to 10713
  153.8647  135.6836  153.4779 H   0  0  0  0  0  0  0  0  0  0  0  0  # atno 10763 bound_to 10752
  153.1321  135.4693  154.9364 H   0  0  0  0  0  0  0  0  0  0  0  0  # atno 10764 bound_to 10752
  154.7742  135.3248  154.8076 H   0  0  0  0  0  0  0  0  0  0  0  0  # atno 10765 bound_to 10752
  141.0305  133.6822  156.2573 H   0  0  0  0  0  0  0  0  0  0  0  0  # atno 11005 bound_to 11000
  145.4283  139.1553  143.4036 LP  0  0  0  0  0  0  0  0  0  0  0  0  # atno 17320 bound_to 7965
  146.2872  140.4397  142.8753 LP  0  0  0  0  0  0  0  0  0  0  0  0  # atno 17321 bound_to 7965
  139.5852  144.7528  151.3537 LP  0  0  0  0  0  0  0  0  0  0  0  0  # atno 17342 bound_to 10162
  140.7139  143.7318  150.7618 LP  0  0  0  0  0  0  0  0  0  0  0  0  # atno 17343 bound_to 10162
  156.4241  130.7783  151.2801 LP  0  0  0  0  0  0  0  0  0  0  0  0  # atno 17370 bound_to 10713
  157.7507  131.0174  150.3583 LP  0  0  0  0  0  0  0  0  0  0  0  0  # atno 17371 bound_to 10713
  140.6415  134.5161  157.5570 LP  0  0  0  0  0  0  0  0  0  0  0  0  # atno 17394 bound_to 11000
  139.9204  134.8159  156.1228 LP  0  0  0  0  0  0  0  0  0  0  0  0  # atno 17395 bound_to 11000

$$$$
