AV-unprocessed.smi:2055|AV-procd|sdf|8334|dock1
  -GOLD-   2272011 03D 1   1.00000     0.00000
 Structure written by MMmdl.
 43 44  0  0  0  0  0  0  0  0  1 V2000
  145.0762  137.0512  154.5631 C   0  0  0  0  0  0  0  0  0  0  0  0
  145.5120  137.7163  153.2465 C   0  0  2  0  0  0  0  0  0  0  0  0
  145.5139  136.7045  152.0862 C   0  0  0  0  0  0  0  0  0  0  0  0
  146.2265  137.2246  150.9836 O   0  0  0  0  0  0  0  0  0  0  0  0
  146.8539  138.2689  153.4097 N   0  0  0  0  0  0  0  0  0  0  0  0
  147.1458  139.4187  154.0330 C   0  0  0  0  0  0  0  0  0  0  0  0
  146.3069  140.1666  154.5350 O   0  0  0  0  0  0  0  0  0  0  0  0
  148.4668  139.6421  154.0673 N   0  0  0  0  0  0  0  0  0  0  0  0
  149.1050  140.7747  154.7318 C   0  0  0  0  0  0  0  0  0  0  0  0
  150.2815  140.4220  155.6363 C   0  0  0  0  0  0  0  0  0  0  0  0
  150.9957  139.2313  155.4014 C   0  0  0  0  0  0  0  0  0  0  0  0
  152.0755  138.9164  156.2459 C   0  0  0  0  0  0  0  0  0  0  0  0
  152.4649  139.7006  157.2721 N   0  0  0  0  0  0  0  0  0  0  0  0
  151.7902  140.8499  157.5142 C   0  0  0  0  0  0  0  0  0  0  0  0
  152.2568  141.6408  158.5875 N   0  0  0  0  0  0  0  0  0  0  0  0
  151.7844  143.0176  158.7046 C   0  0  0  0  0  0  0  0  0  0  0  0
  152.6574  143.8025  159.6980 C   0  0  0  0  0  0  0  0  0  0  0  0
  152.6959  143.1197  160.9464 O   0  0  0  0  0  0  0  0  0  0  0  0
  153.2809  141.8276  160.8222 C   0  0  0  0  0  0  0  0  0  0  0  0
  152.4391  140.9617  159.8693 C   0  0  0  0  0  0  0  0  0  0  0  0
  150.6830  141.2394  156.7183 C   0  0  0  0  0  0  0  0  0  0  0  0
  144.0727  136.6332  154.4786 H   0  0  0  0  0  0  0  0  0  0  0  0
  145.0610  137.7692  155.3840 H   0  0  0  0  0  0  0  0  0  0  0  0
  145.7515  136.2416  154.8420 H   0  0  0  0  0  0  0  0  0  0  0  0
  144.8009  138.5141  153.0215 H   0  0  0  0  0  0  0  0  0  0  0  0
  145.9308  135.7427  152.3883 H   0  0  0  0  0  0  0  0  0  0  0  0
  144.4945  136.5165  151.7473 H   0  0  0  0  0  0  0  0  0  0  0  0
  147.1343  136.9752  151.0668 H   0  0  0  0  0  0  0  0  0  0  0  0
  147.6162  137.7284  153.0279 H   0  0  0  0  0  0  0  0  0  0  0  0
  149.0770  138.9686  153.6280 H   0  0  0  0  0  0  0  0  0  0  0  0
  149.4623  141.4580  153.9612 H   0  0  0  0  0  0  0  0  0  0  0  0
  148.3606  141.3254  155.3097 H   0  0  0  0  0  0  0  0  0  0  0  0
  150.7241  138.5715  154.5905 H   0  0  0  0  0  0  0  0  0  0  0  0
  152.6438  138.0112  156.0923 H   0  0  0  0  0  0  0  0  0  0  0  0
  151.8188  143.5143  157.7340 H   0  0  0  0  0  0  0  0  0  0  0  0
  150.7462  143.0155  159.0390 H   0  0  0  0  0  0  0  0  0  0  0  0
  153.6692  143.9311  159.3097 H   0  0  0  0  0  0  0  0  0  0  0  0
  152.2464  144.8005  159.8505 H   0  0  0  0  0  0  0  0  0  0  0  0
  154.3077  141.9141  160.4630 H   0  0  0  0  0  0  0  0  0  0  0  0
  153.3274  141.3632  161.8073 H   0  0  0  0  0  0  0  0  0  0  0  0
  151.4585  140.7697  160.3065 H   0  0  0  0  0  0  0  0  0  0  0  0
  152.9280  139.9954  159.7468 H   0  0  0  0  0  0  0  0  0  0  0  0
  150.1419  142.1479  156.9305 H   0  0  0  0  0  0  0  0  0  0  0  0
  1  2  1  0  0  0  0
  1 22  1  0  0  0  0
  1 23  1  0  0  0  0
  1 24  1  0  0  0  0
  2  3  1  0  0  0  0
  2  5  1  0  0  0  0
  2 25  1  0  0  0  0
  3  4  1  0  0  0  0
  3 26  1  0  0  0  0
  3 27  1  0  0  0  0
  4 28  1  0  0  0  0
  5  6  1  0  0  0  0
  5 29  1  0  0  0  0
  6  7  2  0  0  0  0
  6  8  1  0  0  0  0
  8  9  1  0  0  0  0
  8 30  1  0  0  0  0
  9 10  1  0  0  0  0
  9 31  1  0  0  0  0
  9 32  1  0  0  0  0
 10 21  1  0  0  0  0
 10 11  2  0  0  0  0
 11 12  1  0  0  0  0
 11 33  1  0  0  0  0
 12 13  2  0  0  0  0
 12 34  1  0  0  0  0
 13 14  1  0  0  0  0
 14 15  1  0  0  0  0
 14 21  2  0  0  0  0
 15 20  1  0  0  0  0
 15 16  1  0  0  0  0
 16 17  1  0  0  0  0
 16 35  1  0  0  0  0
 16 36  1  0  0  0  0
 17 18  1  0  0  0  0
 17 37  1  0  0  0  0
 17 38  1  0  0  0  0
 18 19  1  0  0  0  0
 19 20  1  0  0  0  0
 19 39  1  0  0  0  0
 19 40  1  0  0  0  0
 20 41  1  0  0  0  0
 20 42  1  0  0  0  0
 21 43  1  0  0  0  0
M  END
> <s_m_source_file>
AV-unprocessed.smi

> <i_m_source_file_index>
2055

> <i_lp_mmshare_version>
43012

> <i_f3d_flags>
0

> <s_epik_input>
W09IXVtDSDJdW0NAQEhdKFtDSDNdKVtOSF1DKD1PKVtOSF1bQ0gyXWMxW2NIXVtjSF1uYyhbY0hdMSlOMltDSDJdW0NIMl1PW0NIMl1bQ0gyXTI=

> <s_epik_cmdline>
J2VwaWtfcHl0aG9uJywgJy1waCcsICc3LjAnLCAnLXRuJywgJzgnLCAnLW1hJywgJzIwMCcsICctbWV0YWxfYmluZGluZycsICctaW1hZScsICc8aW5maWxlLm1hZT4nLCAnLW9tYWUnLCAnPG91dGZpbGUubWFlPic=

> <r_lp_tautomer_probability>
1

> <r_epik_Ionization_Penalty>
0.0122173

> <r_epik_Ionization_Penalty_Charging>
0

> <r_epik_Ionization_Penalty_Neutral>
0.0122173

> <r_epik_State_Penalty>
0.00940497

> <r_epik_Charging_Adjusted_Penalty>
0.00940497

> <i_epik_Tot_Q>
0

> <i_epik_Tot_abs_Q>
0

> <r_epik_Metal_State_Penalty>
0.00921475

> <b_epik_Metal_Only>
0

> <s_lp_Force_Field>
OPLS_2005

> <r_lp_Energy>
13.2065

> <b_lp_Chiralities_Consistent>
1

> <s_lp_Variant>
AV-unprocessed.smi:2055-1

> <Gold.Version>
5.8.1

> <Gold.Id.Protein>
6NUR|6NUR_protein|mol2

> <Gold.PLP.Fitness>
47.8912

> <Gold.PLP.PLP>
-40.3993

> <Gold.PLP.part.hbond>
-5.9793

> <Gold.PLP.part.metal>
0.0000

> <Gold.PLP.part.buried>
-3.0611

> <Gold.PLP.part.nonpolar>
-31.5627

> <Gold.PLP.part.repulsive>
0.2952

> <Gold.PLP.ligand.clash>
0.0000

> <Gold.PLP.ligand.torsion>
1.0307

> <Gold.PLP.Chemscore.Hbond>
2.9936

> <Gold.PLP.Chemscore.CHOScore>
0.0000

> <Gold.PLP.Chemscore.Metal>
0.0000

> <Gold.Chemscore.Hbonds>
donor molecule, donor type, donor heavy atom, donor atom, acceptor molecule, acceptor atom, score
      L1  H     4    28       P1  7948  0.89
      L1  H     5    29       P1  7948  0.29
      P1  H  7997  8009       L1    13  0.91

> <Gold.PLP.Chemscore.Internal.Correction>
0.5724

> <Gold.Rescore>
     Score         DG    S(hbond)    S(metal)    S(lipo)     H(rot)  DE(clash)    DE(int)     intcor
     15.68     -16.89       2.43        0.00      87.34       2.70       0.14       1.08       ----

> <Gold.Chemscore.Fitness>
15.6798

> <Gold.Chemscore.DG>
-16.8917

> <Gold.Chemscore.ZeroCoef>
-5.4800

> <Gold.Chemscore.Hbond>
2.4289

> <Gold.Chemscore.Metal>
0.0000

> <Gold.Chemscore.Lipo>
87.3425

> <Gold.Chemscore.Internal_Hbond>
0.0000

> <Gold.Chemscore.DEClash>
0.1352

> <Gold.Chemscore.DEInternal>
1.0767

> <Gold.Chemscore.Rot>
2.7031

> <Gold.Chemscore.Internal.Correction>
   9.000000E+99

> <Gold.Chemscore.Hbonds>
donor molecule, donor type, donor heavy atom, donor atom, acceptor molecule, acceptor atom, score
      L1  H     4    28       P1  7948  0.87
      L1  H     5    29       P1  7948  0.29
      P1  H  7997  8009       L1    13  0.28

> <Gold.Chemscore.Hbond.Weighted>
-8.1125

> <Gold.Chemscore.Metal.Weighted>
-0.0000

> <Gold.Chemscore.Lipo.Weighted>
-10.2191

> <Gold.Chemscore.Internal_Hbond.Weighted>
0.0000

> <Gold.Chemscore.DEClash.Weighted>
0.1352

> <Gold.Chemscore.DEInternal.Weighted>
1.0767

> <Gold.Chemscore.Rot.Weighted>
6.9199

> <Gold.Chemscore.Internal.Correction.Weighted>
   9.000000E+99

> <Gold.Protein.RotatedTorsions>
[ 6907 6896 6895 6894 ] final   66.86 input  -60.11 | X-H torsion
[ 7974 7965 7964 7962 ] final   66.80 input  175.53 | X-H torsion
[ 8008 7997 7996 7995 ] final  167.12 input   59.86 | X-H torsion
[ 10167 10162 10161 10158 ] final -169.80 input  -65.29 | X-H torsion
[ 10718 10713 10712 10709 ] final  114.79 input   66.30 | X-H torsion
[ 10763 10752 10751 10750 ] final  134.63 input  -60.55 | X-H torsion
[ 11005 11000 10999 10996 ] final  -44.01 input  -57.11 | X-H torsion

> <Gold.Protein.ActiveResidues>
 VAL166  LYS551  ARG553  GLY616  TRP617  ASP618  TYR619  PRO620  LYS621  CYS622 
 ASP623  PHE694  ASN695  SER759  ASP760  ASP761  ALA762  ILE779  LEU786  VAL792 
 PHE793  MET794  SER795  GLU796  ALA797  LYS798  CYS799  TRP800  GLU811  SER814 

> <Gold.Protein.RotatedAtoms>
  152.4511  134.5392  159.9833 H   0  0  0  0  0  0  0  0  0  0  0  0  # atno 6907 bound_to 6896
  151.5464  133.3418  159.2953 H   0  0  0  0  0  0  0  0  0  0  0  0  # atno 6908 bound_to 6896
  150.8440  134.7774  159.7018 H   0  0  0  0  0  0  0  0  0  0  0  0  # atno 6909 bound_to 6896
  145.8223  139.3091  143.1036 H   0  0  0  0  0  0  0  0  0  0  0  0  # atno 7974 bound_to 7965
  156.1661  140.1625  156.8529 H   0  0  0  0  0  0  0  0  0  0  0  0  # atno 8008 bound_to 7997
  154.5208  140.0778  156.8204 H   0  0  0  0  0  0  0  0  0  0  0  0  # atno 8009 bound_to 7997
  155.3609  140.3395  155.4243 H   0  0  0  0  0  0  0  0  0  0  0  0  # atno 8010 bound_to 7997
  139.5900  144.1233  152.1623 H   0  0  0  0  0  0  0  0  0  0  0  0  # atno 10167 bound_to 10162
  157.6260  131.1003  150.7237 H   0  0  0  0  0  0  0  0  0  0  0  0  # atno 10718 bound_to 10713
  153.8268  135.3109  155.3415 H   0  0  0  0  0  0  0  0  0  0  0  0  # atno 10763 bound_to 10752
  154.7990  135.4738  154.0232 H   0  0  0  0  0  0  0  0  0  0  0  0  # atno 10764 bound_to 10752
  153.1659  135.6869  153.8766 H   0  0  0  0  0  0  0  0  0  0  0  0  # atno 10765 bound_to 10752
  141.0422  133.6775  156.2812 H   0  0  0  0  0  0  0  0  0  0  0  0  # atno 11005 bound_to 11000
  145.9662  140.8797  143.0186 LP  0  0  0  0  0  0  0  0  0  0  0  0  # atno 17320 bound_to 7965
  144.6746  140.1881  143.7399 LP  0  0  0  0  0  0  0  0  0  0  0  0  # atno 17321 bound_to 7965
  140.0806  144.5704  150.7125 LP  0  0  0  0  0  0  0  0  0  0  0  0  # atno 17342 bound_to 10162
  140.7165  143.2549  151.4417 LP  0  0  0  0  0  0  0  0  0  0  0  0  # atno 17343 bound_to 10162
  156.7585  130.4791  149.5442 LP  0  0  0  0  0  0  0  0  0  0  0  0  # atno 17370 bound_to 10713
  156.1433  130.6260  151.0497 LP  0  0  0  0  0  0  0  0  0  0  0  0  # atno 17371 bound_to 10713
  140.6213  134.5358  157.5548 LP  0  0  0  0  0  0  0  0  0  0  0  0  # atno 17394 bound_to 11000
  139.9284  134.8011  156.1001 LP  0  0  0  0  0  0  0  0  0  0  0  0  # atno 17395 bound_to 11000

$$$$
