AV-unprocessed.smi:1191|AV-procd|sdf|4987|dock5
  -GOLD-   22720 3583D 1   1.00000     0.00000
 Structure written by MMmdl.
 47 48  0  0  0  0  0  0  0  0  2 V2000
  150.2130  142.4684  157.1885 C   0  0  0  0  0  0  0  0  0  0  0  0
  150.3478  141.2806  156.2819 C   0  0  0  0  0  0  0  0  0  0  0  0
  151.4969  140.4750  156.0480 C   0  0  0  0  0  0  0  0  0  0  0  0
  151.0772  139.5423  155.1419 C   0  0  0  0  0  0  0  0  0  0  0  0
  151.8271  138.4213  154.4998 C   0  0  0  0  0  0  0  0  0  0  0  0
  149.7452  139.8112  154.8767 N   0  0  0  0  0  0  0  0  0  0  0  0
  148.8267  139.1225  153.9829 C   0  0  0  0  0  0  0  0  0  0  0  0
  147.8790  138.2060  154.7595 C   0  0  0  0  0  0  0  0  0  0  0  0
  147.0769  138.6818  155.5634 O   0  0  0  0  0  0  0  0  0  0  0  0
  147.9676  136.8922  154.5005 N   0  0  0  0  0  0  0  0  0  0  0  0
  147.1213  135.8690  155.1014 C   0  0  0  0  0  0  0  0  0  0  0  0
  147.1910  134.5505  154.3068 C   0  0  0  0  0  0  0  0  0  0  0  0
  146.7749  134.7185  152.8918 N   0  3  2  0  0  0  0  0  0  0  0  0
  145.5975  135.6147  152.7580 C   0  0  0  0  0  0  0  0  0  0  0  0
  145.2694  135.8814  151.2807 C   0  0  0  0  0  0  0  0  0  0  0  0
  145.0400  134.5674  150.5240 C   0  0  0  0  0  0  0  0  0  0  0  0
  146.2518  133.6361  150.6935 C   0  0  2  0  0  0  0  0  0  0  0  0
  146.0362  132.3000  149.9688 C   0  0  0  0  0  0  0  0  0  0  0  0
  146.5577  133.4240  152.1902 C   0  0  0  0  0  0  0  0  0  0  0  0
  149.3026  140.8766  155.5795 N   0  0  0  0  0  0  0  0  0  0  0  0
  151.1647  142.7150  157.6595 H   0  0  0  0  0  0  0  0  0  0  0  0
  149.4899  142.2770  157.9815 H   0  0  0  0  0  0  0  0  0  0  0  0
  149.8793  143.3477  156.6369 H   0  0  0  0  0  0  0  0  0  0  0  0
  152.4821  140.5693  156.4802 H   0  0  0  0  0  0  0  0  0  0  0  0
  152.8064  138.2946  154.9617 H   0  0  0  0  0  0  0  0  0  0  0  0
  151.9807  138.6159  153.4384 H   0  0  0  0  0  0  0  0  0  0  0  0
  151.2875  137.4795  154.5998 H   0  0  0  0  0  0  0  0  0  0  0  0
  148.2705  139.8645  153.4084 H   0  0  0  0  0  0  0  0  0  0  0  0
  149.3934  138.5276  153.2648 H   0  0  0  0  0  0  0  0  0  0  0  0
  148.6597  136.5839  153.8326 H   0  0  0  0  0  0  0  0  0  0  0  0
  147.4607  135.7051  156.1245 H   0  0  0  0  0  0  0  0  0  0  0  0
  146.0999  136.2448  155.1704 H   0  0  0  0  0  0  0  0  0  0  0  0
  148.1926  134.1190  154.3429 H   0  0  0  0  0  0  0  0  0  0  0  0
  146.5314  133.8316  154.7952 H   0  0  0  0  0  0  0  0  0  0  0  0
  144.7383  135.1674  153.2606 H   0  0  0  0  0  0  0  0  0  0  0  0
  145.7974  136.5650  153.2548 H   0  0  0  0  0  0  0  0  0  0  0  0
  144.3851  136.5148  151.2037 H   0  0  0  0  0  0  0  0  0  0  0  0
  146.0874  136.4346  150.8174 H   0  0  0  0  0  0  0  0  0  0  0  0
  144.1391  134.0801  150.9000 H   0  0  0  0  0  0  0  0  0  0  0  0
  144.8649  134.7737  149.4674 H   0  0  0  0  0  0  0  0  0  0  0  0
  147.1169  134.1201  150.2377 H   0  0  0  0  0  0  0  0  0  0  0  0
  145.1803  131.7609  150.3766 H   0  0  0  0  0  0  0  0  0  0  0  0
  146.9110  131.6559  150.0626 H   0  0  0  0  0  0  0  0  0  0  0  0
  145.8551  132.4549  148.9048 H   0  0  0  0  0  0  0  0  0  0  0  0
  147.4422  132.7949  152.2843 H   0  0  0  0  0  0  0  0  0  0  0  0
  145.7386  132.8851  152.6698 H   0  0  0  0  0  0  0  0  0  0  0  0
  147.5372  135.1857  152.4221 H   0  0  0  0  0  0  0  0  0  0  0  0
  1  2  1  0  0  0  0
  1 21  1  0  0  0  0
  1 22  1  0  0  0  0
  1 23  1  0  0  0  0
  2 20  2  0  0  0  0
  2  3  1  0  0  0  0
  3  4  2  0  0  0  0
  3 24  1  0  0  0  0
  4  5  1  0  0  0  0
  4  6  1  0  0  0  0
  5 25  1  0  0  0  0
  5 26  1  0  0  0  0
  5 27  1  0  0  0  0
  6  7  1  0  0  0  0
  6 20  1  0  0  0  0
  7  8  1  0  0  0  0
  7 28  1  0  0  0  0
  7 29  1  0  0  0  0
  8  9  2  0  0  0  0
  8 10  1  0  0  0  0
 10 11  1  0  0  0  0
 10 30  1  0  0  0  0
 11 12  1  0  0  0  0
 11 31  1  0  0  0  0
 11 32  1  0  0  0  0
 12 13  1  0  0  0  0
 12 33  1  0  0  0  0
 12 34  1  0  0  0  0
 13 19  1  0  0  0  0
 13 14  1  0  0  0  0
 13 47  1  0  0  0  0
 14 15  1  0  0  0  0
 14 35  1  0  0  0  0
 14 36  1  0  0  0  0
 15 16  1  0  0  0  0
 15 37  1  0  0  0  0
 15 38  1  0  0  0  0
 16 17  1  0  0  0  0
 16 39  1  0  0  0  0
 16 40  1  0  0  0  0
 17 18  1  0  0  0  0
 17 19  1  0  0  0  0
 17 41  1  0  0  0  0
 18 42  1  0  0  0  0
 18 43  1  0  0  0  0
 18 44  1  0  0  0  0
 19 45  1  0  0  0  0
 19 46  1  0  0  0  0
M  CHG  1  13   1
M  END
> <s_m_source_file>
AV-unprocessed.smi

> <i_m_source_file_index>
1191

> <i_lp_mmshare_version>
43012

> <i_f3d_flags>
0

> <s_epik_input>
W0NIM11jMVtjSF1jKFtDSDNdKW4objEpW0NIMl1DKD1PKVtOSF1bQ0gyXVtDSDJdTjJbQ0gyXVtDSDJdW0NIMl1bQ0BASF0oW0NIM10pW0NIMl0y

> <s_epik_cmdline>
J2VwaWtfcHl0aG9uJywgJy1waCcsICc3LjAnLCAnLXRuJywgJzgnLCAnLW1hJywgJzIwMCcsICctbWV0YWxfYmluZGluZycsICctaW1hZScsICc8aW5maWxlLm1hZT4nLCAnLW9tYWUnLCAnPG91dGZpbGUubWFlPic=

> <r_lp_tautomer_probability>
1

> <r_epik_Ionization_Penalty>
0.00249932

> <r_epik_Ionization_Penalty_Charging>
0.00230623

> <r_epik_Ionization_Penalty_Neutral>
0.000193092

> <r_epik_State_Penalty>
-0

> <r_epik_Charging_Adjusted_Penalty>
0.00230623

> <i_epik_Tot_Q>
1

> <i_epik_Tot_abs_Q>
1

> <r_epik_Metal_State_Penalty>
-0

> <b_epik_Metal_Only>
0

> <s_lp_Force_Field>
OPLS_2005

> <r_lp_Energy>
14.4812

> <b_lp_Chiralities_Consistent>
1

> <s_lp_Variant>
AV-unprocessed.smi:1191-4

> <Gold.Version>
5.8.1

> <Gold.Id.Protein>
6NUR|6NUR_protein|mol2

> <Gold.PLP.Fitness>
43.7433

> <Gold.PLP.PLP>
-36.2897

> <Gold.PLP.part.hbond>
-2.0000

> <Gold.PLP.part.metal>
0.0000

> <Gold.PLP.part.buried>
-1.5312

> <Gold.PLP.part.nonpolar>
-32.9053

> <Gold.PLP.part.repulsive>
0.0958

> <Gold.PLP.ligand.clash>
0.0000

> <Gold.PLP.ligand.torsion>
0.4880

> <Gold.PLP.Chemscore.Hbond>
2.8000

> <Gold.PLP.Chemscore.CHOScore>
0.0000

> <Gold.PLP.Chemscore.Metal>
0.0000

> <Gold.Chemscore.Hbonds>
donor molecule, donor type, donor heavy atom, donor atom, acceptor molecule, acceptor atom, score
      L1  H    10    30       P1  7948  0.88
      L1  H    13    47       P1  7948  2.00

> <Gold.PLP.Chemscore.Internal.Correction>
0.0297

> <Gold.Rescore>
     Score         DG    S(hbond)    S(metal)    S(lipo)     H(rot)  DE(clash)    DE(int)     intcor
     16.91     -17.81       1.97        0.00      85.61       1.67       0.59       0.31       ----

> <Gold.Chemscore.Fitness>
16.9096

> <Gold.Chemscore.DG>
-17.8102

> <Gold.Chemscore.ZeroCoef>
-5.4800

> <Gold.Chemscore.Hbond>
1.9693

> <Gold.Chemscore.Metal>
0.0000

> <Gold.Chemscore.Lipo>
85.6135

> <Gold.Chemscore.Internal_Hbond>
0.0000

> <Gold.Chemscore.DEClash>
0.5937

> <Gold.Chemscore.DEInternal>
0.3069

> <Gold.Chemscore.Rot>
1.6657

> <Gold.Chemscore.Internal.Correction>
   9.000000E+99

> <Gold.Chemscore.Hbonds>
donor molecule, donor type, donor heavy atom, donor atom, acceptor molecule, acceptor atom, score
      L1  H    10    30       P1  7948  0.82
      L1  H    13    47       P1  7948  1.00

> <Gold.Chemscore.Hbond.Weighted>
-6.5775

> <Gold.Chemscore.Metal.Weighted>
-0.0000

> <Gold.Chemscore.Lipo.Weighted>
-10.0168

> <Gold.Chemscore.Internal_Hbond.Weighted>
0.0000

> <Gold.Chemscore.DEClash.Weighted>
0.5937

> <Gold.Chemscore.DEInternal.Weighted>
0.3069

> <Gold.Chemscore.Rot.Weighted>
4.2641

> <Gold.Chemscore.Internal.Correction.Weighted>
   9.000000E+99

> <Gold.Protein.RotatedTorsions>
[ 6907 6896 6895 6894 ] final  -25.55 input  -60.11 | X-H torsion
[ 7974 7965 7964 7962 ] final  152.99 input  175.53 | X-H torsion
[ 8008 7997 7996 7995 ] final  -45.87 input   59.86 | X-H torsion
[ 10167 10162 10161 10158 ] final  116.70 input  -65.29 | X-H torsion
[ 10718 10713 10712 10709 ] final  128.16 input   66.30 | X-H torsion
[ 10763 10752 10751 10750 ] final   95.21 input  -60.55 | X-H torsion
[ 11005 11000 10999 10996 ] final -119.31 input  -57.11 | X-H torsion

> <Gold.Protein.ActiveResidues>
 VAL166  LYS551  ARG553  GLY616  TRP617  ASP618  TYR619  PRO620  LYS621  CYS622 
 ASP623  PHE694  ASN695  SER759  ASP760  ASP761  ALA762  ILE779  LEU786  VAL792 
 PHE793  MET794  SER795  GLU796  ALA797  LYS798  CYS799  TRP800  GLU811  SER814 

> <Gold.Protein.RotatedAtoms>
  151.1735  135.0329  159.8761 H   0  0  0  0  0  0  0  0  0  0  0  0  # atno 6907 bound_to 6896
  152.5448  134.1143  159.8382 H   0  0  0  0  0  0  0  0  0  0  0  0  # atno 6908 bound_to 6896
  151.1252  133.5029  159.2633 H   0  0  0  0  0  0  0  0  0  0  0  0  # atno 6909 bound_to 6896
  144.8185  139.6741  143.6111 H   0  0  0  0  0  0  0  0  0  0  0  0  # atno 7974 bound_to 7965
  154.4003  140.1386  156.3918 H   0  0  0  0  0  0  0  0  0  0  0  0  # atno 8008 bound_to 7997
  155.7907  140.3479  155.5327 H   0  0  0  0  0  0  0  0  0  0  0  0  # atno 8009 bound_to 7997
  155.8582  140.0952  157.1621 H   0  0  0  0  0  0  0  0  0  0  0  0  # atno 8010 bound_to 7997
  139.6229  144.7104  151.2595 H   0  0  0  0  0  0  0  0  0  0  0  0  # atno 10167 bound_to 10162
  157.5269  131.1098  150.9068 H   0  0  0  0  0  0  0  0  0  0  0  0  # atno 10718 bound_to 10713
  153.2505  135.4262  155.0793 H   0  0  0  0  0  0  0  0  0  0  0  0  # atno 10763 bound_to 10752
  154.8380  135.3425  154.6519 H   0  0  0  0  0  0  0  0  0  0  0  0  # atno 10764 bound_to 10752
  153.6940  135.7032  153.5138 H   0  0  0  0  0  0  0  0  0  0  0  0  # atno 10765 bound_to 10752
  141.0225  134.0103  157.3262 H   0  0  0  0  0  0  0  0  0  0  0  0  # atno 11005 bound_to 11000
  146.2489  139.6157  142.9440 LP  0  0  0  0  0  0  0  0  0  0  0  0  # atno 17320 bound_to 7965
  145.5160  141.0434  143.2462 LP  0  0  0  0  0  0  0  0  0  0  0  0  # atno 17321 bound_to 7965
  140.7393  143.6621  150.8155 LP  0  0  0  0  0  0  0  0  0  0  0  0  # atno 17342 bound_to 10162
  140.0235  143.5518  152.2790 LP  0  0  0  0  0  0  0  0  0  0  0  0  # atno 17343 bound_to 10162
  156.9662  130.5473  149.5288 LP  0  0  0  0  0  0  0  0  0  0  0  0  # atno 17370 bound_to 10713
  156.0394  130.5478  150.8733 LP  0  0  0  0  0  0  0  0  0  0  0  0  # atno 17371 bound_to 10713
  139.9155  135.0196  156.7862 LP  0  0  0  0  0  0  0  0  0  0  0  0  # atno 17394 bound_to 11000
  140.6549  133.9698  155.7774 LP  0  0  0  0  0  0  0  0  0  0  0  0  # atno 17395 bound_to 11000

$$$$
