AV-unprocessed.smi:1670|AV-procd|sdf|6696|dock3
  -GOLD-   22720 7433D 1   1.00000     0.00000
 Structure written by MMmdl.
 41 42  0  0  0  0  0  0  0  0  1 V2000
  148.9865  136.2003  156.0948 C   0  0  0  0  0  0  0  0  0  0  0  0
  147.8444  136.7855  155.2531 C   0  0  1  0  0  0  0  0  0  0  0  0
  148.0844  138.2777  154.9400 C   0  0  0  0  0  0  0  0  0  0  0  0
  149.4899  138.6416  154.9939 N   0  0  0  0  0  0  0  0  0  0  0  0
  150.5466  138.0817  154.3074 C   0  0  0  0  0  0  0  0  0  0  0  0
  151.6778  138.7406  154.6954 C   0  0  0  0  0  0  0  0  0  0  0  0
  151.2048  139.7011  155.6324 C   0  0  0  0  0  0  0  0  0  0  0  0
  149.8945  139.6425  155.8060 N   0  0  0  0  0  0  0  0  0  0  0  0
  147.7148  136.0098  154.0200 N   0  0  0  0  0  0  0  0  0  0  0  0
  146.7977  135.0586  153.7900 C   0  0  0  0  0  0  0  0  0  0  0  0
  145.9620  134.6883  154.6151 O   0  0  0  0  0  0  0  0  0  0  0  0
  146.8915  134.5702  152.5456 N   0  0  0  0  0  0  0  0  0  0  0  0
  146.0170  133.5502  151.9753 C   0  0  2  0  0  0  0  0  0  0  0  0
  146.5134  133.1296  150.5777 C   0  0  0  0  0  0  0  0  0  0  0  0
  145.5706  132.0999  149.9306 C   0  0  0  0  0  0  0  0  0  0  0  0
  144.1108  132.5904  149.8827 C   0  0  2  0  0  0  0  0  0  0  0  0
  143.9817  133.6397  148.9436 O   0  0  0  0  0  0  0  0  0  0  0  0
  143.6237  133.0587  151.2671 C   0  0  0  0  0  0  0  0  0  0  0  0
  144.5761  134.0866  151.9033 C   0  0  0  0  0  0  0  0  0  0  0  0
  149.0934  136.7374  157.0378 H   0  0  0  0  0  0  0  0  0  0  0  0
  149.9398  136.2598  155.5685 H   0  0  0  0  0  0  0  0  0  0  0  0
  148.8019  135.1522  156.3334 H   0  0  0  0  0  0  0  0  0  0  0  0
  146.9314  136.6972  155.8449 H   0  0  0  0  0  0  0  0  0  0  0  0
  147.7202  138.5118  153.9390 H   0  0  0  0  0  0  0  0  0  0  0  0
  147.5221  138.9098  155.6298 H   0  0  0  0  0  0  0  0  0  0  0  0
  150.4074  137.2658  153.6136 H   0  0  0  0  0  0  0  0  0  0  0  0
  152.6894  138.5616  154.3627 H   0  0  0  0  0  0  0  0  0  0  0  0
  151.7706  140.4344  156.1875 H   0  0  0  0  0  0  0  0  0  0  0  0
  148.3536  136.2394  153.2730 H   0  0  0  0  0  0  0  0  0  0  0  0
  147.6099  134.9418  151.9416 H   0  0  0  0  0  0  0  0  0  0  0  0
  146.0178  132.6751  152.6282 H   0  0  0  0  0  0  0  0  0  0  0  0
  146.5925  134.0068  149.9340 H   0  0  0  0  0  0  0  0  0  0  0  0
  147.5170  132.7085  150.6462 H   0  0  0  0  0  0  0  0  0  0  0  0
  145.9199  131.8502  148.9281 H   0  0  0  0  0  0  0  0  0  0  0  0
  145.6146  131.1740  150.5056 H   0  0  0  0  0  0  0  0  0  0  0  0
  143.4723  131.7765  149.5379 H   0  0  0  0  0  0  0  0  0  0  0  0
  144.8444  133.9658  148.7369 H   0  0  0  0  0  0  0  0  0  0  0  0
  142.6180  133.4743  151.1941 H   0  0  0  0  0  0  0  0  0  0  0  0
  143.5469  132.1939  151.9272 H   0  0  0  0  0  0  0  0  0  0  0  0
  144.2222  134.3410  152.9031 H   0  0  0  0  0  0  0  0  0  0  0  0
  144.5528  135.0113  151.3246 H   0  0  0  0  0  0  0  0  0  0  0  0
  1  2  1  0  0  0  0
  1 20  1  0  0  0  0
  1 21  1  0  0  0  0
  1 22  1  0  0  0  0
  2  3  1  0  0  0  0
  2  9  1  0  0  0  0
  2 23  1  0  0  0  0
  3  4  1  0  0  0  0
  3 24  1  0  0  0  0
  3 25  1  0  0  0  0
  4  8  1  0  0  0  0
  4  5  1  0  0  0  0
  5  6  2  0  0  0  0
  5 26  1  0  0  0  0
  6  7  1  0  0  0  0
  6 27  1  0  0  0  0
  7  8  2  0  0  0  0
  7 28  1  0  0  0  0
  9 10  1  0  0  0  0
  9 29  1  0  0  0  0
 10 11  2  0  0  0  0
 10 12  1  0  0  0  0
 12 13  1  0  0  0  0
 12 30  1  0  0  0  0
 13 19  1  0  0  0  0
 13 14  1  0  0  0  0
 13 31  1  0  0  0  0
 14 15  1  0  0  0  0
 14 32  1  0  0  0  0
 14 33  1  0  0  0  0
 15 16  1  0  0  0  0
 15 34  1  0  0  0  0
 15 35  1  0  0  0  0
 16 17  1  0  0  0  0
 16 18  1  0  0  0  0
 16 36  1  0  0  0  0
 17 37  1  0  0  0  0
 18 19  1  0  0  0  0
 18 38  1  0  0  0  0
 18 39  1  0  0  0  0
 19 40  1  0  0  0  0
 19 41  1  0  0  0  0
M  END
> <s_m_source_file>
AV-unprocessed.smi

> <i_m_source_file_index>
1670

> <i_lp_mmshare_version>
43012

> <i_f3d_flags>
0

> <s_epik_input>
bjFbY0hdW2NIXVtjSF1uMVtDSDJdW0NAQEhdKFtDSDNdKVtOSF1DKD1PKVtOSF1bQ0BASF0yW0NIMl1bQ0gyXVtDQEBIXShbT0hdKVtDSDJdW0NIMl0y

> <s_epik_cmdline>
J2VwaWtfcHl0aG9uJywgJy1waCcsICc3LjAnLCAnLXRuJywgJzgnLCAnLW1hJywgJzIwMCcsICctbWV0YWxfYmluZGluZycsICctaW1hZScsICc8aW5maWxlLm1hZT4nLCAnLW9tYWUnLCAnPG91dGZpbGUubWFlPic=

> <r_lp_tautomer_probability>
1

> <r_epik_Ionization_Penalty>
7.33369e-05

> <r_epik_Ionization_Penalty_Charging>
0

> <r_epik_Ionization_Penalty_Neutral>
7.33369e-05

> <r_epik_State_Penalty>
-0

> <r_epik_Charging_Adjusted_Penalty>
0

> <i_epik_Tot_Q>
0

> <i_epik_Tot_abs_Q>
0

> <r_epik_Metal_State_Penalty>
-0

> <b_epik_Metal_Only>
0

> <s_lp_Force_Field>
OPLS_2005

> <r_lp_Energy>
7.95732

> <b_lp_Chiralities_Consistent>
1

> <s_lp_Variant>
AV-unprocessed.smi:1670-4

> <Gold.Version>
5.8.1

> <Gold.Id.Protein>
6NUR|6NUR_protein|mol2

> <Gold.PLP.Fitness>
43.3983

> <Gold.PLP.PLP>
-32.8438

> <Gold.PLP.part.hbond>
-3.7410

> <Gold.PLP.part.metal>
0.0000

> <Gold.PLP.part.buried>
-5.4818

> <Gold.PLP.part.nonpolar>
-24.6663

> <Gold.PLP.part.repulsive>
0.0798

> <Gold.PLP.ligand.clash>
0.0000

> <Gold.PLP.ligand.torsion>
0.7893

> <Gold.PLP.Chemscore.Hbond>
2.8960

> <Gold.PLP.Chemscore.CHOScore>
1.1333

> <Gold.PLP.Chemscore.Metal>
0.0000

> <Gold.Chemscore.Hbonds>
donor molecule, donor type, donor heavy atom, donor atom, acceptor molecule, acceptor atom, score
      L1  H     9    29       P1  7948  0.99
      L1  H    12    30       P1  7948  0.90
      L1  H    17    37       P1  7921  1.00
      L1  C     5    26       P1  7948  0.76
      L1  C     5    26       P1  7949  0.37

> <Gold.PLP.Chemscore.Internal.Correction>
0.0453

> <Gold.Rescore>
     Score         DG    S(hbond)    S(metal)    S(lipo)     H(rot)  DE(clash)    DE(int)     intcor
     17.38     -18.06       2.80        0.00      76.17       2.22       0.10       0.58       ----

> <Gold.Chemscore.Fitness>
17.3810

> <Gold.Chemscore.DG>
-18.0583

> <Gold.Chemscore.ZeroCoef>
-5.4800

> <Gold.Chemscore.Hbond>
2.8012

> <Gold.Chemscore.Metal>
0.0000

> <Gold.Chemscore.Lipo>
76.1676

> <Gold.Chemscore.Internal_Hbond>
0.0000

> <Gold.Chemscore.DEClash>
0.0965

> <Gold.Chemscore.DEInternal>
0.5808

> <Gold.Chemscore.Rot>
2.2224

> <Gold.Chemscore.Internal.Correction>
   9.000000E+99

> <Gold.Chemscore.Hbonds>
donor molecule, donor type, donor heavy atom, donor atom, acceptor molecule, acceptor atom, score
      L1  H     9    29       P1  7948  0.92
      L1  H    12    30       P1  7948  0.68
      L1  H    17    37       P1  7921  0.97

> <Gold.Chemscore.Hbond.Weighted>
-9.3560

> <Gold.Chemscore.Metal.Weighted>
-0.0000

> <Gold.Chemscore.Lipo.Weighted>
-8.9116

> <Gold.Chemscore.Internal_Hbond.Weighted>
0.0000

> <Gold.Chemscore.DEClash.Weighted>
0.0965

> <Gold.Chemscore.DEInternal.Weighted>
0.5808

> <Gold.Chemscore.Rot.Weighted>
5.6893

> <Gold.Chemscore.Internal.Correction.Weighted>
   9.000000E+99

> <Gold.Protein.RotatedTorsions>
[ 6907 6896 6895 6894 ] final  116.50 input  -60.11 | X-H torsion
[ 7974 7965 7964 7962 ] final  -89.91 input  175.53 | X-H torsion
[ 8008 7997 7996 7995 ] final   46.44 input   59.86 | X-H torsion
[ 10167 10162 10161 10158 ] final  119.33 input  -65.29 | X-H torsion
[ 10718 10713 10712 10709 ] final   28.63 input   66.30 | X-H torsion
[ 10763 10752 10751 10750 ] final -172.76 input  -60.55 | X-H torsion
[ 11005 11000 10999 10996 ] final -173.27 input  -57.11 | X-H torsion

> <Gold.Protein.ActiveResidues>
 VAL166  LYS551  ARG553  GLY616  TRP617  ASP618  TYR619  PRO620  LYS621  CYS622 
 ASP623  PHE694  ASN695  SER759  ASP760  ASP761  ALA762  ILE779  LEU786  VAL792 
 PHE793  MET794  SER795  GLU796  ALA797  LYS798  CYS799  TRP800  GLU811  SER814 

> <Gold.Protein.RotatedAtoms>
  152.4674  133.7953  159.6923 H   0  0  0  0  0  0  0  0  0  0  0  0  # atno 6907 bound_to 6896
  150.8645  133.7585  159.2987 H   0  0  0  0  0  0  0  0  0  0  0  0  # atno 6908 bound_to 6896
  151.5139  135.1069  159.9913 H   0  0  0  0  0  0  0  0  0  0  0  0  # atno 6909 bound_to 6896
  145.4335  140.9556  143.2114 H   0  0  0  0  0  0  0  0  0  0  0  0  # atno 7974 bound_to 7965
  155.3525  140.3414  155.4239 H   0  0  0  0  0  0  0  0  0  0  0  0  # atno 8008 bound_to 7997
  156.1756  140.1646  156.8403 H   0  0  0  0  0  0  0  0  0  0  0  0  # atno 8009 bound_to 7997
  154.5279  140.0752  156.8274 H   0  0  0  0  0  0  0  0  0  0  0  0  # atno 8010 bound_to 7997
  139.6053  144.7068  151.2967 H   0  0  0  0  0  0  0  0  0  0  0  0  # atno 10167 bound_to 10162
  157.2359  130.7046  149.6335 H   0  0  0  0  0  0  0  0  0  0  0  0  # atno 10718 bound_to 10713
  154.6156  135.2869  155.0384 H   0  0  0  0  0  0  0  0  0  0  0  0  # atno 10763 bound_to 10752
  154.1597  135.6490  153.4987 H   0  0  0  0  0  0  0  0  0  0  0  0  # atno 10764 bound_to 10752
  153.0213  135.5375  154.6926 H   0  0  0  0  0  0  0  0  0  0  0  0  # atno 10765 bound_to 10752
  140.4876  134.6015  157.4943 H   0  0  0  0  0  0  0  0  0  0  0  0  # atno 11005 bound_to 11000
  144.8167  139.5864  143.7005 LP  0  0  0  0  0  0  0  0  0  0  0  0  # atno 17320 bound_to 7965
  146.2594  139.6376  142.9372 LP  0  0  0  0  0  0  0  0  0  0  0  0  # atno 17321 bound_to 7965
  140.7280  143.6947  150.7893 LP  0  0  0  0  0  0  0  0  0  0  0  0  # atno 17342 bound_to 10162
  140.0531  143.5229  152.2664 LP  0  0  0  0  0  0  0  0  0  0  0  0  # atno 17343 bound_to 10162
  155.9672  130.4474  150.5577 LP  0  0  0  0  0  0  0  0  0  0  0  0  # atno 17370 bound_to 10713
  157.3429  131.0720  151.1774 LP  0  0  0  0  0  0  0  0  0  0  0  0  # atno 17371 bound_to 10713
  139.9788  134.7171  155.9898 LP  0  0  0  0  0  0  0  0  0  0  0  0  # atno 17394 bound_to 11000
  141.1500  133.6550  156.3984 LP  0  0  0  0  0  0  0  0  0  0  0  0  # atno 17395 bound_to 11000

$$$$
