#       Name:                AV-unprocessed.smi:181
#       Creating user name   scv26
#       Creation time:       Thu Mar 26 19:25:20 2020


#       File generated by GOLD software.
#

@<TRIPOS>MOLECULE
AV-unprocessed.smi:181
    59    62     1
SMALL
NO_CHARGES


@<TRIPOS>ATOM
      1 ****        -4.5012  -1.1560   0.1778 C.3            1 S1                 0.0000
      2 ****        -3.4897  -0.7888   1.2701 C.3            1 S1                 0.0000
      3 ****        -2.8698   0.5118   1.0201 N.pl3          1 S1                 0.0000
      4 ****        -1.5176   0.5040   1.0632 C.ar           1 S1                 0.0000
      5 ****        -0.8759   0.5599   2.2583 N.ar           1 S1                 0.0000
      6 ****         0.4599   0.5466   2.2980 C.ar           1 S1                 0.0000
      7 ****         1.3251   0.4770   1.2832 N.ar           1 S1                 0.0000
      8 ****         0.6785   0.4084   0.0838 C.ar           1 S1                 0.0000
      9 ****        -0.7298   0.4137  -0.1134 C.ar           1 S1                 0.0000
     10 ****        -1.0249   0.3302  -1.4678 N.2            1 S1                 0.0000
     11 ****         0.1467   0.2761  -2.0414 C.2            1 S1                 0.0000
     12 ****         1.2241   0.3139  -1.1842 N.pl3          1 S1                 0.0000
     13 ****         2.6312   0.2692  -1.5499 C.3            1 S1                 0.0000
     14 ****         3.1849  -1.1646  -1.7395 C.3            1 S1                 0.0000
     15 ****         2.5187  -1.7380  -2.8515 O.3            1 S1                 0.0000
     16 ****         4.6950  -1.1205  -2.0471 C.3            1 S1                 0.0000
     17 ****         5.3232  -2.5251  -2.0750 C.3            1 S1                 0.0000
     18 ****         5.0659  -3.1973  -0.8482 O.3            1 S1                 0.0000
     19 ****         3.6785  -3.4124  -0.6198 C.3            1 S1                 0.0000
     20 ****         2.9437  -2.0649  -0.5075 C.3            1 S1                 0.0000
     21 ****        -3.6005   1.7477   1.3464 C.3            1 S1                 0.0000
     22 ****        -3.0770   3.0013   0.6152 C.3            1 S1                 0.0000
     23 ****        -3.3524   4.1576   1.5876 C.3            1 S1                 0.0000
     24 ****        -3.4636   3.5163   2.8847 N.am           1 S1                 0.0000
     25 ****        -3.5790   2.1907   2.8084 C.2            1 S1                 0.0000
     26 ****        -3.6785   1.4249   3.7648 O.2            1 S1                 0.0000
     27 ****        -4.9401  -2.1348   0.3718 H              1 S1                 0.0000
     28 ****        -4.0219  -1.1947  -0.8009 H              1 S1                 0.0000
     29 ****        -5.3162  -0.4345   0.1236 H              1 S1                 0.0000
     30 ****        -3.9895  -0.7732   2.2386 H              1 S1                 0.0000
     31 ****        -2.7368  -1.5773   1.3326 H              1 S1                 0.0000
     32 ****         0.8977   0.5974   3.2839 H              1 S1                 0.0000
     33 ****         0.2593   0.2018  -3.1135 H              1 S1                 0.0000
     34 ****         2.7658   0.8526  -2.4620 H              1 S1                 0.0000
     35 ****         3.1968   0.7876  -0.7746 H              1 S1                 0.0000
     36 ****         2.8508  -2.6131  -2.9814 H              1 S1                 0.0000
     37 ****         4.8789  -0.6091  -2.9929 H              1 S1                 0.0000
     38 ****         5.2020  -0.5332  -1.2802 H              1 S1                 0.0000
     39 ****         4.9414  -3.1118  -2.9120 H              1 S1                 0.0000
     40 ****         6.4018  -2.4471  -2.2117 H              1 S1                 0.0000
     41 ****         3.2574  -4.0249  -1.4185 H              1 S1                 0.0000
     42 ****         3.5602  -3.9775   0.3049 H              1 S1                 0.0000
     43 ****         3.2985  -1.5515   0.3871 H              1 S1                 0.0000
     44 ****         1.8781  -2.2421  -0.3570 H              1 S1                 0.0000
     45 ****        -4.6499   1.6090   1.0849 H              1 S1                 0.0000
     46 ****        -2.0038   2.9559   0.4297 H              1 S1                 0.0000
     47 ****        -3.5647   3.1491  -0.3489 H              1 S1                 0.0000
     48 ****        -2.5558   4.9019   1.5783 H              1 S1                 0.0000
     49 ****        -4.2940   4.6552   1.3525 H              1 S1                 0.0000
     50 ****        -3.4340   4.0327   3.7518 H              1 S1                 0.0000
     51 ****        -1.4017   0.6109   3.1073 LP             1 S1                 0.0000
     52 ****         2.3196   0.4754   1.3888 LP             1 S1                 0.0000
     53 ****        -1.9252   0.3150  -1.9027 LP             1 S1                 0.0000
     54 ****         2.6905  -1.1873  -3.6684 LP             1 S1                 0.0000
     55 ****         1.5353  -1.7733  -2.6741 LP             1 S1                 0.0000
     56 ****         5.4317  -2.6458  -0.0986 LP             1 S1                 0.0000
     57 ****         5.5283  -4.0838  -0.8663 LP             1 S1                 0.0000
     58 ****        -3.7814   0.4423   3.6099 LP             1 S1                 0.0000
     59 ****        -3.6565   1.7845   4.6976 LP             1 S1                 0.0000
@<TRIPOS>BOND
    1    1    2 1     
    2    1   27 1     
    3    1   28 1     
    4    1   29 1     
    5    2    3 1     
    6    2   30 1     
    7    2   31 1     
    8    3    4 1     
    9    3   21 1     
   10    4    9 ar    
   11    4    5 ar    
   12    5    6 ar    
   13    6    7 ar    
   14    6   32 1     
   15    7    8 ar    
   16    8   12 1     
   17    8    9 ar    
   18    9   10 1     
   19   10   11 2     
   20   11   12 1     
   21   11   33 1     
   22   12   13 1     
   23   13   14 1     
   24   13   34 1     
   25   13   35 1     
   26   14   20 1     
   27   14   15 1     
   28   14   16 1     
   29   15   36 1     
   30   16   17 1     
   31   16   37 1     
   32   16   38 1     
   33   17   18 1     
   34   17   39 1     
   35   17   40 1     
   36   18   19 1     
   37   19   20 1     
   38   19   41 1     
   39   19   42 1     
   40   20   43 1     
   41   20   44 1     
   42   21   25 1     
   43   21   22 1     
   44   21   45 1     
   45   22   23 1     
   46   22   46 1     
   47   22   47 1     
   48   23   24 1     
   49   23   48 1     
   50   23   49 1     
   51   24   25 am    
   52   24   50 1     
   53   25   26 2     
   54    5   51 1     
   55    7   52 1     
   56   10   53 1     
   57   15   54 1     
   58   15   55 1     
   59   18   56 1     
   60   18   57 1     
   61   26   58 1     
   62   26   59 1     
@<TRIPOS>SUBSTRUCTURE
      1 S1             1
@<TRIPOS>SET
LONE_PAIRS      STATIC     ATOMS    <user>   **** ""
9 51 52 53 54 55 56 57 58 59
DONOR_HYDROGENS      STATIC     ATOMS    <user>   **** ""
2 36 50
ATOM$BLUE        STATIC     ATOMS    COLORGROUP SYSTEM
9 51 52 53 54 55 56 57 58 59
ATOM$RED        STATIC     ATOMS    COLORGROUP SYSTEM
2 36 50
