#       Name:                AV-unprocessed.smi:936
#       Creating user name   scv26
#       Creation time:       Fri Mar 27 02:11:34 2020


#       File generated by GOLD software.
#

@<TRIPOS>MOLECULE
AV-unprocessed.smi:936
    43    44     1
SMALL
NO_CHARGES


@<TRIPOS>ATOM
      1 ****        -5.0938   1.1045  -2.6663 C.3            1 S1                 0.0000
      2 ****        -5.2035   0.5729  -1.2297 C.3            1 S1                 0.0000
      3 ****        -5.4077   1.6837  -0.1898 C.3            1 S1                 0.0000
      4 ****        -4.0616  -0.3260  -0.8732 C.2            1 S1                 0.0000
      5 ****        -2.7879   0.0767  -0.8235 N.2            1 S1                 0.0000
      6 ****        -1.9105  -0.9484  -0.4574 C.2            1 S1                 0.0000
      7 ****        -0.4413  -0.6742  -0.3504 C.3            1 S1                 0.0000
      8 ****        -0.0855   0.0953   0.9325 C.3            1 S1                 0.0000
      9 ****         1.3489   0.3407   1.0294 N.am           1 S1                 0.0000
     10 ****         2.2585  -0.5455   1.4699 C.2            1 S1                 0.0000
     11 ****         1.9400  -1.6690   1.8627 O.2            1 S1                 0.0000
     12 ****         3.5390  -0.0948   1.4700 N.am           1 S1                 0.0000
     13 ****         4.0240   1.1283   0.8090 C.3            1 S1                 0.0000
     14 ****         4.6017   0.7618  -0.5683 C.3            1 S1                 0.0000
     15 ****         6.0349  -0.3474  -0.3988 S.3            1 S1                 0.0000
     16 ****         5.3223  -1.5982   0.7153 C.3            1 S1                 0.0000
     17 ****         4.6496  -0.9371   1.9303 C.3            1 S1                 0.0000
     18 ****        -2.5423  -2.1450  -0.2283 C.2            1 S1                 0.0000
     19 ****        -4.2640  -2.0266  -0.4652 S.3            1 S1                 0.0000
     20 ****        -5.0292   0.2859  -3.3837 H              1 S1                 0.0000
     21 ****        -4.2079   1.7279  -2.7917 H              1 S1                 0.0000
     22 ****        -5.9633   1.7069  -2.9298 H              1 S1                 0.0000
     23 ****        -6.1017  -0.0451  -1.1993 H              1 S1                 0.0000
     24 ****        -5.5665   1.2646   0.8043 H              1 S1                 0.0000
     25 ****        -6.2768   2.2953  -0.4332 H              1 S1                 0.0000
     26 ****        -4.5407   2.3430  -0.1389 H              1 S1                 0.0000
     27 ****         0.1096  -1.6151  -0.3786 H              1 S1                 0.0000
     28 ****        -0.1056  -0.1071  -1.2197 H              1 S1                 0.0000
     29 ****        -0.5946   1.0594   0.9410 H              1 S1                 0.0000
     30 ****        -0.4335  -0.4471   1.8132 H              1 S1                 0.0000
     31 ****         1.6774   1.2490   0.7357 H              1 S1                 0.0000
     32 ****         3.2525   1.8900   0.6973 H              1 S1                 0.0000
     33 ****         4.7946   1.5994   1.4207 H              1 S1                 0.0000
     34 ****         3.8439   0.2751  -1.1835 H              1 S1                 0.0000
     35 ****         4.9171   1.6597  -1.1000 H              1 S1                 0.0000
     36 ****         4.6002  -2.1984   0.1606 H              1 S1                 0.0000
     37 ****         6.1158  -2.2716   1.0394 H              1 S1                 0.0000
     38 ****         5.3741  -0.3369   2.4824 H              1 S1                 0.0000
     39 ****         4.3153  -1.7023   2.6325 H              1 S1                 0.0000
     40 ****        -2.1003  -3.0859   0.0649 H              1 S1                 0.0000
     41 ****        -2.4942   1.0109  -1.0264 LP             1 S1                 0.0000
     42 ****         0.9790  -1.9458   1.8601 LP             1 S1                 0.0000
     43 ****         2.6424  -2.3040   2.1840 LP             1 S1                 0.0000
@<TRIPOS>BOND
    1    1    2 1     
    2    1   20 1     
    3    1   21 1     
    4    1   22 1     
    5    2    3 1     
    6    2    4 1     
    7    2   23 1     
    8    3   24 1     
    9    3   25 1     
   10    3   26 1     
   11    4   19 1     
   12    4    5 2     
   13    5    6 1     
   14    6    7 1     
   15    6   18 2     
   16    7    8 1     
   17    7   27 1     
   18    7   28 1     
   19    8    9 1     
   20    8   29 1     
   21    8   30 1     
   22    9   10 am    
   23    9   31 1     
   24   10   11 2     
   25   10   12 am    
   26   12   17 1     
   27   12   13 1     
   28   13   14 1     
   29   13   32 1     
   30   13   33 1     
   31   14   15 1     
   32   14   34 1     
   33   14   35 1     
   34   15   16 1     
   35   16   17 1     
   36   16   36 1     
   37   16   37 1     
   38   17   38 1     
   39   17   39 1     
   40   18   19 1     
   41   18   40 1     
   42    5   41 1     
   43   11   42 1     
   44   11   43 1     
@<TRIPOS>SUBSTRUCTURE
      1 S1             1
@<TRIPOS>SET
LONE_PAIRS      STATIC     ATOMS    <user>   **** ""
3 41 42 43
DONOR_HYDROGENS      STATIC     ATOMS    <user>   **** ""
1 31
ATOM$BLUE        STATIC     ATOMS    COLORGROUP SYSTEM
3 41 42 43
ATOM$RED        STATIC     ATOMS    COLORGROUP SYSTEM
1 31
