AV-unprocessed.smi:286|AV-procd|sdf|2175|dock7
  -GOLD-   2262021533D 1   1.00000     0.00000
 Structure written by MMmdl.
 46 48  0  0  0  0  0  0  0  0  1 V2000
  150.8389  137.1315  159.7921 O   0  0  0  0  0  0  0  0  0  0  0  0
  150.5697  137.6980  158.7314 C   0  0  0  0  0  0  0  0  0  0  0  0
  149.2664  137.6093  158.0832 C   0  0  0  0  0  0  0  0  0  0  0  0
  148.2770  136.9155  158.6708 F   0  0  0  0  0  0  0  0  0  0  0  0
  149.0345  138.2163  156.8993 C   0  0  0  0  0  0  0  0  0  0  0  0
  149.9949  138.9413  156.2169 N   0  0  0  0  0  0  0  0  0  0  0  0
  149.6173  139.6040  154.9097 C   0  0  2  0  0  0  0  0  0  0  0  0
  149.7192  141.1365  154.9396 C   0  0  0  0  0  0  0  0  0  0  0  0
  148.5624  141.5255  154.0447 C   0  0  0  0  0  0  0  0  0  0  0  0
  147.5353  140.4441  154.3634 C   0  0  0  0  0  0  0  0  0  0  0  0
  148.3008  139.2624  154.5847 O   0  0  0  0  0  0  0  0  0  0  0  0
  151.2764  139.1158  156.7917 C   0  0  0  0  0  0  0  0  0  0  0  0
  152.1445  139.7828  156.2266 O   0  0  0  0  0  0  0  0  0  0  0  0
  151.5192  138.4871  158.0365 N   0  0  0  0  0  0  0  0  0  0  0  0
  152.8442  138.6179  158.6212 C   0  0  0  0  0  0  0  0  0  0  0  0
  152.8471  139.4495  159.9297 C   0  0  1  0  0  0  0  0  0  0  0  0
  154.0270  139.0871  160.6225 O   0  0  0  0  0  0  0  0  0  0  0  0
  152.8584  140.9869  159.7050 C   0  0  0  0  0  0  0  0  0  0  0  0
  152.5886  141.7678  161.0172 C   0  0  0  0  0  0  0  0  0  0  0  0
  152.5847  143.2901  160.8023 C   0  0  0  0  0  0  0  0  0  0  0  0
  151.5575  143.6978  159.7393 C   0  0  0  0  0  0  0  0  0  0  0  0
  151.8141  142.9491  158.4255 C   0  0  0  0  0  0  0  0  0  0  0  0
  151.8203  141.4271  158.6418 C   0  0  0  0  0  0  0  0  0  0  0  0
  148.0490  138.1191  156.4680 H   0  0  0  0  0  0  0  0  0  0  0  0
  150.2720  139.1715  154.1522 H   0  0  0  0  0  0  0  0  0  0  0  0
  149.5764  141.5302  155.9451 H   0  0  0  0  0  0  0  0  0  0  0  0
  150.6885  141.4705  154.5689 H   0  0  0  0  0  0  0  0  0  0  0  0
  148.1937  142.5339  154.2343 H   0  0  0  0  0  0  0  0  0  0  0  0
  148.8610  141.4608  152.9977 H   0  0  0  0  0  0  0  0  0  0  0  0
  146.9833  140.6946  155.2694 H   0  0  0  0  0  0  0  0  0  0  0  0
  146.8131  140.3037  153.5589 H   0  0  0  0  0  0  0  0  0  0  0  0
  153.2682  137.6208  158.7553 H   0  0  0  0  0  0  0  0  0  0  0  0
  153.4751  139.0469  157.8444 H   0  0  0  0  0  0  0  0  0  0  0  0
  151.9898  139.1908  160.5530 H   0  0  0  0  0  0  0  0  0  0  0  0
  154.7720  139.3828  160.1212 H   0  0  0  0  0  0  0  0  0  0  0  0
  153.8504  141.2681  159.3474 H   0  0  0  0  0  0  0  0  0  0  0  0
  151.6307  141.4585  161.4373 H   0  0  0  0  0  0  0  0  0  0  0  0
  153.3422  141.5330  161.7691 H   0  0  0  0  0  0  0  0  0  0  0  0
  152.3671  143.7979  161.7423 H   0  0  0  0  0  0  0  0  0  0  0  0
  153.5788  143.6186  160.4965 H   0  0  0  0  0  0  0  0  0  0  0  0
  150.5510  143.4772  160.0971 H   0  0  0  0  0  0  0  0  0  0  0  0
  151.5995  144.7743  159.5712 H   0  0  0  0  0  0  0  0  0  0  0  0
  151.0530  143.2165  157.6920 H   0  0  0  0  0  0  0  0  0  0  0  0
  152.7709  143.2624  158.0061 H   0  0  0  0  0  0  0  0  0  0  0  0
  152.0126  140.9539  157.6810 H   0  0  0  0  0  0  0  0  0  0  0  0
  150.8246  141.1007  158.9456 H   0  0  0  0  0  0  0  0  0  0  0  0
  1  2  2  0  0  0  0
  2 14  1  0  0  0  0
  2  3  1  0  0  0  0
  3  4  1  0  0  0  0
  3  5  2  0  0  0  0
  5  6  1  0  0  0  0
  5 24  1  0  0  0  0
  6  7  1  0  0  0  0
  6 12  1  0  0  0  0
  7 11  1  0  0  0  0
  7  8  1  0  0  0  0
  7 25  1  0  0  0  0
  8  9  1  0  0  0  0
  8 26  1  0  0  0  0
  8 27  1  0  0  0  0
  9 10  1  0  0  0  0
  9 28  1  0  0  0  0
  9 29  1  0  0  0  0
 10 11  1  0  0  0  0
 10 30  1  0  0  0  0
 10 31  1  0  0  0  0
 12 13  2  0  0  0  0
 12 14  1  0  0  0  0
 14 15  1  0  0  0  0
 15 16  1  0  0  0  0
 15 32  1  0  0  0  0
 15 33  1  0  0  0  0
 16 17  1  0  0  0  0
 16 18  1  0  0  0  0
 16 34  1  0  0  0  0
 17 35  1  0  0  0  0
 18 23  1  0  0  0  0
 18 19  1  0  0  0  0
 18 36  1  0  0  0  0
 19 20  1  0  0  0  0
 19 37  1  0  0  0  0
 19 38  1  0  0  0  0
 20 21  1  0  0  0  0
 20 39  1  0  0  0  0
 20 40  1  0  0  0  0
 21 22  1  0  0  0  0
 21 41  1  0  0  0  0
 21 42  1  0  0  0  0
 22 23  1  0  0  0  0
 22 43  1  0  0  0  0
 22 44  1  0  0  0  0
 23 45  1  0  0  0  0
 23 46  1  0  0  0  0
M  END
> <s_m_source_file>
AV-unprocessed.smi

> <i_m_source_file_index>
286

> <i_lp_mmshare_version>
43012

> <i_f3d_flags>
0

> <s_epik_input>
TzFbQ0gyXVtDSDJdW0NIMl1bQ0BIXTFuKFtjSF1jKEYpYzI9TyljKD1PKW4yW0NIMl1bQ0BIXShbT0hdKVtDSF0zW0NIMl1bQ0gyXVtDSDJdW0NIMl1bQ0gyXTM=

> <s_epik_cmdline>
J2VwaWtfcHl0aG9uJywgJy1waCcsICc3LjAnLCAnLXRuJywgJzgnLCAnLW1hJywgJzIwMCcsICctbWV0YWxfYmluZGluZycsICctaW1hZScsICc8aW5maWxlLm1hZT4nLCAnLW9tYWUnLCAnPG91dGZpbGUubWFlPic=

> <r_lp_tautomer_probability>
1

> <r_epik_Ionization_Penalty>
3.15564e-07

> <r_epik_Ionization_Penalty_Charging>
2.06416e-08

> <r_epik_Ionization_Penalty_Neutral>
2.94923e-07

> <r_epik_State_Penalty>
-0

> <r_epik_Charging_Adjusted_Penalty>
2.06416e-08

> <i_epik_Tot_Q>
0

> <i_epik_Tot_abs_Q>
0

> <r_epik_Metal_State_Penalty>
-0

> <b_epik_Metal_Only>
0

> <s_epik_Chemistry_Notes>
This compound contains an acetal/aminal-like group ( X-CH(R)-Y where X, Y are N, S, or O) that may be acid/base labile, releasing an aldehyde.

> <s_lp_Force_Field>
OPLS_2005

> <r_lp_Energy>
37.1896

> <b_lp_Chiralities_Consistent>
1

> <s_lp_Variant>
AV-unprocessed.smi:286-3

> <Gold.Version>
5.8.1

> <Gold.Id.Protein>
6NUR|6NUR_protein|mol2

> <Gold.PLP.Fitness>
44.0804

> <Gold.PLP.PLP>
-39.0376

> <Gold.PLP.part.hbond>
-1.9499

> <Gold.PLP.part.metal>
0.0000

> <Gold.PLP.part.buried>
-4.2916

> <Gold.PLP.part.nonpolar>
-32.3352

> <Gold.PLP.part.repulsive>
0.1128

> <Gold.PLP.ligand.clash>
0.0000

> <Gold.PLP.ligand.torsion>
0.4585

> <Gold.PLP.Chemscore.Hbond>
1.9750

> <Gold.PLP.Chemscore.CHOScore>
0.0000

> <Gold.PLP.Chemscore.Metal>
0.0000

> <Gold.Chemscore.Hbonds>
donor molecule, donor type, donor heavy atom, donor atom, acceptor molecule, acceptor atom, score
      P1  H  6896  6907       L1     1  0.94
      P1  H  7997  8009       L1    13  0.52

> <Gold.PLP.Chemscore.Internal.Correction>
0.0350

> <Gold.Rescore>
     Score         DG    S(hbond)    S(metal)    S(lipo)     H(rot)  DE(clash)    DE(int)     intcor
     14.80     -17.57       1.97        0.00      96.79       2.28       0.07       2.69       ----

> <Gold.Chemscore.Fitness>
14.8031

> <Gold.Chemscore.DG>
-17.5687

> <Gold.Chemscore.ZeroCoef>
-5.4800

> <Gold.Chemscore.Hbond>
1.9731

> <Gold.Chemscore.Metal>
0.0000

> <Gold.Chemscore.Lipo>
96.7863

> <Gold.Chemscore.Internal_Hbond>
0.0000

> <Gold.Chemscore.DEClash>
0.0737

> <Gold.Chemscore.DEInternal>
2.6919

> <Gold.Chemscore.Rot>
2.2756

> <Gold.Chemscore.Internal.Correction>
   9.000000E+99

> <Gold.Chemscore.Hbonds>
donor molecule, donor type, donor heavy atom, donor atom, acceptor molecule, acceptor atom, score
      P1  H  6896  6907       L1     1  0.90
      P1  H  7997  8009       L1    13  0.52

> <Gold.Chemscore.Hbond.Weighted>
-6.5901

> <Gold.Chemscore.Metal.Weighted>
-0.0000

> <Gold.Chemscore.Lipo.Weighted>
-11.3240

> <Gold.Chemscore.Internal_Hbond.Weighted>
0.0000

> <Gold.Chemscore.DEClash.Weighted>
0.0737

> <Gold.Chemscore.DEInternal.Weighted>
2.6919

> <Gold.Chemscore.Rot.Weighted>
5.8254

> <Gold.Chemscore.Internal.Correction.Weighted>
   9.000000E+99

> <Gold.Protein.RotatedTorsions>
[ 6907 6896 6895 6894 ] final   -9.07 input  -60.11 | X-H torsion
[ 7974 7965 7964 7962 ] final   93.76 input  175.53 | X-H torsion
[ 8008 7997 7996 7995 ] final -156.12 input   59.86 | X-H torsion
[ 10167 10162 10161 10158 ] final   59.85 input  -65.29 | X-H torsion
[ 10718 10713 10712 10709 ] final  -97.28 input   66.30 | X-H torsion
[ 10763 10752 10751 10750 ] final  -40.65 input  -60.55 | X-H torsion
[ 11005 11000 10999 10996 ] final   80.94 input  -57.11 | X-H torsion

> <Gold.Protein.ActiveResidues>
 VAL166  LYS551  ARG553  GLY616  TRP617  ASP618  TYR619  PRO620  LYS621  CYS622 
 ASP623  PHE694  ASN695  SER759  ASP760  ASP761  ALA762  ILE779  LEU786  VAL792 
 PHE793  MET794  SER795  GLU796  ALA797  LYS798  CYS799  TRP800  GLU811  SER814 

> <Gold.Protein.RotatedAtoms>
  151.4236  135.1001  159.9620 H   0  0  0  0  0  0  0  0  0  0  0  0  # atno 6907 bound_to 6896
  152.4980  133.8684  159.7296 H   0  0  0  0  0  0  0  0  0  0  0  0  # atno 6908 bound_to 6896
  150.9205  133.6828  159.2861 H   0  0  0  0  0  0  0  0  0  0  0  0  # atno 6909 bound_to 6896
  145.4746  139.2280  143.2916 H   0  0  0  0  0  0  0  0  0  0  0  0  # atno 7974 bound_to 7965
  155.7124  140.0780  157.2365 H   0  0  0  0  0  0  0  0  0  0  0  0  # atno 8008 bound_to 7997
  154.4056  140.1627  156.2364 H   0  0  0  0  0  0  0  0  0  0  0  0  # atno 8009 bound_to 7997
  155.9271  140.3394  155.6222 H   0  0  0  0  0  0  0  0  0  0  0  0  # atno 8010 bound_to 7997
  140.1720  144.4268  150.6657 H   0  0  0  0  0  0  0  0  0  0  0  0  # atno 10167 bound_to 10162
  156.0080  130.5187  150.6351 H   0  0  0  0  0  0  0  0  0  0  0  0  # atno 10718 bound_to 10713
  153.9494  135.6752  153.4744 H   0  0  0  0  0  0  0  0  0  0  0  0  # atno 10763 bound_to 10752
  153.0892  135.4883  154.8653 H   0  0  0  0  0  0  0  0  0  0  0  0  # atno 10764 bound_to 10752
  154.7333  135.3143  154.8813 H   0  0  0  0  0  0  0  0  0  0  0  0  # atno 10765 bound_to 10752
  139.9116  134.7959  156.1975 H   0  0  0  0  0  0  0  0  0  0  0  0  # atno 11005 bound_to 11000
  146.2377  140.5527  142.8948 LP  0  0  0  0  0  0  0  0  0  0  0  0  # atno 17320 bound_to 7965
  144.7925  140.6059  143.6532 LP  0  0  0  0  0  0  0  0  0  0  0  0  # atno 17321 bound_to 7965
  140.6576  143.2242  151.5932 LP  0  0  0  0  0  0  0  0  0  0  0  0  # atno 17342 bound_to 10162
  139.5334  144.2851  152.1198 LP  0  0  0  0  0  0  0  0  0  0  0  0  # atno 17343 bound_to 10162
  157.4142  131.0828  151.1193 LP  0  0  0  0  0  0  0  0  0  0  0  0  # atno 17370 bound_to 10713
  157.1815  130.6311  149.5673 LP  0  0  0  0  0  0  0  0  0  0  0  0  # atno 17371 bound_to 10713
  141.0545  133.6872  156.1835 LP  0  0  0  0  0  0  0  0  0  0  0  0  # atno 17394 bound_to 11000
  140.6758  134.4819  157.5588 LP  0  0  0  0  0  0  0  0  0  0  0  0  # atno 17395 bound_to 11000

$$$$
