AV-unprocessed.smi:438|AV-procd|sdf|2573|dock3
  -GOLD-   2262022553D 1   1.00000     0.00000
 Structure written by MMmdl.
 47 48  0  0  0  0  0  0  0  0  2 V2000
  150.8497  143.3202  158.5774 C   0  0  0  0  0  0  0  0  0  0  0  0
  151.6102  142.0416  158.8808 C   0  0  0  0  0  0  0  0  0  0  0  0
  151.1830  140.8968  158.1878 N   0  0  0  0  0  0  0  0  0  0  0  0
  151.7702  139.7797  158.3923 C   0  0  0  0  0  0  0  0  0  0  0  0
  151.2193  138.3091  157.5099 S   0  0  0  0  0  0  0  0  0  0  0  0
  150.8122  137.1344  158.8375 C   0  0  0  0  0  0  0  0  0  0  0  0
  149.3402  136.7318  158.8353 C   0  0  0  0  0  0  0  0  0  0  0  0
  148.5968  137.1046  157.9280 O   0  0  0  0  0  0  0  0  0  0  0  0
  148.9306  135.9822  159.8701 N   0  0  0  0  0  0  0  0  0  0  0  0
  147.5738  135.4792  160.0821 C   0  0  2  0  0  0  0  0  0  0  0  0
  146.9807  136.0375  161.3938 C   0  0  0  0  0  0  0  0  0  0  0  0
  147.6674  135.4485  162.6381 C   0  0  0  0  0  0  0  0  0  0  0  0
  147.6276  133.9131  162.6214 C   0  0  0  0  0  0  0  0  0  0  0  0
  148.2384  133.3512  161.3277 C   0  0  0  0  0  0  0  0  0  0  0  0
  147.5488  133.9303  160.0747 C   0  0  2  0  0  0  0  0  0  0  0  0
  148.1310  133.3309  158.7826 C   0  0  0  0  0  0  0  0  0  0  0  0
  152.8206  139.6138  159.2649 N   0  5  0  0  0  0  0  0  0  0  0  0
  153.2932  140.6769  159.9766 C   0  0  0  0  0  0  0  0  0  0  0  0
  154.2271  140.5703  160.7706 O   0  0  0  0  0  0  0  0  0  0  0  0
  152.6412  141.9824  159.7713 C   0  0  0  0  0  0  0  0  0  0  0  0
  153.1580  143.1945  160.5428 C   0  0  0  0  0  0  0  0  0  0  0  0
  152.9869  143.0308  162.0600 C   0  0  0  0  0  0  0  0  0  0  0  0
  151.6245  142.8326  162.3704 O   0  0  0  0  0  0  0  0  0  0  0  0
  150.4959  143.7849  159.4980 H   0  0  0  0  0  0  0  0  0  0  0  0
  149.9814  143.1231  157.9474 H   0  0  0  0  0  0  0  0  0  0  0  0
  151.4913  144.0281  158.0529 H   0  0  0  0  0  0  0  0  0  0  0  0
  151.0735  137.5768  159.7996 H   0  0  0  0  0  0  0  0  0  0  0  0
  151.4151  136.2332  158.7210 H   0  0  0  0  0  0  0  0  0  0  0  0
  149.6188  135.7290  160.5644 H   0  0  0  0  0  0  0  0  0  0  0  0
  146.9504  135.8235  159.2547 H   0  0  0  0  0  0  0  0  0  0  0  0
  147.0486  137.1259  161.4105 H   0  0  0  0  0  0  0  0  0  0  0  0
  145.9162  135.8030  161.4315 H   0  0  0  0  0  0  0  0  0  0  0  0
  148.7032  135.7878  162.6836 H   0  0  0  0  0  0  0  0  0  0  0  0
  147.1825  135.8219  163.5405 H   0  0  0  0  0  0  0  0  0  0  0  0
  148.1619  133.5186  163.4861 H   0  0  0  0  0  0  0  0  0  0  0  0
  146.5953  133.5736  162.7149 H   0  0  0  0  0  0  0  0  0  0  0  0
  149.3059  133.5735  161.3025 H   0  0  0  0  0  0  0  0  0  0  0  0
  148.1531  132.2640  161.3297 H   0  0  0  0  0  0  0  0  0  0  0  0
  146.5014  133.6276  160.1159 H   0  0  0  0  0  0  0  0  0  0  0  0
  149.1972  133.5370  158.6847 H   0  0  0  0  0  0  0  0  0  0  0  0
  147.6313  133.7369  157.9026 H   0  0  0  0  0  0  0  0  0  0  0  0
  148.0035  132.2483  158.7626 H   0  0  0  0  0  0  0  0  0  0  0  0
  152.6402  144.0944  160.2126 H   0  0  0  0  0  0  0  0  0  0  0  0
  154.2074  143.3641  160.2970 H   0  0  0  0  0  0  0  0  0  0  0  0
  153.5612  142.1774  162.4221 H   0  0  0  0  0  0  0  0  0  0  0  0
  153.3459  143.9140  162.5890 H   0  0  0  0  0  0  0  0  0  0  0  0
  151.4151  143.3443  163.1366 H   0  0  0  0  0  0  0  0  0  0  0  0
  1 24  1  0  0  0  0
  1 25  1  0  0  0  0
  1 26  1  0  0  0  0
  1  2  1  0  0  0  0
  2 20  2  0  0  0  0
  2  3  1  0  0  0  0
  3  4  2  0  0  0  0
  4  5  1  0  0  0  0
  4 17  1  0  0  0  0
  5  6  1  0  0  0  0
  6  7  1  0  0  0  0
  6 27  1  0  0  0  0
  6 28  1  0  0  0  0
  7  8  2  0  0  0  0
  7  9  1  0  0  0  0
  9 10  1  0  0  0  0
  9 29  1  0  0  0  0
 10 15  1  0  0  0  0
 10 11  1  0  0  0  0
 10 30  1  0  0  0  0
 11 12  1  0  0  0  0
 11 31  1  0  0  0  0
 11 32  1  0  0  0  0
 12 13  1  0  0  0  0
 12 33  1  0  0  0  0
 12 34  1  0  0  0  0
 13 14  1  0  0  0  0
 13 35  1  0  0  0  0
 13 36  1  0  0  0  0
 14 15  1  0  0  0  0
 14 37  1  0  0  0  0
 14 38  1  0  0  0  0
 15 16  1  0  0  0  0
 15 39  1  0  0  0  0
 16 40  1  0  0  0  0
 16 41  1  0  0  0  0
 16 42  1  0  0  0  0
 17 18  1  0  0  0  0
 18 19  2  0  0  0  0
 18 20  1  0  0  0  0
 20 21  1  0  0  0  0
 21 22  1  0  0  0  0
 21 43  1  0  0  0  0
 21 44  1  0  0  0  0
 22 23  1  0  0  0  0
 22 45  1  0  0  0  0
 22 46  1  0  0  0  0
 23 47  1  0  0  0  0
M  CHG  1  17  -1
M  END
> <s_m_source_file>
AV-unprocessed.smi

> <i_m_source_file_index>
438

> <i_lp_mmshare_version>
43012

> <i_f3d_flags>
0

> <s_epik_input>
W09IXVtDSDJdW0NIMl1jMWMoW09IXSluYyhuYzFbQ0gzXSlTW0NIMl1DKD1PKVtOSF1bQ0BASF0yW0NIMl1bQ0gyXVtDSDJdW0NIMl1bQ0BIXTJbQ0gzXQ==

> <s_epik_cmdline>
J2VwaWtfcHl0aG9uJywgJy1waCcsICc3LjAnLCAnLXRuJywgJzgnLCAnLW1hJywgJzIwMCcsICctbWV0YWxfYmluZGluZycsICctaW1hZScsICc8aW5maWxlLm1hZT4nLCAnLW9tYWUnLCAnPG91dGZpbGUubWFlPic=

> <r_lp_tautomer_probability>
1

> <r_epik_Ionization_Penalty>
3.69231

> <r_epik_Ionization_Penalty_Charging>
0.00434774

> <r_epik_Ionization_Penalty_Neutral>
3.68796

> <r_epik_State_Penalty>
2.13826

> <r_epik_Charging_Adjusted_Penalty>
2.14261

> <i_epik_Tot_Q>
-1

> <i_epik_Tot_abs_Q>
1

> <r_epik_Metal_State_Penalty>
0.260979

> <b_epik_Metal_Only>
0

> <s_lp_Force_Field>
OPLS_2005

> <r_lp_Energy>
17.6813

> <b_lp_Chiralities_Consistent>
1

> <s_lp_Variant>
AV-unprocessed.smi:438-11

> <Gold.Version>
5.8.1

> <Gold.Id.Protein>
6NUR|6NUR_protein|mol2

> <Gold.PLP.Fitness>
45.0831

> <Gold.PLP.PLP>
-43.0758

> <Gold.PLP.part.hbond>
-2.0000

> <Gold.PLP.part.metal>
0.0000

> <Gold.PLP.part.buried>
-8.2079

> <Gold.PLP.part.nonpolar>
-32.9948

> <Gold.PLP.part.repulsive>
0.1947

> <Gold.PLP.ligand.clash>
0.0000

> <Gold.PLP.ligand.torsion>
0.4385

> <Gold.PLP.Chemscore.Hbond>
0.9440

> <Gold.PLP.Chemscore.CHOScore>
0.0000

> <Gold.PLP.Chemscore.Metal>
0.0000

> <Gold.Chemscore.Hbonds>
donor molecule, donor type, donor heavy atom, donor atom, acceptor molecule, acceptor atom, score
      P1  H  6933  6945       L1    23  0.93

> <Gold.PLP.Chemscore.Internal.Correction>
0.0522

> <Gold.Rescore>
     Score         DG    S(hbond)    S(metal)    S(lipo)     H(rot)  DE(clash)    DE(int)     intcor
     10.93     -13.31       0.82        0.00     104.48       2.79       1.82       0.56       ----

> <Gold.Chemscore.Fitness>
10.9285

> <Gold.Chemscore.DG>
-13.3088

> <Gold.Chemscore.ZeroCoef>
-5.4800

> <Gold.Chemscore.Hbond>
0.8245

> <Gold.Chemscore.Metal>
0.0000

> <Gold.Chemscore.Lipo>
104.4800

> <Gold.Chemscore.Internal_Hbond>
0.0000

> <Gold.Chemscore.DEClash>
1.8231

> <Gold.Chemscore.DEInternal>
0.5572

> <Gold.Chemscore.Rot>
2.7927

> <Gold.Chemscore.Internal.Correction>
   9.000000E+99

> <Gold.Chemscore.Hbonds>
donor molecule, donor type, donor heavy atom, donor atom, acceptor molecule, acceptor atom, score
      P1  H  6933  6945       L1    23  0.20

> <Gold.Chemscore.Hbond.Weighted>
-2.7539

> <Gold.Chemscore.Metal.Weighted>
-0.0000

> <Gold.Chemscore.Lipo.Weighted>
-12.2242

> <Gold.Chemscore.Internal_Hbond.Weighted>
0.0000

> <Gold.Chemscore.DEClash.Weighted>
1.8231

> <Gold.Chemscore.DEInternal.Weighted>
0.5572

> <Gold.Chemscore.Rot.Weighted>
7.1492

> <Gold.Chemscore.Internal.Correction.Weighted>
   9.000000E+99

> <Gold.Protein.RotatedTorsions>
[ 6907 6896 6895 6894 ] final  -58.59 input  -60.11 | X-H torsion
[ 7974 7965 7964 7962 ] final  166.74 input  175.53 | X-H torsion
[ 8008 7997 7996 7995 ] final  168.61 input   59.86 | X-H torsion
[ 10167 10162 10161 10158 ] final  -73.99 input  -65.29 | X-H torsion
[ 10718 10713 10712 10709 ] final   31.57 input   66.30 | X-H torsion
[ 10763 10752 10751 10750 ] final    3.64 input  -60.55 | X-H torsion
[ 11005 11000 10999 10996 ] final  -55.92 input  -57.11 | X-H torsion

> <Gold.Protein.ActiveResidues>
 VAL166  LYS551  ARG553  GLY616  TRP617  ASP618  TYR619  PRO620  LYS621  CYS622 
 ASP623  PHE694  ASN695  SER759  ASP760  ASP761  ALA762  ILE779  LEU786  VAL792 
 PHE793  MET794  SER795  GLU796  ALA797  LYS798  CYS799  TRP800  GLU811  SER814 

> <Gold.Protein.RotatedAtoms>
  150.7995  134.7078  159.6586 H   0  0  0  0  0  0  0  0  0  0  0  0  # atno 6907 bound_to 6896
  152.4110  134.6120  160.0038 H   0  0  0  0  0  0  0  0  0  0  0  0  # atno 6908 bound_to 6896
  151.6363  133.3292  159.3156 H   0  0  0  0  0  0  0  0  0  0  0  0  # atno 6909 bound_to 6896
  144.7451  139.8659  143.6385 H   0  0  0  0  0  0  0  0  0  0  0  0  # atno 7974 bound_to 7965
  156.1531  140.1586  156.8737 H   0  0  0  0  0  0  0  0  0  0  0  0  # atno 8008 bound_to 7997
  154.5090  140.0806  156.7988 H   0  0  0  0  0  0  0  0  0  0  0  0  # atno 8009 bound_to 7997
  155.3856  140.3407  155.4251 H   0  0  0  0  0  0  0  0  0  0  0  0  # atno 8010 bound_to 7997
  140.5064  143.2352  151.7667 H   0  0  0  0  0  0  0  0  0  0  0  0  # atno 10167 bound_to 10162
  157.2742  130.7223  149.6520 H   0  0  0  0  0  0  0  0  0  0  0  0  # atno 10718 bound_to 10713
  153.2808  135.6940  153.7387 H   0  0  0  0  0  0  0  0  0  0  0  0  # atno 10763 bound_to 10752
  153.6375  135.3399  155.3062 H   0  0  0  0  0  0  0  0  0  0  0  0  # atno 10764 bound_to 10752
  154.8494  135.4423  154.1861 H   0  0  0  0  0  0  0  0  0  0  0  0  # atno 10765 bound_to 10752
  141.1096  133.6611  156.4542 H   0  0  0  0  0  0  0  0  0  0  0  0  # atno 11005 bound_to 11000
  146.1315  139.4351  143.0165 LP  0  0  0  0  0  0  0  0  0  0  0  0  # atno 17320 bound_to 7965
  145.7156  141.0092  143.1430 LP  0  0  0  0  0  0  0  0  0  0  0  0  # atno 17321 bound_to 7965
  139.4885  144.4451  151.9719 LP  0  0  0  0  0  0  0  0  0  0  0  0  # atno 17342 bound_to 10162
  140.3542  144.3052  150.5944 LP  0  0  0  0  0  0  0  0  0  0  0  0  # atno 17343 bound_to 10162
  155.9663  130.4358  150.5108 LP  0  0  0  0  0  0  0  0  0  0  0  0  # atno 17370 bound_to 10713
  157.3038  131.0650  151.2049 LP  0  0  0  0  0  0  0  0  0  0  0  0  # atno 17371 bound_to 10713
  140.4810  134.6665  157.5171 LP  0  0  0  0  0  0  0  0  0  0  0  0  # atno 17394 bound_to 11000
  139.9984  134.6875  155.9572 LP  0  0  0  0  0  0  0  0  0  0  0  0  # atno 17395 bound_to 11000

$$$$
