#       Name:                AV-unprocessed.smi:227
#       Creating user name   scv26
#       Creation time:       Thu Mar 26 20:23:03 2020


#       File generated by GOLD software.
#

@<TRIPOS>MOLECULE
AV-unprocessed.smi:227
    64    68     1
SMALL
NO_CHARGES


@<TRIPOS>ATOM
      1 ****        -1.3124   3.8363   3.4409 O.3            1 S1                 0.0000
      2 ****        -1.9189   3.2138   2.3271 C.3            1 S1                 0.0000
      3 ****        -1.2904   3.6935   0.9931 C.3            1 S1                 0.0000
      4 ****         0.2481   3.4494   0.9792 C.3            1 S1                 0.0000
      5 ****         0.6312   2.0446   0.9969 N.pl3          1 S1                 0.0000
      6 ****         0.7798   1.2477   2.1083 C.2            1 S1                 0.0000
      7 ****         1.1277   0.0146   1.8654 N.2            1 S1                 0.0000
      8 ****         1.2439  -0.0489   0.4814 C.ar           1 S1                 0.0000
      9 ****         1.5820  -1.0749  -0.4519 C.ar           1 S1                 0.0000
     10 ****         1.8858  -2.3613  -0.1201 N.3            1 S1                 0.0000
     11 ****         1.2769  -3.0132   1.0308 C.3            1 S1                 0.0000
     12 ****        -0.1711  -3.2874   0.5795 C.3            1 S1                 0.0000
     13 ****         0.0340  -3.5793  -0.9149 C.3            1 S1                 0.0000
     14 ****         1.5692  -3.4432  -1.0445 C.3            1 S1                 0.0000
     15 ****         2.3074  -4.6313  -0.3869 C.3            1 S1                 0.0000
     16 ****         1.9302  -6.0499  -0.8546 C.3            1 S1                 0.0000
     17 ****         2.1918  -6.1994  -2.2337 O.3            1 S1                 0.0000
     18 ****         2.0361  -4.3509   1.1015 C.3            1 S1                 0.0000
     19 ****         1.6232  -0.7271  -1.7656 N.ar           1 S1                 0.0000
     20 ****         1.3350   0.5182  -2.1504 C.ar           1 S1                 0.0000
     21 ****         0.9875   1.5617  -1.3980 N.ar           1 S1                 0.0000
     22 ****         0.9532   1.2307  -0.0763 C.ar           1 S1                 0.0000
     23 ****        -2.0089   3.0683  -0.2446 C.3            1 S1                 0.0000
     24 ****        -1.5722   3.6580  -1.5831 C.3            1 S1                 0.0000
     25 ****        -2.4655   4.8868  -1.7555 C.3            1 S1                 0.0000
     26 ****        -3.5884   4.6760  -0.9077 O.3            1 S1                 0.0000
     27 ****        -3.5105   3.3724  -0.3505 C.3            1 S1                 0.0000
     28 ****        -1.4547   4.7686   3.3783 H              1 S1                 0.0000
     29 ****        -1.8470   2.1316   2.4320 H              1 S1                 0.0000
     30 ****        -2.9754   3.4644   2.3871 H              1 S1                 0.0000
     31 ****        -1.4379   4.7733   0.9465 H              1 S1                 0.0000
     32 ****         0.7137   3.9210   0.1157 H              1 S1                 0.0000
     33 ****         0.7169   3.9331   1.8364 H              1 S1                 0.0000
     34 ****         0.6140   1.6105   3.1124 H              1 S1                 0.0000
     35 ****         1.3418  -2.4713   1.9722 H              1 S1                 0.0000
     36 ****        -0.6294  -4.1186   1.1163 H              1 S1                 0.0000
     37 ****        -0.8003  -2.4072   0.7176 H              1 S1                 0.0000
     38 ****        -0.3532  -4.5486  -1.2241 H              1 S1                 0.0000
     39 ****        -0.4715  -2.8240  -1.5180 H              1 S1                 0.0000
     40 ****         1.8984  -3.2765  -2.0706 H              1 S1                 0.0000
     41 ****         3.3761  -4.4961  -0.5646 H              1 S1                 0.0000
     42 ****         2.5225  -6.7870  -0.3119 H              1 S1                 0.0000
     43 ****         0.8859  -6.2851  -0.6529 H              1 S1                 0.0000
     44 ****         3.1115  -6.0428  -2.3841 H              1 S1                 0.0000
     45 ****         2.9747  -4.2412   1.6464 H              1 S1                 0.0000
     46 ****         1.4541  -5.1326   1.5912 H              1 S1                 0.0000
     47 ****         1.3899   0.7046  -3.2128 H              1 S1                 0.0000
     48 ****        -1.8565   1.9885  -0.2343 H              1 S1                 0.0000
     49 ****        -0.5153   3.9022  -1.6648 H              1 S1                 0.0000
     50 ****        -1.7910   2.9410  -2.3759 H              1 S1                 0.0000
     51 ****        -1.9507   5.7939  -1.4374 H              1 S1                 0.0000
     52 ****        -2.7752   5.0180  -2.7926 H              1 S1                 0.0000
     53 ****        -3.9778   2.6766  -1.0496 H              1 S1                 0.0000
     54 ****        -4.0709   3.2999   0.5783 H              1 S1                 0.0000
     55 ****        -0.3310   3.6442   3.4415 LP             1 S1                 0.0000
     56 ****        -1.7205   3.4888   4.2850 LP             1 S1                 0.0000
     57 ****         1.2774  -0.7206   2.5265 LP             1 S1                 0.0000
     58 ****         2.8426  -2.0872  -0.0230 LP             1 S1                 0.0000
     59 ****         1.6483  -5.5402  -2.7533 LP             1 S1                 0.0000
     60 ****         1.9562  -7.1273  -2.5229 LP             1 S1                 0.0000
     61 ****         1.8721  -1.4115  -2.4510 LP             1 S1                 0.0000
     62 ****         0.7787   2.4713  -1.7572 LP             1 S1                 0.0000
     63 ****        -4.4307   4.7632  -1.4396 LP             1 S1                 0.0000
     64 ****        -3.5859   5.3549  -0.1735 LP             1 S1                 0.0000
@<TRIPOS>BOND
    1    1    2 1     
    2    1   28 1     
    3    2    3 1     
    4    2   29 1     
    5    2   30 1     
    6    3    4 1     
    7    3   23 1     
    8    3   31 1     
    9    4    5 1     
   10    4   32 1     
   11    4   33 1     
   12    5   22 1     
   13    5    6 1     
   14    6    7 2     
   15    6   34 1     
   16    7    8 1     
   17    8   22 ar    
   18    8    9 ar    
   19    9   10 1     
   20    9   19 ar    
   21   10   14 1     
   22   10   11 1     
   23   11   18 1     
   24   11   12 1     
   25   11   35 1     
   26   12   13 1     
   27   12   36 1     
   28   12   37 1     
   29   13   14 1     
   30   13   38 1     
   31   13   39 1     
   32   14   15 1     
   33   14   40 1     
   34   15   16 1     
   35   15   18 1     
   36   15   41 1     
   37   16   17 1     
   38   16   42 1     
   39   16   43 1     
   40   17   44 1     
   41   18   45 1     
   42   18   46 1     
   43   19   20 ar    
   44   20   21 ar    
   45   20   47 1     
   46   21   22 ar    
   47   23   27 1     
   48   23   24 1     
   49   23   48 1     
   50   24   25 1     
   51   24   49 1     
   52   24   50 1     
   53   25   26 1     
   54   25   51 1     
   55   25   52 1     
   56   26   27 1     
   57   27   53 1     
   58   27   54 1     
   59    1   55 1     
   60    1   56 1     
   61    7   57 1     
   62   10   58 1     
   63   17   59 1     
   64   17   60 1     
   65   19   61 1     
   66   21   62 1     
   67   26   63 1     
   68   26   64 1     
@<TRIPOS>SUBSTRUCTURE
      1 S1             1
@<TRIPOS>SET
LONE_PAIRS      STATIC     ATOMS    <user>   **** ""
10 55 56 57 58 59 60 61 62 63 64
DONOR_HYDROGENS      STATIC     ATOMS    <user>   **** ""
2 28 44
ATOM$BLUE        STATIC     ATOMS    COLORGROUP SYSTEM
10 55 56 57 58 59 60 61 62 63 64
ATOM$RED        STATIC     ATOMS    COLORGROUP SYSTEM
2 28 44
