AV-unprocessed.smi:1475|AV-procd|sdf|5979|dock4
  -GOLD-   22720 6 73D 1   1.00000     0.00000
 Structure written by MMmdl.
 50 51  0  0  0  0  0  0  0  0  2 V2000
  145.1621  136.7016  152.1018 C   0  0  0  0  0  0  0  0  0  0  0  0
  145.6957  135.3289  151.8152 C   0  0  0  0  0  0  0  0  0  0  0  0
  145.4015  134.4814  150.7107 C   0  0  0  0  0  0  0  0  0  0  0  0
  146.1463  133.3587  150.9382 C   0  0  0  0  0  0  0  0  0  0  0  0
  146.2655  132.1054  150.1344 C   0  0  0  0  0  0  0  0  0  0  0  0
  146.8314  133.5645  152.1233 N   0  0  0  0  0  0  0  0  0  0  0  0
  147.7550  132.6788  152.8207 C   0  0  0  0  0  0  0  0  0  0  0  0
  148.2571  133.2754  154.1409 C   0  0  0  0  0  0  0  0  0  0  0  0
  148.1183  132.6452  155.1885 O   0  0  0  0  0  0  0  0  0  0  0  0
  148.8229  134.4912  154.0899 N   0  0  0  0  0  0  0  0  0  0  0  0
  149.3690  135.1975  155.2391 C   0  0  0  0  0  0  0  0  0  0  0  0
  148.8673  136.6501  155.2588 C   0  0  0  0  0  0  0  0  0  0  0  0
  149.5407  137.4980  154.2386 N   0  3  1  0  0  0  0  0  0  0  0  0
  148.9239  138.8418  154.0855 C   0  0  0  0  0  0  0  0  0  0  0  0
  149.2863  139.7847  155.2522 C   0  0  2  0  0  0  0  0  0  0  0  0
  148.6384  141.1656  155.0781 C   0  0  0  0  0  0  0  0  0  0  0  0
  150.8154  139.8958  155.3842 C   0  0  0  0  0  0  0  0  0  0  0  0
  151.4594  138.5060  155.5319 C   0  0  2  0  0  0  0  0  0  0  0  0
  152.9888  138.6059  155.6173 C   0  0  0  0  0  0  0  0  0  0  0  0
  151.0211  137.5848  154.3718 C   0  0  0  0  0  0  0  0  0  0  0  0
  146.5509  134.7735  152.6575 N   0  0  0  0  0  0  0  0  0  0  0  0
  144.6633  137.1203  151.2276 H   0  0  0  0  0  0  0  0  0  0  0  0
  145.9623  137.3861  152.3853 H   0  0  0  0  0  0  0  0  0  0  0  0
  144.4393  136.6775  152.9174 H   0  0  0  0  0  0  0  0  0  0  0  0
  144.7427  134.6704  149.8759 H   0  0  0  0  0  0  0  0  0  0  0  0
  145.6120  132.1389  149.2624 H   0  0  0  0  0  0  0  0  0  0  0  0
  145.9884  131.2335  150.7272 H   0  0  0  0  0  0  0  0  0  0  0  0
  147.2872  131.9663  149.7809 H   0  0  0  0  0  0  0  0  0  0  0  0
  147.2658  131.7251  153.0184 H   0  0  0  0  0  0  0  0  0  0  0  0
  148.6013  132.4681  152.1647 H   0  0  0  0  0  0  0  0  0  0  0  0
  148.8964  134.9431  153.1898 H   0  0  0  0  0  0  0  0  0  0  0  0
  149.0710  134.6624  156.1405 H   0  0  0  0  0  0  0  0  0  0  0  0
  150.4596  135.1819  155.1969 H   0  0  0  0  0  0  0  0  0  0  0  0
  147.7959  136.6349  155.0531 H   0  0  0  0  0  0  0  0  0  0  0  0
  148.9774  137.0798  156.2542 H   0  0  0  0  0  0  0  0  0  0  0  0
  149.2731  139.2722  153.1457 H   0  0  0  0  0  0  0  0  0  0  0  0
  147.8416  138.7469  153.9879 H   0  0  0  0  0  0  0  0  0  0  0  0
  148.8942  139.3589  156.1769 H   0  0  0  0  0  0  0  0  0  0  0  0
  148.9928  141.6598  154.1729 H   0  0  0  0  0  0  0  0  0  0  0  0
  148.8670  141.8158  155.9230 H   0  0  0  0  0  0  0  0  0  0  0  0
  147.5531  141.0849  155.0102 H   0  0  0  0  0  0  0  0  0  0  0  0
  151.2248  140.3993  154.5069 H   0  0  0  0  0  0  0  0  0  0  0  0
  151.0706  140.5166  156.2440 H   0  0  0  0  0  0  0  0  0  0  0  0
  151.1173  138.0727  156.4718 H   0  0  0  0  0  0  0  0  0  0  0  0
  153.4116  139.0305  154.7061 H   0  0  0  0  0  0  0  0  0  0  0  0
  153.4381  137.6237  155.7668 H   0  0  0  0  0  0  0  0  0  0  0  0
  153.2950  139.2379  156.4515 H   0  0  0  0  0  0  0  0  0  0  0  0
  151.4572  136.5934  154.4868 H   0  0  0  0  0  0  0  0  0  0  0  0
  151.4178  137.9745  153.4333 H   0  0  0  0  0  0  0  0  0  0  0  0
  149.3686  137.0272  153.3615 H   0  0  0  0  0  0  0  0  0  0  0  0
  1  2  1  0  0  0  0
  1 22  1  0  0  0  0
  1 23  1  0  0  0  0
  1 24  1  0  0  0  0
  2 21  2  0  0  0  0
  2  3  1  0  0  0  0
  3  4  2  0  0  0  0
  3 25  1  0  0  0  0
  4  5  1  0  0  0  0
  4  6  1  0  0  0  0
  5 26  1  0  0  0  0
  5 27  1  0  0  0  0
  5 28  1  0  0  0  0
  6  7  1  0  0  0  0
  6 21  1  0  0  0  0
  7  8  1  0  0  0  0
  7 29  1  0  0  0  0
  7 30  1  0  0  0  0
  8  9  2  0  0  0  0
  8 10  1  0  0  0  0
 10 11  1  0  0  0  0
 10 31  1  0  0  0  0
 11 12  1  0  0  0  0
 11 32  1  0  0  0  0
 11 33  1  0  0  0  0
 12 13  1  0  0  0  0
 12 34  1  0  0  0  0
 12 35  1  0  0  0  0
 13 20  1  0  0  0  0
 13 14  1  0  0  0  0
 13 50  1  0  0  0  0
 14 15  1  0  0  0  0
 14 36  1  0  0  0  0
 14 37  1  0  0  0  0
 15 16  1  0  0  0  0
 15 17  1  0  0  0  0
 15 38  1  0  0  0  0
 16 39  1  0  0  0  0
 16 40  1  0  0  0  0
 16 41  1  0  0  0  0
 17 18  1  0  0  0  0
 17 42  1  0  0  0  0
 17 43  1  0  0  0  0
 18 19  1  0  0  0  0
 18 20  1  0  0  0  0
 18 44  1  0  0  0  0
 19 45  1  0  0  0  0
 19 46  1  0  0  0  0
 19 47  1  0  0  0  0
 20 48  1  0  0  0  0
 20 49  1  0  0  0  0
M  CHG  1  13   1
M  END
> <s_m_source_file>
AV-unprocessed.smi

> <i_m_source_file_index>
1475

> <i_lp_mmshare_version>
43012

> <i_f3d_flags>
0

> <s_epik_input>
W0NIM11jMVtjSF1jKFtDSDNdKW4objEpW0NIMl1DKD1PKVtOSF1bQ0gyXVtDSDJdTjJbQ0gyXVtDQEBIXShbQ0gzXSlbQ0gyXVtDQEBIXShbQ0gzXSlbQ0gyXTI=

> <s_epik_cmdline>
J2VwaWtfcHl0aG9uJywgJy1waCcsICc3LjAnLCAnLXRuJywgJzgnLCAnLW1hJywgJzIwMCcsICctbWV0YWxfYmluZGluZycsICctaW1hZScsICc8aW5maWxlLm1hZT4nLCAnLW9tYWUnLCAnPG91dGZpbGUubWFlPic=

> <r_lp_tautomer_probability>
1

> <r_epik_Ionization_Penalty>
0.00206431

> <r_epik_Ionization_Penalty_Charging>
0.00187095

> <r_epik_Ionization_Penalty_Neutral>
0.000193364

> <r_epik_State_Penalty>
-0

> <r_epik_Charging_Adjusted_Penalty>
0.00187095

> <i_epik_Tot_Q>
1

> <i_epik_Tot_abs_Q>
1

> <r_epik_Metal_State_Penalty>
-0

> <b_epik_Metal_Only>
0

> <s_lp_Force_Field>
OPLS_2005

> <r_lp_Energy>
18.0361

> <b_lp_Chiralities_Consistent>
1

> <s_lp_Variant>
AV-unprocessed.smi:1475-4

> <Gold.Version>
5.8.1

> <Gold.Id.Protein>
6NUR|6NUR_protein|mol2

> <Gold.PLP.Fitness>
44.6214

> <Gold.PLP.PLP>
-35.9200

> <Gold.PLP.part.hbond>
-2.0000

> <Gold.PLP.part.metal>
0.0000

> <Gold.PLP.part.buried>
-2.7597

> <Gold.PLP.part.nonpolar>
-33.2748

> <Gold.PLP.part.repulsive>
1.0197

> <Gold.PLP.ligand.clash>
0.0000

> <Gold.PLP.ligand.torsion>
0.1756

> <Gold.PLP.Chemscore.Hbond>
3.0000

> <Gold.PLP.Chemscore.CHOScore>
0.0000

> <Gold.PLP.Chemscore.Metal>
0.0000

> <Gold.Chemscore.Hbonds>
donor molecule, donor type, donor heavy atom, donor atom, acceptor molecule, acceptor atom, score
      L1  H    10    31       P1  7948  1.00
      L1  H    13    50       P1  7948  2.00

> <Gold.PLP.Chemscore.Internal.Correction>
0.0526

> <Gold.Rescore>
     Score         DG    S(hbond)    S(metal)    S(lipo)     H(rot)  DE(clash)    DE(int)     intcor
     15.76     -17.48       1.77        0.00      88.00       1.64       0.07       1.65       ----

> <Gold.Chemscore.Fitness>
15.7635

> <Gold.Chemscore.DG>
-17.4838

> <Gold.Chemscore.ZeroCoef>
-5.4800

> <Gold.Chemscore.Hbond>
1.7682

> <Gold.Chemscore.Metal>
0.0000

> <Gold.Chemscore.Lipo>
88.0026

> <Gold.Chemscore.Internal_Hbond>
0.0000

> <Gold.Chemscore.DEClash>
0.0693

> <Gold.Chemscore.DEInternal>
1.6510

> <Gold.Chemscore.Rot>
1.6399

> <Gold.Chemscore.Internal.Correction>
   9.000000E+99

> <Gold.Chemscore.Hbonds>
donor molecule, donor type, donor heavy atom, donor atom, acceptor molecule, acceptor atom, score
      L1  H    10    31       P1  7948  0.26
      L1  H    13    50       P1  7948  0.94

> <Gold.Chemscore.Hbond.Weighted>
-5.9057

> <Gold.Chemscore.Metal.Weighted>
-0.0000

> <Gold.Chemscore.Lipo.Weighted>
-10.2963

> <Gold.Chemscore.Internal_Hbond.Weighted>
0.0000

> <Gold.Chemscore.DEClash.Weighted>
0.0693

> <Gold.Chemscore.DEInternal.Weighted>
1.6510

> <Gold.Chemscore.Rot.Weighted>
4.1982

> <Gold.Chemscore.Internal.Correction.Weighted>
   9.000000E+99

> <Gold.Protein.RotatedTorsions>
[ 6907 6896 6895 6894 ] final -175.08 input  -60.11 | X-H torsion
[ 7974 7965 7964 7962 ] final   47.65 input  175.53 | X-H torsion
[ 8008 7997 7996 7995 ] final  160.45 input   59.86 | X-H torsion
[ 10167 10162 10161 10158 ] final -148.87 input  -65.29 | X-H torsion
[ 10718 10713 10712 10709 ] final  137.51 input   66.30 | X-H torsion
[ 10763 10752 10751 10750 ] final  -31.75 input  -60.55 | X-H torsion
[ 11005 11000 10999 10996 ] final  166.25 input  -57.11 | X-H torsion

> <Gold.Protein.ActiveResidues>
 VAL166  LYS551  ARG553  GLY616  TRP617  ASP618  TYR619  PRO620  LYS621  CYS622 
 ASP623  PHE694  ASN695  SER759  ASP760  ASP761  ALA762  ILE779  LEU786  VAL792 
 PHE793  MET794  SER795  GLU796  ALA797  LYS798  CYS799  TRP800  GLU811  SER814 

> <Gold.Protein.RotatedAtoms>
  151.5827  133.3376  159.3011 H   0  0  0  0  0  0  0  0  0  0  0  0  # atno 6907 bound_to 6896
  150.8304  134.7558  159.6860 H   0  0  0  0  0  0  0  0  0  0  0  0  # atno 6908 bound_to 6896
  152.4388  134.5638  159.9953 H   0  0  0  0  0  0  0  0  0  0  0  0  # atno 6909 bound_to 6896
  146.0278  139.4727  142.9857 H   0  0  0  0  0  0  0  0  0  0  0  0  # atno 7974 bound_to 7965
  156.2171  140.1804  156.7563 H   0  0  0  0  0  0  0  0  0  0  0  0  # atno 8008 bound_to 7997
  154.5808  140.0666  156.9130 H   0  0  0  0  0  0  0  0  0  0  0  0  # atno 8009 bound_to 7997
  155.2505  140.3328  155.4285 H   0  0  0  0  0  0  0  0  0  0  0  0  # atno 8010 bound_to 7997
  139.7493  143.8542  152.2582 H   0  0  0  0  0  0  0  0  0  0  0  0  # atno 10167 bound_to 10162
  157.4353  131.1052  151.0204 H   0  0  0  0  0  0  0  0  0  0  0  0  # atno 10718 bound_to 10713
  153.8025  135.6889  153.4853 H   0  0  0  0  0  0  0  0  0  0  0  0  # atno 10763 bound_to 10752
  153.1680  135.4554  154.9861 H   0  0  0  0  0  0  0  0  0  0  0  0  # atno 10764 bound_to 10752
  154.8001  135.3334  154.7512 H   0  0  0  0  0  0  0  0  0  0  0  0  # atno 10765 bound_to 10752
  140.2645  134.7876  157.3620 H   0  0  0  0  0  0  0  0  0  0  0  0  # atno 11005 bound_to 11000
  145.7090  141.0112  143.1463 LP  0  0  0  0  0  0  0  0  0  0  0  0  # atno 17320 bound_to 7965
  144.7017  139.8734  143.7442 LP  0  0  0  0  0  0  0  0  0  0  0  0  # atno 17321 bound_to 7965
  139.8516  144.7161  150.9207 LP  0  0  0  0  0  0  0  0  0  0  0  0  # atno 17342 bound_to 10162
  140.7796  143.3894  151.1336 LP  0  0  0  0  0  0  0  0  0  0  0  0  # atno 17343 bound_to 10162
  157.1086  130.6012  149.5477 LP  0  0  0  0  0  0  0  0  0  0  0  0  # atno 17370 bound_to 10713
  155.9928  130.4987  150.7355 LP  0  0  0  0  0  0  0  0  0  0  0  0  # atno 17371 bound_to 10713
  140.1433  134.4944  155.8015 LP  0  0  0  0  0  0  0  0  0  0  0  0  # atno 17394 bound_to 11000
  141.2186  133.6833  156.7248 LP  0  0  0  0  0  0  0  0  0  0  0  0  # atno 17395 bound_to 11000

$$$$
