AV-unprocessed.smi:1641|AV-procd|sdf|6564|dock3
  -GOLD-   22720 7253D 1   1.00000     0.00000
 Structure written by MMmdl.
 40 41  0  0  0  0  0  0  0  0  2 V2000
  150.1601  132.1779  156.4919 C   0  0  0  0  0  0  0  0  0  0  0  0
  150.5375  133.5891  156.1972 C   0  0  0  0  0  0  0  0  0  0  0  0
  151.4864  134.2416  156.8733 N   0  0  0  0  0  0  0  0  0  0  0  0
  151.6549  135.5406  156.4155 N   0  0  0  0  0  0  0  0  0  0  0  0
  150.8245  135.8559  155.4111 C   0  0  0  0  0  0  0  0  0  0  0  0
  150.8282  137.0640  154.8237 N   0  5  0  0  0  0  0  0  0  0  0  0
  151.6481  138.0367  155.2833 C   0  0  0  0  0  0  0  0  0  0  0  0
  152.8475  137.9164  155.5431 O   0  0  0  0  0  0  0  0  0  0  0  0
  151.0367  139.2175  155.4535 N   0  0  0  0  0  0  0  0  0  0  0  0
  151.6480  140.4445  155.9519 C   0  0  0  0  0  0  0  0  0  0  0  0
  151.9584  140.3055  157.4510 C   0  0  0  0  0  0  0  0  0  0  0  0
  152.2828  141.5573  158.1335 N   0  0  0  0  0  0  0  0  0  0  0  0
  152.2834  141.3774  159.5792 C   0  0  0  0  0  0  0  0  0  0  0  0
  152.6684  142.6705  160.3197 C   0  0  2  0  0  0  0  0  0  0  0  0
  152.5933  142.5080  161.8413 C   0  0  0  0  0  0  0  0  0  0  0  0
  151.7757  143.7164  159.9400 O   0  0  0  0  0  0  0  0  0  0  0  0
  151.6770  143.9511  158.5341 C   0  0  1  0  0  0  0  0  0  0  0  0
  152.9196  144.6756  157.9887 C   0  0  0  0  0  0  0  0  0  0  0  0
  151.3607  142.6377  157.7899 C   0  0  0  0  0  0  0  0  0  0  0  0
  149.7636  134.5308  154.9340 S   0  0  0  0  0  0  0  0  0  0  0  0
  149.3755  132.1533  157.2483 H   0  0  0  0  0  0  0  0  0  0  0  0
  151.0224  131.6221  156.8610 H   0  0  0  0  0  0  0  0  0  0  0  0
  149.7927  131.6903  155.5888 H   0  0  0  0  0  0  0  0  0  0  0  0
  150.0553  139.2627  155.2216 H   0  0  0  0  0  0  0  0  0  0  0  0
  152.5672  140.6800  155.4132 H   0  0  0  0  0  0  0  0  0  0  0  0
  150.9507  141.2610  155.7668 H   0  0  0  0  0  0  0  0  0  0  0  0
  151.1234  139.8163  157.9549 H   0  0  0  0  0  0  0  0  0  0  0  0
  152.8060  139.6251  157.5478 H   0  0  0  0  0  0  0  0  0  0  0  0
  151.2980  141.0452  159.9101 H   0  0  0  0  0  0  0  0  0  0  0  0
  152.9853  140.5881  159.8513 H   0  0  0  0  0  0  0  0  0  0  0  0
  153.6885  142.9511  160.0560 H   0  0  0  0  0  0  0  0  0  0  0  0
  153.2689  141.7246  162.1858 H   0  0  0  0  0  0  0  0  0  0  0  0
  151.5846  142.2454  162.1615 H   0  0  0  0  0  0  0  0  0  0  0  0
  152.8729  143.4332  162.3459 H   0  0  0  0  0  0  0  0  0  0  0  0
  150.8314  144.6255  158.3958 H   0  0  0  0  0  0  0  0  0  0  0  0
  152.7811  144.9464  156.9419 H   0  0  0  0  0  0  0  0  0  0  0  0
  153.8145  144.0563  158.0477 H   0  0  0  0  0  0  0  0  0  0  0  0
  153.1101  145.5936  158.5448 H   0  0  0  0  0  0  0  0  0  0  0  0
  151.3760  142.8283  156.7173 H   0  0  0  0  0  0  0  0  0  0  0  0
  150.3416  142.3328  158.0331 H   0  0  0  0  0  0  0  0  0  0  0  0
  1  2  1  0  0  0  0
  1 21  1  0  0  0  0
  1 22  1  0  0  0  0
  1 23  1  0  0  0  0
  2 20  1  0  0  0  0
  2  3  2  0  0  0  0
  3  4  1  0  0  0  0
  4  5  2  0  0  0  0
  5  6  1  0  0  0  0
  5 20  1  0  0  0  0
  6  7  1  0  0  0  0
  7  8  2  0  0  0  0
  7  9  1  0  0  0  0
  9 10  1  0  0  0  0
  9 24  1  0  0  0  0
 10 11  1  0  0  0  0
 10 25  1  0  0  0  0
 10 26  1  0  0  0  0
 11 12  1  0  0  0  0
 11 27  1  0  0  0  0
 11 28  1  0  0  0  0
 12 19  1  0  0  0  0
 12 13  1  0  0  0  0
 13 14  1  0  0  0  0
 13 29  1  0  0  0  0
 13 30  1  0  0  0  0
 14 15  1  0  0  0  0
 14 16  1  0  0  0  0
 14 31  1  0  0  0  0
 15 32  1  0  0  0  0
 15 33  1  0  0  0  0
 15 34  1  0  0  0  0
 16 17  1  0  0  0  0
 17 18  1  0  0  0  0
 17 19  1  0  0  0  0
 17 35  1  0  0  0  0
 18 36  1  0  0  0  0
 18 37  1  0  0  0  0
 18 38  1  0  0  0  0
 19 39  1  0  0  0  0
 19 40  1  0  0  0  0
M  CHG  1   6  -1
M  END
> <s_m_source_file>
AV-unprocessed.smi

> <i_m_source_file_index>
1641

> <i_lp_mmshare_version>
43012

> <i_f3d_flags>
0

> <s_epik_input>
W0NIM11jMW5uYyhzMSlbTkhdQyg9TylbTkhdW0NIMl1bQ0gyXU4yW0NIMl1bQ0BASF0oW0NIM10pT1tDQEBIXShbQ0gzXSlbQ0gyXTI=

> <s_epik_cmdline>
J2VwaWtfcHl0aG9uJywgJy1waCcsICc3LjAnLCAnLXRuJywgJzgnLCAnLW1hJywgJzIwMCcsICctbWV0YWxfYmluZGluZycsICctaW1hZScsICc8aW5maWxlLm1hZT4nLCAnLW9tYWUnLCAnPG91dGZpbGUubWFlPic=

> <r_lp_tautomer_probability>
1

> <r_epik_Ionization_Penalty>
3.81681

> <r_epik_Ionization_Penalty_Charging>
3.36369

> <r_epik_Ionization_Penalty_Neutral>
0.45313

> <r_epik_State_Penalty>
3.571

> <r_epik_Charging_Adjusted_Penalty>
6.93469

> <i_epik_Tot_Q>
-1

> <i_epik_Tot_abs_Q>
1

> <r_epik_Metal_State_Penalty>
0.710322

> <b_epik_Metal_Only>
1

> <s_lp_Force_Field>
OPLS_2005

> <r_lp_Energy>
21.0176

> <b_lp_Chiralities_Consistent>
1

> <s_lp_Variant>
AV-unprocessed.smi:1641-9

> <Gold.Version>
5.8.1

> <Gold.Id.Protein>
6NUR|6NUR_protein|mol2

> <Gold.PLP.Fitness>
41.1825

> <Gold.PLP.PLP>
-39.4749

> <Gold.PLP.part.hbond>
-2.3578

> <Gold.PLP.part.metal>
0.0000

> <Gold.PLP.part.buried>
-5.2345

> <Gold.PLP.part.nonpolar>
-31.8525

> <Gold.PLP.part.repulsive>
0.2960

> <Gold.PLP.ligand.clash>
0.0000

> <Gold.PLP.ligand.torsion>
0.5936

> <Gold.PLP.Chemscore.Hbond>
0.9500

> <Gold.PLP.Chemscore.CHOScore>
0.0000

> <Gold.PLP.Chemscore.Metal>
0.0000

> <Gold.Chemscore.Hbonds>
donor molecule, donor type, donor heavy atom, donor atom, acceptor molecule, acceptor atom, score
      P1  H 10752 10763       L1     4  0.73

> <Gold.PLP.Chemscore.Internal.Correction>
0.0447

> <Gold.Rescore>
     Score         DG    S(hbond)    S(metal)    S(lipo)     H(rot)  DE(clash)    DE(int)     intcor
     11.06     -13.07       0.08        0.00      96.97       1.57       0.01       2.00       ----

> <Gold.Chemscore.Fitness>
11.0594

> <Gold.Chemscore.DG>
-13.0680

> <Gold.Chemscore.ZeroCoef>
-5.4800

> <Gold.Chemscore.Hbond>
0.0773

> <Gold.Chemscore.Metal>
0.0000

> <Gold.Chemscore.Lipo>
96.9685

> <Gold.Chemscore.Internal_Hbond>
0.0000

> <Gold.Chemscore.DEClash>
0.0075

> <Gold.Chemscore.DEInternal>
2.0011

> <Gold.Chemscore.Rot>
1.5686

> <Gold.Chemscore.Internal.Correction>
   9.000000E+99

> <Gold.Chemscore.Hbonds>
donor molecule, donor type, donor heavy atom, donor atom, acceptor molecule, acceptor atom, score
      P1  H 10752 10763       L1     4  0.04

> <Gold.Chemscore.Hbond.Weighted>
-0.2583

> <Gold.Chemscore.Metal.Weighted>
-0.0000

> <Gold.Chemscore.Lipo.Weighted>
-11.3453

> <Gold.Chemscore.Internal_Hbond.Weighted>
0.0000

> <Gold.Chemscore.DEClash.Weighted>
0.0075

> <Gold.Chemscore.DEInternal.Weighted>
2.0011

> <Gold.Chemscore.Rot.Weighted>
4.0157

> <Gold.Chemscore.Internal.Correction.Weighted>
   9.000000E+99

> <Gold.Protein.RotatedTorsions>
[ 6907 6896 6895 6894 ] final  175.65 input  -60.11 | X-H torsion
[ 7974 7965 7964 7962 ] final -134.18 input  175.53 | X-H torsion
[ 8008 7997 7996 7995 ] final -106.51 input   59.86 | X-H torsion
[ 10167 10162 10161 10158 ] final -106.43 input  -65.29 | X-H torsion
[ 10718 10713 10712 10709 ] final   59.30 input   66.30 | X-H torsion
[ 10763 10752 10751 10750 ] final  110.15 input  -60.55 | X-H torsion
[ 11005 11000 10999 10996 ] final   79.86 input  -57.11 | X-H torsion

> <Gold.Protein.ActiveResidues>
 VAL166  LYS551  ARG553  GLY616  TRP617  ASP618  TYR619  PRO620  LYS621  CYS622 
 ASP623  PHE694  ASN695  SER759  ASP760  ASP761  ALA762  ILE779  LEU786  VAL792 
 PHE793  MET794  SER795  GLU796  ALA797  LYS798  CYS799  TRP800  GLU811  SER814 

> <Gold.Protein.RotatedAtoms>
  151.7327  133.3318  159.3344 H   0  0  0  0  0  0  0  0  0  0  0  0  # atno 6907 bound_to 6896
  150.7606  134.6349  159.6215 H   0  0  0  0  0  0  0  0  0  0  0  0  # atno 6908 bound_to 6896
  152.3581  134.6913  160.0267 H   0  0  0  0  0  0  0  0  0  0  0  0  # atno 6909 bound_to 6896
  144.9126  140.6914  143.5015 H   0  0  0  0  0  0  0  0  0  0  0  0  # atno 7974 bound_to 7965
  154.9156  140.0409  157.1970 H   0  0  0  0  0  0  0  0  0  0  0  0  # atno 8008 bound_to 7997
  154.8304  140.2898  155.5704 H   0  0  0  0  0  0  0  0  0  0  0  0  # atno 8009 bound_to 7997
  156.2986  140.2502  156.3229 H   0  0  0  0  0  0  0  0  0  0  0  0  # atno 8010 bound_to 7997
  140.1878  143.3915  152.1230 H   0  0  0  0  0  0  0  0  0  0  0  0  # atno 10167 bound_to 10162
  157.5665  130.8875  149.9196 H   0  0  0  0  0  0  0  0  0  0  0  0  # atno 10718 bound_to 10713
  153.4449  135.3757  155.2249 H   0  0  0  0  0  0  0  0  0  0  0  0  # atno 10763 bound_to 10752
  154.8755  135.3871  154.4108 H   0  0  0  0  0  0  0  0  0  0  0  0  # atno 10764 bound_to 10752
  153.4659  135.7087  153.6086 H   0  0  0  0  0  0  0  0  0  0  0  0  # atno 10765 bound_to 10752
  139.9156  134.7876  156.1834 H   0  0  0  0  0  0  0  0  0  0  0  0  # atno 11005 bound_to 11000
  145.3429  139.1727  143.4476 LP  0  0  0  0  0  0  0  0  0  0  0  0  # atno 17320 bound_to 7965
  146.3166  140.3472  142.8653 LP  0  0  0  0  0  0  0  0  0  0  0  0  # atno 17321 bound_to 7965
  139.5268  144.7112  151.5199 LP  0  0  0  0  0  0  0  0  0  0  0  0  # atno 17342 bound_to 10162
  140.6476  143.8763  150.6753 LP  0  0  0  0  0  0  0  0  0  0  0  0  # atno 17343 bound_to 10162
  156.0713  130.3685  150.0770 LP  0  0  0  0  0  0  0  0  0  0  0  0  # atno 17370 bound_to 10713
  156.8928  130.9594  151.3586 LP  0  0  0  0  0  0  0  0  0  0  0  0  # atno 17371 bound_to 10713
  141.0628  133.6833  156.1986 LP  0  0  0  0  0  0  0  0  0  0  0  0  # atno 17394 bound_to 11000
  140.6633  134.4944  157.5584 LP  0  0  0  0  0  0  0  0  0  0  0  0  # atno 17395 bound_to 11000

$$$$
