#       Name:                AV-unprocessed.smi:1805
#       Creating user name   scv26
#       Creation time:       Fri Mar 27 08:55:34 2020


#       File generated by GOLD software.
#

@<TRIPOS>MOLECULE
AV-unprocessed.smi:1805
    34    35     1
SMALL
NO_CHARGES


@<TRIPOS>ATOM
      1 ****        -0.3159   1.0956   1.1749 O.2            1 S1                 0.0000
      2 ****        -0.7775  -0.0335   1.0079 C.2            1 S1                 0.0000
      3 ****        -0.0225  -1.1328   0.8712 N.am           1 S1                 0.0000
      4 ****         1.4365  -1.1663   0.8949 C.3            1 S1                 0.0000
      5 ****         2.0314  -1.1666  -0.5235 C.3            1 S1                 0.0000
      6 ****         1.7984   0.1137  -1.3269 C.3            1 S1                 0.0000
      7 ****         2.9444   0.0658  -2.3108 C.3            1 S1                 0.0000
      8 ****         4.0727  -0.4852  -1.4440 C.3            1 S1                 0.0000
      9 ****         3.4482  -1.3081  -0.4614 O.3            1 S1                 0.0000
     10 ****        -2.0854  -0.3290   0.9327 N.am           1 S1                 0.0000
     11 ****        -3.1783   0.5680   1.0400 C.2            1 S1                 0.0000
     12 ****        -4.5451   0.1959   0.9243 C.2            1 S1                 0.0000
     13 ****        -5.3454   1.2423   1.0707 N.2            1 S1                 0.0000
     14 ****        -4.5023   2.2784   1.2810 N.pl3          1 S1                 0.0000
     15 ****        -3.1737   1.9152   1.2710 C.2            1 S1                 0.0000
     16 ****        -4.8451   3.2169   1.4292 H              1 S1                 0.0000
     17 ****        -0.4917  -2.0163   0.7363 H              1 S1                 0.0000
     18 ****         1.8411  -0.3383   1.4793 H              1 S1                 0.0000
     19 ****         1.7365  -2.0776   1.4125 H              1 S1                 0.0000
     20 ****         1.6464  -2.0177  -1.0878 H              1 S1                 0.0000
     21 ****         0.8208   0.1445  -1.8088 H              1 S1                 0.0000
     22 ****         1.8938   0.9930  -0.6881 H              1 S1                 0.0000
     23 ****         2.7155  -0.6306  -3.1186 H              1 S1                 0.0000
     24 ****         3.1772   1.0363  -2.7494 H              1 S1                 0.0000
     25 ****         4.8069  -1.0444  -2.0242 H              1 S1                 0.0000
     26 ****         4.5917   0.3271  -0.9336 H              1 S1                 0.0000
     27 ****        -2.3254  -1.2981   0.7836 H              1 S1                 0.0000
     28 ****        -4.9747  -0.7783   0.7423 H              1 S1                 0.0000
     29 ****        -2.3781   2.6288   1.4260 H              1 S1                 0.0000
     30 ****         0.6742   1.2302   1.2149 LP             1 S1                 0.0000
     31 ****        -0.9311   1.8782   1.2705 LP             1 S1                 0.0000
     32 ****         3.6917  -2.2635  -0.6285 LP             1 S1                 0.0000
     33 ****         3.7671  -1.0368   0.4467 LP             1 S1                 0.0000
     34 ****        -6.3446   1.2613   1.0340 LP             1 S1                 0.0000
@<TRIPOS>BOND
    1    1    2 2     
    2    2    3 am    
    3    2   10 am    
    4    3    4 1     
    5    3   17 1     
    6    4    5 1     
    7    4   18 1     
    8    4   19 1     
    9    5    9 1     
   10    5    6 1     
   11    5   20 1     
   12    6    7 1     
   13    6   21 1     
   14    6   22 1     
   15    7    8 1     
   16    7   23 1     
   17    7   24 1     
   18    8    9 1     
   19    8   25 1     
   20    8   26 1     
   21   10   11 1     
   22   10   27 1     
   23   11   15 2     
   24   11   12 1     
   25   12   13 2     
   26   12   28 1     
   27   13   14 1     
   28   14   16 1     
   29   14   15 1     
   30   15   29 1     
   31    1   30 1     
   32    1   31 1     
   33    9   32 1     
   34    9   33 1     
   35   13   34 1     
@<TRIPOS>SUBSTRUCTURE
      1 S1             1
@<TRIPOS>SET
LONE_PAIRS      STATIC     ATOMS    <user>   **** ""
5 30 31 32 33 34
DONOR_HYDROGENS      STATIC     ATOMS    <user>   **** ""
3 17 27 16
ATOM$BLUE        STATIC     ATOMS    COLORGROUP SYSTEM
5 30 31 32 33 34
ATOM$RED        STATIC     ATOMS    COLORGROUP SYSTEM
3 17 27 16
