AV-unprocessed.smi:72|AV-procd|sdf|734|dock2
  -GOLD-   2262017 63D 1   1.00000     0.00000
 Structure written by MMmdl.
 28 29  0  0  0  0  0  0  0  0  2 V2000
  148.6272  136.6665  160.9338 N   0  0  0  0  0  0  0  0  0  0  0  0
  148.7741  137.0231  159.7331 C   0  0  0  0  0  0  0  0  0  0  0  0
  147.8339  137.9441  159.1316 N   0  0  0  0  0  0  0  0  0  0  0  0
  148.0177  138.2704  157.8890 C   0  0  0  0  0  0  0  0  0  0  0  0
  149.1202  137.7265  157.1078 N   0  0  0  0  0  0  0  0  0  0  0  0
  149.3299  138.1207  155.6596 C   0  0  1  0  0  0  0  0  0  0  0  0
  148.1259  138.0028  154.9698 O   0  0  0  0  0  0  0  0  0  0  0  0
  148.1568  138.8973  153.8694 C   0  0  1  0  0  0  0  0  0  0  0  0
  146.7306  139.1536  153.3585 C   0  0  0  0  0  0  0  0  0  0  0  0
  146.7319  140.2055  152.4171 O   0  0  0  0  0  0  0  0  0  0  0  0
  148.8256  140.1416  154.4671 C   0  0  2  0  0  0  0  0  0  0  0  0
  149.4946  140.8673  153.4545 O   0  0  0  0  0  0  0  0  0  0  0  0
  149.8230  139.5738  155.4760 C   0  0  1  0  0  0  0  0  0  0  0  0
  149.8202  140.3462  156.6632 O   0  0  0  0  0  0  0  0  0  0  0  0
  150.0446  136.8479  157.7312 C   0  0  0  0  0  0  0  0  0  0  0  0
  150.9951  136.4374  157.0648 O   0  0  0  0  0  0  0  0  0  0  0  0
  149.8469  136.5109  159.0363 N   0  5  0  0  0  0  0  0  0  0  0  0
  150.0174  137.3867  155.2355 H   0  0  0  0  0  0  0  0  0  0  0  0
  148.7888  138.4735  153.0856 H   0  0  0  0  0  0  0  0  0  0  0  0
  148.0823  140.7697  154.9622 H   0  0  0  0  0  0  0  0  0  0  0  0
  150.8369  139.5319  155.0753 H   0  0  0  0  0  0  0  0  0  0  0  0
  149.3439  136.0257  161.2417 H   0  0  0  0  0  0  0  0  0  0  0  0
  147.3697  138.9693  157.3587 H   0  0  0  0  0  0  0  0  0  0  0  0
  146.2967  138.2523  152.9241 H   0  0  0  0  0  0  0  0  0  0  0  0
  146.0863  139.4574  154.1841 H   0  0  0  0  0  0  0  0  0  0  0  0
  145.8696  140.5912  152.3964 H   0  0  0  0  0  0  0  0  0  0  0  0
  149.5103  140.3405  152.6701 H   0  0  0  0  0  0  0  0  0  0  0  0
  150.7152  140.4592  156.9471 H   0  0  0  0  0  0  0  0  0  0  0  0
  1  2  2  0  0  0  0
  1 22  1  0  0  0  0
  2 17  1  0  0  0  0
  2  3  1  0  0  0  0
  3  4  2  0  0  0  0
  4  5  1  0  0  0  0
  4 23  1  0  0  0  0
  5  6  1  0  0  0  0
  5 15  1  0  0  0  0
  6 18  1  0  0  0  0
  6 13  1  0  0  0  0
  6  7  1  0  0  0  0
  7  8  1  0  0  0  0
  8 19  1  0  0  0  0
  8  9  1  0  0  0  0
  8 11  1  0  0  0  0
  9 10  1  0  0  0  0
  9 24  1  0  0  0  0
  9 25  1  0  0  0  0
 10 26  1  0  0  0  0
 11 20  1  0  0  0  0
 11 12  1  0  0  0  0
 11 13  1  0  0  0  0
 12 27  1  0  0  0  0
 13 21  1  0  0  0  0
 13 14  1  0  0  0  0
 14 28  1  0  0  0  0
 15 16  2  0  0  0  0
 15 17  1  0  0  0  0
M  CHG  1  17  -1
M  END
> <s_m_source_file>
AV-unprocessed.smi

> <i_m_source_file_index>
72

> <i_lp_mmshare_version>
43012

> <i_f3d_flags>
0

> <s_epik_input>
W05IMl1jMW5bY0hdbihjKD1PKW4xKVtDQEBIXTJPW0NASF0oW0NIMl1bT0hdKVtDQEBIXShbT0hdKVtDQEhdMltPSF0=

> <s_epik_cmdline>
J2VwaWtfcHl0aG9uJywgJy1waCcsICc3LjAnLCAnLXRuJywgJzgnLCAnLW1hJywgJzIwMCcsICctbWV0YWxfYmluZGluZycsICctaW1hZScsICc8aW5maWxlLm1hZT4nLCAnLW9tYWUnLCAnPG91dGZpbGUubWFlPic=

> <r_lp_tautomer_probability>
7.17554e-07

> <r_epik_Ionization_Penalty>
12.8705

> <r_epik_Ionization_Penalty_Charging>
5.64144

> <r_epik_Ionization_Penalty_Neutral>
7.22905

> <r_epik_State_Penalty>
3.30104

> <r_epik_Charging_Adjusted_Penalty>
8.94249

> <i_epik_Tot_Q>
-1

> <i_epik_Tot_abs_Q>
1

> <r_epik_Metal_State_Penalty>
0.529074

> <b_epik_Metal_Only>
1

> <s_epik_Chemistry_Notes>
This compound contains an acetal/aminal-like group ( X-CH(R)-Y where X, Y are N, S, or O) that may be acid/base labile, releasing an aldehyde.

> <s_lp_Force_Field>
OPLS_2005

> <r_lp_Energy>
37.9918

> <b_lp_Chiralities_Consistent>
1

> <s_lp_Variant>
AV-unprocessed.smi:72-72

> <Gold.Version>
5.8.1

> <Gold.Id.Protein>
6NUR|6NUR_protein|mol2

> <Gold.PLP.Fitness>
34.6309

> <Gold.PLP.PLP>
-18.8489

> <Gold.PLP.part.hbond>
-7.3420

> <Gold.PLP.part.metal>
0.0000

> <Gold.PLP.part.buried>
-4.2623

> <Gold.PLP.part.nonpolar>
-9.1473

> <Gold.PLP.part.repulsive>
0.0917

> <Gold.PLP.ligand.clash>
0.0000

> <Gold.PLP.ligand.torsion>
0.2967

> <Gold.PLP.Chemscore.Hbond>
5.3974

> <Gold.PLP.Chemscore.CHOScore>
0.0000

> <Gold.PLP.Chemscore.Metal>
0.0000

> <Gold.Chemscore.Hbonds>
donor molecule, donor type, donor heavy atom, donor atom, acceptor molecule, acceptor atom, score
      L1  H    10    26       P1 10175  0.63
      L1  H    12    27       P1  7957  1.00
      P1  H  6896  6909       L1    17  2.00
      P1  H  6931  6943       L1     1  1.00
      P1  H  6934  6947       L1     3  0.27
      P1  H  7989  7998       L1    12  0.11
      P1  H  8011  8017       L1    12  0.35

> <Gold.PLP.Chemscore.Internal.Correction>
0.1833

> <Gold.Rescore>
     Score         DG    S(hbond)    S(metal)    S(lipo)     H(rot)  DE(clash)    DE(int)     intcor
      7.09      -8.60       3.32        0.00      20.19       4.04       0.16       1.36       ----

> <Gold.Chemscore.Fitness>
7.0865

> <Gold.Chemscore.DG>
-8.6046

> <Gold.Chemscore.ZeroCoef>
-5.4800

> <Gold.Chemscore.Hbond>
3.3248

> <Gold.Chemscore.Metal>
0.0000

> <Gold.Chemscore.Lipo>
20.1947

> <Gold.Chemscore.Internal_Hbond>
0.0000

> <Gold.Chemscore.DEClash>
0.1618

> <Gold.Chemscore.DEInternal>
1.3563

> <Gold.Chemscore.Rot>
4.0403

> <Gold.Chemscore.Internal.Correction>
   9.000000E+99

> <Gold.Chemscore.Hbonds>
donor molecule, donor type, donor heavy atom, donor atom, acceptor molecule, acceptor atom, score
      L1  H    10    26       P1 10175  0.18
      L1  H    12    27       P1  7957  0.93
      P1  H  6896  6909       L1    17  0.87
      P1  H  6931  6943       L1     1  0.13
      P1  H  6934  6947       L1     3  0.07
      P1  H  8011  8017       L1    12  0.01

> <Gold.Chemscore.Hbond.Weighted>
-11.1049

> <Gold.Chemscore.Metal.Weighted>
-0.0000

> <Gold.Chemscore.Lipo.Weighted>
-2.3628

> <Gold.Chemscore.Internal_Hbond.Weighted>
0.0000

> <Gold.Chemscore.DEClash.Weighted>
0.1618

> <Gold.Chemscore.DEInternal.Weighted>
1.3563

> <Gold.Chemscore.Rot.Weighted>
10.3431

> <Gold.Chemscore.Internal.Correction.Weighted>
   9.000000E+99

> <Gold.Protein.RotatedTorsions>
[ 6907 6896 6895 6894 ] final   75.99 input  -60.11 | X-H torsion
[ 7974 7965 7964 7962 ] final  158.76 input  175.53 | X-H torsion
[ 8008 7997 7996 7995 ] final -174.75 input   59.86 | X-H torsion
[ 10167 10162 10161 10158 ] final  151.15 input  -65.29 | X-H torsion
[ 10718 10713 10712 10709 ] final  158.79 input   66.30 | X-H torsion
[ 10763 10752 10751 10750 ] final  101.27 input  -60.55 | X-H torsion
[ 11005 11000 10999 10996 ] final   52.08 input  -57.11 | X-H torsion

> <Gold.Protein.ActiveResidues>
 VAL166  LYS551  ARG553  GLY616  TRP617  ASP618  TYR619  PRO620  LYS621  CYS622 
 ASP623  PHE694  ASN695  SER759  ASP760  ASP761  ALA762  ILE779  LEU786  VAL792 
 PHE793  MET794  SER795  GLU796  ALA797  LYS798  CYS799  TRP800  GLU811  SER814 

> <Gold.Protein.RotatedAtoms>
  152.5052  134.4037  159.9425 H   0  0  0  0  0  0  0  0  0  0  0  0  # atno 6907 bound_to 6896
  151.4002  133.3754  159.2739 H   0  0  0  0  0  0  0  0  0  0  0  0  # atno 6908 bound_to 6896
  150.9367  134.8800  159.7645 H   0  0  0  0  0  0  0  0  0  0  0  0  # atno 6909 bound_to 6896
  144.7828  139.7523  143.6253 H   0  0  0  0  0  0  0  0  0  0  0  0  # atno 7974 bound_to 7965
  155.9740  140.1168  157.0787 H   0  0  0  0  0  0  0  0  0  0  0  0  # atno 8008 bound_to 7997
  154.4164  140.1157  156.5412 H   0  0  0  0  0  0  0  0  0  0  0  0  # atno 8009 bound_to 7997
  155.6559  140.3473  155.4767 H   0  0  0  0  0  0  0  0  0  0  0  0  # atno 8010 bound_to 7997
  139.4843  144.5464  151.7476 H   0  0  0  0  0  0  0  0  0  0  0  0  # atno 10167 bound_to 10162
  157.1731  131.0615  151.2172 H   0  0  0  0  0  0  0  0  0  0  0  0  # atno 10718 bound_to 10713
  153.3245  135.4050  155.1445 H   0  0  0  0  0  0  0  0  0  0  0  0  # atno 10763 bound_to 10752
  154.8608  135.3595  154.5552 H   0  0  0  0  0  0  0  0  0  0  0  0  # atno 10764 bound_to 10752
  153.5987  135.7071  153.5452 H   0  0  0  0  0  0  0  0  0  0  0  0  # atno 10765 bound_to 10752
  140.0879  134.5249  155.8881 H   0  0  0  0  0  0  0  0  0  0  0  0  # atno 11005 bound_to 11000
  146.2044  139.5359  142.9722 LP  0  0  0  0  0  0  0  0  0  0  0  0  # atno 17320 bound_to 7965
  145.6005  141.0356  143.2021 LP  0  0  0  0  0  0  0  0  0  0  0  0  # atno 17321 bound_to 7965
  140.5012  144.1167  150.5971 LP  0  0  0  0  0  0  0  0  0  0  0  0  # atno 17342 bound_to 10162
  140.4060  143.2680  151.9890 LP  0  0  0  0  0  0  0  0  0  0  0  0  # atno 17343 bound_to 10162
  157.4024  130.7340  149.6777 LP  0  0  0  0  0  0  0  0  0  0  0  0  # atno 17370 bound_to 10713
  155.9735  130.4117  150.3995 LP  0  0  0  0  0  0  0  0  0  0  0  0  # atno 17371 bound_to 10713
  141.2068  133.6659  156.6268 LP  0  0  0  0  0  0  0  0  0  0  0  0  # atno 17394 bound_to 11000
  140.3394  134.7862  157.4386 LP  0  0  0  0  0  0  0  0  0  0  0  0  # atno 17395 bound_to 11000

$$$$
