AV-unprocessed.smi:1947|AV-procd|sdf|7869|dock1
  -GOLD-   2272010 23D 1   1.00000     0.00000
 Structure written by MMmdl.
 38 39  0  0  0  0  0  0  0  0  2 V2000
  150.6272  141.9051  156.3017 C   0  0  0  0  0  0  0  0  0  0  0  0
  151.0360  142.4649  157.6745 C   0  0  2  0  0  0  0  0  0  0  0  0
  151.7274  143.8342  157.5194 C   0  0  0  0  0  0  0  0  0  0  0  0
  152.1527  144.4147  158.8764 C   0  0  0  0  0  0  0  0  0  0  0  0
  153.0585  143.4352  159.6351 C   0  0  0  0  0  0  0  0  0  0  0  0
  152.3746  142.0709  159.8064 C   0  0  0  0  0  0  0  0  0  0  0  0
  151.9415  141.4793  158.4479 C   0  0  1  0  0  0  0  0  0  0  0  0
  151.1992  140.2836  158.6516 O   0  0  0  0  0  0  0  0  0  0  0  0
  151.9720  139.0917  158.6413 C   0  0  0  0  0  0  0  0  0  0  0  0
  151.3669  138.1223  157.6208 C   0  0  0  0  0  0  0  0  0  0  0  0
  150.6826  137.0300  158.3001 N   0  0  0  0  0  0  0  0  0  0  0  0
  149.5096  137.1296  158.9384 C   0  0  0  0  0  0  0  0  0  0  0  0
  148.9257  138.2148  158.9829 O   0  0  0  0  0  0  0  0  0  0  0  0
  149.0857  135.9665  159.4835 N   0  5  0  0  0  0  0  0  0  0  0  0
  148.2124  135.9812  160.5041 C   0  0  0  0  0  0  0  0  0  0  0  0
  147.7511  137.1232  161.0391 N   0  0  0  0  0  0  0  0  0  0  0  0
  146.8645  136.9161  162.0874 N   0  0  0  0  0  0  0  0  0  0  0  0
  146.6857  135.6166  162.3227 C   0  0  0  0  0  0  0  0  0  0  0  0
  147.5852  134.5280  161.2873 S   0  0  0  0  0  0  0  0  0  0  0  0
  151.4997  141.7080  155.6782 H   0  0  0  0  0  0  0  0  0  0  0  0
  149.9872  142.6065  155.7662 H   0  0  0  0  0  0  0  0  0  0  0  0
  150.0736  140.9709  156.4016 H   0  0  0  0  0  0  0  0  0  0  0  0
  150.1245  142.6153  158.2549 H   0  0  0  0  0  0  0  0  0  0  0  0
  152.6042  143.7334  156.8781 H   0  0  0  0  0  0  0  0  0  0  0  0
  151.0585  144.5345  157.0179 H   0  0  0  0  0  0  0  0  0  0  0  0
  152.6710  145.3628  158.7299 H   0  0  0  0  0  0  0  0  0  0  0  0
  151.2676  144.6345  159.4746 H   0  0  0  0  0  0  0  0  0  0  0  0
  153.9963  143.3086  159.0930 H   0  0  0  0  0  0  0  0  0  0  0  0
  153.3175  143.8474  160.6107 H   0  0  0  0  0  0  0  0  0  0  0  0
  153.0552  141.3930  160.3208 H   0  0  0  0  0  0  0  0  0  0  0  0
  151.5020  142.1805  160.4517 H   0  0  0  0  0  0  0  0  0  0  0  0
  152.8246  141.2745  157.8396 H   0  0  0  0  0  0  0  0  0  0  0  0
  153.0107  139.3029  158.3818 H   0  0  0  0  0  0  0  0  0  0  0  0
  151.9680  138.6326  159.6297 H   0  0  0  0  0  0  0  0  0  0  0  0
  150.6519  138.6515  156.9894 H   0  0  0  0  0  0  0  0  0  0  0  0
  152.1460  137.7267  156.9675 H   0  0  0  0  0  0  0  0  0  0  0  0
  151.1291  136.1249  158.2791 H   0  0  0  0  0  0  0  0  0  0  0  0
  146.0234  135.2970  163.1132 H   0  0  0  0  0  0  0  0  0  0  0  0
  1  2  1  0  0  0  0
  1 20  1  0  0  0  0
  1 21  1  0  0  0  0
  1 22  1  0  0  0  0
  2  7  1  0  0  0  0
  2  3  1  0  0  0  0
  2 23  1  0  0  0  0
  3  4  1  0  0  0  0
  3 24  1  0  0  0  0
  3 25  1  0  0  0  0
  4  5  1  0  0  0  0
  4 26  1  0  0  0  0
  4 27  1  0  0  0  0
  5  6  1  0  0  0  0
  5 28  1  0  0  0  0
  5 29  1  0  0  0  0
  6  7  1  0  0  0  0
  6 30  1  0  0  0  0
  6 31  1  0  0  0  0
  7  8  1  0  0  0  0
  7 32  1  0  0  0  0
  8  9  1  0  0  0  0
  9 10  1  0  0  0  0
  9 33  1  0  0  0  0
  9 34  1  0  0  0  0
 10 11  1  0  0  0  0
 10 35  1  0  0  0  0
 10 36  1  0  0  0  0
 11 12  1  0  0  0  0
 11 37  1  0  0  0  0
 12 13  2  0  0  0  0
 12 14  1  0  0  0  0
 14 15  1  0  0  0  0
 15 19  1  0  0  0  0
 15 16  2  0  0  0  0
 16 17  1  0  0  0  0
 17 18  2  0  0  0  0
 18 19  1  0  0  0  0
 18 38  1  0  0  0  0
M  CHG  1  14  -1
M  END
> <s_m_source_file>
AV-unprocessed.smi

> <i_m_source_file_index>
1947

> <i_lp_mmshare_version>
43012

> <i_f3d_flags>
0

> <s_epik_input>
W0NIM11bQ0BASF0xW0NIMl1bQ0gyXVtDSDJdW0NIMl1bQ0BIXTFPW0NIMl1bQ0gyXVtOSF1DKD1PKVtOSF1jMm5uW2NIXXMy

> <s_epik_cmdline>
J2VwaWtfcHl0aG9uJywgJy1waCcsICc3LjAnLCAnLXRuJywgJzgnLCAnLW1hJywgJzIwMCcsICctbWV0YWxfYmluZGluZycsICctaW1hZScsICc8aW5maWxlLm1hZT4nLCAnLW9tYWUnLCAnPG91dGZpbGUubWFlPic=

> <r_lp_tautomer_probability>
1

> <r_epik_Ionization_Penalty>
3.35961

> <r_epik_Ionization_Penalty_Charging>
3.31977

> <r_epik_Ionization_Penalty_Neutral>
0.0398394

> <r_epik_State_Penalty>
3.31759

> <r_epik_Charging_Adjusted_Penalty>
6.63736

> <i_epik_Tot_Q>
-1

> <i_epik_Tot_abs_Q>
1

> <r_epik_Metal_State_Penalty>
0.484557

> <b_epik_Metal_Only>
1

> <s_lp_Force_Field>
OPLS_2005

> <r_lp_Energy>
9.33336

> <b_lp_Chiralities_Consistent>
1

> <s_lp_Variant>
AV-unprocessed.smi:1947-5

> <Gold.Version>
5.8.1

> <Gold.Id.Protein>
6NUR|6NUR_protein|mol2

> <Gold.PLP.Fitness>
48.5600

> <Gold.PLP.PLP>
-40.7198

> <Gold.PLP.part.hbond>
-5.2771

> <Gold.PLP.part.metal>
0.0000

> <Gold.PLP.part.buried>
-4.9431

> <Gold.PLP.part.nonpolar>
-31.3757

> <Gold.PLP.part.repulsive>
0.1196

> <Gold.PLP.ligand.clash>
0.0000

> <Gold.PLP.ligand.torsion>
1.3144

> <Gold.PLP.Chemscore.Hbond>
3.4160

> <Gold.PLP.Chemscore.CHOScore>
0.0000

> <Gold.PLP.Chemscore.Metal>
0.0000

> <Gold.Chemscore.Hbonds>
donor molecule, donor type, donor heavy atom, donor atom, acceptor molecule, acceptor atom, score
      P1  H  6896  6907       L1    14  1.82
      P1  H  6931  6943       L1    16  0.94
      P1  H  6934  6947       L1    16  0.43

> <Gold.PLP.Chemscore.Internal.Correction>
0.2209

> <Gold.Rescore>
     Score         DG    S(hbond)    S(metal)    S(lipo)     H(rot)  DE(clash)    DE(int)     intcor
     13.85     -16.97       1.39        0.00     100.04       1.90       0.17       2.95       ----

> <Gold.Chemscore.Fitness>
13.8487

> <Gold.Chemscore.DG>
-16.9660

> <Gold.Chemscore.ZeroCoef>
-5.4800

> <Gold.Chemscore.Hbond>
1.3895

> <Gold.Chemscore.Metal>
0.0000

> <Gold.Chemscore.Lipo>
100.0401

> <Gold.Chemscore.Internal_Hbond>
0.0000

> <Gold.Chemscore.DEClash>
0.1713

> <Gold.Chemscore.DEInternal>
2.9460

> <Gold.Chemscore.Rot>
1.8984

> <Gold.Chemscore.Internal.Correction>
   9.000000E+99

> <Gold.Chemscore.Hbonds>
donor molecule, donor type, donor heavy atom, donor atom, acceptor molecule, acceptor atom, score
      P1  H  6896  6907       L1    14  0.51
      P1  H  6931  6943       L1    16  0.22
      P1  H  6934  6947       L1    16  0.02

> <Gold.Chemscore.Hbond.Weighted>
-4.6411

> <Gold.Chemscore.Metal.Weighted>
-0.0000

> <Gold.Chemscore.Lipo.Weighted>
-11.7047

> <Gold.Chemscore.Internal_Hbond.Weighted>
0.0000

> <Gold.Chemscore.DEClash.Weighted>
0.1713

> <Gold.Chemscore.DEInternal.Weighted>
2.9460

> <Gold.Chemscore.Rot.Weighted>
4.8598

> <Gold.Chemscore.Internal.Correction.Weighted>
   9.000000E+99

> <Gold.Protein.RotatedTorsions>
[ 6907 6896 6895 6894 ] final  -58.94 input  -60.11 | X-H torsion
[ 7974 7965 7964 7962 ] final -160.07 input  175.53 | X-H torsion
[ 8008 7997 7996 7995 ] final  160.13 input   59.86 | X-H torsion
[ 10167 10162 10161 10158 ] final  122.03 input  -65.29 | X-H torsion
[ 10718 10713 10712 10709 ] final -117.58 input   66.30 | X-H torsion
[ 10763 10752 10751 10750 ] final   25.23 input  -60.55 | X-H torsion
[ 11005 11000 10999 10996 ] final -176.68 input  -57.11 | X-H torsion

> <Gold.Protein.ActiveResidues>
 VAL166  LYS551  ARG553  GLY616  TRP617  ASP618  TYR619  PRO620  LYS621  CYS622 
 ASP623  PHE694  ASN695  SER759  ASP760  ASP761  ALA762  ILE779  LEU786  VAL792 
 PHE793  MET794  SER795  GLU796  ALA797  LYS798  CYS799  TRP800  GLU811  SER814 

> <Gold.Protein.RotatedAtoms>
  150.7968  134.7034  159.6562 H   0  0  0  0  0  0  0  0  0  0  0  0  # atno 6907 bound_to 6896
  152.4082  134.6168  160.0050 H   0  0  0  0  0  0  0  0  0  0  0  0  # atno 6908 bound_to 6896
  151.6419  133.3288  159.3168 H   0  0  0  0  0  0  0  0  0  0  0  0  # atno 6909 bound_to 6896
  144.7441  140.3595  143.6099 H   0  0  0  0  0  0  0  0  0  0  0  0  # atno 7974 bound_to 7965
  156.2193  140.1812  156.7514 H   0  0  0  0  0  0  0  0  0  0  0  0  # atno 8008 bound_to 7997
  154.5840  140.0661  156.9174 H   0  0  0  0  0  0  0  0  0  0  0  0  # atno 8009 bound_to 7997
  155.2452  140.3325  155.4290 H   0  0  0  0  0  0  0  0  0  0  0  0  # atno 8010 bound_to 7997
  139.5883  144.7015  151.3353 H   0  0  0  0  0  0  0  0  0  0  0  0  # atno 10167 bound_to 10162
  156.1044  130.6198  150.9183 H   0  0  0  0  0  0  0  0  0  0  0  0  # atno 10718 bound_to 10713
  153.0706  135.6587  154.0255 H   0  0  0  0  0  0  0  0  0  0  0  0  # atno 10763 bound_to 10752
  153.9901  135.2947  155.3414 H   0  0  0  0  0  0  0  0  0  0  0  0  # atno 10764 bound_to 10752
  154.7080  135.5217  153.8693 H   0  0  0  0  0  0  0  0  0  0  0  0  # atno 10765 bound_to 10752
  140.4494  134.6358  157.4794 H   0  0  0  0  0  0  0  0  0  0  0  0  # atno 11005 bound_to 11000
  145.7192  139.1705  143.2494 LP  0  0  0  0  0  0  0  0  0  0  0  0  # atno 17320 bound_to 7965
  146.1290  140.7211  142.9421 LP  0  0  0  0  0  0  0  0  0  0  0  0  # atno 17321 bound_to 7965
  140.7151  143.7287  150.7640 LP  0  0  0  0  0  0  0  0  0  0  0  0  # atno 17342 bound_to 10162
  140.0837  143.4944  152.2516 LP  0  0  0  0  0  0  0  0  0  0  0  0  # atno 17343 bound_to 10162
  157.6219  131.0929  150.8606 LP  0  0  0  0  0  0  0  0  0  0  0  0  # atno 17370 bound_to 10713
  156.8728  130.5152  149.5295 LP  0  0  0  0  0  0  0  0  0  0  0  0  # atno 17371 bound_to 10713
  140.0017  134.6826  155.9520 LP  0  0  0  0  0  0  0  0  0  0  0  0  # atno 17394 bound_to 11000
  141.1671  133.6537  156.4518 LP  0  0  0  0  0  0  0  0  0  0  0  0  # atno 17395 bound_to 11000

$$$$
