AV-unprocessed.smi:1469|AV-procd|sdf|5959|dock6
  -GOLD-   22720 6 43D 1   1.00000     0.00000
 Structure written by MMmdl.
 41 42  0  0  0  0  0  0  0  0  2 V2000
  146.4307  142.5071  154.4123 C   0  0  0  0  0  0  0  0  0  0  0  0
  147.2565  141.6641  153.4187 C   0  0  1  0  0  0  0  0  0  0  0  0
  148.7318  141.5522  153.8819 C   0  0  0  0  0  0  0  0  0  0  0  0
  148.8825  141.5189  155.3359 N   0  0  0  0  0  0  0  0  0  0  0  0
  149.9874  141.1394  155.9958 C   0  0  0  0  0  0  0  0  0  0  0  0
  151.0264  140.7979  155.4297 O   0  0  0  0  0  0  0  0  0  0  0  0
  149.9017  141.1790  157.5283 C   0  0  0  0  0  0  0  0  0  0  0  0
  150.9038  142.0632  158.1464 N   0  0  0  0  0  0  0  0  0  0  0  0
  150.8858  143.4199  157.7651 C   0  0  0  0  0  0  0  0  0  0  0  0
  151.7558  144.3101  158.2678 C   0  0  0  0  0  0  0  0  0  0  0  0
  152.7303  143.8457  159.2265 C   0  0  0  0  0  0  0  0  0  0  0  0
  152.7581  142.5495  159.5959 C   0  0  0  0  0  0  0  0  0  0  0  0
  151.8111  141.5723  159.0465 C   0  0  0  0  0  0  0  0  0  0  0  0
  151.8316  140.3853  159.3741 O   0  0  0  0  0  0  0  0  0  0  0  0
  146.6405  140.3243  153.1934 N   0  3  0  0  0  0  0  0  0  0  0  0
  147.2061  139.5375  152.0763 C   0  0  0  0  0  0  0  0  0  0  0  0
  146.7878  138.0991  152.3575 C   0  0  0  0  0  0  0  0  0  0  0  0
  146.8868  138.0032  153.8757 C   0  0  0  0  0  0  0  0  0  0  0  0
  146.6228  139.4295  154.3786 C   0  0  0  0  0  0  0  0  0  0  0  0
  146.9314  143.4495  154.6365 H   0  0  0  0  0  0  0  0  0  0  0  0
  146.2773  141.9822  155.3553 H   0  0  0  0  0  0  0  0  0  0  0  0
  145.4496  142.7614  154.0114 H   0  0  0  0  0  0  0  0  0  0  0  0
  147.2514  142.1972  152.4665 H   0  0  0  0  0  0  0  0  0  0  0  0
  149.1720  140.6329  153.4954 H   0  0  0  0  0  0  0  0  0  0  0  0
  149.3292  142.3563  153.4486 H   0  0  0  0  0  0  0  0  0  0  0  0
  148.0739  141.7751  155.8841 H   0  0  0  0  0  0  0  0  0  0  0  0
  148.8935  141.4926  157.8024 H   0  0  0  0  0  0  0  0  0  0  0  0
  150.0029  140.1666  157.9247 H   0  0  0  0  0  0  0  0  0  0  0  0
  150.1309  143.6851  157.0394 H   0  0  0  0  0  0  0  0  0  0  0  0
  151.7296  145.3455  157.9613 H   0  0  0  0  0  0  0  0  0  0  0  0
  153.4413  144.5401  159.6491 H   0  0  0  0  0  0  0  0  0  0  0  0
  153.4948  142.2198  160.3139 H   0  0  0  0  0  0  0  0  0  0  0  0
  146.8460  139.8858  151.1078 H   0  0  0  0  0  0  0  0  0  0  0  0
  148.2949  139.6128  152.0849 H   0  0  0  0  0  0  0  0  0  0  0  0
  145.7548  137.9451  152.0419 H   0  0  0  0  0  0  0  0  0  0  0  0
  147.4109  137.3667  151.8431 H   0  0  0  0  0  0  0  0  0  0  0  0
  146.1899  137.2755  154.2926 H   0  0  0  0  0  0  0  0  0  0  0  0
  147.8946  137.6955  154.1586 H   0  0  0  0  0  0  0  0  0  0  0  0
  147.3862  139.7085  155.1063 H   0  0  0  0  0  0  0  0  0  0  0  0
  145.6526  139.5045  154.8708 H   0  0  0  0  0  0  0  0  0  0  0  0
  145.6730  140.4843  152.9511 H   0  0  0  0  0  0  0  0  0  0  0  0
  1  2  1  0  0  0  0
  1 20  1  0  0  0  0
  1 21  1  0  0  0  0
  1 22  1  0  0  0  0
  2  3  1  0  0  0  0
  2 15  1  0  0  0  0
  2 23  1  0  0  0  0
  3  4  1  0  0  0  0
  3 24  1  0  0  0  0
  3 25  1  0  0  0  0
  4  5  1  0  0  0  0
  4 26  1  0  0  0  0
  5  6  2  0  0  0  0
  5  7  1  0  0  0  0
  7  8  1  0  0  0  0
  7 27  1  0  0  0  0
  7 28  1  0  0  0  0
  8 13  1  0  0  0  0
  8  9  1  0  0  0  0
  9 10  2  0  0  0  0
  9 29  1  0  0  0  0
 10 11  1  0  0  0  0
 10 30  1  0  0  0  0
 11 12  2  0  0  0  0
 11 31  1  0  0  0  0
 12 13  1  0  0  0  0
 12 32  1  0  0  0  0
 13 14  2  0  0  0  0
 15 19  1  0  0  0  0
 15 16  1  0  0  0  0
 15 41  1  0  0  0  0
 16 17  1  0  0  0  0
 16 33  1  0  0  0  0
 16 34  1  0  0  0  0
 17 18  1  0  0  0  0
 17 35  1  0  0  0  0
 17 36  1  0  0  0  0
 18 19  1  0  0  0  0
 18 37  1  0  0  0  0
 18 38  1  0  0  0  0
 19 39  1  0  0  0  0
 19 40  1  0  0  0  0
M  CHG  1  15   1
M  END
> <s_m_source_file>
AV-unprocessed.smi

> <i_m_source_file_index>
1469

> <i_lp_mmshare_version>
43012

> <i_f3d_flags>
0

> <s_epik_input>
W0NIMl0xW0NIMl1bQ0gyXVtDSDJdTjFbQ0BIXShbQ0gzXSlbQ0gyXVtOSF1DKD1PKVtDSDJdbjJbY0hdW2NIXVtjSF1bY0hdYzI9Tw==

> <s_epik_cmdline>
J2VwaWtfcHl0aG9uJywgJy1waCcsICc3LjAnLCAnLXRuJywgJzgnLCAnLW1hJywgJzIwMCcsICctbWV0YWxfYmluZGluZycsICctaW1hZScsICc8aW5maWxlLm1hZT4nLCAnLW9tYWUnLCAnPG91dGZpbGUubWFlPic=

> <r_lp_tautomer_probability>
1

> <r_epik_Ionization_Penalty>
0.00497231

> <r_epik_Ionization_Penalty_Charging>
0.00497223

> <r_epik_Ionization_Penalty_Neutral>
8.2288e-08

> <r_epik_State_Penalty>
0.0036131

> <r_epik_Charging_Adjusted_Penalty>
0.00858533

> <i_epik_Tot_Q>
1

> <i_epik_Tot_abs_Q>
1

> <r_epik_Metal_State_Penalty>
-0

> <b_epik_Metal_Only>
0

> <s_lp_Force_Field>
OPLS_2005

> <r_lp_Energy>
47.1466

> <b_lp_Chiralities_Consistent>
1

> <s_lp_Variant>
AV-unprocessed.smi:1469-2

> <Gold.Version>
5.8.1

> <Gold.Id.Protein>
6NUR|6NUR_protein|mol2

> <Gold.PLP.Fitness>
49.8256

> <Gold.PLP.PLP>
-39.2190

> <Gold.PLP.part.hbond>
-2.4207

> <Gold.PLP.part.metal>
0.0000

> <Gold.PLP.part.buried>
-2.3827

> <Gold.PLP.part.nonpolar>
-34.8602

> <Gold.PLP.part.repulsive>
0.1575

> <Gold.PLP.ligand.clash>
0.0000

> <Gold.PLP.ligand.torsion>
0.5064

> <Gold.PLP.Chemscore.Hbond>
2.8480

> <Gold.PLP.Chemscore.CHOScore>
1.0000

> <Gold.PLP.Chemscore.Metal>
0.0000

> <Gold.Chemscore.Hbonds>
donor molecule, donor type, donor heavy atom, donor atom, acceptor molecule, acceptor atom, score
      L1  H    15    41       P1 10175  1.95
      P1  H  7989  7998       L1     6  0.78
      L1  C     9    29       P1  8028  1.00

> <Gold.PLP.Chemscore.Internal.Correction>
0.0753

> <Gold.Rescore>
     Score         DG    S(hbond)    S(metal)    S(lipo)     H(rot)  DE(clash)    DE(int)     intcor
     16.86     -17.49       1.90        0.00      89.70       1.89       0.07       0.57       ----

> <Gold.Chemscore.Fitness>
16.8558

> <Gold.Chemscore.DG>
-17.4929

> <Gold.Chemscore.ZeroCoef>
-5.4800

> <Gold.Chemscore.Hbond>
1.9017

> <Gold.Chemscore.Metal>
0.0000

> <Gold.Chemscore.Lipo>
89.7010

> <Gold.Chemscore.Internal_Hbond>
0.0000

> <Gold.Chemscore.DEClash>
0.0661

> <Gold.Chemscore.DEInternal>
0.5710

> <Gold.Chemscore.Rot>
1.8882

> <Gold.Chemscore.Internal.Correction>
   9.000000E+99

> <Gold.Chemscore.Hbonds>
donor molecule, donor type, donor heavy atom, donor atom, acceptor molecule, acceptor atom, score
      L1  H    15    41       P1 10175  0.75
      P1  H  7989  7998       L1     6  0.73

> <Gold.Chemscore.Hbond.Weighted>
-6.3517

> <Gold.Chemscore.Metal.Weighted>
-0.0000

> <Gold.Chemscore.Lipo.Weighted>
-10.4950

> <Gold.Chemscore.Internal_Hbond.Weighted>
0.0000

> <Gold.Chemscore.DEClash.Weighted>
0.0661

> <Gold.Chemscore.DEInternal.Weighted>
0.5710

> <Gold.Chemscore.Rot.Weighted>
4.8338

> <Gold.Chemscore.Internal.Correction.Weighted>
   9.000000E+99

> <Gold.Protein.RotatedTorsions>
[ 6907 6896 6895 6894 ] final    9.62 input  -60.11 | X-H torsion
[ 7974 7965 7964 7962 ] final  -20.88 input  175.53 | X-H torsion
[ 8008 7997 7996 7995 ] final  -91.89 input   59.86 | X-H torsion
[ 10167 10162 10161 10158 ] final  143.89 input  -65.29 | X-H torsion
[ 10718 10713 10712 10709 ] final  178.02 input   66.30 | X-H torsion
[ 10763 10752 10751 10750 ] final  163.72 input  -60.55 | X-H torsion
[ 11005 11000 10999 10996 ] final  -44.37 input  -57.11 | X-H torsion

> <Gold.Protein.ActiveResidues>
 VAL166  LYS551  ARG553  GLY616  TRP617  ASP618  TYR619  PRO620  LYS621  CYS622 
 ASP623  PHE694  ASN695  SER759  ASP760  ASP761  ALA762  ILE779  LEU786  VAL792 
 PHE793  MET794  SER795  GLU796  ALA797  LYS798  CYS799  TRP800  GLU811  SER814 

> <Gold.Protein.RotatedAtoms>
  151.7251  135.0886  160.0290 H   0  0  0  0  0  0  0  0  0  0  0  0  # atno 6907 bound_to 6896
  152.3577  133.6254  159.6000 H   0  0  0  0  0  0  0  0  0  0  0  0  # atno 6908 bound_to 6896
  150.7583  133.9389  159.3491 H   0  0  0  0  0  0  0  0  0  0  0  0  # atno 6909 bound_to 6896
  146.1764  140.4263  142.8512 H   0  0  0  0  0  0  0  0  0  0  0  0  # atno 7974 bound_to 7965
  154.7164  140.0514  157.0598 H   0  0  0  0  0  0  0  0  0  0  0  0  # atno 8008 bound_to 7997
  155.0486  140.3176  155.4681 H   0  0  0  0  0  0  0  0  0  0  0  0  # atno 8009 bound_to 7997
  156.2804  140.2120  156.5611 H   0  0  0  0  0  0  0  0  0  0  0  0  # atno 8010 bound_to 7997
  139.4959  144.6009  151.6482 H   0  0  0  0  0  0  0  0  0  0  0  0  # atno 10167 bound_to 10162
  156.8967  130.9865  151.3041 H   0  0  0  0  0  0  0  0  0  0  0  0  # atno 10718 bound_to 10713
  154.2981  135.2759  155.2624 H   0  0  0  0  0  0  0  0  0  0  0  0  # atno 10763 bound_to 10752
  154.5073  135.5792  153.6581 H   0  0  0  0  0  0  0  0  0  0  0  0  # atno 10764 bound_to 10752
  152.9904  135.6172  154.3149 H   0  0  0  0  0  0  0  0  0  0  0  0  # atno 10765 bound_to 10752
  141.0446  133.6766  156.2863 H   0  0  0  0  0  0  0  0  0  0  0  0  # atno 11005 bound_to 11000
  144.8243  140.6602  143.6332 LP  0  0  0  0  0  0  0  0  0  0  0  0  # atno 17320 bound_to 7965
  145.4200  139.1565  143.4079 LP  0  0  0  0  0  0  0  0  0  0  0  0  # atno 17321 bound_to 7965
  140.5659  144.0191  150.6192 LP  0  0  0  0  0  0  0  0  0  0  0  0  # atno 17342 bound_to 10162
  140.3292  143.3088  152.0705 LP  0  0  0  0  0  0  0  0  0  0  0  0  # atno 17343 bound_to 10162
  157.6051  130.8541  149.8862 LP  0  0  0  0  0  0  0  0  0  0  0  0  # atno 17370 bound_to 10713
  156.0602  130.3701  150.0999 LP  0  0  0  0  0  0  0  0  0  0  0  0  # atno 17371 bound_to 10713
  140.6171  134.5399  157.5542 LP  0  0  0  0  0  0  0  0  0  0  0  0  # atno 17394 bound_to 11000
  139.9302  134.7979  156.0954 LP  0  0  0  0  0  0  0  0  0  0  0  0  # atno 17395 bound_to 11000

$$$$
