AV-unprocessed.smi:2901|AV-procd|sdf|11149|dock5
  -GOLD-   2272016 23D 1   1.00000     0.00000
 Structure written by MMmdl.
 40 41  0  0  0  0  0  0  0  0  1 V2000
  152.6420  138.4546  154.8530 C   0  0  0  0  0  0  0  0  0  0  0  0
  151.2089  138.8151  154.6663 C   0  0  0  0  0  0  0  0  0  0  0  0
  150.1778  137.9847  154.5264 N   0  0  0  0  0  0  0  0  0  0  0  0
  149.0731  138.8125  154.3815 C   0  0  0  0  0  0  0  0  0  0  0  0
  147.6893  138.2677  154.2007 C   0  0  0  0  0  0  0  0  0  0  0  0
  147.0772  138.6808  152.8523 C   0  0  0  0  0  0  0  0  0  0  0  0
  145.6208  138.6112  152.8784 N   0  0  0  0  0  0  0  0  0  0  0  0
  144.9103  137.4880  153.0487 C   0  0  0  0  0  0  0  0  0  0  0  0
  145.4084  136.3740  153.2120 O   0  0  0  0  0  0  0  0  0  0  0  0
  143.5919  137.7229  153.0123 N   0  0  0  0  0  0  0  0  0  0  0  0
  142.5580  136.7026  153.1479 C   0  0  0  0  0  0  0  0  0  0  0  0
  141.2693  137.2632  153.7749 C   0  0  2  0  0  0  0  0  0  0  0  0
  140.1109  136.2688  153.8599 C   0  0  0  0  0  0  0  0  0  0  0  0
  138.8747  137.1554  153.8393 C   0  0  0  0  0  0  0  0  0  0  0  0
  139.4026  138.5286  153.4132 C   0  0  0  0  0  0  0  0  0  0  0  0
  140.7293  138.2927  152.9637 O   0  0  0  0  0  0  0  0  0  0  0  0
  149.5028  140.1136  154.4474 C   0  0  0  0  0  0  0  0  0  0  0  0
  148.7970  141.4244  154.3646 C   0  0  0  0  0  0  0  0  0  0  0  0
  150.8600  140.1293  154.6260 O   0  0  0  0  0  0  0  0  0  0  0  0
  152.7438  137.3839  155.0313 H   0  0  0  0  0  0  0  0  0  0  0  0
  153.0541  138.9928  155.7067 H   0  0  0  0  0  0  0  0  0  0  0  0
  153.2112  138.7186  153.9615 H   0  0  0  0  0  0  0  0  0  0  0  0
  147.7058  137.1798  154.2748 H   0  0  0  0  0  0  0  0  0  0  0  0
  147.0519  138.6125  155.0160 H   0  0  0  0  0  0  0  0  0  0  0  0
  147.3988  139.6870  152.5768 H   0  0  0  0  0  0  0  0  0  0  0  0
  147.4324  138.0154  152.0648 H   0  0  0  0  0  0  0  0  0  0  0  0
  145.1200  139.4788  152.7534 H   0  0  0  0  0  0  0  0  0  0  0  0
  143.2793  138.6725  152.8732 H   0  0  0  0  0  0  0  0  0  0  0  0
  142.3423  136.2588  152.1747 H   0  0  0  0  0  0  0  0  0  0  0  0
  142.9561  135.9009  153.7703 H   0  0  0  0  0  0  0  0  0  0  0  0
  141.4759  137.6767  154.7640 H   0  0  0  0  0  0  0  0  0  0  0  0
  140.1064  135.6177  152.9847 H   0  0  0  0  0  0  0  0  0  0  0  0
  140.1662  135.6380  154.7477 H   0  0  0  0  0  0  0  0  0  0  0  0
  138.1374  136.7725  153.1329 H   0  0  0  0  0  0  0  0  0  0  0  0
  138.4020  137.2112  154.8207 H   0  0  0  0  0  0  0  0  0  0  0  0
  138.7967  138.9874  152.6315 H   0  0  0  0  0  0  0  0  0  0  0  0
  139.4303  139.2091  154.2655 H   0  0  0  0  0  0  0  0  0  0  0  0
  147.8319  141.3777  154.8695 H   0  0  0  0  0  0  0  0  0  0  0  0
  148.6223  141.7028  153.3252 H   0  0  0  0  0  0  0  0  0  0  0  0
  149.3838  142.2148  154.8332 H   0  0  0  0  0  0  0  0  0  0  0  0
  1  2  1  0  0  0  0
  1 20  1  0  0  0  0
  1 21  1  0  0  0  0
  1 22  1  0  0  0  0
  2 19  1  0  0  0  0
  2  3  2  0  0  0  0
  3  4  1  0  0  0  0
  4  5  1  0  0  0  0
  4 17  2  0  0  0  0
  5  6  1  0  0  0  0
  5 23  1  0  0  0  0
  5 24  1  0  0  0  0
  6  7  1  0  0  0  0
  6 25  1  0  0  0  0
  6 26  1  0  0  0  0
  7  8  1  0  0  0  0
  7 27  1  0  0  0  0
  8  9  2  0  0  0  0
  8 10  1  0  0  0  0
 10 11  1  0  0  0  0
 10 28  1  0  0  0  0
 11 12  1  0  0  0  0
 11 29  1  0  0  0  0
 11 30  1  0  0  0  0
 12 16  1  0  0  0  0
 12 13  1  0  0  0  0
 12 31  1  0  0  0  0
 13 14  1  0  0  0  0
 13 32  1  0  0  0  0
 13 33  1  0  0  0  0
 14 15  1  0  0  0  0
 14 34  1  0  0  0  0
 14 35  1  0  0  0  0
 15 16  1  0  0  0  0
 15 36  1  0  0  0  0
 15 37  1  0  0  0  0
 17 18  1  0  0  0  0
 17 19  1  0  0  0  0
 18 38  1  0  0  0  0
 18 39  1  0  0  0  0
 18 40  1  0  0  0  0
M  END
> <s_m_source_file>
AV-unprocessed.smi

> <i_m_source_file_index>
2901

> <i_lp_mmshare_version>
43012

> <i_f3d_flags>
0

> <s_epik_input>
W0NIM11jMW5jKGMobzEpW0NIM10pW0NIMl1bQ0gyXVtOSF1DKD1PKVtOSF1bQ0gyXVtDQEBIXTJbQ0gyXVtDSDJdW0NIMl1PMg==

> <s_epik_cmdline>
J2VwaWtfcHl0aG9uJywgJy1waCcsICc3LjAnLCAnLXRuJywgJzgnLCAnLW1hJywgJzIwMCcsICctbWV0YWxfYmluZGluZycsICctaW1hZScsICc8aW5maWxlLm1hZT4nLCAnLW9tYWUnLCAnPG91dGZpbGUubWFlPic=

> <r_lp_tautomer_probability>
1

> <r_epik_Ionization_Penalty>
9.58254e-05

> <r_epik_Ionization_Penalty_Charging>
0

> <r_epik_Ionization_Penalty_Neutral>
9.58254e-05

> <r_epik_State_Penalty>
-0

> <r_epik_Charging_Adjusted_Penalty>
0

> <i_epik_Tot_Q>
0

> <i_epik_Tot_abs_Q>
0

> <r_epik_Metal_State_Penalty>
-0

> <b_epik_Metal_Only>
0

> <s_lp_Force_Field>
OPLS_2005

> <r_lp_Energy>
8.98545

> <b_lp_Chiralities_Consistent>
1

> <s_lp_Variant>
AV-unprocessed.smi:2901-1

> <Gold.Version>
5.8.1

> <Gold.Id.Protein>
6NUR|6NUR_protein|mol2

> <Gold.PLP.Fitness>
44.1236

> <Gold.PLP.PLP>
-35.7122

> <Gold.PLP.part.hbond>
-3.2036

> <Gold.PLP.part.metal>
0.0000

> <Gold.PLP.part.buried>
-5.1559

> <Gold.PLP.part.nonpolar>
-28.9447

> <Gold.PLP.part.repulsive>
1.4809

> <Gold.PLP.ligand.clash>
0.0000

> <Gold.PLP.ligand.torsion>
0.3156

> <Gold.PLP.Chemscore.Hbond>
3.0000

> <Gold.PLP.Chemscore.CHOScore>
0.0000

> <Gold.PLP.Chemscore.Metal>
0.0000

> <Gold.Chemscore.Hbonds>
donor molecule, donor type, donor heavy atom, donor atom, acceptor molecule, acceptor atom, score
      L1  H     7    27       P1 10175  1.00
      L1  H    10    28       P1 10175  1.00
      P1  H  7989  7998       L1    19  1.00

> <Gold.PLP.Chemscore.Internal.Correction>
0.0425

> <Gold.Rescore>
     Score         DG    S(hbond)    S(metal)    S(lipo)     H(rot)  DE(clash)    DE(int)     intcor
     18.03     -18.40       2.77        0.00      73.23       1.92       0.06       0.30       ----

> <Gold.Chemscore.Fitness>
18.0310

> <Gold.Chemscore.DG>
-18.3957

> <Gold.Chemscore.ZeroCoef>
-5.4800

> <Gold.Chemscore.Hbond>
2.7708

> <Gold.Chemscore.Metal>
0.0000

> <Gold.Chemscore.Lipo>
73.2316

> <Gold.Chemscore.Internal_Hbond>
0.0000

> <Gold.Chemscore.DEClash>
0.0648

> <Gold.Chemscore.DEInternal>
0.2999

> <Gold.Chemscore.Rot>
1.9167

> <Gold.Chemscore.Internal.Correction>
   9.000000E+99

> <Gold.Chemscore.Hbonds>
donor molecule, donor type, donor heavy atom, donor atom, acceptor molecule, acceptor atom, score
      L1  H     7    27       P1 10175  0.98
      L1  H    10    28       P1 10175  0.95
      P1  H  7989  7998       L1    19  0.66

> <Gold.Chemscore.Hbond.Weighted>
-9.2545

> <Gold.Chemscore.Metal.Weighted>
-0.0000

> <Gold.Chemscore.Lipo.Weighted>
-8.5681

> <Gold.Chemscore.Internal_Hbond.Weighted>
0.0000

> <Gold.Chemscore.DEClash.Weighted>
0.0648

> <Gold.Chemscore.DEInternal.Weighted>
0.2999

> <Gold.Chemscore.Rot.Weighted>
4.9069

> <Gold.Chemscore.Internal.Correction.Weighted>
   9.000000E+99

> <Gold.Protein.RotatedTorsions>
[ 6907 6896 6895 6894 ] final  -14.68 input  -60.11 | X-H torsion
[ 7974 7965 7964 7962 ] final  -57.26 input  175.53 | X-H torsion
[ 8008 7997 7996 7995 ] final   58.86 input   59.86 | X-H torsion
[ 10167 10162 10161 10158 ] final  -37.64 input  -65.29 | X-H torsion
[ 10718 10713 10712 10709 ] final   54.49 input   66.30 | X-H torsion
[ 10763 10752 10751 10750 ] final -100.35 input  -60.55 | X-H torsion
[ 11005 11000 10999 10996 ] final   42.28 input  -57.11 | X-H torsion

> <Gold.Protein.ActiveResidues>
 VAL166  LYS551  ARG553  GLY616  TRP617  ASP618  TYR619  PRO620  LYS621  CYS622 
 ASP623  PHE694  ASN695  SER759  ASP760  ASP761  ALA762  ILE779  LEU786  VAL792 
 PHE793  MET794  SER795  GLU796  ALA797  LYS798  CYS799  TRP800  GLU811  SER814 

> <Gold.Protein.RotatedAtoms>
  151.3357  135.0852  159.9353 H   0  0  0  0  0  0  0  0  0  0  0  0  # atno 6907 bound_to 6896
  152.5224  133.9498  159.7677 H   0  0  0  0  0  0  0  0  0  0  0  0  # atno 6908 bound_to 6896
  150.9845  133.6158  159.2747 H   0  0  0  0  0  0  0  0  0  0  0  0  # atno 6909 bound_to 6896
  145.8531  140.8338  142.9975 H   0  0  0  0  0  0  0  0  0  0  0  0  # atno 7974 bound_to 7965
  155.5569  140.3487  155.4482 H   0  0  0  0  0  0  0  0  0  0  0  0  # atno 8008 bound_to 7997
  156.0542  140.1325  157.0041 H   0  0  0  0  0  0  0  0  0  0  0  0  # atno 8009 bound_to 7997
  154.4449  140.0998  156.6407 H   0  0  0  0  0  0  0  0  0  0  0  0  # atno 8010 bound_to 7997
  140.7113  143.3329  151.2528 H   0  0  0  0  0  0  0  0  0  0  0  0  # atno 10167 bound_to 10162
  157.5262  130.8599  149.8625 H   0  0  0  0  0  0  0  0  0  0  0  0  # atno 10718 bound_to 10713
  154.7572  135.4938  153.9397 H   0  0  0  0  0  0  0  0  0  0  0  0  # atno 10763 bound_to 10752
  153.1210  135.6731  153.9344 H   0  0  0  0  0  0  0  0  0  0  0  0  # atno 10764 bound_to 10752
  153.9076  135.3102  155.3427 H   0  0  0  0  0  0  0  0  0  0  0  0  # atno 10765 bound_to 10752
  140.1754  134.4170  155.8232 H   0  0  0  0  0  0  0  0  0  0  0  0  # atno 11005 bound_to 11000
  144.6728  140.0983  143.7462 LP  0  0  0  0  0  0  0  0  0  0  0  0  # atno 17320 bound_to 7965
  145.9334  139.2621  143.1311 LP  0  0  0  0  0  0  0  0  0  0  0  0  # atno 17321 bound_to 7965
  139.6816  143.9845  152.2811 LP  0  0  0  0  0  0  0  0  0  0  0  0  # atno 17342 bound_to 10162
  139.9477  144.6641  150.8203 LP  0  0  0  0  0  0  0  0  0  0  0  0  # atno 17343 bound_to 10162
  156.0388  130.3744  150.1488 LP  0  0  0  0  0  0  0  0  0  0  0  0  # atno 17370 bound_to 10713
  156.9675  130.9824  151.3466 LP  0  0  0  0  0  0  0  0  0  0  0  0  # atno 17371 bound_to 10713
  141.2220  133.6975  156.7836 LP  0  0  0  0  0  0  0  0  0  0  0  0  # atno 17394 bound_to 11000
  140.2329  134.8672  157.3495 LP  0  0  0  0  0  0  0  0  0  0  0  0  # atno 17395 bound_to 11000

$$$$
