AV-unprocessed.smi:2874|AV-procd|sdf|11039|dock7
  -GOLD-   2272015503D 1   1.00000     0.00000
 Structure written by MMmdl.
 40 42  0  0  0  0  0  0  0  0  2 V2000
  151.6989  138.3578  154.4846 C   0  0  0  0  0  0  0  0  0  0  0  0
  151.1711  139.5965  154.9239 O   0  0  0  0  0  0  0  0  0  0  0  0
  151.9711  140.2061  155.9239 C   0  0  0  0  0  0  0  0  0  0  0  0
  151.6386  139.5923  157.2912 C   0  0  0  0  0  0  0  0  0  0  0  0
  152.3011  140.3021  158.3944 N   0  0  0  0  0  0  0  0  0  0  0  0
  153.1984  139.8598  159.3196 C   0  0  0  0  0  0  0  0  0  0  0  0
  153.8344  138.2171  159.4508 S   0  0  0  0  0  0  0  0  0  0  0  0
  155.3246  138.3108  160.4872 C   0  0  0  0  0  0  0  0  0  0  0  0
  155.0152  137.8784  161.9096 C   0  0  0  0  0  0  0  0  0  0  0  0
  154.2365  136.8019  162.0581 N   0  0  0  0  0  0  0  0  0  0  0  0
  153.9461  136.4277  163.3231 C   0  0  0  0  0  0  0  0  0  0  0  0
  154.4381  137.1367  164.4378 C   0  0  0  0  0  0  0  0  0  0  0  0
  155.2519  138.2522  164.1571 C   0  0  0  0  0  0  0  0  0  0  0  0
  155.7882  139.0221  165.1857 N   0  0  0  0  0  0  0  0  0  0  0  0
  155.5393  138.6216  162.8907 N   0  0  0  0  0  0  0  0  0  0  0  0
  153.5186  140.9161  160.1173 N   0  3  0  0  0  0  0  0  0  0  0  0
  152.8128  142.0462  159.7041 C   0  0  0  0  0  0  0  0  0  0  0  0
  152.7994  143.3446  160.2033 C   0  0  0  0  0  0  0  0  0  0  0  0
  151.9631  144.2690  159.5429 C   0  0  0  0  0  0  0  0  0  0  0  0
  151.8945  145.8981  160.1059 Cl  0  0  0  0  0  0  0  0  0  0  0  0
  151.1836  143.8866  158.4313 C   0  0  0  0  0  0  0  0  0  0  0  0
  151.2044  142.5668  157.9342 C   0  0  0  0  0  0  0  0  0  0  0  0
  152.0317  141.6600  158.5952 C   0  0  0  0  0  0  0  0  0  0  0  0
  151.0500  137.9353  153.7175 H   0  0  0  0  0  0  0  0  0  0  0  0
  151.7602  137.6420  155.3053 H   0  0  0  0  0  0  0  0  0  0  0  0
  152.6929  138.4831  154.0533 H   0  0  0  0  0  0  0  0  0  0  0  0
  153.0276  140.0594  155.6945 H   0  0  0  0  0  0  0  0  0  0  0  0
  151.7888  141.2814  155.9471 H   0  0  0  0  0  0  0  0  0  0  0  0
  150.5628  139.5853  157.4685 H   0  0  0  0  0  0  0  0  0  0  0  0
  151.9624  138.5515  157.3216 H   0  0  0  0  0  0  0  0  0  0  0  0
  156.0920  137.6592  160.0685 H   0  0  0  0  0  0  0  0  0  0  0  0
  155.7183  139.3279  160.4639 H   0  0  0  0  0  0  0  0  0  0  0  0
  153.3161  135.5591  163.4467 H   0  0  0  0  0  0  0  0  0  0  0  0
  154.2030  136.8355  165.4482 H   0  0  0  0  0  0  0  0  0  0  0  0
  155.6084  138.8017  166.1550 H   0  0  0  0  0  0  0  0  0  0  0  0
  156.4708  139.7429  165.0005 H   0  0  0  0  0  0  0  0  0  0  0  0
  153.3973  143.6374  161.0537 H   0  0  0  0  0  0  0  0  0  0  0  0
  150.5548  144.6208  157.9487 H   0  0  0  0  0  0  0  0  0  0  0  0
  150.6039  142.2854  157.0817 H   0  0  0  0  0  0  0  0  0  0  0  0
  154.1634  140.8608  160.8958 H   0  0  0  0  0  0  0  0  0  0  0  0
  1  2  1  0  0  0  0
  1 24  1  0  0  0  0
  1 25  1  0  0  0  0
  1 26  1  0  0  0  0
  2  3  1  0  0  0  0
  3  4  1  0  0  0  0
  3 27  1  0  0  0  0
  3 28  1  0  0  0  0
  4  5  1  0  0  0  0
  4 29  1  0  0  0  0
  4 30  1  0  0  0  0
  5 23  1  0  0  0  0
  5  6  1  0  0  0  0
  6  7  1  0  0  0  0
  6 16  2  0  0  0  0
  7  8  1  0  0  0  0
  8  9  1  0  0  0  0
  8 31  1  0  0  0  0
  8 32  1  0  0  0  0
  9 15  1  0  0  0  0
  9 10  2  0  0  0  0
 10 11  1  0  0  0  0
 11 12  2  0  0  0  0
 11 33  1  0  0  0  0
 12 13  1  0  0  0  0
 12 34  1  0  0  0  0
 13 14  1  0  0  0  0
 13 15  2  0  0  0  0
 14 35  1  0  0  0  0
 14 36  1  0  0  0  0
 16 17  1  0  0  0  0
 16 40  1  0  0  0  0
 17 23  2  0  0  0  0
 17 18  1  0  0  0  0
 18 19  2  0  0  0  0
 18 37  1  0  0  0  0
 19 20  1  0  0  0  0
 19 21  1  0  0  0  0
 21 22  2  0  0  0  0
 21 38  1  0  0  0  0
 22 23  1  0  0  0  0
 22 39  1  0  0  0  0
M  CHG  1  16   1
M  END
> <s_m_source_file>
AV-unprocessed.smi

> <i_m_source_file_index>
2874

> <i_lp_mmshare_version>
43012

> <i_f3d_flags>
0

> <s_epik_input>
W2NIXTFjKENsKVtjSF1bY0hdYyhjMTIpbihbQ0gyXVtDSDJdT1tDSDNdKWMobjIpU1tDSDJdYzNuW2NIXVtjSF1jKG4zKVtOSDJd

> <s_epik_cmdline>
J2VwaWtfcHl0aG9uJywgJy1waCcsICc3LjAnLCAnLXRuJywgJzgnLCAnLW1hJywgJzIwMCcsICctbWV0YWxfYmluZGluZycsICctaW1hZScsICc8aW5maWxlLm1hZT4nLCAnLW9tYWUnLCAnPG91dGZpbGUubWFlPic=

> <r_lp_tautomer_probability>
1

> <r_epik_Ionization_Penalty>
2.48176

> <r_epik_Ionization_Penalty_Charging>
2.48043

> <r_epik_Ionization_Penalty_Neutral>
0.00132706

> <r_epik_State_Penalty>
2.64401

> <r_epik_Charging_Adjusted_Penalty>
5.12444

> <i_epik_Tot_Q>
1

> <i_epik_Tot_abs_Q>
1

> <r_epik_Metal_State_Penalty>
2.65168

> <b_epik_Metal_Only>
0

> <s_lp_Force_Field>
OPLS_2005

> <r_lp_Energy>
0.65944

> <b_lp_Chiralities_Consistent>
1

> <s_lp_Variant>
AV-unprocessed.smi:2874-2

> <Gold.Version>
5.8.1

> <Gold.Id.Protein>
6NUR|6NUR_protein|mol2

> <Gold.PLP.Fitness>
49.2870

> <Gold.PLP.PLP>
-48.5568

> <Gold.PLP.part.hbond>
-1.0000

> <Gold.PLP.part.metal>
0.0000

> <Gold.PLP.part.buried>
-7.2227

> <Gold.PLP.part.nonpolar>
-40.3302

> <Gold.PLP.part.repulsive>
0.1973

> <Gold.PLP.ligand.clash>
0.0000

> <Gold.PLP.ligand.torsion>
0.8606

> <Gold.PLP.Chemscore.Hbond>
0.8000

> <Gold.PLP.Chemscore.CHOScore>
0.0000

> <Gold.PLP.Chemscore.Metal>
0.0000

> <Gold.Chemscore.Hbonds>
donor molecule, donor type, donor heavy atom, donor atom, acceptor molecule, acceptor atom, score
      P1  H  7989  7998       L1     2  0.80

> <Gold.PLP.Chemscore.Internal.Correction>
0.0513

> <Gold.Rescore>
     Score         DG    S(hbond)    S(metal)    S(lipo)     H(rot)  DE(clash)    DE(int)     intcor
     12.49     -13.27       0.00        0.00     121.39       2.51       0.07       0.71       ----

> <Gold.Chemscore.Fitness>
12.4873

> <Gold.Chemscore.DG>
-13.2678

> <Gold.Chemscore.ZeroCoef>
-5.4800

> <Gold.Chemscore.Hbond>
0.0021

> <Gold.Chemscore.Metal>
0.0000

> <Gold.Chemscore.Lipo>
121.3949

> <Gold.Chemscore.Internal_Hbond>
0.0000

> <Gold.Chemscore.DEClash>
0.0736

> <Gold.Chemscore.DEInternal>
0.7069

> <Gold.Chemscore.Rot>
2.5088

> <Gold.Chemscore.Internal.Correction>
   9.000000E+99

> <Gold.Chemscore.Hbonds>
donor molecule, donor type, donor heavy atom, donor atom, acceptor molecule, acceptor atom, score
      P1  H  7989  7998       L1     2  0.05

> <Gold.Chemscore.Hbond.Weighted>
-0.0070

> <Gold.Chemscore.Metal.Weighted>
-0.0000

> <Gold.Chemscore.Lipo.Weighted>
-14.2032

> <Gold.Chemscore.Internal_Hbond.Weighted>
0.0000

> <Gold.Chemscore.DEClash.Weighted>
0.0736

> <Gold.Chemscore.DEInternal.Weighted>
0.7069

> <Gold.Chemscore.Rot.Weighted>
6.4224

> <Gold.Chemscore.Internal.Correction.Weighted>
   9.000000E+99

> <Gold.Protein.RotatedTorsions>
[ 6907 6896 6895 6894 ] final   73.10 input  -60.11 | X-H torsion
[ 7974 7965 7964 7962 ] final  -25.39 input  175.53 | X-H torsion
[ 8008 7997 7996 7995 ] final  117.87 input   59.86 | X-H torsion
[ 10167 10162 10161 10158 ] final -139.58 input  -65.29 | X-H torsion
[ 10718 10713 10712 10709 ] final -148.96 input   66.30 | X-H torsion
[ 10763 10752 10751 10750 ] final -130.85 input  -60.55 | X-H torsion
[ 11005 11000 10999 10996 ] final  133.42 input  -57.11 | X-H torsion

> <Gold.Protein.ActiveResidues>
 VAL166  LYS551  ARG553  GLY616  TRP617  ASP618  TYR619  PRO620  LYS621  CYS622 
 ASP623  PHE694  ASN695  SER759  ASP760  ASP761  ALA762  ILE779  LEU786  VAL792 
 PHE793  MET794  SER795  GLU796  ALA797  LYS798  CYS799  TRP800  GLU811  SER814 

> <Gold.Protein.RotatedAtoms>
  152.4905  134.4472  159.9562 H   0  0  0  0  0  0  0  0  0  0  0  0  # atno 6907 bound_to 6896
  151.4460  133.3624  159.2796 H   0  0  0  0  0  0  0  0  0  0  0  0  # atno 6908 bound_to 6896
  150.9054  134.8493  159.7449 H   0  0  0  0  0  0  0  0  0  0  0  0  # atno 6909 bound_to 6896
  146.1494  140.4880  142.8618 H   0  0  0  0  0  0  0  0  0  0  0  0  # atno 7974 bound_to 7965
  156.2517  140.2887  156.0747 H   0  0  0  0  0  0  0  0  0  0  0  0  # atno 8008 bound_to 7997
  155.1633  140.0400  157.2864 H   0  0  0  0  0  0  0  0  0  0  0  0  # atno 8009 bound_to 7997
  154.6377  140.2515  155.7365 H   0  0  0  0  0  0  0  0  0  0  0  0  # atno 8010 bound_to 7997
  139.8365  143.7377  152.2664 H   0  0  0  0  0  0  0  0  0  0  0  0  # atno 10167 bound_to 10162
  156.4269  130.8056  151.2282 H   0  0  0  0  0  0  0  0  0  0  0  0  # atno 10718 bound_to 10713
  154.8754  135.3849  154.4150 H   0  0  0  0  0  0  0  0  0  0  0  0  # atno 10763 bound_to 10752
  153.4860  135.7030  153.5916 H   0  0  0  0  0  0  0  0  0  0  0  0  # atno 10764 bound_to 10752
  153.4311  135.3878  155.2138 H   0  0  0  0  0  0  0  0  0  0  0  0  # atno 10765 bound_to 10752
  139.9851  134.9535  156.9723 H   0  0  0  0  0  0  0  0  0  0  0  0  # atno 11005 bound_to 11000
  144.7885  140.5985  143.6557 LP  0  0  0  0  0  0  0  0  0  0  0  0  # atno 17320 bound_to 7965
  145.4860  139.1492  143.3736 LP  0  0  0  0  0  0  0  0  0  0  0  0  # atno 17321 bound_to 7965
  139.7601  144.7509  151.0376 LP  0  0  0  0  0  0  0  0  0  0  0  0  # atno 17342 bound_to 10162
  140.7802  143.4760  151.0081 LP  0  0  0  0  0  0  0  0  0  0  0  0  # atno 17343 bound_to 10162
  157.7508  131.0210  150.3733 LP  0  0  0  0  0  0  0  0  0  0  0  0  # atno 17370 bound_to 10713
  156.4063  130.3925  149.6924 LP  0  0  0  0  0  0  0  0  0  0  0  0  # atno 17371 bound_to 10713
  140.5019  134.1089  155.7252 LP  0  0  0  0  0  0  0  0  0  0  0  0  # atno 17394 bound_to 11000
  141.1517  133.8957  157.2081 LP  0  0  0  0  0  0  0  0  0  0  0  0  # atno 17395 bound_to 11000

$$$$
