AV-unprocessed.smi:1356|AV-procd|sdf|5541|dock3
  -GOLD-   22720 5133D 1   1.00000     0.00000
 Structure written by MMmdl.
 41 42  0  0  0  0  0  0  0  0  1 V2000
  149.2239  131.9213  154.5692 C   0  0  0  0  0  0  0  0  0  0  0  0
  148.1473  132.8046  153.9628 C   0  0  1  0  0  0  0  0  0  0  0  0
  147.0201  133.3133  154.8275 C   0  0  0  0  0  0  0  0  0  0  0  0
  148.0083  134.2973  154.2351 C   0  0  1  0  0  0  0  0  0  0  0  0
  148.9852  134.9567  155.1493 C   0  0  0  0  0  0  0  0  0  0  0  0
  149.1379  134.5998  156.3175 O   0  0  0  0  0  0  0  0  0  0  0  0
  149.7140  135.9255  154.5738 N   0  0  0  0  0  0  0  0  0  0  0  0
  150.7440  136.7083  155.2471 C   0  0  0  0  0  0  0  0  0  0  0  0
  150.9520  138.0723  154.5594 C   0  0  0  0  0  0  0  0  0  0  0  0
  151.5144  139.1500  155.4921 C   0  0  0  0  0  0  0  0  0  0  0  0
  152.6010  139.6830  155.2641 O   0  0  0  0  0  0  0  0  0  0  0  0
  150.7517  139.4622  156.5509 N   0  0  0  0  0  0  0  0  0  0  0  0
  151.0975  140.4395  157.5765 C   0  0  0  0  0  0  0  0  0  0  0  0
  151.4360  141.8116  156.9697 C   0  0  0  0  0  0  0  0  0  0  0  0
  151.4889  142.9035  158.0213 C   0  0  0  0  0  0  0  0  0  0  0  0
  152.5026  142.9091  159.0031 C   0  0  0  0  0  0  0  0  0  0  0  0
  152.4996  143.9382  159.9646 C   0  0  0  0  0  0  0  0  0  0  0  0
  151.4882  144.9164  159.9078 C   0  0  0  0  0  0  0  0  0  0  0  0
  150.5203  144.8211  158.8882 C   0  0  0  0  0  0  0  0  0  0  0  0
  150.5132  143.8380  157.9622 N   0  0  0  0  0  0  0  0  0  0  0  0
  149.3948  132.1663  155.6179 H   0  0  0  0  0  0  0  0  0  0  0  0
  150.1601  132.0437  154.0244 H   0  0  0  0  0  0  0  0  0  0  0  0
  148.9230  130.8756  154.5090 H   0  0  0  0  0  0  0  0  0  0  0  0
  147.8848  132.5066  152.9496 H   0  0  0  0  0  0  0  0  0  0  0  0
  146.0153  133.3095  154.4105 H   0  0  0  0  0  0  0  0  0  0  0  0
  147.0739  133.1103  155.8959 H   0  0  0  0  0  0  0  0  0  0  0  0
  147.6863  134.8987  153.3872 H   0  0  0  0  0  0  0  0  0  0  0  0
  149.5369  136.1397  153.6031 H   0  0  0  0  0  0  0  0  0  0  0  0
  150.4824  136.8382  156.2990 H   0  0  0  0  0  0  0  0  0  0  0  0
  151.6697  136.1321  155.2258 H   0  0  0  0  0  0  0  0  0  0  0  0
  151.6280  137.9601  153.7109 H   0  0  0  0  0  0  0  0  0  0  0  0
  150.0028  138.4313  154.1583 H   0  0  0  0  0  0  0  0  0  0  0  0
  149.8733  138.9768  156.6619 H   0  0  0  0  0  0  0  0  0  0  0  0
  150.2457  140.5314  158.2509 H   0  0  0  0  0  0  0  0  0  0  0  0
  151.9308  140.0710  158.1773 H   0  0  0  0  0  0  0  0  0  0  0  0
  152.3959  141.7708  156.4534 H   0  0  0  0  0  0  0  0  0  0  0  0
  150.6946  142.0812  156.2161 H   0  0  0  0  0  0  0  0  0  0  0  0
  153.2630  142.1422  159.0225 H   0  0  0  0  0  0  0  0  0  0  0  0
  153.2580  143.9762  160.7322 H   0  0  0  0  0  0  0  0  0  0  0  0
  151.4541  145.7198  160.6287 H   0  0  0  0  0  0  0  0  0  0  0  0
  149.7298  145.5535  158.8157 H   0  0  0  0  0  0  0  0  0  0  0  0
  1  2  1  0  0  0  0
  1 21  1  0  0  0  0
  1 22  1  0  0  0  0
  1 23  1  0  0  0  0
  2  4  1  0  0  0  0
  2  3  1  0  0  0  0
  2 24  1  0  0  0  0
  3  4  1  0  0  0  0
  3 25  1  0  0  0  0
  3 26  1  0  0  0  0
  4  5  1  0  0  0  0
  4 27  1  0  0  0  0
  5  6  2  0  0  0  0
  5  7  1  0  0  0  0
  7  8  1  0  0  0  0
  7 28  1  0  0  0  0
  8  9  1  0  0  0  0
  8 29  1  0  0  0  0
  8 30  1  0  0  0  0
  9 10  1  0  0  0  0
  9 31  1  0  0  0  0
  9 32  1  0  0  0  0
 10 11  2  0  0  0  0
 10 12  1  0  0  0  0
 12 13  1  0  0  0  0
 12 33  1  0  0  0  0
 13 14  1  0  0  0  0
 13 34  1  0  0  0  0
 13 35  1  0  0  0  0
 14 15  1  0  0  0  0
 14 36  1  0  0  0  0
 14 37  1  0  0  0  0
 15 20  1  0  0  0  0
 15 16  2  0  0  0  0
 16 17  1  0  0  0  0
 16 38  1  0  0  0  0
 17 18  2  0  0  0  0
 17 39  1  0  0  0  0
 18 19  1  0  0  0  0
 18 40  1  0  0  0  0
 19 20  2  0  0  0  0
 19 41  1  0  0  0  0
M  END
> <s_m_source_file>
AV-unprocessed.smi

> <i_m_source_file_index>
1356

> <i_lp_mmshare_version>
43012

> <i_f3d_flags>
0

> <s_epik_input>
W0NIM11bQ0BASF0xW0NIMl1bQ0BIXTFDKD1PKVtOSF1bQ0gyXVtDSDJdQyg9TylbTkhdW0NIMl1bQ0gyXWMyW2NIXVtjSF1bY0hdW2NIXW4y

> <s_epik_cmdline>
J2VwaWtfcHl0aG9uJywgJy1waCcsICc3LjAnLCAnLXRuJywgJzgnLCAnLW1hJywgJzIwMCcsICctbWV0YWxfYmluZGluZycsICctaW1hZScsICc8aW5maWxlLm1hZT4nLCAnLW9tYWUnLCAnPG91dGZpbGUubWFlPic=

> <r_epik_Ionization_Penalty>
0.0258005

> <r_epik_Ionization_Penalty_Charging>
0

> <r_epik_Ionization_Penalty_Neutral>
0.0258005

> <r_epik_State_Penalty>
0.0210245

> <r_epik_Charging_Adjusted_Penalty>
0.0210245

> <i_epik_Tot_Q>
0

> <i_epik_Tot_abs_Q>
0

> <r_epik_Metal_State_Penalty>
0.0201445

> <b_epik_Metal_Only>
0

> <s_lp_Force_Field>
OPLS_2005

> <r_lp_Energy>
8.2515

> <b_lp_Chiralities_Consistent>
1

> <s_lp_Variant>
AV-unprocessed.smi:1356-2

> <Gold.Version>
5.8.1

> <Gold.Id.Protein>
6NUR|6NUR_protein|mol2

> <Gold.PLP.Fitness>
47.3823

> <Gold.PLP.PLP>
-38.2394

> <Gold.PLP.part.hbond>
-3.2813

> <Gold.PLP.part.metal>
0.0000

> <Gold.PLP.part.buried>
-4.9425

> <Gold.PLP.part.nonpolar>
-31.0927

> <Gold.PLP.part.repulsive>
0.9990

> <Gold.PLP.ligand.clash>
0.0000

> <Gold.PLP.ligand.torsion>
0.5112

> <Gold.PLP.Chemscore.Hbond>
2.3497

> <Gold.PLP.Chemscore.CHOScore>
0.9904

> <Gold.PLP.Chemscore.Metal>
0.0000

> <Gold.Chemscore.Hbonds>
donor molecule, donor type, donor heavy atom, donor atom, acceptor molecule, acceptor atom, score
      L1  H     7    28       P1  7948  1.00
      P1  H  7989  7998       L1    11  0.10
      P1  H  7997  8008       L1    11  1.00
      L1  C    19    41       P1  8029  1.00

> <Gold.PLP.Chemscore.Internal.Correction>
0.1451

> <Gold.Rescore>
     Score         DG    S(hbond)    S(metal)    S(lipo)     H(rot)  DE(clash)    DE(int)     intcor
     16.02     -17.66       1.89        0.00      97.80       2.18       0.02       1.61       ----

> <Gold.Chemscore.Fitness>
16.0215

> <Gold.Chemscore.DG>
-17.6581

> <Gold.Chemscore.ZeroCoef>
-5.4800

> <Gold.Chemscore.Hbond>
1.8874

> <Gold.Chemscore.Metal>
0.0000

> <Gold.Chemscore.Lipo>
97.8015

> <Gold.Chemscore.Internal_Hbond>
0.0000

> <Gold.Chemscore.DEClash>
0.0216

> <Gold.Chemscore.DEInternal>
1.6149

> <Gold.Chemscore.Rot>
2.1753

> <Gold.Chemscore.Internal.Correction>
   9.000000E+99

> <Gold.Chemscore.Hbonds>
donor molecule, donor type, donor heavy atom, donor atom, acceptor molecule, acceptor atom, score
      L1  H     7    28       P1  7948  0.50
      P1  H  7989  7998       L1    11  0.01
      P1  H  7997  8008       L1    11  0.96

> <Gold.Chemscore.Hbond.Weighted>
-6.3039

> <Gold.Chemscore.Metal.Weighted>
-0.0000

> <Gold.Chemscore.Lipo.Weighted>
-11.4428

> <Gold.Chemscore.Internal_Hbond.Weighted>
0.0000

> <Gold.Chemscore.DEClash.Weighted>
0.0216

> <Gold.Chemscore.DEInternal.Weighted>
1.6149

> <Gold.Chemscore.Rot.Weighted>
5.5687

> <Gold.Chemscore.Internal.Correction.Weighted>
   9.000000E+99

> <Gold.Protein.RotatedTorsions>
[ 6907 6896 6895 6894 ] final -138.11 input  -60.11 | X-H torsion
[ 7974 7965 7964 7962 ] final  172.48 input  175.53 | X-H torsion
[ 8008 7997 7996 7995 ] final  -22.58 input   59.86 | X-H torsion
[ 10167 10162 10161 10158 ] final -132.47 input  -65.29 | X-H torsion
[ 10718 10713 10712 10709 ] final  -80.47 input   66.30 | X-H torsion
[ 10763 10752 10751 10750 ] final   41.84 input  -60.55 | X-H torsion
[ 11005 11000 10999 10996 ] final  -44.27 input  -57.11 | X-H torsion

> <Gold.Protein.ActiveResidues>
 VAL166  LYS551  ARG553  GLY616  TRP617  ASP618  TYR619  PRO620  LYS621  CYS622 
 ASP623  PHE694  ASN695  SER759  ASP760  ASP761  ALA762  ILE779  LEU786  VAL792 
 PHE793  MET794  SER795  GLU796  ALA797  LYS798  CYS799  TRP800  GLU811  SER814 

> <Gold.Protein.RotatedAtoms>
  151.0309  133.5792  159.2660 H   0  0  0  0  0  0  0  0  0  0  0  0  # atno 6907 bound_to 6896
  151.2874  135.0731  159.9201 H   0  0  0  0  0  0  0  0  0  0  0  0  # atno 6908 bound_to 6896
  152.5344  134.0013  159.7950 H   0  0  0  0  0  0  0  0  0  0  0  0  # atno 6909 bound_to 6896
  144.7267  139.9505  143.6432 H   0  0  0  0  0  0  0  0  0  0  0  0  # atno 7974 bound_to 7965
  154.4636  140.2004  156.0178 H   0  0  0  0  0  0  0  0  0  0  0  0  # atno 8008 bound_to 7997
  156.0885  140.3261  155.7757 H   0  0  0  0  0  0  0  0  0  0  0  0  # atno 8009 bound_to 7997
  155.4995  140.0552  157.2932 H   0  0  0  0  0  0  0  0  0  0  0  0  # atno 8010 bound_to 7997
  139.9082  143.6525  152.2581 H   0  0  0  0  0  0  0  0  0  0  0  0  # atno 10167 bound_to 10162
  156.0069  130.4575  150.3805 H   0  0  0  0  0  0  0  0  0  0  0  0  # atno 10718 bound_to 10713
  152.9898  135.6149  154.2853 H   0  0  0  0  0  0  0  0  0  0  0  0  # atno 10763 bound_to 10752
  154.2581  135.2783  155.2791 H   0  0  0  0  0  0  0  0  0  0  0  0  # atno 10764 bound_to 10752
  154.5230  135.5809  153.6753 H   0  0  0  0  0  0  0  0  0  0  0  0  # atno 10765 bound_to 10752
  141.0439  133.6769  156.2849 H   0  0  0  0  0  0  0  0  0  0  0  0  # atno 11005 bound_to 11000
  146.0715  139.3703  143.0520 LP  0  0  0  0  0  0  0  0  0  0  0  0  # atno 17320 bound_to 7965
  145.7962  140.9792  143.1023 LP  0  0  0  0  0  0  0  0  0  0  0  0  # atno 17321 bound_to 7965
  139.6965  144.7640  151.1347 LP  0  0  0  0  0  0  0  0  0  0  0  0  # atno 17342 bound_to 10162
  140.7691  143.5516  150.9198 LP  0  0  0  0  0  0  0  0  0  0  0  0  # atno 17343 bound_to 10162
  157.1885  131.0409  151.2712 LP  0  0  0  0  0  0  0  0  0  0  0  0  # atno 17370 bound_to 10713
  157.4082  130.7371  149.6819 LP  0  0  0  0  0  0  0  0  0  0  0  0  # atno 17371 bound_to 10713
  140.6182  134.5388  157.5544 LP  0  0  0  0  0  0  0  0  0  0  0  0  # atno 17394 bound_to 11000
  139.9297  134.7987  156.0966 LP  0  0  0  0  0  0  0  0  0  0  0  0  # atno 17395 bound_to 11000

$$$$
