#       Name:                AV-unprocessed.smi:291
#       Creating user name   scv26
#       Creation time:       Thu Mar 26 22:13:17 2020


#       File generated by GOLD software.
#

@<TRIPOS>MOLECULE
AV-unprocessed.smi:291
    40    41     1
SMALL
NO_CHARGES


@<TRIPOS>ATOM
      1 ****        -4.2380  -2.2300   0.7006 C.3            1 S1                 0.0000
      2 ****        -2.7599  -1.8189   0.6392 C.3            1 S1                 0.0000
      3 ****        -2.3567  -0.9826   1.8687 C.3            1 S1                 0.0000
      4 ****        -0.8791  -0.5625   1.8108 C.3            1 S1                 0.0000
      5 ****        -0.5591   0.1971   0.5086 C.3            1 S1                 0.0000
      6 ****         0.8638   0.5128   0.4398 N.am           1 S1                 0.0000
      7 ****         1.4427   1.6166   0.9392 C.2            1 S1                 0.0000
      8 ****         0.8243   2.4968   1.5368 O.2            1 S1                 0.0000
      9 ****         2.9549   1.7457   0.7442 C.3            1 S1                 0.0000
     10 ****         3.3099   1.7747  -0.6638 N.pl3          1 S1                 0.0000
     11 ****         3.2225   2.7617  -1.5621 C.2            1 S1                 0.0000
     12 ****         3.6385   2.4237  -2.7765 N.2            1 S1                 0.0000
     13 ****         3.9902   1.1289  -2.5273 C.2            1 S1                 0.0000
     14 ****         4.5291   0.2737  -3.5711 C.1            1 S1                 0.0000
     15 ****         4.9584  -0.4079  -4.4018 N.1            1 S1                 0.0000
     16 ****         3.8179   0.6821  -1.2851 N.2            1 S1                 0.0000
     17 ****        -0.9617  -0.6367  -0.7209 C.3            1 S1                 0.0000
     18 ****        -2.4405  -1.0521  -0.6585 C.3            1 S1                 0.0000
     19 ****        -4.8933  -1.3583   0.6959 H              1 S1                 0.0000
     20 ****        -4.4491  -2.8003   1.6057 H              1 S1                 0.0000
     21 ****        -4.5080  -2.8539  -0.1520 H              1 S1                 0.0000
     22 ****        -2.1647  -2.7333   0.6446 H              1 S1                 0.0000
     23 ****        -2.9837  -0.0921   1.9313 H              1 S1                 0.0000
     24 ****        -2.5378  -1.5511   2.7816 H              1 S1                 0.0000
     25 ****        -0.6423   0.0582   2.6760 H              1 S1                 0.0000
     26 ****        -0.2485  -1.4497   1.8859 H              1 S1                 0.0000
     27 ****        -1.1362   1.1239   0.4899 H              1 S1                 0.0000
     28 ****         1.4546  -0.1569  -0.0318 H              1 S1                 0.0000
     29 ****         3.3155   2.6630   1.2121 H              1 S1                 0.0000
     30 ****         3.4625   0.9131   1.2335 H              1 S1                 0.0000
     31 ****         2.8447   3.7451  -1.3225 H              1 S1                 0.0000
     32 ****        -0.7789  -0.0684  -1.6339 H              1 S1                 0.0000
     33 ****        -0.3387  -1.5303  -0.7836 H              1 S1                 0.0000
     34 ****        -2.6830  -1.6683  -1.5249 H              1 S1                 0.0000
     35 ****        -3.0698  -0.1636  -0.7272 H              1 S1                 0.0000
     36 ****        -0.1628   2.4107   1.6717 LP             1 S1                 0.0000
     37 ****         1.3089   3.2982   1.8875 LP             1 S1                 0.0000
     38 ****         3.6813   2.9578  -3.6209 LP             1 S1                 0.0000
     39 ****         5.3294  -0.9970  -5.1197 LP             1 S1                 0.0000
     40 ****         4.0125  -0.2236  -0.9085 LP             1 S1                 0.0000
@<TRIPOS>BOND
    1    1    2 1     
    2    1   19 1     
    3    1   20 1     
    4    1   21 1     
    5    2   18 1     
    6    2    3 1     
    7    2   22 1     
    8    3    4 1     
    9    3   23 1     
   10    3   24 1     
   11    4    5 1     
   12    4   25 1     
   13    4   26 1     
   14    5    6 1     
   15    5   17 1     
   16    5   27 1     
   17    6    7 am    
   18    6   28 1     
   19    7    8 2     
   20    7    9 1     
   21    9   10 1     
   22    9   29 1     
   23    9   30 1     
   24   10   16 1     
   25   10   11 1     
   26   11   12 2     
   27   11   31 1     
   28   12   13 1     
   29   13   14 1     
   30   13   16 2     
   31   14   15 3     
   32   17   18 1     
   33   17   32 1     
   34   17   33 1     
   35   18   34 1     
   36   18   35 1     
   37    8   36 1     
   38    8   37 1     
   39   12   38 1     
   40   15   39 1     
   41   16   40 1     
@<TRIPOS>SUBSTRUCTURE
      1 S1             1
@<TRIPOS>SET
LONE_PAIRS      STATIC     ATOMS    <user>   **** ""
5 36 37 38 39 40
DONOR_HYDROGENS      STATIC     ATOMS    <user>   **** ""
1 28
ATOM$BLUE        STATIC     ATOMS    COLORGROUP SYSTEM
5 36 37 38 39 40
ATOM$RED        STATIC     ATOMS    COLORGROUP SYSTEM
1 28
