AV-unprocessed.smi:115|AV-procd|sdf|1124|dock2
  -GOLD-   2262018243D 1   1.00000     0.00000
 Structure written by MMmdl.
 55 57  0  0  0  0  0  0  0  0  1 V2000
  151.1608  145.4415  159.7811 C   0  0  0  0  0  0  0  0  0  0  0  0
  151.5040  144.3454  158.9511 O   0  0  0  0  0  0  0  0  0  0  0  0
  152.3165  143.3910  159.6160 C   0  0  0  0  0  0  0  0  0  0  0  0
  152.8514  142.3773  158.5837 C   0  0  1  0  0  0  0  0  0  0  0  0
  154.2888  141.9050  158.8620 C   0  0  0  0  0  0  0  0  0  0  0  0
  151.9384  141.2480  158.3416 N   0  0  0  0  0  0  0  0  0  0  0  0
  151.0222  141.2017  157.2915 C   0  0  0  0  0  0  0  0  0  0  0  0
  150.8654  142.2950  156.2816 C   0  0  0  0  0  0  0  0  0  0  0  0
  150.3382  140.0274  157.3819 C   0  0  0  0  0  0  0  0  0  0  0  0
  150.8349  139.2980  158.4943 C   0  0  0  0  0  0  0  0  0  0  0  0
  150.3684  137.9811  159.0000 C   0  0  0  0  0  0  0  0  0  0  0  0
  150.9865  137.3195  159.8354 O   0  0  0  0  0  0  0  0  0  0  0  0
  149.0312  137.4787  158.4238 C   0  0  0  0  0  0  0  0  0  0  0  0
  148.5268  136.2922  159.1054 N   0  0  0  0  0  0  0  0  0  0  0  0
  148.5238  135.0714  158.3862 C   0  0  0  0  0  0  0  0  0  0  0  0
  148.9442  134.9902  157.2306 O   0  0  0  0  0  0  0  0  0  0  0  0
  147.9875  133.9359  159.1267 C   0  0  0  0  0  0  0  0  0  0  0  0
  147.8776  132.7406  158.5222 F   0  0  0  0  0  0  0  0  0  0  0  0
  147.5816  134.0675  160.4077 C   0  0  0  0  0  0  0  0  0  0  0  0
  147.6641  135.2568  161.1142 N   0  0  0  0  0  0  0  0  0  0  0  0
  147.1153  135.3823  162.5210 C   0  0  2  0  0  0  0  0  0  0  0  0
  146.6859  134.0448  163.1499 C   0  0  0  0  0  0  0  0  0  0  0  0
  145.1728  134.1279  163.0892 C   0  0  0  0  0  0  0  0  0  0  0  0
  144.9406  135.6283  163.2183 C   0  0  0  0  0  0  0  0  0  0  0  0
  145.9931  136.2111  162.4609 O   0  0  0  0  0  0  0  0  0  0  0  0
  148.0975  136.4267  160.4486 C   0  0  0  0  0  0  0  0  0  0  0  0
  148.1123  137.5169  161.0251 O   0  0  0  0  0  0  0  0  0  0  0  0
  151.8474  140.0435  159.0570 C   0  0  0  0  0  0  0  0  0  0  0  0
  152.7428  139.7235  160.2222 C   0  0  0  0  0  0  0  0  0  0  0  0
  150.5443  146.1451  159.2219 H   0  0  0  0  0  0  0  0  0  0  0  0
  152.0504  145.9716  160.1238 H   0  0  0  0  0  0  0  0  0  0  0  0
  150.5912  145.1134  160.6517 H   0  0  0  0  0  0  0  0  0  0  0  0
  153.1233  143.9088  160.1328 H   0  0  0  0  0  0  0  0  0  0  0  0
  151.7178  142.8741  160.3682 H   0  0  0  0  0  0  0  0  0  0  0  0
  152.9029  142.9475  157.6578 H   0  0  0  0  0  0  0  0  0  0  0  0
  154.9699  142.7540  158.9263 H   0  0  0  0  0  0  0  0  0  0  0  0
  154.6473  141.2611  158.0585 H   0  0  0  0  0  0  0  0  0  0  0  0
  154.3771  141.3478  159.7924 H   0  0  0  0  0  0  0  0  0  0  0  0
  150.1632  142.0032  155.5004 H   0  0  0  0  0  0  0  0  0  0  0  0
  151.8164  142.5243  155.8001 H   0  0  0  0  0  0  0  0  0  0  0  0
  150.4835  143.2048  156.7455 H   0  0  0  0  0  0  0  0  0  0  0  0
  149.5477  139.7259  156.7103 H   0  0  0  0  0  0  0  0  0  0  0  0
  148.2669  138.2552  158.4763 H   0  0  0  0  0  0  0  0  0  0  0  0
  149.1274  137.2410  157.3631 H   0  0  0  0  0  0  0  0  0  0  0  0
  147.1716  133.1913  160.8838 H   0  0  0  0  0  0  0  0  0  0  0  0
  147.9039  135.8411  163.1188 H   0  0  0  0  0  0  0  0  0  0  0  0
  147.1197  133.1741  162.6580 H   0  0  0  0  0  0  0  0  0  0  0  0
  147.0136  134.0395  164.1903 H   0  0  0  0  0  0  0  0  0  0  0  0
  144.8032  133.7732  162.1270 H   0  0  0  0  0  0  0  0  0  0  0  0
  144.6824  133.5524  163.8748 H   0  0  0  0  0  0  0  0  0  0  0  0
  143.9620  135.9376  162.8507 H   0  0  0  0  0  0  0  0  0  0  0  0
  145.0312  135.9432  164.2590 H   0  0  0  0  0  0  0  0  0  0  0  0
  152.9093  138.6517  160.3179 H   0  0  0  0  0  0  0  0  0  0  0  0
  152.3070  140.0803  161.1555 H   0  0  0  0  0  0  0  0  0  0  0  0
  153.7333  140.1562  160.1179 H   0  0  0  0  0  0  0  0  0  0  0  0
  1  2  1  0  0  0  0
  1 30  1  0  0  0  0
  1 31  1  0  0  0  0
  1 32  1  0  0  0  0
  2  3  1  0  0  0  0
  3  4  1  0  0  0  0
  3 33  1  0  0  0  0
  3 34  1  0  0  0  0
  4  5  1  0  0  0  0
  4  6  1  0  0  0  0
  4 35  1  0  0  0  0
  5 36  1  0  0  0  0
  5 37  1  0  0  0  0
  5 38  1  0  0  0  0
  6 28  1  0  0  0  0
  6  7  1  0  0  0  0
  7  8  1  0  0  0  0
  7  9  2  0  0  0  0
  8 39  1  0  0  0  0
  8 40  1  0  0  0  0
  8 41  1  0  0  0  0
  9 10  1  0  0  0  0
  9 42  1  0  0  0  0
 10 11  1  0  0  0  0
 10 28  2  0  0  0  0
 11 12  2  0  0  0  0
 11 13  1  0  0  0  0
 13 14  1  0  0  0  0
 13 43  1  0  0  0  0
 13 44  1  0  0  0  0
 14 26  1  0  0  0  0
 14 15  1  0  0  0  0
 15 16  2  0  0  0  0
 15 17  1  0  0  0  0
 17 18  1  0  0  0  0
 17 19  2  0  0  0  0
 19 20  1  0  0  0  0
 19 45  1  0  0  0  0
 20 21  1  0  0  0  0
 20 26  1  0  0  0  0
 21 25  1  0  0  0  0
 21 22  1  0  0  0  0
 21 46  1  0  0  0  0
 22 23  1  0  0  0  0
 22 47  1  0  0  0  0
 22 48  1  0  0  0  0
 23 24  1  0  0  0  0
 23 49  1  0  0  0  0
 23 50  1  0  0  0  0
 24 25  1  0  0  0  0
 24 51  1  0  0  0  0
 24 52  1  0  0  0  0
 26 27  2  0  0  0  0
 28 29  1  0  0  0  0
 29 53  1  0  0  0  0
 29 54  1  0  0  0  0
 29 55  1  0  0  0  0
M  END
> <s_m_source_file>
AV-unprocessed.smi

> <i_m_source_file_index>
115

> <i_lp_mmshare_version>
43012

> <i_f3d_flags>
0

> <s_epik_input>
W0NIM11PW0NIMl1bQ0BIXShbQ0gzXSluMWMoW0NIM10pW2NIXWMoYzFbQ0gzXSlDKD1PKVtDSDJdbjJjKD1PKWMoRilbY0hdbihjMj1PKVtDQEBIXTNbQ0gyXVtDSDJdW0NIMl1PMw==

> <s_epik_cmdline>
J2VwaWtfcHl0aG9uJywgJy1waCcsICc3LjAnLCAnLXRuJywgJzgnLCAnLW1hJywgJzIwMCcsICctbWV0YWxfYmluZGluZycsICctaW1hZScsICc8aW5maWxlLm1hZT4nLCAnLW9tYWUnLCAnPG91dGZpbGUubWFlPic=

> <r_lp_tautomer_probability>
1

> <r_epik_Ionization_Penalty>
5.02611e-09

> <r_epik_Ionization_Penalty_Charging>
5.01743e-09

> <r_epik_Ionization_Penalty_Neutral>
8.68114e-12

> <r_epik_State_Penalty>
-0

> <r_epik_Charging_Adjusted_Penalty>
5.01743e-09

> <i_epik_Tot_Q>
0

> <i_epik_Tot_abs_Q>
0

> <r_epik_Metal_State_Penalty>
-0

> <b_epik_Metal_Only>
0

> <s_epik_Chemistry_Notes>
This compound contains an acetal/aminal-like group ( X-CH(R)-Y where X, Y are N, S, or O) that may be acid/base labile, releasing an aldehyde.

> <s_lp_Force_Field>
OPLS_2005

> <r_lp_Energy>
46.8154

> <b_lp_Chiralities_Consistent>
1

> <s_lp_Variant>
AV-unprocessed.smi:115-2

> <Gold.Version>
5.8.1

> <Gold.Id.Protein>
6NUR|6NUR_protein|mol2

> <Gold.PLP.Fitness>
50.5231

> <Gold.PLP.PLP>
-44.9544

> <Gold.PLP.part.hbond>
-2.9788

> <Gold.PLP.part.metal>
0.0000

> <Gold.PLP.part.buried>
-7.3435

> <Gold.PLP.part.nonpolar>
-35.3837

> <Gold.PLP.part.repulsive>
0.0702

> <Gold.PLP.ligand.clash>
0.0040

> <Gold.PLP.ligand.torsion>
1.2633

> <Gold.PLP.Chemscore.Hbond>
2.5617

> <Gold.PLP.Chemscore.CHOScore>
0.0000

> <Gold.PLP.Chemscore.Metal>
0.0000

> <Gold.Chemscore.Hbonds>
donor molecule, donor type, donor heavy atom, donor atom, acceptor molecule, acceptor atom, score
      P1  H  6896  6908       L1    12  0.59
      P1  H  6931  6943       L1    27  0.66
      P1  H  6934  6947       L1    27  0.59

> <Gold.PLP.Chemscore.Internal.Correction>
0.4142

> <Gold.Rescore>
     Score         DG    S(hbond)    S(metal)    S(lipo)     H(rot)  DE(clash)    DE(int)     intcor
     15.77     -21.71       2.66        0.00     110.67       2.19       0.45       5.49       ----

> <Gold.Chemscore.Fitness>
15.7724

> <Gold.Chemscore.DG>
-21.7096

> <Gold.Chemscore.ZeroCoef>
-5.4800

> <Gold.Chemscore.Hbond>
2.6638

> <Gold.Chemscore.Metal>
0.0000

> <Gold.Chemscore.Lipo>
110.6716

> <Gold.Chemscore.Internal_Hbond>
0.0000

> <Gold.Chemscore.DEClash>
0.4459

> <Gold.Chemscore.DEInternal>
5.4913

> <Gold.Chemscore.Rot>
2.1938

> <Gold.Chemscore.Internal.Correction>
   9.000000E+99

> <Gold.Chemscore.Hbonds>
donor molecule, donor type, donor heavy atom, donor atom, acceptor molecule, acceptor atom, score
      P1  H  6896  6908       L1    12  0.58
      P1  H  6931  6943       L1    27  0.65
      P1  H  6934  6947       L1    27  0.58

> <Gold.Chemscore.Hbond.Weighted>
-8.8971

> <Gold.Chemscore.Metal.Weighted>
-0.0000

> <Gold.Chemscore.Lipo.Weighted>
-12.9486

> <Gold.Chemscore.Internal_Hbond.Weighted>
0.0000

> <Gold.Chemscore.DEClash.Weighted>
0.4459

> <Gold.Chemscore.DEInternal.Weighted>
5.4913

> <Gold.Chemscore.Rot.Weighted>
5.6160

> <Gold.Chemscore.Internal.Correction.Weighted>
   9.000000E+99

> <Gold.Protein.RotatedTorsions>
[ 6907 6896 6895 6894 ] final -131.80 input  -60.11 | X-H torsion
[ 7974 7965 7964 7962 ] final -178.72 input  175.53 | X-H torsion
[ 8008 7997 7996 7995 ] final  108.50 input   59.86 | X-H torsion
[ 10167 10162 10161 10158 ] final  132.96 input  -65.29 | X-H torsion
[ 10718 10713 10712 10709 ] final  -90.42 input   66.30 | X-H torsion
[ 10763 10752 10751 10750 ] final  -46.56 input  -60.55 | X-H torsion
[ 11005 11000 10999 10996 ] final   33.37 input  -57.11 | X-H torsion

> <Gold.Protein.ActiveResidues>
 VAL166  LYS551  ARG553  GLY616  TRP617  ASP618  TYR619  PRO620  LYS621  CYS622 
 ASP623  PHE694  ASN695  SER759  ASP760  ASP761  ALA762  ILE779  LEU786  VAL792 
 PHE793  MET794  SER795  GLU796  ALA797  LYS798  CYS799  TRP800  GLU811  SER814 

> <Gold.Protein.RotatedAtoms>
  150.9551  133.6506  159.2764 H   0  0  0  0  0  0  0  0  0  0  0  0  # atno 6907 bound_to 6896
  151.3848  135.0945  159.9517 H   0  0  0  0  0  0  0  0  0  0  0  0  # atno 6908 bound_to 6896
  152.5126  133.9078  159.7528 H   0  0  0  0  0  0  0  0  0  0  0  0  # atno 6909 bound_to 6896
  144.7132  140.0826  143.6425 H   0  0  0  0  0  0  0  0  0  0  0  0  # atno 7974 bound_to 7965
  156.1908  140.3075  155.9328 H   0  0  0  0  0  0  0  0  0  0  0  0  # atno 8008 bound_to 7997
  155.3178  140.0454  157.3055 H   0  0  0  0  0  0  0  0  0  0  0  0  # atno 8009 bound_to 7997
  154.5450  140.2273  155.8588 H   0  0  0  0  0  0  0  0  0  0  0  0  # atno 8010 bound_to 7997
  139.5317  144.6638  151.4927 H   0  0  0  0  0  0  0  0  0  0  0  0  # atno 10167 bound_to 10162
  155.9988  130.4909  150.5321 H   0  0  0  0  0  0  0  0  0  0  0  0  # atno 10718 bound_to 10713
  154.0470  135.6636  153.4796 H   0  0  0  0  0  0  0  0  0  0  0  0  # atno 10763 bound_to 10752
  153.0479  135.5103  154.7788 H   0  0  0  0  0  0  0  0  0  0  0  0  # atno 10764 bound_to 10752
  154.6782  135.3040  154.9616 H   0  0  0  0  0  0  0  0  0  0  0  0  # atno 10765 bound_to 10752
  140.2638  134.3162  155.7849 H   0  0  0  0  0  0  0  0  0  0  0  0  # atno 11005 bound_to 11000
  145.9689  139.2855  143.1110 LP  0  0  0  0  0  0  0  0  0  0  0  0  # atno 17320 bound_to 7965
  145.9138  140.9162  143.0440 LP  0  0  0  0  0  0  0  0  0  0  0  0  # atno 17321 bound_to 7965
  140.6499  143.8718  150.6775 LP  0  0  0  0  0  0  0  0  0  0  0  0  # atno 17342 bound_to 10162
  140.2079  143.3907  152.1741 LP  0  0  0  0  0  0  0  0  0  0  0  0  # atno 17343 bound_to 10162
  157.3268  131.0692  151.1890 LP  0  0  0  0  0  0  0  0  0  0  0  0  # atno 17370 bound_to 10713
  157.2785  130.6738  149.6054 LP  0  0  0  0  0  0  0  0  0  0  0  0  # atno 17371 bound_to 10713
  141.2187  133.7425  156.9228 LP  0  0  0  0  0  0  0  0  0  0  0  0  # atno 17394 bound_to 11000
  140.1439  134.9275  157.2503 LP  0  0  0  0  0  0  0  0  0  0  0  0  # atno 17395 bound_to 11000

$$$$
