#       Name:                AV-unprocessed.smi:2930
#       Creating user name   scv26
#       Creation time:       Fri Mar 27 16:13:31 2020


#       File generated by GOLD software.
#

@<TRIPOS>MOLECULE
AV-unprocessed.smi:2930
    44    45     1
SMALL
NO_CHARGES


@<TRIPOS>ATOM
      1 ****        -4.2865   0.6238  -1.7370 C.3            1 S1                 0.0000
      2 ****        -3.2840   0.8726  -0.6017 C.3            1 S1                 0.0000
      3 ****        -2.1145   0.0198  -0.7992 N.am           1 S1                 0.0000
      4 ****        -0.8436   0.3627  -0.5439 C.2            1 S1                 0.0000
      5 ****        -0.5082   1.4655  -0.1127 O.2            1 S1                 0.0000
      6 ****        -0.0036  -0.6449  -0.8347 N.am           1 S1                 0.0000
      7 ****         1.4076  -0.6913  -0.6788 C.ar           1 S1                 0.0000
      8 ****         2.1700   0.1812   0.1342 C.ar           1 S1                 0.0000
      9 ****         3.5100   0.0578   0.2430 N.ar           1 S1                 0.0000
     10 ****         4.1052  -0.9260  -0.4442 C.ar           1 S1                 0.0000
     11 ****         5.4930  -1.0451  -0.3268 N.pl3          1 S1                 0.0000
     12 ****         6.2237  -2.0973  -1.0272 C.3            1 S1                 0.0000
     13 ****         6.2619  -0.1293   0.5110 C.3            1 S1                 0.0000
     14 ****         3.4746  -1.8077  -1.2313 N.ar           1 S1                 0.0000
     15 ****         2.1347  -1.6962  -1.3472 C.ar           1 S1                 0.0000
     16 ****        -3.8989   0.6115   0.7748 C.3            1 S1                 0.0000
     17 ****        -5.0606   1.4845   1.2743 C.3            1 S1                 0.0000
     18 ****        -4.4984   1.3425   2.6914 C.3            1 S1                 0.0000
     19 ****        -3.1460   1.0195   2.0513 C.3            1 S1                 0.0000
     20 ****        -5.1583   1.2715  -1.6409 H              1 S1                 0.0000
     21 ****        -4.6383  -0.4085  -1.7378 H              1 S1                 0.0000
     22 ****        -3.8357   0.8240  -2.7095 H              1 S1                 0.0000
     23 ****        -2.9806   1.9191  -0.6663 H              1 S1                 0.0000
     24 ****        -2.2899  -0.9082  -1.1552 H              1 S1                 0.0000
     25 ****        -0.4206  -1.4647  -1.2507 H              1 S1                 0.0000
     26 ****         1.7286   0.9709   0.7215 H              1 S1                 0.0000
     27 ****         6.0850  -2.0038  -2.1047 H              1 S1                 0.0000
     28 ****         5.8653  -3.0795  -0.7177 H              1 S1                 0.0000
     29 ****         7.2939  -2.0556  -0.8250 H              1 S1                 0.0000
     30 ****         5.9366  -0.2024   1.5492 H              1 S1                 0.0000
     31 ****         6.1224   0.8997   0.1783 H              1 S1                 0.0000
     32 ****         7.3297  -0.3461   0.4802 H              1 S1                 0.0000
     33 ****         1.6404  -2.4166  -1.9826 H              1 S1                 0.0000
     34 ****        -4.1948  -0.4357   0.8701 H              1 S1                 0.0000
     35 ****        -5.0109   2.5096   0.9030 H              1 S1                 0.0000
     36 ****        -6.0513   1.0525   1.1295 H              1 S1                 0.0000
     37 ****        -4.5157   2.2570   3.2847 H              1 S1                 0.0000
     38 ****        -4.9233   0.4964   3.2336 H              1 S1                 0.0000
     39 ****        -2.5922   0.2119   2.5310 H              1 S1                 0.0000
     40 ****        -2.5248   1.9061   1.9134 H              1 S1                 0.0000
     41 ****        -1.2010   2.1641   0.0664 LP             1 S1                 0.0000
     42 ****         0.4570   1.6629   0.0586 LP             1 S1                 0.0000
     43 ****         4.0408   0.6805   0.8178 LP             1 S1                 0.0000
     44 ****         3.9786  -2.5229  -1.7156 LP             1 S1                 0.0000
@<TRIPOS>BOND
    1    1    2 1     
    2    1   20 1     
    3    1   21 1     
    4    1   22 1     
    5    2    3 1     
    6    2   16 1     
    7    2   23 1     
    8    3    4 am    
    9    3   24 1     
   10    4    5 2     
   11    4    6 am    
   12    6    7 1     
   13    6   25 1     
   14    7   15 ar    
   15    7    8 ar    
   16    8    9 ar    
   17    8   26 1     
   18    9   10 ar    
   19   10   11 1     
   20   10   14 ar    
   21   11   12 1     
   22   11   13 1     
   23   12   27 1     
   24   12   28 1     
   25   12   29 1     
   26   13   30 1     
   27   13   31 1     
   28   13   32 1     
   29   14   15 ar    
   30   15   33 1     
   31   16   19 1     
   32   16   17 1     
   33   16   34 1     
   34   17   18 1     
   35   17   35 1     
   36   17   36 1     
   37   18   19 1     
   38   18   37 1     
   39   18   38 1     
   40   19   39 1     
   41   19   40 1     
   42    5   41 1     
   43    5   42 1     
   44    9   43 1     
   45   14   44 1     
@<TRIPOS>SUBSTRUCTURE
      1 S1             1
@<TRIPOS>SET
LONE_PAIRS      STATIC     ATOMS    <user>   **** ""
4 41 42 43 44
DONOR_HYDROGENS      STATIC     ATOMS    <user>   **** ""
2 24 25
ATOM$BLUE        STATIC     ATOMS    COLORGROUP SYSTEM
4 41 42 43 44
ATOM$RED        STATIC     ATOMS    COLORGROUP SYSTEM
2 24 25
