AV-unprocessed.smi:743|AV-procd|sdf|3563|dock1
  -GOLD-   22720 0563D 1   1.00000     0.00000
 Structure written by MMmdl.
 29 30  0  0  0  0  0  0  0  0  2 V2000
  142.5352  137.4989  153.0993 C   0  0  0  0  0  0  0  0  0  0  0  0
  143.0860  136.2378  152.6509 N   0  0  0  0  0  0  0  0  0  0  0  0
  144.1716  136.0152  151.8325 C   0  0  0  0  0  0  0  0  0  0  0  0
  144.3169  134.6609  151.6945 C   0  0  0  0  0  0  0  0  0  0  0  0
  145.3513  133.8733  150.9153 C   0  0  1  0  0  0  0  0  0  0  0  0
  146.1842  133.0730  151.8172 N   0  0  0  0  0  0  0  0  0  0  0  0
  146.0307  131.7665  152.1037 C   0  0  0  0  0  0  0  0  0  0  0  0
  146.7120  131.2166  152.9651 O   0  0  0  0  0  0  0  0  0  0  0  0
  145.0175  130.9340  151.2997 C   0  0  0  0  0  0  0  0  0  0  0  0
  144.0250  131.7677  150.4689 C   0  0  0  0  0  0  0  0  0  0  0  0
  144.7195  132.9749  149.8242 C   0  0  1  0  0  0  0  0  0  0  0  0
  143.8093  133.7191  148.9338 N   0  3  0  0  0  0  0  0  0  0  0  0
  143.2401  134.1416  152.4709 C   0  0  0  0  0  0  0  0  0  0  0  0
  142.5128  135.0838  153.0461 N   0  0  0  0  0  0  0  0  0  0  0  0
  145.5211  132.5959  149.1883 H   0  0  0  0  0  0  0  0  0  0  0  0
  143.1289  138.3263  152.7098 H   0  0  0  0  0  0  0  0  0  0  0  0
  142.5436  137.5396  154.1890 H   0  0  0  0  0  0  0  0  0  0  0  0
  141.5093  137.6010  152.7440 H   0  0  0  0  0  0  0  0  0  0  0  0
  144.7503  136.8312  151.4245 H   0  0  0  0  0  0  0  0  0  0  0  0
  146.0291  134.5693  150.4195 H   0  0  0  0  0  0  0  0  0  0  0  0
  146.8925  133.5750  152.3338 H   0  0  0  0  0  0  0  0  0  0  0  0
  145.5920  130.2925  150.6309 H   0  0  0  0  0  0  0  0  0  0  0  0
  144.4751  130.2693  151.9728 H   0  0  0  0  0  0  0  0  0  0  0  0
  143.5813  131.1358  149.6989 H   0  0  0  0  0  0  0  0  0  0  0  0
  143.2005  132.0979  151.1025 H   0  0  0  0  0  0  0  0  0  0  0  0
  144.2798  134.5427  148.5865 H   0  0  0  0  0  0  0  0  0  0  0  0
  142.9844  133.9945  149.4476 H   0  0  0  0  0  0  0  0  0  0  0  0
  142.9717  133.1088  152.6377 H   0  0  0  0  0  0  0  0  0  0  0  0
  143.5411  133.1322  148.1567 H   0  0  0  0  0  0  0  0  0  0  0  0
  1  2  1  0  0  0  0
  1 16  1  0  0  0  0
  1 17  1  0  0  0  0
  1 18  1  0  0  0  0
  2 14  1  0  0  0  0
  2  3  1  0  0  0  0
  3  4  2  0  0  0  0
  3 19  1  0  0  0  0
  4  5  1  0  0  0  0
  4 13  1  0  0  0  0
  5 11  1  0  0  0  0
  5  6  1  0  0  0  0
  5 20  1  0  0  0  0
  6  7  1  0  0  0  0
  6 21  1  0  0  0  0
  7  8  2  0  0  0  0
  7  9  1  0  0  0  0
  9 10  1  0  0  0  0
  9 22  1  0  0  0  0
  9 23  1  0  0  0  0
 10 11  1  0  0  0  0
 10 24  1  0  0  0  0
 10 25  1  0  0  0  0
 11 15  1  0  0  0  0
 11 12  1  0  0  0  0
 12 26  1  0  0  0  0
 12 27  1  0  0  0  0
 12 29  1  0  0  0  0
 13 14  2  0  0  0  0
 13 28  1  0  0  0  0
M  CHG  1  12   1
M  END
> <s_m_source_file>
AV-unprocessed.smi

> <i_m_source_file_index>
743

> <i_lp_mmshare_version>
43012

> <i_f3d_flags>
0

> <s_epik_input>
W0NIM11uMVtjSF1jKFtjSF1uMSlbQ0BASF0yW05IXUMoPU8pW0NIMl1bQ0gyXVtDQEBIXTJbTkgyXQ==

> <s_epik_cmdline>
J2VwaWtfcHl0aG9uJywgJy1waCcsICc3LjAnLCAnLXRuJywgJzgnLCAnLW1hJywgJzIwMCcsICctbWV0YWxfYmluZGluZycsICctaW1hZScsICc8aW5maWxlLm1hZT4nLCAnLW9tYWUnLCAnPG91dGZpbGUubWFlPic=

> <r_lp_tautomer_probability>
1

> <r_epik_Ionization_Penalty>
0.00878543

> <r_epik_Ionization_Penalty_Charging>
0.00874185

> <r_epik_Ionization_Penalty_Neutral>
4.35793e-05

> <r_epik_State_Penalty>
0.00660351

> <r_epik_Charging_Adjusted_Penalty>
0.0153454

> <i_epik_Tot_Q>
1

> <i_epik_Tot_abs_Q>
1

> <r_epik_Metal_State_Penalty>
0.00660727

> <b_epik_Metal_Only>
0

> <s_lp_Force_Field>
OPLS_2005

> <r_lp_Energy>
11.1602

> <b_lp_Chiralities_Consistent>
1

> <s_lp_Variant>
AV-unprocessed.smi:743-4

> <Gold.Version>
5.8.1

> <Gold.Id.Protein>
6NUR|6NUR_protein|mol2

> <Gold.PLP.Fitness>
39.2945

> <Gold.PLP.PLP>
-25.9695

> <Gold.PLP.part.hbond>
-2.0000

> <Gold.PLP.part.metal>
0.0000

> <Gold.PLP.part.buried>
-4.7565

> <Gold.PLP.part.nonpolar>
-19.6985

> <Gold.PLP.part.repulsive>
0.4915

> <Gold.PLP.ligand.clash>
0.0000

> <Gold.PLP.ligand.torsion>
0.0190

> <Gold.PLP.Chemscore.Hbond>
2.5543

> <Gold.PLP.Chemscore.CHOScore>
1.8938

> <Gold.PLP.Chemscore.Metal>
0.0000

> <Gold.Chemscore.Hbonds>
donor molecule, donor type, donor heavy atom, donor atom, acceptor molecule, acceptor atom, score
      L1  H    12    26       P1  7921  0.54
      L1  H    12    27       P1 10186  2.00
      L1  C     3    19       P1 10171  0.88
      L1  C    13    28       P1 10957  0.99

> <Gold.PLP.Chemscore.Internal.Correction>
0.0187

> <Gold.Rescore>
     Score         DG    S(hbond)    S(metal)    S(lipo)     H(rot)  DE(clash)    DE(int)     intcor
     14.26     -14.45       1.61        0.00      52.65       1.00       0.16       0.03       ----

> <Gold.Chemscore.Fitness>
14.2579

> <Gold.Chemscore.DG>
-14.4492

> <Gold.Chemscore.ZeroCoef>
-5.4800

> <Gold.Chemscore.Hbond>
1.6075

> <Gold.Chemscore.Metal>
0.0000

> <Gold.Chemscore.Lipo>
52.6519

> <Gold.Chemscore.Internal_Hbond>
0.0000

> <Gold.Chemscore.DEClash>
0.1616

> <Gold.Chemscore.DEInternal>
0.0297

> <Gold.Chemscore.Rot>
1.0000

> <Gold.Chemscore.Internal.Correction>
   9.000000E+99

> <Gold.Chemscore.Hbonds>
donor molecule, donor type, donor heavy atom, donor atom, acceptor molecule, acceptor atom, score
      L1  H    12    26       P1  7921  0.53
      L1  H    12    27       P1 10186  0.90

> <Gold.Chemscore.Hbond.Weighted>
-5.3689

> <Gold.Chemscore.Metal.Weighted>
-0.0000

> <Gold.Chemscore.Lipo.Weighted>
-6.1603

> <Gold.Chemscore.Internal_Hbond.Weighted>
0.0000

> <Gold.Chemscore.DEClash.Weighted>
0.1616

> <Gold.Chemscore.DEInternal.Weighted>
0.0297

> <Gold.Chemscore.Rot.Weighted>
2.5600

> <Gold.Chemscore.Internal.Correction.Weighted>
   9.000000E+99

> <Gold.Protein.RotatedTorsions>
[ 6907 6896 6895 6894 ] final  -22.35 input  -60.11 | X-H torsion
[ 7974 7965 7964 7962 ] final   36.82 input  175.53 | X-H torsion
[ 8008 7997 7996 7995 ] final  114.66 input   59.86 | X-H torsion
[ 10167 10162 10161 10158 ] final -128.23 input  -65.29 | X-H torsion
[ 10718 10713 10712 10709 ] final  -39.83 input   66.30 | X-H torsion
[ 10763 10752 10751 10750 ] final -117.19 input  -60.55 | X-H torsion
[ 11005 11000 10999 10996 ] final  100.83 input  -57.11 | X-H torsion

> <Gold.Protein.ActiveResidues>
 VAL166  LYS551  ARG553  GLY616  TRP617  ASP618  TYR619  PRO620  LYS621  CYS622 
 ASP623  PHE694  ASN695  SER759  ASP760  ASP761  ALA762  ILE779  LEU786  VAL792 
 PHE793  MET794  SER795  GLU796  ALA797  LYS798  CYS799  TRP800  GLU811  SER814 

> <Gold.Protein.RotatedAtoms>
  151.2199  135.0514  159.8945 H   0  0  0  0  0  0  0  0  0  0  0  0  # atno 6907 bound_to 6896
  152.5416  134.0652  159.8180 H   0  0  0  0  0  0  0  0  0  0  0  0  # atno 6908 bound_to 6896
  151.0817  133.5337  159.2652 H   0  0  0  0  0  0  0  0  0  0  0  0  # atno 6909 bound_to 6896
  146.1183  139.5971  142.9306 H   0  0  0  0  0  0  0  0  0  0  0  0  # atno 7974 bound_to 7965
  156.2335  140.2954  156.0250 H   0  0  0  0  0  0  0  0  0  0  0  0  # atno 8008 bound_to 7997
  155.2158  140.0414  157.2958 H   0  0  0  0  0  0  0  0  0  0  0  0  # atno 8009 bound_to 7997
  154.6037  140.2433  155.7766 H   0  0  0  0  0  0  0  0  0  0  0  0  # atno 8010 bound_to 7997
  139.9525  143.6040  152.2471 H   0  0  0  0  0  0  0  0  0  0  0  0  # atno 10167 bound_to 10162
  156.2880  130.4225  149.8267 H   0  0  0  0  0  0  0  0  0  0  0  0  # atno 10718 bound_to 10713
  154.8546  135.4318  154.1940 H   0  0  0  0  0  0  0  0  0  0  0  0  # atno 10763 bound_to 10752
  153.3002  135.6968  153.7216 H   0  0  0  0  0  0  0  0  0  0  0  0  # atno 10764 bound_to 10752
  153.6349  135.3478  155.3028 H   0  0  0  0  0  0  0  0  0  0  0  0  # atno 10765 bound_to 10752
  139.8772  134.9157  156.4815 H   0  0  0  0  0  0  0  0  0  0  0  0  # atno 11005 bound_to 11000
  145.5519  141.0412  143.2274 LP  0  0  0  0  0  0  0  0  0  0  0  0  # atno 17320 bound_to 7965
  144.7574  139.7041  143.7248 LP  0  0  0  0  0  0  0  0  0  0  0  0  # atno 17321 bound_to 7965
  139.6617  144.7662  151.1950 LP  0  0  0  0  0  0  0  0  0  0  0  0  # atno 17342 bound_to 10162
  140.7578  143.6000  150.8710 LP  0  0  0  0  0  0  0  0  0  0  0  0  # atno 17343 bound_to 10162
  156.5690  130.8416  151.3351 LP  0  0  0  0  0  0  0  0  0  0  0  0  # atno 17370 bound_to 10713
  157.7334  130.9730  150.1977 LP  0  0  0  0  0  0  0  0  0  0  0  0  # atno 17371 bound_to 10713
  140.8724  133.7979  155.9378 LP  0  0  0  0  0  0  0  0  0  0  0  0  # atno 17394 bound_to 11000
  140.8939  134.2461  157.5079 LP  0  0  0  0  0  0  0  0  0  0  0  0  # atno 17395 bound_to 11000

$$$$
