AV-unprocessed.smi:2121|AV-procd|sdf|8643|dock3
  -GOLD-   2272011393D 1   1.00000     0.00000
 Structure written by MMmdl.
 49 50  0  0  0  0  0  0  0  0  1 V2000
  150.8356  145.1622  159.2323 C   0  0  0  0  0  0  0  0  0  0  0  0
  151.8302  144.0037  159.1065 C   0  0  2  0  0  0  0  0  0  0  0  0
  151.3191  142.9055  158.1555 C   0  0  0  0  0  0  0  0  0  0  0  0
  152.2234  141.7558  158.1587 N   0  0  0  0  0  0  0  0  0  0  0  0
  152.0594  140.8179  157.1130 C   0  0  0  0  0  0  0  0  0  0  0  0
  150.9131  140.8095  156.2777 C   0  0  0  0  0  0  0  0  0  0  0  0
  150.8116  139.8433  155.2586 C   0  0  0  0  0  0  0  0  0  0  0  0
  151.8505  138.9080  155.0909 C   0  0  0  0  0  0  0  0  0  0  0  0
  151.7585  137.8520  153.9969 C   0  0  0  0  0  0  0  0  0  0  0  0
  150.6525  136.9134  154.1545 N   0  0  0  0  0  0  0  0  0  0  0  0
  150.4666  136.1181  155.2186 C   0  0  0  0  0  0  0  0  0  0  0  0
  151.2448  136.0738  156.1728 O   0  0  0  0  0  0  0  0  0  0  0  0
  149.2055  135.2403  155.1973 C   0  0  1  0  0  0  0  0  0  0  0  0
  147.9720  136.1582  155.2184 C   0  0  0  0  0  0  0  0  0  0  0  0
  149.1625  134.4428  153.9726 N   0  0  0  0  0  0  0  0  0  0  0  0
  149.5190  133.1526  153.8825 C   0  0  0  0  0  0  0  0  0  0  0  0
  149.4120  132.6821  152.6398 N   0  0  0  0  0  0  0  0  0  0  0  0
  149.9057  132.4684  154.8281 O   0  0  0  0  0  0  0  0  0  0  0  0
  152.9490  138.9851  155.9735 C   0  0  0  0  0  0  0  0  0  0  0  0
  153.0516  139.9093  156.9510 N   0  0  0  0  0  0  0  0  0  0  0  0
  152.5512  141.2664  159.4948 C   0  0  0  0  0  0  0  0  0  0  0  0
  153.0218  142.4214  160.3983 C   0  0  2  0  0  0  0  0  0  0  0  0
  153.2479  141.9663  161.8439 C   0  0  0  0  0  0  0  0  0  0  0  0
  152.0340  143.4471  160.4016 O   0  0  0  0  0  0  0  0  0  0  0  0
  150.6561  145.6313  158.2647 H   0  0  0  0  0  0  0  0  0  0  0  0
  151.2143  145.9286  159.9088 H   0  0  0  0  0  0  0  0  0  0  0  0
  149.8765  144.8186  159.6212 H   0  0  0  0  0  0  0  0  0  0  0  0
  152.7765  144.3999  158.7338 H   0  0  0  0  0  0  0  0  0  0  0  0
  150.3283  142.5699  158.4641 H   0  0  0  0  0  0  0  0  0  0  0  0
  151.2136  143.3318  157.1578 H   0  0  0  0  0  0  0  0  0  0  0  0
  150.1145  141.5268  156.3867 H   0  0  0  0  0  0  0  0  0  0  0  0
  149.9464  139.8263  154.6123 H   0  0  0  0  0  0  0  0  0  0  0  0
  151.6366  138.3614  153.0409 H   0  0  0  0  0  0  0  0  0  0  0  0
  152.6989  137.3013  153.9358 H   0  0  0  0  0  0  0  0  0  0  0  0
  149.9665  136.8852  153.4141 H   0  0  0  0  0  0  0  0  0  0  0  0
  149.1853  134.5818  156.0681 H   0  0  0  0  0  0  0  0  0  0  0  0
  147.9597  136.7833  156.1124 H   0  0  0  0  0  0  0  0  0  0  0  0
  147.0521  135.5728  155.2207 H   0  0  0  0  0  0  0  0  0  0  0  0
  147.9402  136.8184  154.3503 H   0  0  0  0  0  0  0  0  0  0  0  0
  148.8630  134.9162  153.1329 H   0  0  0  0  0  0  0  0  0  0  0  0
  149.6431  131.7204  152.4385 H   0  0  0  0  0  0  0  0  0  0  0  0
  149.0905  133.2931  151.9030 H   0  0  0  0  0  0  0  0  0  0  0  0
  153.7714  138.2890  155.9023 H   0  0  0  0  0  0  0  0  0  0  0  0
  151.6726  140.7826  159.9237 H   0  0  0  0  0  0  0  0  0  0  0  0
  153.3461  140.5220  159.4402 H   0  0  0  0  0  0  0  0  0  0  0  0
  153.9592  142.8282  160.0144 H   0  0  0  0  0  0  0  0  0  0  0  0
  154.0026  141.1811  161.8951 H   0  0  0  0  0  0  0  0  0  0  0  0
  152.3289  141.5773  162.2832 H   0  0  0  0  0  0  0  0  0  0  0  0
  153.5887  142.7958  162.4640 H   0  0  0  0  0  0  0  0  0  0  0  0
  1  2  1  0  0  0  0
  1 25  1  0  0  0  0
  1 26  1  0  0  0  0
  1 27  1  0  0  0  0
  2 24  1  0  0  0  0
  2  3  1  0  0  0  0
  2 28  1  0  0  0  0
  3  4  1  0  0  0  0
  3 29  1  0  0  0  0
  3 30  1  0  0  0  0
  4  5  1  0  0  0  0
  4 21  1  0  0  0  0
  5 20  1  0  0  0  0
  5  6  2  0  0  0  0
  6  7  1  0  0  0  0
  6 31  1  0  0  0  0
  7  8  2  0  0  0  0
  7 32  1  0  0  0  0
  8  9  1  0  0  0  0
  8 19  1  0  0  0  0
  9 10  1  0  0  0  0
  9 33  1  0  0  0  0
  9 34  1  0  0  0  0
 10 11  1  0  0  0  0
 10 35  1  0  0  0  0
 11 12  2  0  0  0  0
 11 13  1  0  0  0  0
 13 14  1  0  0  0  0
 13 15  1  0  0  0  0
 13 36  1  0  0  0  0
 14 37  1  0  0  0  0
 14 38  1  0  0  0  0
 14 39  1  0  0  0  0
 15 16  1  0  0  0  0
 15 40  1  0  0  0  0
 16 17  1  0  0  0  0
 16 18  2  0  0  0  0
 17 41  1  0  0  0  0
 17 42  1  0  0  0  0
 19 20  2  0  0  0  0
 19 43  1  0  0  0  0
 21 22  1  0  0  0  0
 21 44  1  0  0  0  0
 21 45  1  0  0  0  0
 22 23  1  0  0  0  0
 22 24  1  0  0  0  0
 22 46  1  0  0  0  0
 23 47  1  0  0  0  0
 23 48  1  0  0  0  0
 23 49  1  0  0  0  0
M  END
> <s_m_source_file>
AV-unprocessed.smi

> <i_m_source_file_index>
2121

> <i_lp_mmshare_version>
43012

> <i_f3d_flags>
0

> <s_epik_input>
W0NIM11bQ0BASF0xW0NIMl1OKFtDSDJdW0NASF0oTzEpW0NIM10pYzJbY0hdW2NIXWMoW2NIXW4yKVtDSDJdW05IXUMoPU8pW0NASF0oW0NIM10pW05IXUMoPU8pW05IMl0=

> <s_epik_cmdline>
J2VwaWtfcHl0aG9uJywgJy1waCcsICc3LjAnLCAnLXRuJywgJzgnLCAnLW1hJywgJzIwMCcsICctbWV0YWxfYmluZGluZycsICctaW1hZScsICc8aW5maWxlLm1hZT4nLCAnLW9tYWUnLCAnPG91dGZpbGUubWFlPic=

> <r_lp_tautomer_probability>
1

> <r_epik_Ionization_Penalty>
0.0063713

> <r_epik_Ionization_Penalty_Charging>
0

> <r_epik_Ionization_Penalty_Neutral>
0.0063713

> <r_epik_State_Penalty>
0.00467069

> <r_epik_Charging_Adjusted_Penalty>
0.00467069

> <i_epik_Tot_Q>
0

> <i_epik_Tot_abs_Q>
0

> <r_epik_Metal_State_Penalty>
-0

> <b_epik_Metal_Only>
0

> <s_lp_Force_Field>
OPLS_2005

> <r_lp_Energy>
8.02945

> <b_lp_Chiralities_Consistent>
1

> <s_lp_Variant>
AV-unprocessed.smi:2121-4

> <Gold.Version>
5.8.1

> <Gold.Id.Protein>
6NUR|6NUR_protein|mol2

> <Gold.PLP.Fitness>
52.6092

> <Gold.PLP.PLP>
-44.8587

> <Gold.PLP.part.hbond>
-4.4595

> <Gold.PLP.part.metal>
0.0000

> <Gold.PLP.part.buried>
-2.8152

> <Gold.PLP.part.nonpolar>
-36.8003

> <Gold.PLP.part.repulsive>
0.1335

> <Gold.PLP.ligand.clash>
0.0000

> <Gold.PLP.ligand.torsion>
0.5886

> <Gold.PLP.Chemscore.Hbond>
2.8080

> <Gold.PLP.Chemscore.CHOScore>
0.0000

> <Gold.PLP.Chemscore.Metal>
0.0000

> <Gold.Chemscore.Hbonds>
donor molecule, donor type, donor heavy atom, donor atom, acceptor molecule, acceptor atom, score
      L1  H    10    35       P1  7948  0.95
      L1  H    15    40       P1  7948  1.00
      L1  H    17    41       P1 10747  0.03
      P1  H  7997  8009       L1    20  0.64
      P1  H 10752 10763       L1    12  0.04

> <Gold.PLP.Chemscore.Internal.Correction>
0.5037

> <Gold.Rescore>
     Score         DG    S(hbond)    S(metal)    S(lipo)     H(rot)  DE(clash)    DE(int)     intcor
     16.26     -18.38       2.10        0.00     106.74       2.58       0.29       1.83       ----

> <Gold.Chemscore.Fitness>
16.2612

> <Gold.Chemscore.DG>
-18.3778

> <Gold.Chemscore.ZeroCoef>
-5.4800

> <Gold.Chemscore.Hbond>
2.1028

> <Gold.Chemscore.Metal>
0.0000

> <Gold.Chemscore.Lipo>
106.7420

> <Gold.Chemscore.Internal_Hbond>
0.0000

> <Gold.Chemscore.DEClash>
0.2908

> <Gold.Chemscore.DEInternal>
1.8258

> <Gold.Chemscore.Rot>
2.5838

> <Gold.Chemscore.Internal.Correction>
   9.000000E+99

> <Gold.Chemscore.Hbonds>
donor molecule, donor type, donor heavy atom, donor atom, acceptor molecule, acceptor atom, score
      L1  H    10    35       P1  7948  0.21
      L1  H    15    40       P1  7948  0.25
      L1  H    17    41       P1 10747  0.01
      P1  H  7997  8009       L1    20  0.12

> <Gold.Chemscore.Hbond.Weighted>
-7.0234

> <Gold.Chemscore.Metal.Weighted>
-0.0000

> <Gold.Chemscore.Lipo.Weighted>
-12.4888

> <Gold.Chemscore.Internal_Hbond.Weighted>
0.0000

> <Gold.Chemscore.DEClash.Weighted>
0.2908

> <Gold.Chemscore.DEInternal.Weighted>
1.8258

> <Gold.Chemscore.Rot.Weighted>
6.6145

> <Gold.Chemscore.Internal.Correction.Weighted>
   9.000000E+99

> <Gold.Protein.RotatedTorsions>
[ 6907 6896 6895 6894 ] final  109.90 input  -60.11 | X-H torsion
[ 7974 7965 7964 7962 ] final  -10.08 input  175.53 | X-H torsion
[ 8008 7997 7996 7995 ] final  157.55 input   59.86 | X-H torsion
[ 10167 10162 10161 10158 ] final   18.27 input  -65.29 | X-H torsion
[ 10718 10713 10712 10709 ] final -107.86 input   66.30 | X-H torsion
[ 10763 10752 10751 10750 ] final   57.06 input  -60.55 | X-H torsion
[ 11005 11000 10999 10996 ] final  -79.92 input  -57.11 | X-H torsion

> <Gold.Protein.ActiveResidues>
 VAL166  LYS551  ARG553  GLY616  TRP617  ASP618  TYR619  PRO620  LYS621  CYS622 
 ASP623  PHE694  ASN695  SER759  ASP760  ASP761  ALA762  ILE779  LEU786  VAL792 
 PHE793  MET794  SER795  GLU796  ALA797  LYS798  CYS799  TRP800  GLU811  SER814 

> <Gold.Protein.RotatedAtoms>
  152.5045  133.8877  159.7377 H   0  0  0  0  0  0  0  0  0  0  0  0  # atno 6907 bound_to 6896
  150.9324  133.6743  159.2815 H   0  0  0  0  0  0  0  0  0  0  0  0  # atno 6908 bound_to 6896
  151.4083  135.0986  159.9630 H   0  0  0  0  0  0  0  0  0  0  0  0  # atno 6909 bound_to 6896
  146.2232  140.2711  142.8357 H   0  0  0  0  0  0  0  0  0  0  0  0  # atno 7974 bound_to 7965
  156.2357  140.1882  156.7125 H   0  0  0  0  0  0  0  0  0  0  0  0  # atno 8008 bound_to 7997
  154.6102  140.0623  156.9511 H   0  0  0  0  0  0  0  0  0  0  0  0  # atno 8009 bound_to 7997
  155.2029  140.3293  155.4343 H   0  0  0  0  0  0  0  0  0  0  0  0  # atno 8010 bound_to 7997
  140.5665  143.9240  150.6681 H   0  0  0  0  0  0  0  0  0  0  0  0  # atno 10167 bound_to 10162
  156.0457  130.5683  150.7880 H   0  0  0  0  0  0  0  0  0  0  0  0  # atno 10718 bound_to 10713
  152.9843  135.5655  154.5329 H   0  0  0  0  0  0  0  0  0  0  0  0  # atno 10763 bound_to 10752
  154.4797  135.2788  155.1582 H   0  0  0  0  0  0  0  0  0  0  0  0  # atno 10764 bound_to 10752
  154.3096  135.6291  153.5513 H   0  0  0  0  0  0  0  0  0  0  0  0  # atno 10765 bound_to 10752
  141.1668  133.7127  156.8195 H   0  0  0  0  0  0  0  0  0  0  0  0  # atno 11005 bound_to 11000
  144.9267  140.7929  143.5714 LP  0  0  0  0  0  0  0  0  0  0  0  0  # atno 17320 bound_to 7965
  145.2651  139.1976  143.4871 LP  0  0  0  0  0  0  0  0  0  0  0  0  # atno 17321 bound_to 7965
  140.2705  143.3459  152.1242 LP  0  0  0  0  0  0  0  0  0  0  0  0  # atno 17342 bound_to 10162
  139.5096  144.6869  151.5863 LP  0  0  0  0  0  0  0  0  0  0  0  0  # atno 17343 bound_to 10162
  157.5329  131.0937  150.9931 LP  0  0  0  0  0  0  0  0  0  0  0  0  # atno 17370 bound_to 10713
  157.0233  130.5682  149.5334 LP  0  0  0  0  0  0  0  0  0  0  0  0  # atno 17371 bound_to 10713
  140.2130  134.8814  157.3295 LP  0  0  0  0  0  0  0  0  0  0  0  0  # atno 17394 bound_to 11000
  140.2067  134.4188  155.7634 LP  0  0  0  0  0  0  0  0  0  0  0  0  # atno 17395 bound_to 11000

$$$$
