#       Name:                AV-unprocessed.smi:2571
#       Creating user name   scv26
#       Creation time:       Fri Mar 27 14:12:34 2020


#       File generated by GOLD software.
#

@<TRIPOS>MOLECULE
AV-unprocessed.smi:2571
    46    48     1
SMALL
NO_CHARGES


@<TRIPOS>ATOM
      1 ****        -4.1462   2.1721   0.4021 C.3            1 S1                 0.0000
      2 ****        -4.7852   0.9173   0.5874 O.3            1 S1                 0.0000
      3 ****        -3.9918  -0.2044   0.6990 C.ar           1 S1                 0.0000
      4 ****        -4.6487  -1.4387   0.8786 C.ar           1 S1                 0.0000
      5 ****        -3.9152  -2.6339   0.9990 C.ar           1 S1                 0.0000
      6 ****        -2.5099  -2.6068   0.9427 C.ar           1 S1                 0.0000
      7 ****        -1.8334  -1.3822   0.7681 C.ar           1 S1                 0.0000
      8 ****        -0.3145  -1.3541   0.7054 C.3            1 S1                 0.0000
      9 ****         0.2313  -0.3797   1.5743 O.3            1 S1                 0.0000
     10 ****         0.1833  -1.1260  -0.7365 C.3            1 S1                 0.0000
     11 ****         1.6348  -1.1296  -0.8365 N.pl3          1 S1                 0.0000
     12 ****         2.2952  -2.3107  -0.9498 N.2            1 S1                 0.0000
     13 ****         3.5882  -1.9982  -1.0116 C.2            1 S1                 0.0000
     14 ****         3.8016  -0.5943  -0.9368 C.2            1 S1                 0.0000
     15 ****         4.9728   0.2768  -0.9521 C.2            1 S1                 0.0000
     16 ****         4.7870   1.5563  -0.8584 N.2            1 S1                 0.0000
     17 ****         3.5016   2.0982  -0.7443 N.am           1 S1                 0.0000
     18 ****         3.4585   3.5553  -0.6469 C.3            1 S1                 0.0000
     19 ****         2.3432   1.3725  -0.7175 C.2            1 S1                 0.0000
     20 ****         1.2218   1.8690  -0.6111 O.2            1 S1                 0.0000
     21 ****         2.5466  -0.0924  -0.8283 C.2            1 S1                 0.0000
     22 ****        -2.5751  -0.1865   0.6439 C.ar           1 S1                 0.0000
     23 ****        -4.9024   2.9536   0.3296 H              1 S1                 0.0000
     24 ****        -3.5637   2.1908  -0.5199 H              1 S1                 0.0000
     25 ****        -3.4981   2.4181   1.2444 H              1 S1                 0.0000
     26 ****        -5.7276  -1.4696   0.9231 H              1 S1                 0.0000
     27 ****        -4.4320  -3.5725   1.1346 H              1 S1                 0.0000
     28 ****        -1.9550  -3.5291   1.0342 H              1 S1                 0.0000
     29 ****         0.0608  -2.3182   1.0512 H              1 S1                 0.0000
     30 ****        -0.0132  -0.5992   2.4602 H              1 S1                 0.0000
     31 ****        -0.2052  -1.9095  -1.3890 H              1 S1                 0.0000
     32 ****        -0.1992  -0.1878  -1.1370 H              1 S1                 0.0000
     33 ****         4.3162  -2.7904  -1.1055 H              1 S1                 0.0000
     34 ****         5.9748  -0.1430  -1.0399 H              1 S1                 0.0000
     35 ****         2.8695   3.9779  -1.4621 H              1 S1                 0.0000
     36 ****         4.4547   3.9980  -0.6959 H              1 S1                 0.0000
     37 ****         3.0070   3.8636   0.2971 H              1 S1                 0.0000
     38 ****        -2.0336   0.7372   0.5051 H              1 S1                 0.0000
     39 ****        -5.3926   0.7750  -0.1942 LP             1 S1                 0.0000
     40 ****        -5.3285   0.9814   1.4245 LP             1 S1                 0.0000
     41 ****        -0.1289   0.5228   1.3383 LP             1 S1                 0.0000
     42 ****         1.2278  -0.3731   1.4908 LP             1 S1                 0.0000
     43 ****         1.8936  -3.2260  -0.9805 LP             1 S1                 0.0000
     44 ****         5.5778   2.1683  -0.8679 LP             1 S1                 0.0000
     45 ****         1.1191   2.8610  -0.5379 LP             1 S1                 0.0000
     46 ****         0.4136   1.2803  -0.5979 LP             1 S1                 0.0000
@<TRIPOS>BOND
    1    1    2 1     
    2    1   23 1     
    3    1   24 1     
    4    1   25 1     
    5    2    3 1     
    6    3   22 ar    
    7    3    4 ar    
    8    4    5 ar    
    9    4   26 1     
   10    5    6 ar    
   11    5   27 1     
   12    6    7 ar    
   13    6   28 1     
   14    7    8 1     
   15    7   22 ar    
   16    8    9 1     
   17    8   10 1     
   18    8   29 1     
   19    9   30 1     
   20   10   11 1     
   21   10   31 1     
   22   10   32 1     
   23   11   21 1     
   24   11   12 1     
   25   12   13 2     
   26   13   14 1     
   27   13   33 1     
   28   14   21 2     
   29   14   15 1     
   30   15   16 2     
   31   15   34 1     
   32   16   17 1     
   33   17   18 1     
   34   17   19 am    
   35   18   35 1     
   36   18   36 1     
   37   18   37 1     
   38   19   20 2     
   39   19   21 1     
   40   22   38 1     
   41    2   39 1     
   42    2   40 1     
   43    9   41 1     
   44    9   42 1     
   45   12   43 1     
   46   16   44 1     
   47   20   45 1     
   48   20   46 1     
@<TRIPOS>SUBSTRUCTURE
      1 S1             1
@<TRIPOS>SET
LONE_PAIRS      STATIC     ATOMS    <user>   **** ""
8 39 40 41 42 43 44 45 46
DONOR_HYDROGENS      STATIC     ATOMS    <user>   **** ""
1 30
ATOM$BLUE        STATIC     ATOMS    COLORGROUP SYSTEM
8 39 40 41 42 43 44 45 46
ATOM$RED        STATIC     ATOMS    COLORGROUP SYSTEM
1 30
