#       Name:                AV-unprocessed.smi:3243
#       Creating user name   scv26
#       Creation time:       Fri Mar 27 18:26:44 2020


#       File generated by GOLD software.
#

@<TRIPOS>MOLECULE
AV-unprocessed.smi:3243
    40    41     1
SMALL
NO_CHARGES


@<TRIPOS>ATOM
      1 ****        -5.4051   1.4982   1.1946 C.3            1 S1                 0.0000
      2 ****        -4.5551   1.8351  -0.0389 C.3            1 S1                 0.0000
      3 ****        -5.4113   2.1136  -1.2827 C.3            1 S1                 0.0000
      4 ****        -3.5141   0.7905  -0.2988 C.2            1 S1                 0.0000
      5 ****        -2.2014   1.0256  -0.2163 N.2            1 S1                 0.0000
      6 ****        -1.4292  -0.1062  -0.4967 C.2            1 S1                 0.0000
      7 ****         0.0662  -0.0236  -0.4456 C.3            1 S1                 0.0000
      8 ****         0.6015  -0.0651   0.9955 C.3            1 S1                 0.0000
      9 ****         2.0554   0.0431   1.0325 N.am           1 S1                 0.0000
     10 ****         2.9110  -0.9654   0.8072 C.2            1 S1                 0.0000
     11 ****         2.5391  -2.1117   0.5526 O.2            1 S1                 0.0000
     12 ****         4.3504  -0.5629   0.8934 C.3            1 S1                 0.0000
     13 ****         5.3891  -1.6528   1.0745 C.3            1 S1                 0.0000
     14 ****         5.3055  -0.9137  -0.2397 C.3            1 S1                 0.0000
     15 ****         4.8922  -1.6332  -1.5118 C.3            1 S1                 0.0000
     16 ****        -2.1816  -1.2144  -0.7954 C.2            1 S1                 0.0000
     17 ****        -3.8890  -0.8757  -0.7345 S.3            1 S1                 0.0000
     18 ****        -4.7799   1.3792   2.0800 H              1 S1                 0.0000
     19 ****        -5.9630   0.5720   1.0534 H              1 S1                 0.0000
     20 ****        -6.1249   2.2900   1.4034 H              1 S1                 0.0000
     21 ****        -4.0254   2.7614   0.1895 H              1 S1                 0.0000
     22 ****        -4.7900   2.4147  -2.1266 H              1 S1                 0.0000
     23 ****        -6.1245   2.9166  -1.0959 H              1 S1                 0.0000
     24 ****        -5.9775   1.2315  -1.5831 H              1 S1                 0.0000
     25 ****         0.4987  -0.8426  -1.0219 H              1 S1                 0.0000
     26 ****         0.4027   0.8926  -0.9323 H              1 S1                 0.0000
     27 ****         0.1883   0.7646   1.5699 H              1 S1                 0.0000
     28 ****         0.2803  -0.9797   1.4970 H              1 S1                 0.0000
     29 ****         2.4398   0.9541   1.2376 H              1 S1                 0.0000
     30 ****         4.5439   0.3875   1.3889 H              1 S1                 0.0000
     31 ****         6.2283  -1.4304   1.7304 H              1 S1                 0.0000
     32 ****         5.0601  -2.6904   1.0924 H              1 S1                 0.0000
     33 ****         6.0692  -0.1601  -0.4221 H              1 S1                 0.0000
     34 ****         4.3036  -2.5244  -1.2970 H              1 S1                 0.0000
     35 ****         5.7784  -1.9434  -2.0653 H              1 S1                 0.0000
     36 ****         4.3051  -0.9680  -2.1449 H              1 S1                 0.0000
     37 ****        -1.8357  -2.2067  -1.0446 H              1 S1                 0.0000
     38 ****        -1.8126   1.9159   0.0207 LP             1 S1                 0.0000
     39 ****         1.5625  -2.3220   0.5069 LP             1 S1                 0.0000
     40 ****         3.2137  -2.8321   0.3916 LP             1 S1                 0.0000
@<TRIPOS>BOND
    1    1    2 1     
    2    1   18 1     
    3    1   19 1     
    4    1   20 1     
    5    2    3 1     
    6    2    4 1     
    7    2   21 1     
    8    3   22 1     
    9    3   23 1     
   10    3   24 1     
   11    4   17 1     
   12    4    5 2     
   13    5    6 1     
   14    6    7 1     
   15    6   16 2     
   16    7    8 1     
   17    7   25 1     
   18    7   26 1     
   19    8    9 1     
   20    8   27 1     
   21    8   28 1     
   22    9   10 am    
   23    9   29 1     
   24   10   11 2     
   25   10   12 1     
   26   12   14 1     
   27   12   13 1     
   28   12   30 1     
   29   13   14 1     
   30   13   31 1     
   31   13   32 1     
   32   14   15 1     
   33   14   33 1     
   34   15   34 1     
   35   15   35 1     
   36   15   36 1     
   37   16   17 1     
   38   16   37 1     
   39    5   38 1     
   40   11   39 1     
   41   11   40 1     
@<TRIPOS>SUBSTRUCTURE
      1 S1             1
@<TRIPOS>SET
LONE_PAIRS      STATIC     ATOMS    <user>   **** ""
3 38 39 40
DONOR_HYDROGENS      STATIC     ATOMS    <user>   **** ""
1 29
ATOM$BLUE        STATIC     ATOMS    COLORGROUP SYSTEM
3 38 39 40
ATOM$RED        STATIC     ATOMS    COLORGROUP SYSTEM
1 29
