AV-unprocessed.smi:2692|AV-procd|sdf|10394|dock2
  -GOLD-   2272014433D 1   1.00000     0.00000
 Structure written by MMmdl.
 21 21  0  0  0  0  0  0  0  0  4 V2000
  142.4131  132.7356  148.4347 N   0  3  0  0  0  0  0  0  0  0  0  0
  143.7532  132.7884  149.0431 C   0  0  0  0  0  0  0  0  0  0  0  0
  143.6985  132.4792  150.5463 C   0  0  0  0  0  0  0  0  0  0  0  0
  145.0370  132.6961  151.2257 C   0  0  0  0  0  0  0  0  0  0  0  0
  145.7890  133.8671  150.9849 C   0  0  0  0  0  0  0  0  0  0  0  0
  146.9779  134.0447  151.6027 N   0  3  0  0  0  0  0  0  0  0  0  0
  147.4997  133.1414  152.4607 C   0  0  0  0  0  0  0  0  0  0  0  0
  146.7942  131.9538  152.7400 C   0  0  0  0  0  0  0  0  0  0  0  0
  147.3074  131.0347  153.6058 O   0  5  0  0  0  0  0  0  0  0  0  0
  145.5514  131.7265  152.1145 C   0  0  0  0  0  0  0  0  0  0  0  0
  141.9627  131.8673  148.6873 H   0  0  0  0  0  0  0  0  0  0  0  0
  142.4961  132.7890  147.4294 H   0  0  0  0  0  0  0  0  0  0  0  0
  144.3988  132.0736  148.5317 H   0  0  0  0  0  0  0  0  0  0  0  0
  144.1726  133.7806  148.8727 H   0  0  0  0  0  0  0  0  0  0  0  0
  142.9554  133.1123  151.0333 H   0  0  0  0  0  0  0  0  0  0  0  0
  143.3783  131.4484  150.7058 H   0  0  0  0  0  0  0  0  0  0  0  0
  145.4804  134.6624  150.3222 H   0  0  0  0  0  0  0  0  0  0  0  0
  148.4565  133.3942  152.8938 H   0  0  0  0  0  0  0  0  0  0  0  0
  147.5060  134.8970  151.4148 H   0  0  0  0  0  0  0  0  0  0  0  0
  144.9993  130.8200  152.3170 H   0  0  0  0  0  0  0  0  0  0  0  0
  141.8584  133.5109  148.7681 H   0  0  0  0  0  0  0  0  0  0  0  0
  1  2  1  0  0  0  0
  1 11  1  0  0  0  0
  1 12  1  0  0  0  0
  1 21  1  0  0  0  0
  2  3  1  0  0  0  0
  2 13  1  0  0  0  0
  2 14  1  0  0  0  0
  3 15  1  0  0  0  0
  3 16  1  0  0  0  0
  3  4  1  0  0  0  0
  4  5  1  0  0  0  0
  4 10  2  0  0  0  0
  5  6  2  0  0  0  0
  5 17  1  0  0  0  0
  6  7  1  0  0  0  0
  6 19  1  0  0  0  0
  7  8  2  0  0  0  0
  7 18  1  0  0  0  0
  8  9  1  0  0  0  0
  8 10  1  0  0  0  0
 10 20  1  0  0  0  0
M  CHG  1   1   1
M  CHG  1   6   1
M  CHG  1   9  -1
M  END
> <s_m_source_file>
AV-unprocessed.smi

> <i_m_source_file_index>
2692

> <i_lp_mmshare_version>
43012

> <i_f3d_flags>
0

> <s_epik_input>
W05IMl1bQ0gyXVtDSDJdYzFbY0hdbltjSF1jKFtPSF0pW2NIXTE=

> <s_epik_cmdline>
J2VwaWtfcHl0aG9uJywgJy1waCcsICc3LjAnLCAnLXRuJywgJzgnLCAnLW1hJywgJzIwMCcsICctbWV0YWxfYmluZGluZycsICctaW1hZScsICc8aW5maWxlLm1hZT4nLCAnLW9tYWUnLCAnPG91dGZpbGUubWFlPic=

> <r_lp_tautomer_probability>
0.56342

> <r_epik_Ionization_Penalty>
0.0470523

> <r_epik_Ionization_Penalty_Charging>
0.0470523

> <r_epik_Ionization_Penalty_Neutral>
0

> <r_epik_State_Penalty>
0.376149

> <r_epik_Charging_Adjusted_Penalty>
0.423201

> <i_epik_Tot_Q>
1

> <i_epik_Tot_abs_Q>
3

> <r_epik_Metal_State_Penalty>
2.7829

> <b_epik_Metal_Only>
0

> <s_lp_Force_Field>
OPLS_2005

> <r_lp_Energy>
5.09983

> <b_lp_Chiralities_Consistent>
1

> <s_lp_Variant>
AV-unprocessed.smi:2692-1

> <Gold.Version>
5.8.1

> <Gold.Id.Protein>
6NUR|6NUR_protein|mol2

> <Gold.PLP.Fitness>
40.8630

> <Gold.PLP.PLP>
-23.3259

> <Gold.PLP.part.hbond>
-4.0000

> <Gold.PLP.part.metal>
0.0000

> <Gold.PLP.part.buried>
-3.7297

> <Gold.PLP.part.nonpolar>
-16.6128

> <Gold.PLP.part.repulsive>
0.3515

> <Gold.PLP.ligand.clash>
0.0000

> <Gold.PLP.ligand.torsion>
0.1701

> <Gold.PLP.Chemscore.Hbond>
5.9590

> <Gold.PLP.Chemscore.CHOScore>
0.0000

> <Gold.PLP.Chemscore.Metal>
0.0000

> <Gold.Chemscore.Hbonds>
donor molecule, donor type, donor heavy atom, donor atom, acceptor molecule, acceptor atom, score
      L1  H     1    11       P1 10952  0.88
      L1  H     1    12       P1 10195  0.94
      L1  H     1    21       P1 10186  1.59
      L1  H     6    19       P1  7948  2.00

> <Gold.PLP.Chemscore.Internal.Correction>
0.0002

> <Gold.Rescore>
     Score         DG    S(hbond)    S(metal)    S(lipo)     H(rot)  DE(clash)    DE(int)     intcor
     19.63     -19.85       3.38        0.00      56.30       1.36       0.01       0.21       ----

> <Gold.Chemscore.Fitness>
19.6307

> <Gold.Chemscore.DG>
-19.8509

> <Gold.Chemscore.ZeroCoef>
-5.4800

> <Gold.Chemscore.Hbond>
3.3763

> <Gold.Chemscore.Metal>
0.0000

> <Gold.Chemscore.Lipo>
56.3046

> <Gold.Chemscore.Internal_Hbond>
0.0000

> <Gold.Chemscore.DEClash>
0.0089

> <Gold.Chemscore.DEInternal>
0.2114

> <Gold.Chemscore.Rot>
1.3646

> <Gold.Chemscore.Internal.Correction>
   9.000000E+99

> <Gold.Chemscore.Hbonds>
donor molecule, donor type, donor heavy atom, donor atom, acceptor molecule, acceptor atom, score
      L1  H     1    11       P1 10952  0.86
      L1  H     1    12       P1 10195  0.87
      L1  H     1    21       P1 10186  0.79
      L1  H     6    19       P1  7948  0.38

> <Gold.Chemscore.Hbond.Weighted>
-11.2767

> <Gold.Chemscore.Metal.Weighted>
-0.0000

> <Gold.Chemscore.Lipo.Weighted>
-6.5876

> <Gold.Chemscore.Internal_Hbond.Weighted>
0.0000

> <Gold.Chemscore.DEClash.Weighted>
0.0089

> <Gold.Chemscore.DEInternal.Weighted>
0.2114

> <Gold.Chemscore.Rot.Weighted>
3.4934

> <Gold.Chemscore.Internal.Correction.Weighted>
   9.000000E+99

> <Gold.Protein.RotatedTorsions>
[ 6907 6896 6895 6894 ] final   93.52 input  -60.11 | X-H torsion
[ 7974 7965 7964 7962 ] final  -65.00 input  175.53 | X-H torsion
[ 8008 7997 7996 7995 ] final  127.10 input   59.86 | X-H torsion
[ 10167 10162 10161 10158 ] final  179.69 input  -65.29 | X-H torsion
[ 10718 10713 10712 10709 ] final  135.57 input   66.30 | X-H torsion
[ 10763 10752 10751 10750 ] final   28.19 input  -60.55 | X-H torsion
[ 11005 11000 10999 10996 ] final  -43.34 input  -57.11 | X-H torsion

> <Gold.Protein.ActiveResidues>
 VAL166  LYS551  ARG553  GLY616  TRP617  ASP618  TYR619  PRO620  LYS621  CYS622 
 ASP623  PHE694  ASN695  SER759  ASP760  ASP761  ALA762  ILE779  LEU786  VAL792 
 PHE793  MET794  SER795  GLU796  ALA797  LYS798  CYS799  TRP800  GLU811  SER814 

> <Gold.Protein.RotatedAtoms>
  152.5452  134.1334  159.8448 H   0  0  0  0  0  0  0  0  0  0  0  0  # atno 6907 bound_to 6896
  151.1378  133.4985  159.2605 H   0  0  0  0  0  0  0  0  0  0  0  0  # atno 6908 bound_to 6896
  151.1606  135.0281  159.8763 H   0  0  0  0  0  0  0  0  0  0  0  0  # atno 6909 bound_to 6896
  145.7597  140.8868  143.0436 H   0  0  0  0  0  0  0  0  0  0  0  0  # atno 7974 bound_to 7965
  156.2882  140.2677  156.2218 H   0  0  0  0  0  0  0  0  0  0  0  0  # atno 8008 bound_to 7997
  155.0161  140.0387  157.2437 H   0  0  0  0  0  0  0  0  0  0  0  0  # atno 8009 bound_to 7997
  154.7476  140.2737  155.6325 H   0  0  0  0  0  0  0  0  0  0  0  0  # atno 8010 bound_to 7997
  139.5347  144.2530  152.0769 H   0  0  0  0  0  0  0  0  0  0  0  0  # atno 10167 bound_to 10162
  157.4557  131.1069  150.9980 H   0  0  0  0  0  0  0  0  0  0  0  0  # atno 10718 bound_to 10713
  153.0507  135.6519  154.0700 H   0  0  0  0  0  0  0  0  0  0  0  0  # atno 10763 bound_to 10752
  154.0389  135.2905  155.3359 H   0  0  0  0  0  0  0  0  0  0  0  0  # atno 10764 bound_to 10752
  154.6794  135.5326  153.8309 H   0  0  0  0  0  0  0  0  0  0  0  0  # atno 10765 bound_to 10752
  141.0377  133.6793  156.2719 H   0  0  0  0  0  0  0  0  0  0  0  0  # atno 11005 bound_to 11000
  144.6833  139.9705  143.7482 LP  0  0  0  0  0  0  0  0  0  0  0  0  # atno 17320 bound_to 7965
  146.0276  139.3306  143.0774 LP  0  0  0  0  0  0  0  0  0  0  0  0  # atno 17321 bound_to 7965
  140.1999  144.4668  150.6436 LP  0  0  0  0  0  0  0  0  0  0  0  0  # atno 17342 bound_to 10162
  140.6547  143.2234  151.5996 LP  0  0  0  0  0  0  0  0  0  0  0  0  # atno 17343 bound_to 10162
  157.0795  130.5897  149.5418 LP  0  0  0  0  0  0  0  0  0  0  0  0  # atno 17370 bound_to 10713
  156.0006  130.5084  150.7649 LP  0  0  0  0  0  0  0  0  0  0  0  0  # atno 17371 bound_to 10713
  140.6292  134.5282  157.5557 LP  0  0  0  0  0  0  0  0  0  0  0  0  # atno 17394 bound_to 11000
  139.9253  134.8069  156.1088 LP  0  0  0  0  0  0  0  0  0  0  0  0  # atno 17395 bound_to 11000

$$$$
