AV-unprocessed.smi:1774|AV-procd|sdf|7164|dock2
  -GOLD-   22720 8403D 1   1.00000     0.00000
 Structure written by MMmdl.
 45 46  0  0  0  0  0  0  0  0  1 V2000
  147.7032  133.0491  152.5246 C   0  0  0  0  0  0  0  0  0  0  0  0
  146.4428  133.0885  151.6757 C   0  0  0  0  0  0  0  0  0  0  0  0
  145.8694  131.8770  151.2344 C   0  0  0  0  0  0  0  0  0  0  0  0
  144.7053  131.9155  150.4481 C   0  0  0  0  0  0  0  0  0  0  0  0
  144.1603  133.1721  150.1340 C   0  0  0  0  0  0  0  0  0  0  0  0
  144.7013  134.3346  150.5516 N   0  0  0  0  0  0  0  0  0  0  0  0
  145.8251  134.3154  151.3116 C   0  0  0  0  0  0  0  0  0  0  0  0
  146.4453  135.5021  151.7951 N   0  0  0  0  0  0  0  0  0  0  0  0
  145.8648  136.5952  152.3207 C   0  0  0  0  0  0  0  0  0  0  0  0
  144.6515  136.7753  152.4286 O   0  0  0  0  0  0  0  0  0  0  0  0
  146.7847  137.4873  152.7168 N   0  0  0  0  0  0  0  0  0  0  0  0
  146.4990  138.7688  153.3544 C   0  0  0  0  0  0  0  0  0  0  0  0
  147.6866  139.7441  153.2296 C   0  0  0  0  0  0  0  0  0  0  0  0
  148.6978  139.6450  154.2820 N   0  0  0  0  0  0  0  0  0  0  0  0
  149.1417  140.9515  154.7614 C   0  0  0  0  0  0  0  0  0  0  0  0
  150.2019  140.8234  155.8715 C   0  0  2  0  0  0  0  0  0  0  0  0
  150.7306  142.1868  156.3284 C   0  0  0  0  0  0  0  0  0  0  0  0
  151.2989  140.0563  155.3818 O   0  0  0  0  0  0  0  0  0  0  0  0
  150.9222  138.7552  154.9389 C   0  0  2  0  0  0  0  0  0  0  0  0
  152.1801  138.0290  154.4512 C   0  0  0  0  0  0  0  0  0  0  0  0
  149.8597  138.8891  153.8314 C   0  0  0  0  0  0  0  0  0  0  0  0
  148.0423  132.0254  152.6853 H   0  0  0  0  0  0  0  0  0  0  0  0
  147.5205  133.4992  153.5007 H   0  0  0  0  0  0  0  0  0  0  0  0
  148.5100  133.5956  152.0353 H   0  0  0  0  0  0  0  0  0  0  0  0
  146.3140  130.9272  151.4938 H   0  0  0  0  0  0  0  0  0  0  0  0
  144.2421  131.0059  150.0952 H   0  0  0  0  0  0  0  0  0  0  0  0
  143.2668  133.2471  149.5322 H   0  0  0  0  0  0  0  0  0  0  0  0
  147.4531  135.5118  151.7464 H   0  0  0  0  0  0  0  0  0  0  0  0
  147.7581  137.2553  152.5844 H   0  0  0  0  0  0  0  0  0  0  0  0
  145.6386  139.1967  152.8398 H   0  0  0  0  0  0  0  0  0  0  0  0
  146.1845  138.6365  154.3898 H   0  0  0  0  0  0  0  0  0  0  0  0
  148.1591  139.5684  152.2622 H   0  0  0  0  0  0  0  0  0  0  0  0
  147.3064  140.7660  153.1900 H   0  0  0  0  0  0  0  0  0  0  0  0
  149.5509  141.5293  153.9309 H   0  0  0  0  0  0  0  0  0  0  0  0
  148.2981  141.5202  155.1501 H   0  0  0  0  0  0  0  0  0  0  0  0
  149.7675  140.3107  156.7315 H   0  0  0  0  0  0  0  0  0  0  0  0
  149.9254  142.8056  156.7251 H   0  0  0  0  0  0  0  0  0  0  0  0
  151.1939  142.7280  155.5030 H   0  0  0  0  0  0  0  0  0  0  0  0
  151.4782  142.0711  157.1134 H   0  0  0  0  0  0  0  0  0  0  0  0
  150.5032  138.2029  155.7818 H   0  0  0  0  0  0  0  0  0  0  0  0
  151.9437  137.0211  154.1093 H   0  0  0  0  0  0  0  0  0  0  0  0
  152.9155  137.9447  155.2516 H   0  0  0  0  0  0  0  0  0  0  0  0
  152.6479  138.5632  153.6239 H   0  0  0  0  0  0  0  0  0  0  0  0
  149.5487  137.8942  153.5102 H   0  0  0  0  0  0  0  0  0  0  0  0
  150.3005  139.3751  152.9594 H   0  0  0  0  0  0  0  0  0  0  0  0
  1  2  1  0  0  0  0
  1 22  1  0  0  0  0
  1 23  1  0  0  0  0
  1 24  1  0  0  0  0
  2  7  1  0  0  0  0
  2  3  2  0  0  0  0
  3  4  1  0  0  0  0
  3 25  1  0  0  0  0
  4  5  2  0  0  0  0
  4 26  1  0  0  0  0
  5  6  1  0  0  0  0
  5 27  1  0  0  0  0
  6  7  2  0  0  0  0
  7  8  1  0  0  0  0
  8  9  1  0  0  0  0
  8 28  1  0  0  0  0
  9 10  2  0  0  0  0
  9 11  1  0  0  0  0
 11 12  1  0  0  0  0
 11 29  1  0  0  0  0
 12 13  1  0  0  0  0
 12 30  1  0  0  0  0
 12 31  1  0  0  0  0
 13 14  1  0  0  0  0
 13 32  1  0  0  0  0
 13 33  1  0  0  0  0
 14 21  1  0  0  0  0
 14 15  1  0  0  0  0
 15 16  1  0  0  0  0
 15 34  1  0  0  0  0
 15 35  1  0  0  0  0
 16 17  1  0  0  0  0
 16 18  1  0  0  0  0
 16 36  1  0  0  0  0
 17 37  1  0  0  0  0
 17 38  1  0  0  0  0
 17 39  1  0  0  0  0
 18 19  1  0  0  0  0
 19 20  1  0  0  0  0
 19 21  1  0  0  0  0
 19 40  1  0  0  0  0
 20 41  1  0  0  0  0
 20 42  1  0  0  0  0
 20 43  1  0  0  0  0
 21 44  1  0  0  0  0
 21 45  1  0  0  0  0
M  END
> <s_m_source_file>
AV-unprocessed.smi

> <i_m_source_file_index>
1774

> <i_lp_mmshare_version>
43012

> <i_f3d_flags>
0

> <s_epik_input>
W0NIM11jMVtjSF1bY0hdW2NIXW5jMVtOSF1DKD1PKVtOSF1bQ0gyXVtDSDJdTjJbQ0gyXVtDQEBIXShbQ0gzXSlPW0NAQEhdKFtDSDNdKVtDSDJdMg==

> <s_epik_cmdline>
J2VwaWtfcHl0aG9uJywgJy1waCcsICc3LjAnLCAnLXRuJywgJzgnLCAnLW1hJywgJzIwMCcsICctbWV0YWxfYmluZGluZycsICctaW1hZScsICc8aW5maWxlLm1hZT4nLCAnLW9tYWUnLCAnPG91dGZpbGUubWFlPic=

> <r_epik_Ionization_Penalty>
0.266047

> <r_epik_Ionization_Penalty_Charging>
0

> <r_epik_Ionization_Penalty_Neutral>
0.266047

> <r_epik_State_Penalty>
0.257924

> <r_epik_Charging_Adjusted_Penalty>
0.257924

> <i_epik_Tot_Q>
0

> <i_epik_Tot_abs_Q>
0

> <r_epik_Metal_State_Penalty>
0.257922

> <b_epik_Metal_Only>
0

> <s_lp_Force_Field>
OPLS_2005

> <r_lp_Energy>
26.8029

> <b_lp_Chiralities_Consistent>
1

> <s_lp_Variant>
AV-unprocessed.smi:1774-1

> <Gold.Version>
5.8.1

> <Gold.Id.Protein>
6NUR|6NUR_protein|mol2

> <Gold.PLP.Fitness>
46.7831

> <Gold.PLP.PLP>
-37.3609

> <Gold.PLP.part.hbond>
-3.0000

> <Gold.PLP.part.metal>
0.0000

> <Gold.PLP.part.buried>
-2.1876

> <Gold.PLP.part.nonpolar>
-33.8511

> <Gold.PLP.part.repulsive>
0.6221

> <Gold.PLP.ligand.clash>
0.0000

> <Gold.PLP.ligand.torsion>
1.2420

> <Gold.PLP.Chemscore.Hbond>
2.9500

> <Gold.PLP.Chemscore.CHOScore>
1.0000

> <Gold.PLP.Chemscore.Metal>
0.0000

> <Gold.Chemscore.Hbonds>
donor molecule, donor type, donor heavy atom, donor atom, acceptor molecule, acceptor atom, score
      L1  H     8    28       P1  7948  1.00
      L1  H    11    29       P1  7948  0.98
      P1  H  7989  7998       L1    18  0.76
      L1  C     5    27       P1 10186  0.96

> <Gold.PLP.Chemscore.Internal.Correction>
0.0562

> <Gold.Rescore>
     Score         DG    S(hbond)    S(metal)    S(lipo)     H(rot)  DE(clash)    DE(int)     intcor
     16.80     -19.25       1.92        0.00      94.65       1.46       0.53       1.92       ----

> <Gold.Chemscore.Fitness>
16.7967

> <Gold.Chemscore.DG>
-19.2499

> <Gold.Chemscore.ZeroCoef>
-5.4800

> <Gold.Chemscore.Hbond>
1.9232

> <Gold.Chemscore.Metal>
0.0000

> <Gold.Chemscore.Lipo>
94.6517

> <Gold.Chemscore.Internal_Hbond>
0.0000

> <Gold.Chemscore.DEClash>
0.5343

> <Gold.Chemscore.DEInternal>
1.9189

> <Gold.Chemscore.Rot>
1.4562

> <Gold.Chemscore.Internal.Correction>
   9.000000E+99

> <Gold.Chemscore.Hbonds>
donor molecule, donor type, donor heavy atom, donor atom, acceptor molecule, acceptor atom, score
      L1  H     8    28       P1  7948  0.97
      L1  H    11    29       P1  7948  0.93
      P1  H  7989  7998       L1    18  0.05

> <Gold.Chemscore.Hbond.Weighted>
-6.4235

> <Gold.Chemscore.Metal.Weighted>
-0.0000

> <Gold.Chemscore.Lipo.Weighted>
-11.0743

> <Gold.Chemscore.Internal_Hbond.Weighted>
0.0000

> <Gold.Chemscore.DEClash.Weighted>
0.5343

> <Gold.Chemscore.DEInternal.Weighted>
1.9189

> <Gold.Chemscore.Rot.Weighted>
3.7278

> <Gold.Chemscore.Internal.Correction.Weighted>
   9.000000E+99

> <Gold.Protein.RotatedTorsions>
[ 6907 6896 6895 6894 ] final  171.96 input  -60.11 | X-H torsion
[ 7974 7965 7964 7962 ] final -101.97 input  175.53 | X-H torsion
[ 8008 7997 7996 7995 ] final   57.32 input   59.86 | X-H torsion
[ 10167 10162 10161 10158 ] final  126.58 input  -65.29 | X-H torsion
[ 10718 10713 10712 10709 ] final   25.12 input   66.30 | X-H torsion
[ 10763 10752 10751 10750 ] final   -8.29 input  -60.55 | X-H torsion
[ 11005 11000 10999 10996 ] final  -24.67 input  -57.11 | X-H torsion

> <Gold.Protein.ActiveResidues>
 VAL166  LYS551  ARG553  GLY616  TRP617  ASP618  TYR619  PRO620  LYS621  CYS622 
 ASP623  PHE694  ASN695  SER759  ASP760  ASP761  ALA762  ILE779  LEU786  VAL792 
 PHE793  MET794  SER795  GLU796  ALA797  LYS798  CYS799  TRP800  GLU811  SER814 

> <Gold.Protein.RotatedAtoms>
  151.7919  133.3360  159.3501 H   0  0  0  0  0  0  0  0  0  0  0  0  # atno 6907 bound_to 6896
  150.7389  134.5834  159.5960 H   0  0  0  0  0  0  0  0  0  0  0  0  # atno 6908 bound_to 6896
  152.3204  134.7389  160.0366 H   0  0  0  0  0  0  0  0  0  0  0  0  # atno 6909 bound_to 6896
  145.2748  140.9309  143.2966 H   0  0  0  0  0  0  0  0  0  0  0  0  # atno 7974 bound_to 7965
  155.5318  140.3482  155.4428 H   0  0  0  0  0  0  0  0  0  0  0  0  # atno 8008 bound_to 7997
  156.0713  140.1364  156.9852 H   0  0  0  0  0  0  0  0  0  0  0  0  # atno 8009 bound_to 7997
  154.4529  140.0965  156.6648 H   0  0  0  0  0  0  0  0  0  0  0  0  # atno 8010 bound_to 7997
  139.5624  144.6890  151.4006 H   0  0  0  0  0  0  0  0  0  0  0  0  # atno 10167 bound_to 10162
  157.1891  130.6838  149.6143 H   0  0  0  0  0  0  0  0  0  0  0  0  # atno 10718 bound_to 10713
  153.4383  135.7013  153.6185 H   0  0  0  0  0  0  0  0  0  0  0  0  # atno 10763 bound_to 10752
  153.4571  135.3745  155.2317 H   0  0  0  0  0  0  0  0  0  0  0  0  # atno 10764 bound_to 10752
  154.8727  135.4011  154.3778 H   0  0  0  0  0  0  0  0  0  0  0  0  # atno 10765 bound_to 10752
  140.8866  133.7617  156.0369 H   0  0  0  0  0  0  0  0  0  0  0  0  # atno 11005 bound_to 11000
  144.9304  139.4305  143.6498 LP  0  0  0  0  0  0  0  0  0  0  0  0  # atno 17320 bound_to 7965
  146.3235  139.8212  142.8926 LP  0  0  0  0  0  0  0  0  0  0  0  0  # atno 17321 bound_to 7965
  140.6905  143.7874  150.7248 LP  0  0  0  0  0  0  0  0  0  0  0  0  # atno 17342 bound_to 10162
  140.1354  143.4488  152.2228 LP  0  0  0  0  0  0  0  0  0  0  0  0  # atno 17343 bound_to 10162
  155.9714  130.4621  150.6132 LP  0  0  0  0  0  0  0  0  0  0  0  0  # atno 17370 bound_to 10713
  157.3878  131.0791  151.1420 LP  0  0  0  0  0  0  0  0  0  0  0  0  # atno 17371 bound_to 10713
  140.8397  134.3081  157.5318 LP  0  0  0  0  0  0  0  0  0  0  0  0  # atno 17394 bound_to 11000
  139.8725  134.9409  156.3782 LP  0  0  0  0  0  0  0  0  0  0  0  0  # atno 17395 bound_to 11000

$$$$
