AV-unprocessed.smi:38|AV-procd|sdf|344|dock3
  -GOLD-   2262016183D 1   1.00000     0.00000
 Structure written by MMmdl.
 27 28  0  0  0  0  0  0  0  0  2 V2000
  151.8781  140.8039  158.9655 O   0  0  0  0  0  0  0  0  0  0  0  0
  151.3125  140.8546  157.8743 C   0  0  0  0  0  0  0  0  0  0  0  0
  151.6375  140.0318  156.8356 N   0  5  0  0  0  0  0  0  0  0  0  0
  151.0106  140.0912  155.6242 C   0  0  0  0  0  0  0  0  0  0  0  0
  151.3000  139.3555  154.6800 O   0  0  0  0  0  0  0  0  0  0  0  0
  149.9750  141.0463  155.4302 N   0  0  0  0  0  0  0  0  0  0  0  0
  149.2852  141.1080  154.0825 C   0  0  2  0  0  0  0  0  0  0  0  0
  148.0354  141.9986  154.1564 C   0  0  0  0  0  0  0  0  0  0  0  0
  146.9822  141.1348  153.4905 C   0  0  2  0  0  0  0  0  0  0  0  0
  145.6933  141.4331  153.9870 O   0  0  0  0  0  0  0  0  0  0  0  0
  147.4421  139.7253  153.8621 C   0  0  1  0  0  0  0  0  0  0  0  0
  146.8933  138.6333  152.9313 C   0  0  0  0  0  0  0  0  0  0  0  0
  147.6399  138.5938  151.7337 O   0  0  0  0  0  0  0  0  0  0  0  0
  148.8546  139.8303  153.7077 O   0  0  0  0  0  0  0  0  0  0  0  0
  149.6227  141.8936  156.4688 C   0  0  0  0  0  0  0  0  0  0  0  0
  150.2458  141.8317  157.6636 C   0  0  0  0  0  0  0  0  0  0  0  0
  149.8826  142.6674  158.6520 F   0  0  0  0  0  0  0  0  0  0  0  0
  150.0406  141.4521  153.3740 H   0  0  0  0  0  0  0  0  0  0  0  0
  147.0121  141.2755  152.4090 H   0  0  0  0  0  0  0  0  0  0  0  0
  147.1956  139.5200  154.9059 H   0  0  0  0  0  0  0  0  0  0  0  0
  147.7807  142.1898  155.2009 H   0  0  0  0  0  0  0  0  0  0  0  0
  148.1998  142.9513  153.6523 H   0  0  0  0  0  0  0  0  0  0  0  0
  145.0624  140.9130  153.5132 H   0  0  0  0  0  0  0  0  0  0  0  0
  146.9864  137.6560  153.4055 H   0  0  0  0  0  0  0  0  0  0  0  0
  145.8360  138.7896  152.7160 H   0  0  0  0  0  0  0  0  0  0  0  0
  148.3260  139.2414  151.7861 H   0  0  0  0  0  0  0  0  0  0  0  0
  148.8382  142.6233  156.3394 H   0  0  0  0  0  0  0  0  0  0  0  0
  1  2  2  0  0  0  0
  2 16  1  0  0  0  0
  2  3  1  0  0  0  0
  3  4  1  0  0  0  0
  4  5  2  0  0  0  0
  4  6  1  0  0  0  0
  6  7  1  0  0  0  0
  6 15  1  0  0  0  0
  7 18  1  0  0  0  0
  7 14  1  0  0  0  0
  7  8  1  0  0  0  0
  8  9  1  0  0  0  0
  8 21  1  0  0  0  0
  8 22  1  0  0  0  0
  9 19  1  0  0  0  0
  9 10  1  0  0  0  0
  9 11  1  0  0  0  0
 10 23  1  0  0  0  0
 11 20  1  0  0  0  0
 11 12  1  0  0  0  0
 11 14  1  0  0  0  0
 12 13  1  0  0  0  0
 12 24  1  0  0  0  0
 12 25  1  0  0  0  0
 13 26  1  0  0  0  0
 15 16  2  0  0  0  0
 15 27  1  0  0  0  0
 16 17  1  0  0  0  0
M  CHG  1   3  -1
M  END
> <s_m_source_file>
AV-unprocessed.smi

> <i_m_source_file_index>
38

> <i_lp_mmshare_version>
43012

> <i_f3d_flags>
0

> <s_epik_input>
Tz1jMVtuSF1jKD1PKW4oW2NIXWMxRilbQ0BIXTJbQ0gyXVtDQEhdKFtPSF0pW0NASF0oTzIpW0NIMl1bT0hd

> <s_epik_cmdline>
J2VwaWtfcHl0aG9uJywgJy1waCcsICc3LjAnLCAnLXRuJywgJzgnLCAnLW1hJywgJzIwMCcsICctbWV0YWxfYmluZGluZycsICctaW1hZScsICc8aW5maWxlLm1hZT4nLCAnLW9tYWUnLCAnPG91dGZpbGUubWFlPic=

> <r_epik_Ionization_Penalty>
1.68146

> <r_epik_Ionization_Penalty_Charging>
3.4211e-08

> <r_epik_Ionization_Penalty_Neutral>
1.68146

> <r_epik_State_Penalty>
1.78593

> <r_epik_Charging_Adjusted_Penalty>
1.78593

> <i_epik_Tot_Q>
-1

> <i_epik_Tot_abs_Q>
1

> <r_epik_Metal_State_Penalty>
0.0113696

> <b_epik_Metal_Only>
0

> <s_epik_Chemistry_Notes>
This compound contains an acetal/aminal-like group ( X-CH(R)-Y where X, Y are N, S, or O) that may be acid/base labile, releasing an aldehyde.

> <s_lp_Force_Field>
OPLS_2005

> <r_lp_Energy>
37.5177

> <b_lp_Chiralities_Consistent>
1

> <s_lp_Variant>
AV-unprocessed.smi:38-10

> <Gold.Version>
5.8.1

> <Gold.Id.Protein>
6NUR|6NUR_protein|mol2

> <Gold.PLP.Fitness>
38.3219

> <Gold.PLP.PLP>
-25.5558

> <Gold.PLP.part.hbond>
-4.6741

> <Gold.PLP.part.metal>
0.0000

> <Gold.PLP.part.buried>
1.7439

> <Gold.PLP.part.nonpolar>
-23.5592

> <Gold.PLP.part.repulsive>
3.2137

> <Gold.PLP.ligand.clash>
0.0000

> <Gold.PLP.ligand.torsion>
0.4171

> <Gold.PLP.Chemscore.Hbond>
3.5724

> <Gold.PLP.Chemscore.CHOScore>
0.9556

> <Gold.PLP.Chemscore.Metal>
0.0000

> <Gold.Chemscore.Hbonds>
donor molecule, donor type, donor heavy atom, donor atom, acceptor molecule, acceptor atom, score
      L1  H    10    23       P1 10175  1.00
      L1  H    13    26       P1  7957  1.00
      P1  H  7954  7966       L1    13  0.71
      P1  H  7989  7998       L1     5  0.65
      L1  C    15    27       P1  8028  1.00

> <Gold.PLP.Chemscore.Internal.Correction>
0.0164

> <Gold.Rescore>
     Score         DG    S(hbond)    S(metal)    S(lipo)     H(rot)  DE(clash)    DE(int)     intcor
      5.61      -9.16       1.98        0.00      37.84       2.88       1.51       2.04       ----

> <Gold.Chemscore.Fitness>
5.6070

> <Gold.Chemscore.DG>
-9.1598

> <Gold.Chemscore.ZeroCoef>
-5.4800

> <Gold.Chemscore.Hbond>
1.9849

> <Gold.Chemscore.Metal>
0.0000

> <Gold.Chemscore.Lipo>
37.8366

> <Gold.Chemscore.Internal_Hbond>
0.0000

> <Gold.Chemscore.DEClash>
1.5088

> <Gold.Chemscore.DEInternal>
2.0440

> <Gold.Chemscore.Rot>
2.8815

> <Gold.Chemscore.Internal.Correction>
   9.000000E+99

> <Gold.Chemscore.Hbonds>
donor molecule, donor type, donor heavy atom, donor atom, acceptor molecule, acceptor atom, score
      L1  H    10    23       P1 10175  0.78
      L1  H    13    26       P1  7957  0.92
      P1  H  7954  7966       L1    13  0.08
      P1  H  7989  7998       L1     5  0.06

> <Gold.Chemscore.Hbond.Weighted>
-6.6294

> <Gold.Chemscore.Metal.Weighted>
-0.0000

> <Gold.Chemscore.Lipo.Weighted>
-4.4269

> <Gold.Chemscore.Internal_Hbond.Weighted>
0.0000

> <Gold.Chemscore.DEClash.Weighted>
1.5088

> <Gold.Chemscore.DEInternal.Weighted>
2.0440

> <Gold.Chemscore.Rot.Weighted>
7.3765

> <Gold.Chemscore.Internal.Correction.Weighted>
   9.000000E+99

> <Gold.Protein.RotatedTorsions>
[ 6907 6896 6895 6894 ] final  105.34 input  -60.11 | X-H torsion
[ 7974 7965 7964 7962 ] final   37.94 input  175.53 | X-H torsion
[ 8008 7997 7996 7995 ] final  151.17 input   59.86 | X-H torsion
[ 10167 10162 10161 10158 ] final  121.21 input  -65.29 | X-H torsion
[ 10718 10713 10712 10709 ] final  -41.22 input   66.30 | X-H torsion
[ 10763 10752 10751 10750 ] final -169.29 input  -60.55 | X-H torsion
[ 11005 11000 10999 10996 ] final  179.43 input  -57.11 | X-H torsion

> <Gold.Protein.ActiveResidues>
 VAL166  LYS551  ARG553  GLY616  TRP617  ASP618  TYR619  PRO620  LYS621  CYS622 
 ASP623  PHE694  ASN695  SER759  ASP760  ASP761  ALA762  ILE779  LEU786  VAL792 
 PHE793  MET794  SER795  GLU796  ALA797  LYS798  CYS799  TRP800  GLU811  SER814 

> <Gold.Protein.RotatedAtoms>
  152.5233  133.9542  159.7686 H   0  0  0  0  0  0  0  0  0  0  0  0  # atno 6907 bound_to 6896
  150.9846  133.6202  159.2724 H   0  0  0  0  0  0  0  0  0  0  0  0  # atno 6908 bound_to 6896
  151.3368  135.0860  159.9410 H   0  0  0  0  0  0  0  0  0  0  0  0  # atno 6909 bound_to 6896
  146.1099  139.5832  142.9359 H   0  0  0  0  0  0  0  0  0  0  0  0  # atno 7974 bound_to 7965
  156.2685  140.2055  156.6133 H   0  0  0  0  0  0  0  0  0  0  0  0  # atno 8008 bound_to 7997
  154.6814  140.0539  157.0294 H   0  0  0  0  0  0  0  0  0  0  0  0  # atno 8009 bound_to 7997
  155.0995  140.3204  155.4554 H   0  0  0  0  0  0  0  0  0  0  0  0  # atno 8010 bound_to 7997
  139.5934  144.7033  151.3235 H   0  0  0  0  0  0  0  0  0  0  0  0  # atno 10167 bound_to 10162
  156.2728  130.4208  149.8420 H   0  0  0  0  0  0  0  0  0  0  0  0  # atno 10718 bound_to 10713
  154.6539  135.2915  154.9953 H   0  0  0  0  0  0  0  0  0  0  0  0  # atno 10763 bound_to 10752
  154.1036  135.6573  153.4876 H   0  0  0  0  0  0  0  0  0  0  0  0  # atno 10764 bound_to 10752
  153.0391  135.5248  154.7459 H   0  0  0  0  0  0  0  0  0  0  0  0  # atno 10765 bound_to 10752
  140.4060  134.6734  157.4588 H   0  0  0  0  0  0  0  0  0  0  0  0  # atno 11005 bound_to 11000
  145.5684  141.0397  143.2188 LP  0  0  0  0  0  0  0  0  0  0  0  0  # atno 17320 bound_to 7965
  144.7503  139.7212  143.7276 LP  0  0  0  0  0  0  0  0  0  0  0  0  # atno 17321 bound_to 7965
  140.7192  143.7183  150.7715 LP  0  0  0  0  0  0  0  0  0  0  0  0  # atno 17342 bound_to 10162
  140.0744  143.5029  152.2563 LP  0  0  0  0  0  0  0  0  0  0  0  0  # atno 17343 bound_to 10162
  156.5895  130.8500  151.3404 LP  0  0  0  0  0  0  0  0  0  0  0  0  # atno 17370 bound_to 10713
  157.7289  130.9664  150.1765 LP  0  0  0  0  0  0  0  0  0  0  0  0  # atno 17371 bound_to 10713
  140.0301  134.6418  155.9118 LP  0  0  0  0  0  0  0  0  0  0  0  0  # atno 17394 bound_to 11000
  141.1839  133.6551  156.5134 LP  0  0  0  0  0  0  0  0  0  0  0  0  # atno 17395 bound_to 11000

$$$$
