AV-unprocessed.smi:290|AV-procd|sdf|2241|dock2
  -GOLD-   2262022113D 1   1.00000     0.00000
 Structure written by MMmdl.
 59 62  0  0  0  0  0  0  0  0  2 V2000
  152.0172  144.5134  158.5131 C   0  0  0  0  0  0  0  0  0  0  0  0
  151.5129  143.1232  158.9334 C   0  0  2  0  0  0  0  0  0  0  0  0
  152.5996  142.2853  159.2981 O   0  0  0  0  0  0  0  0  0  0  0  0
  152.1135  140.9552  159.2985 C   0  0  0  0  0  0  0  0  0  0  0  0
  151.2881  140.8962  158.0188 C   0  0  0  0  0  0  0  0  0  0  0  0
  150.7159  142.3107  157.8790 C   0  0  2  0  0  0  0  0  0  0  0  0
  150.9798  142.7640  156.5615 O   0  0  0  0  0  0  0  0  0  0  0  0
  149.1843  142.3427  158.1072 C   0  0  0  0  0  0  0  0  0  0  0  0
  148.4384  141.4862  157.1968 N   0  0  0  0  0  0  0  0  0  0  0  0
  147.6837  141.8903  156.1203 C   0  0  0  0  0  0  0  0  0  0  0  0
  147.1048  140.9283  155.4565 N   0  0  0  0  0  0  0  0  0  0  0  0
  147.5041  139.7655  156.1074 C   0  0  0  0  0  0  0  0  0  0  0  0
  147.2561  138.3718  155.9197 C   0  0  0  0  0  0  0  0  0  0  0  0
  146.4985  137.8348  154.9268 N   0  0  0  0  0  0  0  0  0  0  0  0
  145.6596  138.6587  154.0754 C   0  0  0  0  0  0  0  0  0  0  0  0
  145.6256  137.9149  152.7473 C   0  0  0  0  0  0  0  0  0  0  0  0
  145.7307  136.4321  153.1421 C   0  0  1  0  0  0  0  0  0  0  0  0
  146.2510  135.5834  152.0233 N   0  3  2  0  0  0  0  0  0  0  0  0
  145.5516  135.8769  150.7447 C   0  0  0  0  0  0  0  0  0  0  0  0
  146.2911  134.1224  152.3222 C   0  0  0  0  0  0  0  0  0  0  0  0
  146.6842  133.2426  151.1198 C   0  0  0  0  0  0  0  0  0  0  0  0
  146.7824  131.8905  151.5149 O   0  0  0  0  0  0  0  0  0  0  0  0
  146.6076  136.4686  154.4240 C   0  0  2  0  0  0  0  0  0  0  0  0
  146.1291  135.4648  155.4966 C   0  0  0  0  0  0  0  0  0  0  0  0
  147.8277  137.5155  156.8065 N   0  0  0  0  0  0  0  0  0  0  0  0
  148.5983  137.9735  157.7962 C   0  0  0  0  0  0  0  0  0  0  0  0
  148.9230  139.2341  158.0824 N   0  0  0  0  0  0  0  0  0  0  0  0
  148.3442  140.1051  157.2081 C   0  0  0  0  0  0  0  0  0  0  0  0
  144.7321  136.0823  153.4113 H   0  0  0  0  0  0  0  0  0  0  0  0
  147.6481  136.2918  154.1542 H   0  0  0  0  0  0  0  0  0  0  0  0
  151.1910  145.1601  158.2171 H   0  0  0  0  0  0  0  0  0  0  0  0
  152.7163  144.4522  157.6788 H   0  0  0  0  0  0  0  0  0  0  0  0
  152.5364  144.9996  159.3391 H   0  0  0  0  0  0  0  0  0  0  0  0
  150.9083  143.2337  159.8341 H   0  0  0  0  0  0  0  0  0  0  0  0
  152.9252  140.2275  159.3116 H   0  0  0  0  0  0  0  0  0  0  0  0
  151.4870  140.7910  160.1769 H   0  0  0  0  0  0  0  0  0  0  0  0
  151.9500  140.6561  157.1847 H   0  0  0  0  0  0  0  0  0  0  0  0
  150.5239  140.1190  158.0581 H   0  0  0  0  0  0  0  0  0  0  0  0
  150.2200  143.2307  156.2494 H   0  0  0  0  0  0  0  0  0  0  0  0
  148.9488  142.0384  159.1279 H   0  0  0  0  0  0  0  0  0  0  0  0
  148.8110  143.3622  158.0027 H   0  0  0  0  0  0  0  0  0  0  0  0
  147.5702  142.9291  155.8453 H   0  0  0  0  0  0  0  0  0  0  0  0
  144.6631  138.7245  154.5136 H   0  0  0  0  0  0  0  0  0  0  0  0
  146.0501  139.6695  153.9498 H   0  0  0  0  0  0  0  0  0  0  0  0
  144.7269  138.1504  152.1770 H   0  0  0  0  0  0  0  0  0  0  0  0
  146.4909  138.2064  152.1498 H   0  0  0  0  0  0  0  0  0  0  0  0
  144.5172  135.5328  150.7791 H   0  0  0  0  0  0  0  0  0  0  0  0
  146.0428  135.4029  149.8968 H   0  0  0  0  0  0  0  0  0  0  0  0
  145.5438  136.9423  150.5188 H   0  0  0  0  0  0  0  0  0  0  0  0
  147.0247  133.9172  153.0994 H   0  0  0  0  0  0  0  0  0  0  0  0
  145.3217  133.8078  152.7112 H   0  0  0  0  0  0  0  0  0  0  0  0
  145.9129  133.3137  150.3525 H   0  0  0  0  0  0  0  0  0  0  0  0
  147.6107  133.5652  150.6467 H   0  0  0  0  0  0  0  0  0  0  0  0
  147.5178  131.4982  151.0681 H   0  0  0  0  0  0  0  0  0  0  0  0
  146.1544  134.4349  155.1459 H   0  0  0  0  0  0  0  0  0  0  0  0
  145.1027  135.6767  155.7982 H   0  0  0  0  0  0  0  0  0  0  0  0
  146.7423  135.5096  156.3959 H   0  0  0  0  0  0  0  0  0  0  0  0
  149.0148  137.2226  158.4512 H   0  0  0  0  0  0  0  0  0  0  0  0
  147.2144  135.8583  151.8933 H   0  0  0  0  0  0  0  0  0  0  0  0
  1  2  1  0  0  0  0
  1 31  1  0  0  0  0
  1 32  1  0  0  0  0
  1 33  1  0  0  0  0
  2  6  1  0  0  0  0
  2  3  1  0  0  0  0
  2 34  1  0  0  0  0
  3  4  1  0  0  0  0
  4  5  1  0  0  0  0
  4 35  1  0  0  0  0
  4 36  1  0  0  0  0
  5  6  1  0  0  0  0
  5 37  1  0  0  0  0
  5 38  1  0  0  0  0
  6  7  1  0  0  0  0
  6  8  1  0  0  0  0
  7 39  1  0  0  0  0
  8  9  1  0  0  0  0
  8 40  1  0  0  0  0
  8 41  1  0  0  0  0
  9 28  1  0  0  0  0
  9 10  1  0  0  0  0
 10 11  2  0  0  0  0
 10 42  1  0  0  0  0
 11 12  1  0  0  0  0
 12 28  2  0  0  0  0
 12 13  1  0  0  0  0
 13 14  1  0  0  0  0
 13 25  2  0  0  0  0
 14 23  1  0  0  0  0
 14 15  1  0  0  0  0
 15 16  1  0  0  0  0
 15 43  1  0  0  0  0
 15 44  1  0  0  0  0
 16 17  1  0  0  0  0
 16 45  1  0  0  0  0
 16 46  1  0  0  0  0
 17 29  1  0  0  0  0
 17 18  1  0  0  0  0
 17 23  1  0  0  0  0
 18 19  1  0  0  0  0
 18 20  1  0  0  0  0
 18 59  1  0  0  0  0
 19 47  1  0  0  0  0
 19 48  1  0  0  0  0
 19 49  1  0  0  0  0
 20 21  1  0  0  0  0
 20 50  1  0  0  0  0
 20 51  1  0  0  0  0
 21 22  1  0  0  0  0
 21 52  1  0  0  0  0
 21 53  1  0  0  0  0
 22 54  1  0  0  0  0
 23 30  1  0  0  0  0
 23 24  1  0  0  0  0
 24 55  1  0  0  0  0
 24 56  1  0  0  0  0
 24 57  1  0  0  0  0
 25 26  1  0  0  0  0
 26 27  2  0  0  0  0
 26 58  1  0  0  0  0
 27 28  1  0  0  0  0
M  CHG  1  18   1
M  END
> <s_m_source_file>
AV-unprocessed.smi

> <i_m_source_file_index>
290

> <i_lp_mmshare_version>
43012

> <i_f3d_flags>
0

> <s_epik_input>
W0NIMl0xW0NIMl1PW0NAQEhdKFtDSDNdKVtDQEBdMShbT0hdKVtDSDJdbihbY0hdbjIpYyhjMjMpbltjSF1uYzNONFtDSDJdW0NIMl1bQ0BIXShbQ0BIXTRbQ0gzXSlOKFtDSDNdKVtDSDJdW0NIMl1bT0hd

> <s_epik_cmdline>
J2VwaWtfcHl0aG9uJywgJy1waCcsICc3LjAnLCAnLXRuJywgJzgnLCAnLW1hJywgJzIwMCcsICctbWV0YWxfYmluZGluZycsICctaW1hZScsICc8aW5maWxlLm1hZT4nLCAnLW9tYWUnLCAnPG91dGZpbGUubWFlPic=

> <r_lp_tautomer_probability>
1

> <r_epik_Ionization_Penalty>
0.0036983

> <r_epik_Ionization_Penalty_Charging>
0.0032725

> <r_epik_Ionization_Penalty_Neutral>
0.000425798

> <r_epik_State_Penalty>
-0

> <r_epik_Charging_Adjusted_Penalty>
0.0032725

> <i_epik_Tot_Q>
1

> <i_epik_Tot_abs_Q>
1

> <r_epik_Metal_State_Penalty>
-0

> <b_epik_Metal_Only>
0

> <s_lp_Force_Field>
OPLS_2005

> <r_lp_Energy>
64.4963

> <b_lp_Chiralities_Consistent>
1

> <s_lp_Variant>
AV-unprocessed.smi:290-27

> <Gold.Version>
5.8.1

> <Gold.Id.Protein>
6NUR|6NUR_protein|mol2

> <Gold.PLP.Fitness>
47.8120

> <Gold.PLP.PLP>
-33.4632

> <Gold.PLP.part.hbond>
-3.0531

> <Gold.PLP.part.metal>
0.0000

> <Gold.PLP.part.buried>
-6.4055

> <Gold.PLP.part.nonpolar>
-24.1672

> <Gold.PLP.part.repulsive>
0.0810

> <Gold.PLP.ligand.clash>
0.0000

> <Gold.PLP.ligand.torsion>
0.4976

> <Gold.PLP.Chemscore.Hbond>
4.0000

> <Gold.PLP.Chemscore.CHOScore>
1.0000

> <Gold.PLP.Chemscore.Metal>
0.0000

> <Gold.Chemscore.Hbonds>
donor molecule, donor type, donor heavy atom, donor atom, acceptor molecule, acceptor atom, score
      L1  H     7    39       P1  8028  0.88
      L1  H    18    59       P1  7948  2.00
      L1  H    22    54       P1 10747  1.00
      L1  C    10    42       P1  8028  1.00

> <Gold.PLP.Chemscore.Internal.Correction>
0.3441

> <Gold.Rescore>
     Score         DG    S(hbond)    S(metal)    S(lipo)     H(rot)  DE(clash)    DE(int)     intcor
     12.23     -16.21       2.97        0.00      80.19       3.35       0.02       3.95       ----

> <Gold.Chemscore.Fitness>
12.2324

> <Gold.Chemscore.DG>
-16.2071

> <Gold.Chemscore.ZeroCoef>
-5.4800

> <Gold.Chemscore.Hbond>
2.9718

> <Gold.Chemscore.Metal>
0.0000

> <Gold.Chemscore.Lipo>
80.1876

> <Gold.Chemscore.Internal_Hbond>
0.0000

> <Gold.Chemscore.DEClash>
0.0233

> <Gold.Chemscore.DEInternal>
3.9513

> <Gold.Chemscore.Rot>
3.3518

> <Gold.Chemscore.Internal.Correction>
   9.000000E+99

> <Gold.Chemscore.Hbonds>
donor molecule, donor type, donor heavy atom, donor atom, acceptor molecule, acceptor atom, score
      L1  H     7    39       P1  8028  0.85
      L1  H    18    59       P1  7948  1.00
      L1  H    22    54       P1 10747  1.00

> <Gold.Chemscore.Hbond.Weighted>
-9.9257

> <Gold.Chemscore.Metal.Weighted>
-0.0000

> <Gold.Chemscore.Lipo.Weighted>
-9.3820

> <Gold.Chemscore.Internal_Hbond.Weighted>
0.0000

> <Gold.Chemscore.DEClash.Weighted>
0.0233

> <Gold.Chemscore.DEInternal.Weighted>
3.9513

> <Gold.Chemscore.Rot.Weighted>
8.5806

> <Gold.Chemscore.Internal.Correction.Weighted>
   9.000000E+99

> <Gold.Protein.RotatedTorsions>
[ 6907 6896 6895 6894 ] final  -64.19 input  -60.11 | X-H torsion
[ 7974 7965 7964 7962 ] final   45.10 input  175.53 | X-H torsion
[ 8008 7997 7996 7995 ] final   57.02 input   59.86 | X-H torsion
[ 10167 10162 10161 10158 ] final -153.57 input  -65.29 | X-H torsion
[ 10718 10713 10712 10709 ] final -156.29 input   66.30 | X-H torsion
[ 10763 10752 10751 10750 ] final   58.15 input  -60.55 | X-H torsion
[ 11005 11000 10999 10996 ] final   70.43 input  -57.11 | X-H torsion

> <Gold.Protein.ActiveResidues>
 VAL166  LYS551  ARG553  GLY616  TRP617  ASP618  TYR619  PRO620  LYS621  CYS622 
 ASP623  PHE694  ASN695  SER759  ASP760  ASP761  ALA762  ILE779  LEU786  VAL792 
 PHE793  MET794  SER795  GLU796  ALA797  LYS798  CYS799  TRP800  GLU811  SER814 

> <Gold.Protein.RotatedAtoms>
  150.7601  134.6332  159.6197 H   0  0  0  0  0  0  0  0  0  0  0  0  # atno 6907 bound_to 6896
  152.3603  134.6878  160.0218 H   0  0  0  0  0  0  0  0  0  0  0  0  # atno 6908 bound_to 6896
  151.7270  133.3280  159.3366 H   0  0  0  0  0  0  0  0  0  0  0  0  # atno 6909 bound_to 6896
  146.0510  139.5001  142.9718 H   0  0  0  0  0  0  0  0  0  0  0  0  # atno 7974 bound_to 7965
  155.5270  140.3481  155.4418 H   0  0  0  0  0  0  0  0  0  0  0  0  # atno 8008 bound_to 7997
  156.0745  140.1371  156.9815 H   0  0  0  0  0  0  0  0  0  0  0  0  # atno 8009 bound_to 7997
  154.4546  140.0959  156.6694 H   0  0  0  0  0  0  0  0  0  0  0  0  # atno 8010 bound_to 7997
  139.7086  143.9145  152.2459 H   0  0  0  0  0  0  0  0  0  0  0  0  # atno 10167 bound_to 10162
  156.5245  130.8493  151.2694 H   0  0  0  0  0  0  0  0  0  0  0  0  # atno 10718 bound_to 10713
  152.9865  135.5616  154.5506 H   0  0  0  0  0  0  0  0  0  0  0  0  # atno 10763 bound_to 10752
  154.4944  135.2794  155.1473 H   0  0  0  0  0  0  0  0  0  0  0  0  # atno 10764 bound_to 10752
  154.2929  135.6322  153.5446 H   0  0  0  0  0  0  0  0  0  0  0  0  # atno 10765 bound_to 10752
  139.9598  134.7081  156.0672 H   0  0  0  0  0  0  0  0  0  0  0  0  # atno 11005 bound_to 11000
  145.6725  141.0213  143.1650 LP  0  0  0  0  0  0  0  0  0  0  0  0  # atno 17320 bound_to 7965
  144.7122  139.8327  143.7410 LP  0  0  0  0  0  0  0  0  0  0  0  0  # atno 17321 bound_to 7965
  139.9008  144.6913  150.8667 LP  0  0  0  0  0  0  0  0  0  0  0  0  # atno 17342 bound_to 10162
  140.7728  143.3515  151.2005 LP  0  0  0  0  0  0  0  0  0  0  0  0  # atno 17343 bound_to 10162
  157.7431  130.9906  150.2571 LP  0  0  0  0  0  0  0  0  0  0  0  0  # atno 17370 bound_to 10713
  156.3118  130.3773  149.7655 LP  0  0  0  0  0  0  0  0  0  0  0  0  # atno 17371 bound_to 10713
  141.1274  133.6595  156.3372 LP  0  0  0  0  0  0  0  0  0  0  0  0  # atno 17394 bound_to 11000
  140.5526  134.6012  157.5412 LP  0  0  0  0  0  0  0  0  0  0  0  0  # atno 17395 bound_to 11000

$$$$
