AV-unprocessed.smi:1128|AV-procd|sdf|4845|dock3
  -GOLD-   22720 3413D 1   1.00000     0.00000
 Structure written by MMmdl.
 37 38  0  0  0  0  0  0  0  0  2 V2000
  147.1100  132.7634  154.7793 O   0  0  0  0  0  0  0  0  0  0  0  0
  147.8543  133.5801  154.2376 C   0  0  0  0  0  0  0  0  0  0  0  0
  147.4136  134.5292  153.3999 N   0  0  0  0  0  0  0  0  0  0  0  0
  146.0200  134.7331  153.0185 C   0  0  0  0  0  0  0  0  0  0  0  0
  145.4611  133.5699  152.1723 C   0  0  1  0  0  0  0  0  0  0  0  0
  143.9310  133.6732  151.9665 C   0  0  0  0  0  0  0  0  0  0  0  0
  143.4153  132.7159  150.9067 C   0  0  0  0  0  0  0  0  0  0  0  0
  144.2123  132.0779  150.0335 C   0  0  0  0  0  0  0  0  0  0  0  0
  145.7194  132.2490  150.0025 C   0  0  0  0  0  0  0  0  0  0  0  0
  146.1833  133.4720  150.8153 C   0  0  0  0  0  0  0  0  0  0  0  0
  149.1906  133.6520  154.3760 N   0  0  0  0  0  0  0  0  0  0  0  0
  150.0617  132.8629  155.1478 C   0  0  0  0  0  0  0  0  0  0  0  0
  150.5552  131.6482  154.7779 C   0  0  0  0  0  0  0  0  0  0  0  0
  151.4540  130.8787  155.6295 C   0  0  0  0  0  0  0  0  0  0  0  0
  151.9575  129.4882  155.2849 C   0  0  0  0  0  0  0  0  0  0  0  0
  151.4254  129.0549  154.1417 F   0  0  0  0  0  0  0  0  0  0  0  0
  153.2849  129.4771  155.1615 F   0  0  0  0  0  0  0  0  0  0  0  0
  151.6224  128.6324  156.2493 F   0  0  0  0  0  0  0  0  0  0  0  0
  151.7086  131.5117  156.8305 C   0  0  0  0  0  0  0  0  0  0  0  0
  151.2712  132.7121  157.2688 N   0  5  0  0  0  0  0  0  0  0  0  0
  150.4344  133.4249  156.4630 C   0  0  0  0  0  0  0  0  0  0  0  0
  149.9877  134.5198  156.8073 O   0  0  0  0  0  0  0  0  0  0  0  0
  148.0930  135.1555  152.9934 H   0  0  0  0  0  0  0  0  0  0  0  0
  145.4347  134.8427  153.9319 H   0  0  0  0  0  0  0  0  0  0  0  0
  145.9229  135.6768  152.4790 H   0  0  0  0  0  0  0  0  0  0  0  0
  145.6625  132.6403  152.7074 H   0  0  0  0  0  0  0  0  0  0  0  0
  143.4124  133.4665  152.9032 H   0  0  0  0  0  0  0  0  0  0  0  0
  143.6531  134.6842  151.6667 H   0  0  0  0  0  0  0  0  0  0  0  0
  142.3467  132.5635  150.8677 H   0  0  0  0  0  0  0  0  0  0  0  0
  143.7843  131.3956  149.3136 H   0  0  0  0  0  0  0  0  0  0  0  0
  146.1707  131.3390  150.3988 H   0  0  0  0  0  0  0  0  0  0  0  0
  146.0505  132.3437  148.9680 H   0  0  0  0  0  0  0  0  0  0  0  0
  145.9925  134.3805  150.2424 H   0  0  0  0  0  0  0  0  0  0  0  0
  147.2631  133.4224  150.9599 H   0  0  0  0  0  0  0  0  0  0  0  0
  149.6573  134.3590  153.8268 H   0  0  0  0  0  0  0  0  0  0  0  0
  150.2895  131.2032  153.8341 H   0  0  0  0  0  0  0  0  0  0  0  0
  152.3579  130.9687  157.5504 H   0  0  0  0  0  0  0  0  0  0  0  0
  1  2  2  0  0  0  0
  2  3  1  0  0  0  0
  2 11  1  0  0  0  0
  3  4  1  0  0  0  0
  3 23  1  0  0  0  0
  4  5  1  0  0  0  0
  4 24  1  0  0  0  0
  4 25  1  0  0  0  0
  5 10  1  0  0  0  0
  5  6  1  0  0  0  0
  5 26  1  0  0  0  0
  6  7  1  0  0  0  0
  6 27  1  0  0  0  0
  6 28  1  0  0  0  0
  7  8  2  0  0  0  0
  7 29  1  0  0  0  0
  8  9  1  0  0  0  0
  8 30  1  0  0  0  0
  9 10  1  0  0  0  0
  9 31  1  0  0  0  0
  9 32  1  0  0  0  0
 10 33  1  0  0  0  0
 10 34  1  0  0  0  0
 11 12  1  0  0  0  0
 11 35  1  0  0  0  0
 12 21  1  0  0  0  0
 12 13  2  0  0  0  0
 13 14  1  0  0  0  0
 13 36  1  0  0  0  0
 14 15  1  0  0  0  0
 14 19  2  0  0  0  0
 15 16  1  0  0  0  0
 15 17  1  0  0  0  0
 15 18  1  0  0  0  0
 19 20  1  0  0  0  0
 19 37  1  0  0  0  0
 20 21  1  0  0  0  0
 21 22  2  0  0  0  0
M  CHG  1  20  -1
M  END
> <s_m_source_file>
AV-unprocessed.smi

> <i_m_source_file_index>
1128

> <i_lp_mmshare_version>
43012

> <i_f3d_flags>
0

> <s_epik_input>
Tz1jMVtuSF1bY0hdYyhDKEYpKEYpRilbY0hdYzFbTkhdQyg9TylbTkhdW0NIMl1bQ0BASF0yW0NIMl1bQ0hdPVtDSF1bQ0gyXVtDSDJdMg==

> <s_epik_cmdline>
J2VwaWtfcHl0aG9uJywgJy1waCcsICc3LjAnLCAnLXRuJywgJzgnLCAnLW1hJywgJzIwMCcsICctbWV0YWxfYmluZGluZycsICctaW1hZScsICc8aW5maWxlLm1hZT4nLCAnLW9tYWUnLCAnPG91dGZpbGUubWFlPic=

> <r_lp_tautomer_probability>
1

> <r_epik_Ionization_Penalty>
3.16664

> <r_epik_Ionization_Penalty_Charging>
0.172425

> <r_epik_Ionization_Penalty_Neutral>
2.99422

> <r_epik_State_Penalty>
2.99038

> <r_epik_Charging_Adjusted_Penalty>
3.16281

> <i_epik_Tot_Q>
-1

> <i_epik_Tot_abs_Q>
1

> <r_epik_Metal_State_Penalty>
0.453031

> <b_epik_Metal_Only>
1

> <s_lp_Force_Field>
OPLS_2005

> <r_lp_Energy>
22.2299

> <b_lp_Chiralities_Consistent>
1

> <s_lp_Variant>
AV-unprocessed.smi:1128-4

> <Gold.Version>
5.8.1

> <Gold.Id.Protein>
6NUR|6NUR_protein|mol2

> <Gold.PLP.Fitness>
42.6208

> <Gold.PLP.PLP>
-35.4794

> <Gold.PLP.part.hbond>
-2.0000

> <Gold.PLP.part.metal>
0.0000

> <Gold.PLP.part.buried>
-3.7639

> <Gold.PLP.part.nonpolar>
-30.4385

> <Gold.PLP.part.repulsive>
0.0380

> <Gold.PLP.ligand.clash>
0.0000

> <Gold.PLP.ligand.torsion>
0.8890

> <Gold.PLP.Chemscore.Hbond>
2.9520

> <Gold.PLP.Chemscore.CHOScore>
0.0000

> <Gold.PLP.Chemscore.Metal>
0.0000

> <Gold.Chemscore.Hbonds>
donor molecule, donor type, donor heavy atom, donor atom, acceptor molecule, acceptor atom, score
      L1  H     3    23       P1  7948  1.00
      P1  H  6896  6909       L1    20  1.89

> <Gold.PLP.Chemscore.Internal.Correction>
0.0635

> <Gold.Rescore>
     Score         DG    S(hbond)    S(metal)    S(lipo)     H(rot)  DE(clash)    DE(int)     intcor
     16.68     -17.63       1.92        0.00      77.39       1.29       0.04       0.91       ----

> <Gold.Chemscore.Fitness>
16.6752

> <Gold.Chemscore.DG>
-17.6313

> <Gold.Chemscore.ZeroCoef>
-5.4800

> <Gold.Chemscore.Hbond>
1.9193

> <Gold.Chemscore.Metal>
0.0000

> <Gold.Chemscore.Lipo>
77.3850

> <Gold.Chemscore.Internal_Hbond>
0.0000

> <Gold.Chemscore.DEClash>
0.0445

> <Gold.Chemscore.DEInternal>
0.9116

> <Gold.Chemscore.Rot>
1.2943

> <Gold.Chemscore.Internal.Correction>
   9.000000E+99

> <Gold.Chemscore.Hbonds>
donor molecule, donor type, donor heavy atom, donor atom, acceptor molecule, acceptor atom, score
      L1  H     3    23       P1  7948  0.98
      P1  H  6896  6909       L1    20  0.70

> <Gold.Chemscore.Hbond.Weighted>
-6.4105

> <Gold.Chemscore.Metal.Weighted>
-0.0000

> <Gold.Chemscore.Lipo.Weighted>
-9.0540

> <Gold.Chemscore.Internal_Hbond.Weighted>
0.0000

> <Gold.Chemscore.DEClash.Weighted>
0.0445

> <Gold.Chemscore.DEInternal.Weighted>
0.9116

> <Gold.Chemscore.Rot.Weighted>
3.3133

> <Gold.Chemscore.Internal.Correction.Weighted>
   9.000000E+99

> <Gold.Protein.RotatedTorsions>
[ 6907 6896 6895 6894 ] final  -34.14 input  -60.11 | X-H torsion
[ 7974 7965 7964 7962 ] final    1.63 input  175.53 | X-H torsion
[ 8008 7997 7996 7995 ] final   37.27 input   59.86 | X-H torsion
[ 10167 10162 10161 10158 ] final -176.30 input  -65.29 | X-H torsion
[ 10718 10713 10712 10709 ] final  -49.58 input   66.30 | X-H torsion
[ 10763 10752 10751 10750 ] final   90.14 input  -60.55 | X-H torsion
[ 11005 11000 10999 10996 ] final -152.46 input  -57.11 | X-H torsion

> <Gold.Protein.ActiveResidues>
 VAL166  LYS551  ARG553  GLY616  TRP617  ASP618  TYR619  PRO620  LYS621  CYS622 
 ASP623  PHE694  ASN695  SER759  ASP760  ASP761  ALA762  ILE779  LEU786  VAL792 
 PHE793  MET794  SER795  GLU796  ALA797  LYS798  CYS799  TRP800  GLU811  SER814 

> <Gold.Protein.RotatedAtoms>
  151.0564  134.9708  159.8237 H   0  0  0  0  0  0  0  0  0  0  0  0  # atno 6907 bound_to 6896
  152.5389  134.2472  159.8895 H   0  0  0  0  0  0  0  0  0  0  0  0  # atno 6908 bound_to 6896
  151.2490  133.4317  159.2644 H   0  0  0  0  0  0  0  0  0  0  0  0  # atno 6909 bound_to 6896
  146.2441  140.0958  142.8350 H   0  0  0  0  0  0  0  0  0  0  0  0  # atno 7974 bound_to 7965
  155.2010  140.3316  155.4343 H   0  0  0  0  0  0  0  0  0  0  0  0  # atno 8008 bound_to 7997
  156.2407  140.1893  156.7047 H   0  0  0  0  0  0  0  0  0  0  0  0  # atno 8009 bound_to 7997
  154.6141  140.0604  156.9518 H   0  0  0  0  0  0  0  0  0  0  0  0  # atno 8010 bound_to 7997
  139.5537  144.2044  152.1122 H   0  0  0  0  0  0  0  0  0  0  0  0  # atno 10167 bound_to 10162
  156.1880  130.4152  149.9411 H   0  0  0  0  0  0  0  0  0  0  0  0  # atno 10718 bound_to 10713
  153.1944  135.4445  155.0189 H   0  0  0  0  0  0  0  0  0  0  0  0  # atno 10763 bound_to 10752
  154.8110  135.3294  154.7308 H   0  0  0  0  0  0  0  0  0  0  0  0  # atno 10764 bound_to 10752
  153.7759  135.6981  153.4953 H   0  0  0  0  0  0  0  0  0  0  0  0  # atno 10765 bound_to 10752
  140.7187  134.3752  157.5187 H   0  0  0  0  0  0  0  0  0  0  0  0  # atno 11005 bound_to 11000
  145.0611  140.9088  143.4938 LP  0  0  0  0  0  0  0  0  0  0  0  0  # atno 17320 bound_to 7965
  145.1073  139.2781  143.5655 LP  0  0  0  0  0  0  0  0  0  0  0  0  # atno 17321 bound_to 7965
  140.1544  144.5084  150.6668 LP  0  0  0  0  0  0  0  0  0  0  0  0  # atno 17342 bound_to 10162
  140.6805  143.2324  151.5396 LP  0  0  0  0  0  0  0  0  0  0  0  0  # atno 17343 bound_to 10162
  156.7161  130.8989  151.3614 LP  0  0  0  0  0  0  0  0  0  0  0  0  # atno 17370 bound_to 10713
  157.6911  130.9234  150.0517 LP  0  0  0  0  0  0  0  0  0  0  0  0  # atno 17371 bound_to 10713
  139.8853  134.8940  156.2648 LP  0  0  0  0  0  0  0  0  0  0  0  0  # atno 17394 bound_to 11000
  141.0022  133.7144  156.0979 LP  0  0  0  0  0  0  0  0  0  0  0  0  # atno 17395 bound_to 11000

$$$$
