AV-unprocessed.smi:1055|AV-procd|sdf|4627|dock4
  -GOLD-   22720 3133D 1   1.00000     0.00000
 Structure written by MMmdl.
 51 52  0  0  0  0  0  0  0  0  2 V2000
  147.6731  127.6942  150.9065 C   0  0  0  0  0  0  0  0  0  0  0  0
  147.9673  127.9153  152.1984 C   0  0  0  0  0  0  0  0  0  0  0  0
  149.0183  127.1048  152.9338 C   0  0  0  0  0  0  0  0  0  0  0  0
  147.2644  128.9880  153.0151 C   0  0  0  0  0  0  0  0  0  0  0  0
  147.1229  130.2524  152.2511 N   0  3  2  0  0  0  0  0  0  0  0  0
  147.2365  131.4509  153.1202 C   0  0  0  0  0  0  0  0  0  0  0  0
  147.2392  132.7453  152.2863 C   0  0  0  0  0  0  0  0  0  0  0  0
  146.0041  132.8484  151.3748 C   0  0  2  0  0  0  0  0  0  0  0  0
  144.8049  133.1159  152.1685 N   0  0  0  0  0  0  0  0  0  0  0  0
  144.0948  134.2531  152.1412 C   0  0  0  0  0  0  0  0  0  0  0  0
  144.3729  135.2084  151.4172 O   0  0  0  0  0  0  0  0  0  0  0  0
  143.0726  134.2090  153.0124 N   0  0  0  0  0  0  0  0  0  0  0  0
  142.0841  135.1994  153.2585 C   0  0  0  0  0  0  0  0  0  0  0  0
  142.4069  136.5428  152.9888 C   0  0  0  0  0  0  0  0  0  0  0  0
  141.4526  137.5462  153.2416 C   0  0  0  0  0  0  0  0  0  0  0  0
  140.1902  137.1824  153.7727 C   0  0  0  0  0  0  0  0  0  0  0  0
  139.1962  138.1508  154.0426 N   0  0  0  0  0  0  0  0  0  0  0  0
  139.4255  139.5510  153.7090 C   0  0  0  0  0  0  0  0  0  0  0  0
  137.9480  137.7505  154.6844 C   0  0  0  0  0  0  0  0  0  0  0  0
  139.8895  135.8891  154.0463 N   0  0  0  0  0  0  0  0  0  0  0  0
  140.8058  134.9297  153.7999 C   0  0  0  0  0  0  0  0  0  0  0  0
  145.8673  131.5610  150.5371 C   0  0  0  0  0  0  0  0  0  0  0  0
  145.8958  130.2959  151.4123 C   0  0  0  0  0  0  0  0  0  0  0  0
  148.1796  126.9264  150.3395 H   0  0  0  0  0  0  0  0  0  0  0  0
  146.9219  128.2772  150.3938 H   0  0  0  0  0  0  0  0  0  0  0  0
  148.5754  126.6023  153.7942 H   0  0  0  0  0  0  0  0  0  0  0  0
  149.8225  127.7497  153.2893 H   0  0  0  0  0  0  0  0  0  0  0  0
  149.4579  126.3445  152.2873 H   0  0  0  0  0  0  0  0  0  0  0  0
  146.2829  128.6438  153.3458 H   0  0  0  0  0  0  0  0  0  0  0  0
  147.8571  129.1569  153.9151 H   0  0  0  0  0  0  0  0  0  0  0  0
  146.4152  131.4610  153.8385 H   0  0  0  0  0  0  0  0  0  0  0  0
  148.1600  131.3982  153.6983 H   0  0  0  0  0  0  0  0  0  0  0  0
  147.3001  133.6148  152.9422 H   0  0  0  0  0  0  0  0  0  0  0  0
  148.1395  132.7683  151.6706 H   0  0  0  0  0  0  0  0  0  0  0  0
  146.1524  133.6930  150.6991 H   0  0  0  0  0  0  0  0  0  0  0  0
  144.5060  132.3894  152.8025 H   0  0  0  0  0  0  0  0  0  0  0  0
  143.0269  133.3949  153.6077 H   0  0  0  0  0  0  0  0  0  0  0  0
  143.3744  136.8062  152.5863 H   0  0  0  0  0  0  0  0  0  0  0  0
  141.7086  138.5717  153.0229 H   0  0  0  0  0  0  0  0  0  0  0  0
  140.3013  139.9321  154.2349 H   0  0  0  0  0  0  0  0  0  0  0  0
  138.5738  140.1708  153.9900 H   0  0  0  0  0  0  0  0  0  0  0  0
  139.5823  139.6694  152.6365 H   0  0  0  0  0  0  0  0  0  0  0  0
  138.1422  137.3397  155.6757 H   0  0  0  0  0  0  0  0  0  0  0  0
  137.4362  136.9929  154.0898 H   0  0  0  0  0  0  0  0  0  0  0  0
  137.2701  138.5961  154.8002 H   0  0  0  0  0  0  0  0  0  0  0  0
  140.4981  133.9314  154.0695 H   0  0  0  0  0  0  0  0  0  0  0  0
  144.9545  131.5825  149.9408 H   0  0  0  0  0  0  0  0  0  0  0  0
  146.6894  131.5139  149.8215 H   0  0  0  0  0  0  0  0  0  0  0  0
  145.8510  129.4195  150.7655 H   0  0  0  0  0  0  0  0  0  0  0  0
  145.0127  130.2583  152.0521 H   0  0  0  0  0  0  0  0  0  0  0  0
  147.9103  130.2881  151.6193 H   0  0  0  0  0  0  0  0  0  0  0  0
  1  2  2  0  0  0  0
  1 24  1  0  0  0  0
  1 25  1  0  0  0  0
  2  3  1  0  0  0  0
  2  4  1  0  0  0  0
  3 26  1  0  0  0  0
  3 27  1  0  0  0  0
  3 28  1  0  0  0  0
  4  5  1  0  0  0  0
  4 29  1  0  0  0  0
  4 30  1  0  0  0  0
  5 23  1  0  0  0  0
  5  6  1  0  0  0  0
  5 51  1  0  0  0  0
  6  7  1  0  0  0  0
  6 31  1  0  0  0  0
  6 32  1  0  0  0  0
  7  8  1  0  0  0  0
  7 33  1  0  0  0  0
  7 34  1  0  0  0  0
  8  9  1  0  0  0  0
  8 22  1  0  0  0  0
  8 35  1  0  0  0  0
  9 10  1  0  0  0  0
  9 36  1  0  0  0  0
 10 11  2  0  0  0  0
 10 12  1  0  0  0  0
 12 13  1  0  0  0  0
 12 37  1  0  0  0  0
 13 21  1  0  0  0  0
 13 14  2  0  0  0  0
 14 15  1  0  0  0  0
 14 38  1  0  0  0  0
 15 16  2  0  0  0  0
 15 39  1  0  0  0  0
 16 17  1  0  0  0  0
 16 20  1  0  0  0  0
 17 18  1  0  0  0  0
 17 19  1  0  0  0  0
 18 40  1  0  0  0  0
 18 41  1  0  0  0  0
 18 42  1  0  0  0  0
 19 43  1  0  0  0  0
 19 44  1  0  0  0  0
 19 45  1  0  0  0  0
 20 21  2  0  0  0  0
 21 46  1  0  0  0  0
 22 23  1  0  0  0  0
 22 47  1  0  0  0  0
 22 48  1  0  0  0  0
 23 49  1  0  0  0  0
 23 50  1  0  0  0  0
M  CHG  1   5   1
M  END
> <s_m_source_file>
AV-unprocessed.smi

> <i_m_source_file_index>
1055

> <i_lp_mmshare_version>
43012

> <i_f3d_flags>
0

> <s_epik_input>
W0NIMl09QyhbQ0gzXSlbQ0gyXU4xW0NIMl1bQ0gyXVtDSF0oW0NIMl1bQ0gyXTEpW05IXUMoPU8pW05IXWMyW2NIXVtjSF1jKE4oW0NIM10pW0NIM10pbltjSF0y

> <s_epik_cmdline>
J2VwaWtfcHl0aG9uJywgJy1waCcsICc3LjAnLCAnLXRuJywgJzgnLCAnLW1hJywgJzIwMCcsICctbWV0YWxfYmluZGluZycsICctaW1hZScsICc8aW5maWxlLm1hZT4nLCAnLW9tYWUnLCAnPG91dGZpbGUubWFlPic=

> <r_lp_tautomer_probability>
1

> <r_epik_Ionization_Penalty>
0.534133

> <r_epik_Ionization_Penalty_Charging>
0.0193505

> <r_epik_Ionization_Penalty_Neutral>
0.514782

> <r_epik_State_Penalty>
0.557749

> <r_epik_Charging_Adjusted_Penalty>
0.5771

> <i_epik_Tot_Q>
1

> <i_epik_Tot_abs_Q>
1

> <r_epik_Metal_State_Penalty>
0.306227

> <b_epik_Metal_Only>
0

> <s_lp_Force_Field>
OPLS_2005

> <r_lp_Energy>
19.9376

> <b_lp_Chiralities_Consistent>
1

> <s_lp_Variant>
AV-unprocessed.smi:1055-4

> <Gold.Version>
5.8.1

> <Gold.Id.Protein>
6NUR|6NUR_protein|mol2

> <Gold.PLP.Fitness>
48.1731

> <Gold.PLP.PLP>
-42.4597

> <Gold.PLP.part.hbond>
-2.6718

> <Gold.PLP.part.metal>
0.0000

> <Gold.PLP.part.buried>
-4.5370

> <Gold.PLP.part.nonpolar>
-36.7773

> <Gold.PLP.part.repulsive>
0.3052

> <Gold.PLP.ligand.clash>
0.0000

> <Gold.PLP.ligand.torsion>
0.7946

> <Gold.PLP.Chemscore.Hbond>
2.0000

> <Gold.PLP.Chemscore.CHOScore>
0.4106

> <Gold.PLP.Chemscore.Metal>
0.0000

> <Gold.Chemscore.Hbonds>
donor molecule, donor type, donor heavy atom, donor atom, acceptor molecule, acceptor atom, score
      L1  H     5    51       P1 10747  1.00
      L1  H    12    37       P1 10957  0.98
      L1  C    21    46       P1 11000  0.39

> <Gold.PLP.Chemscore.Internal.Correction>
0.0708

> <Gold.Rescore>
     Score         DG    S(hbond)    S(metal)    S(lipo)     H(rot)  DE(clash)    DE(int)     intcor
     19.10     -21.66       1.95        0.00     111.50       1.33       0.50       2.06       ----

> <Gold.Chemscore.Fitness>
19.1034

> <Gold.Chemscore.DG>
-21.6587

> <Gold.Chemscore.ZeroCoef>
-5.4800

> <Gold.Chemscore.Hbond>
1.9549

> <Gold.Chemscore.Metal>
0.0000

> <Gold.Chemscore.Lipo>
111.5003

> <Gold.Chemscore.Internal_Hbond>
0.0000

> <Gold.Chemscore.DEClash>
0.4967

> <Gold.Chemscore.DEInternal>
2.0585

> <Gold.Chemscore.Rot>
1.3266

> <Gold.Chemscore.Internal.Correction>
   9.000000E+99

> <Gold.Chemscore.Hbonds>
donor molecule, donor type, donor heavy atom, donor atom, acceptor molecule, acceptor atom, score
      L1  H     5    51       P1 10747  1.00
      L1  H    12    37       P1 10957  0.92

> <Gold.Chemscore.Hbond.Weighted>
-6.5293

> <Gold.Chemscore.Metal.Weighted>
-0.0000

> <Gold.Chemscore.Lipo.Weighted>
-13.0455

> <Gold.Chemscore.Internal_Hbond.Weighted>
0.0000

> <Gold.Chemscore.DEClash.Weighted>
0.4967

> <Gold.Chemscore.DEInternal.Weighted>
2.0585

> <Gold.Chemscore.Rot.Weighted>
3.3962

> <Gold.Chemscore.Internal.Correction.Weighted>
   9.000000E+99

> <Gold.Protein.RotatedTorsions>
[ 6907 6896 6895 6894 ] final  111.44 input  -60.11 | X-H torsion
[ 7974 7965 7964 7962 ] final  -86.12 input  175.53 | X-H torsion
[ 8008 7997 7996 7995 ] final -102.34 input   59.86 | X-H torsion
[ 10167 10162 10161 10158 ] final   64.85 input  -65.29 | X-H torsion
[ 10718 10713 10712 10709 ] final  106.19 input   66.30 | X-H torsion
[ 10763 10752 10751 10750 ] final   35.16 input  -60.55 | X-H torsion
[ 11005 11000 10999 10996 ] final -102.70 input  -57.11 | X-H torsion

> <Gold.Protein.ActiveResidues>
 VAL166  LYS551  ARG553  GLY616  TRP617  ASP618  TYR619  PRO620  LYS621  CYS622 
 ASP623  PHE694  ASN695  SER759  ASP760  ASP761  ALA762  ILE779  LEU786  VAL792 
 PHE793  MET794  SER795  GLU796  ALA797  LYS798  CYS799  TRP800  GLU811  SER814 

> <Gold.Protein.RotatedAtoms>
  152.4969  133.8657  159.7272 H   0  0  0  0  0  0  0  0  0  0  0  0  # atno 6907 bound_to 6896
  150.9157  133.6933  159.2850 H   0  0  0  0  0  0  0  0  0  0  0  0  # atno 6908 bound_to 6896
  151.4327  135.1016  159.9699 H   0  0  0  0  0  0  0  0  0  0  0  0  # atno 6909 bound_to 6896
  145.4841  140.9556  143.1848 H   0  0  0  0  0  0  0  0  0  0  0  0  # atno 7974 bound_to 7965
  154.8552  140.0429  157.1630 H   0  0  0  0  0  0  0  0  0  0  0  0  # atno 8008 bound_to 7997
  154.8899  140.2985  155.5356 H   0  0  0  0  0  0  0  0  0  0  0  0  # atno 8009 bound_to 7997
  156.2997  140.2395  156.3913 H   0  0  0  0  0  0  0  0  0  0  0  0  # atno 8010 bound_to 7997
  140.1176  144.4760  150.6939 H   0  0  0  0  0  0  0  0  0  0  0  0  # atno 10167 bound_to 10162
  157.6677  131.0845  150.5970 H   0  0  0  0  0  0  0  0  0  0  0  0  # atno 10718 bound_to 10713
  153.0131  135.6341  154.1783 H   0  0  0  0  0  0  0  0  0  0  0  0  # atno 10763 bound_to 10752
  154.1524  135.2828  155.3133 H   0  0  0  0  0  0  0  0  0  0  0  0  # atno 10764 bound_to 10752
  154.6043  135.5577  153.7468 H   0  0  0  0  0  0  0  0  0  0  0  0  # atno 10765 bound_to 10752
  141.1178  133.8580  157.1393 H   0  0  0  0  0  0  0  0  0  0  0  0  # atno 11005 bound_to 11000
  144.7872  139.6403  143.7129 LP  0  0  0  0  0  0  0  0  0  0  0  0  # atno 17320 bound_to 7965
  146.2323  139.5838  142.9547 LP  0  0  0  0  0  0  0  0  0  0  0  0  # atno 17321 bound_to 7965
  140.6890  143.2365  151.5182 LP  0  0  0  0  0  0  0  0  0  0  0  0  # atno 17342 bound_to 10162
  139.5585  144.2214  152.1653 LP  0  0  0  0  0  0  0  0  0  0  0  0  # atno 17343 bound_to 10162
  156.6270  130.4421  149.5800 LP  0  0  0  0  0  0  0  0  0  0  0  0  # atno 17370 bound_to 10713
  156.2311  130.6795  151.1464 LP  0  0  0  0  0  0  0  0  0  0  0  0  # atno 17371 bound_to 10713
  140.0112  134.9987  157.0399 LP  0  0  0  0  0  0  0  0  0  0  0  0  # atno 17394 bound_to 11000
  140.4596  134.1497  155.7190 LP  0  0  0  0  0  0  0  0  0  0  0  0  # atno 17395 bound_to 11000

$$$$
