AV-unprocessed.smi:283|AV-procd|sdf|2149|dock2
  -GOLD-   2262021483D 1   1.00000     0.00000
 Structure written by MMmdl.
 48 51  0  0  0  0  0  0  0  0  1 V2000
  148.5971  134.6458  158.1076 C   0  0  0  0  0  0  0  0  0  0  0  0
  147.4228  134.0039  158.8581 C   0  0  2  0  0  0  0  0  0  0  0  0
  146.1887  134.1712  158.0924 N   0  0  0  0  0  0  0  0  0  0  0  0
  146.1998  134.0891  156.7429 C   0  0  0  0  0  0  0  0  0  0  0  0
  147.1744  133.4039  156.0898 N   0  0  0  0  0  0  0  0  0  0  0  0
  147.1642  133.3380  154.7558 C   0  0  0  0  0  0  0  0  0  0  0  0
  146.2919  133.8762  153.9017 N   0  0  0  0  0  0  0  0  0  0  0  0
  145.3126  134.5717  154.5505 C   0  0  0  0  0  0  0  0  0  0  0  0
  145.1993  134.7220  155.9612 C   0  0  0  0  0  0  0  0  0  0  0  0
  144.0804  135.4849  156.2671 N   0  0  0  0  0  0  0  0  0  0  0  0
  143.5666  135.7704  155.1012 C   0  0  0  0  0  0  0  0  0  0  0  0
  144.2448  135.2655  154.0136 N   0  0  0  0  0  0  0  0  0  0  0  0
  143.8958  135.4457  152.5668 C   0  0  2  0  0  0  0  0  0  0  0  0
  143.6038  134.1970  152.0192 O   0  0  0  0  0  0  0  0  0  0  0  0
  144.1751  134.0949  150.7195 C   0  0  2  0  0  0  0  0  0  0  0  0
  144.3554  132.6228  150.3081 C   0  0  0  0  0  0  0  0  0  0  0  0
  143.1693  132.1317  149.7202 O   0  0  0  0  0  0  0  0  0  0  0  0
  145.4670  134.9190  150.8241 C   0  0  2  0  0  0  0  0  0  0  0  0
  146.5356  134.1517  151.3528 O   0  0  0  0  0  0  0  0  0  0  0  0
  145.0481  136.0616  151.7450 C   0  0  2  0  0  0  0  0  0  0  0  0
  146.1189  136.6113  152.4957 O   0  0  0  0  0  0  0  0  0  0  0  0
  147.3433  134.5395  160.2893 C   0  0  0  0  0  0  0  0  0  0  0  0
  147.3323  135.9362  160.5115 C   0  0  0  0  0  0  0  0  0  0  0  0
  147.2583  136.4554  161.8174 C   0  0  0  0  0  0  0  0  0  0  0  0
  147.1990  135.5818  162.9180 C   0  0  0  0  0  0  0  0  0  0  0  0
  147.2195  134.1903  162.7097 C   0  0  0  0  0  0  0  0  0  0  0  0
  147.2946  133.6646  161.4040 C   0  0  0  0  0  0  0  0  0  0  0  0
  147.3285  131.9467  161.2111 Cl  0  0  0  0  0  0  0  0  0  0  0  0
  143.0046  136.0742  152.5804 H   0  0  0  0  0  0  0  0  0  0  0  0
  143.5111  134.6016  150.0162 H   0  0  0  0  0  0  0  0  0  0  0  0
  145.7803  135.2897  149.8476 H   0  0  0  0  0  0  0  0  0  0  0  0
  144.6140  136.8578  151.1385 H   0  0  0  0  0  0  0  0  0  0  0  0
  149.5385  134.4636  158.6266 H   0  0  0  0  0  0  0  0  0  0  0  0
  148.4698  135.7252  158.0166 H   0  0  0  0  0  0  0  0  0  0  0  0
  148.6921  134.2352  157.1020 H   0  0  0  0  0  0  0  0  0  0  0  0
  147.6145  132.9322  158.8885 H   0  0  0  0  0  0  0  0  0  0  0  0
  145.3349  134.1422  158.6305 H   0  0  0  0  0  0  0  0  0  0  0  0
  147.9704  132.7755  154.3089 H   0  0  0  0  0  0  0  0  0  0  0  0
  142.6737  136.3697  154.9998 H   0  0  0  0  0  0  0  0  0  0  0  0
  145.1463  132.5347  149.5625 H   0  0  0  0  0  0  0  0  0  0  0  0
  144.6389  132.0037  151.1599 H   0  0  0  0  0  0  0  0  0  0  0  0
  142.5711  132.8531  149.5989 H   0  0  0  0  0  0  0  0  0  0  0  0
  147.2570  134.7297  151.5481 H   0  0  0  0  0  0  0  0  0  0  0  0
  146.9244  136.4561  152.0271 H   0  0  0  0  0  0  0  0  0  0  0  0
  147.3796  136.6199  159.6764 H   0  0  0  0  0  0  0  0  0  0  0  0
  147.2473  137.5240  161.9739 H   0  0  0  0  0  0  0  0  0  0  0  0
  147.1412  135.9780  163.9210 H   0  0  0  0  0  0  0  0  0  0  0  0
  147.1786  133.5227  163.5577 H   0  0  0  0  0  0  0  0  0  0  0  0
  1  2  1  0  0  0  0
  1 33  1  0  0  0  0
  1 34  1  0  0  0  0
  1 35  1  0  0  0  0
  2  3  1  0  0  0  0
  2 22  1  0  0  0  0
  2 36  1  0  0  0  0
  3  4  1  0  0  0  0
  3 37  1  0  0  0  0
  4  9  1  0  0  0  0
  4  5  2  0  0  0  0
  5  6  1  0  0  0  0
  6  7  2  0  0  0  0
  6 38  1  0  0  0  0
  7  8  1  0  0  0  0
  8 12  1  0  0  0  0
  8  9  2  0  0  0  0
  9 10  1  0  0  0  0
 10 11  2  0  0  0  0
 11 12  1  0  0  0  0
 11 39  1  0  0  0  0
 12 13  1  0  0  0  0
 13 29  1  0  0  0  0
 13 20  1  0  0  0  0
 13 14  1  0  0  0  0
 14 15  1  0  0  0  0
 15 30  1  0  0  0  0
 15 16  1  0  0  0  0
 15 18  1  0  0  0  0
 16 17  1  0  0  0  0
 16 40  1  0  0  0  0
 16 41  1  0  0  0  0
 17 42  1  0  0  0  0
 18 31  1  0  0  0  0
 18 19  1  0  0  0  0
 18 20  1  0  0  0  0
 19 43  1  0  0  0  0
 20 32  1  0  0  0  0
 20 21  1  0  0  0  0
 21 44  1  0  0  0  0
 22 27  1  0  0  0  0
 22 23  2  0  0  0  0
 23 24  1  0  0  0  0
 23 45  1  0  0  0  0
 24 25  2  0  0  0  0
 24 46  1  0  0  0  0
 25 26  1  0  0  0  0
 25 47  1  0  0  0  0
 26 27  2  0  0  0  0
 26 48  1  0  0  0  0
 27 28  1  0  0  0  0
M  END
> <s_m_source_file>
AV-unprocessed.smi

> <i_m_source_file_index>
283

> <i_lp_mmshare_version>
43012

> <i_f3d_flags>
0

> <s_epik_input>
Q2xjMVtjSF1bY0hdW2NIXVtjSF1jMVtDQEhdKFtDSDNdKVtOSF1jKG5bY0hdbjIpYyhjMjMpbltjSF1uM1tDQEBIXTRPW0NASF0oW0NIMl1bT0hdKVtDQEBIXShbT0hdKVtDQEhdNFtPSF0=

> <s_epik_cmdline>
J2VwaWtfcHl0aG9uJywgJy1waCcsICc3LjAnLCAnLXRuJywgJzgnLCAnLW1hJywgJzIwMCcsICctbWV0YWxfYmluZGluZycsICctaW1hZScsICc8aW5maWxlLm1hZT4nLCAnLW9tYWUnLCAnPG91dGZpbGUubWFlPic=

> <r_lp_tautomer_probability>
1

> <r_epik_Ionization_Penalty>
0.000266407

> <r_epik_Ionization_Penalty_Charging>
0

> <r_epik_Ionization_Penalty_Neutral>
0.000266407

> <r_epik_State_Penalty>
-0

> <r_epik_Charging_Adjusted_Penalty>
0

> <i_epik_Tot_Q>
0

> <i_epik_Tot_abs_Q>
0

> <r_epik_Metal_State_Penalty>
-0

> <b_epik_Metal_Only>
0

> <s_epik_Chemistry_Notes>
This compound contains an acetal/aminal-like group ( X-CH(R)-Y where X, Y are N, S, or O) that may be acid/base labile, releasing an aldehyde.

> <s_lp_Force_Field>
OPLS_2005

> <r_lp_Energy>
56.6736

> <b_lp_Chiralities_Consistent>
1

> <s_lp_Variant>
AV-unprocessed.smi:283-25

> <Gold.Version>
5.8.1

> <Gold.Id.Protein>
6NUR|6NUR_protein|mol2

> <Gold.PLP.Fitness>
46.1187

> <Gold.PLP.PLP>
-39.7318

> <Gold.PLP.part.hbond>
-3.7028

> <Gold.PLP.part.metal>
0.0000

> <Gold.PLP.part.buried>
-6.4968

> <Gold.PLP.part.nonpolar>
-30.0958

> <Gold.PLP.part.repulsive>
0.2760

> <Gold.PLP.ligand.clash>
0.0000

> <Gold.PLP.ligand.torsion>
0.9107

> <Gold.PLP.Chemscore.Hbond>
2.6738

> <Gold.PLP.Chemscore.CHOScore>
0.0000

> <Gold.PLP.Chemscore.Metal>
0.0000

> <Gold.Chemscore.Hbonds>
donor molecule, donor type, donor heavy atom, donor atom, acceptor molecule, acceptor atom, score
      L1  H    17    42       P1 10186  0.55
      L1  H    19    43       P1  7948  0.49
      L1  H    21    44       P1  7948  1.00
      P1  H 10785 10796       L1    17  0.54

> <Gold.PLP.Chemscore.Internal.Correction>
0.1869

> <Gold.Rescore>
     Score         DG    S(hbond)    S(metal)    S(lipo)     H(rot)  DE(clash)    DE(int)     intcor
     11.82     -14.88       2.92        0.00      86.56       4.10       0.00       3.06       ----

> <Gold.Chemscore.Fitness>
11.8172

> <Gold.Chemscore.DG>
-14.8790

> <Gold.Chemscore.ZeroCoef>
-5.4800

> <Gold.Chemscore.Hbond>
2.9221

> <Gold.Chemscore.Metal>
0.0000

> <Gold.Chemscore.Lipo>
86.5571

> <Gold.Chemscore.Internal_Hbond>
0.0000

> <Gold.Chemscore.DEClash>
0.0000

> <Gold.Chemscore.DEInternal>
3.0618

> <Gold.Chemscore.Rot>
4.0968

> <Gold.Chemscore.Internal.Correction>
   9.000000E+99

> <Gold.Chemscore.Hbonds>
donor molecule, donor type, donor heavy atom, donor atom, acceptor molecule, acceptor atom, score
      L1  H    17    42       P1 10186  0.54
      L1  H    19    43       P1  7948  0.30
      L1  H    21    44       P1  7948  0.92
      P1  H 10785 10796       L1    17  0.52

> <Gold.Chemscore.Hbond.Weighted>
-9.7598

> <Gold.Chemscore.Metal.Weighted>
-0.0000

> <Gold.Chemscore.Lipo.Weighted>
-10.1272

> <Gold.Chemscore.Internal_Hbond.Weighted>
0.0000

> <Gold.Chemscore.DEClash.Weighted>
0.0000

> <Gold.Chemscore.DEInternal.Weighted>
3.0618

> <Gold.Chemscore.Rot.Weighted>
10.4879

> <Gold.Chemscore.Internal.Correction.Weighted>
   9.000000E+99

> <Gold.Protein.RotatedTorsions>
[ 6907 6896 6895 6894 ] final  165.54 input  -60.11 | X-H torsion
[ 7974 7965 7964 7962 ] final   96.85 input  175.53 | X-H torsion
[ 8008 7997 7996 7995 ] final   86.57 input   59.86 | X-H torsion
[ 10167 10162 10161 10158 ] final   -3.72 input  -65.29 | X-H torsion
[ 10718 10713 10712 10709 ] final -136.34 input   66.30 | X-H torsion
[ 10763 10752 10751 10750 ] final  108.90 input  -60.55 | X-H torsion
[ 11005 11000 10999 10996 ] final   16.80 input  -57.11 | X-H torsion

> <Gold.Protein.ActiveResidues>
 VAL166  LYS551  ARG553  GLY616  TRP617  ASP618  TYR619  PRO620  LYS621  CYS622 
 ASP623  PHE694  ASN695  SER759  ASP760  ASP761  ALA762  ILE779  LEU786  VAL792 
 PHE793  MET794  SER795  GLU796  ALA797  LYS798  CYS799  TRP800  GLU811  SER814 

> <Gold.Protein.RotatedAtoms>
  151.8929  133.3520  159.3804 H   0  0  0  0  0  0  0  0  0  0  0  0  # atno 6907 bound_to 6896
  150.7099  134.4905  159.5523 H   0  0  0  0  0  0  0  0  0  0  0  0  # atno 6908 bound_to 6896
  152.2479  134.8163  160.0501 H   0  0  0  0  0  0  0  0  0  0  0  0  # atno 6909 bound_to 6896
  145.4333  139.2308  143.3132 H   0  0  0  0  0  0  0  0  0  0  0  0  # atno 7974 bound_to 7965
  155.9644  140.3391  155.6519 H   0  0  0  0  0  0  0  0  0  0  0  0  # atno 8008 bound_to 7997
  155.6756  140.0732  157.2522 H   0  0  0  0  0  0  0  0  0  0  0  0  # atno 8009 bound_to 7997
  154.4151  140.1683  156.1914 H   0  0  0  0  0  0  0  0  0  0  0  0  # atno 8010 bound_to 7997
  140.6901  143.6507  150.8353 H   0  0  0  0  0  0  0  0  0  0  0  0  # atno 10167 bound_to 10162
  156.2759  130.7293  151.1275 H   0  0  0  0  0  0  0  0  0  0  0  0  # atno 10718 bound_to 10713
  153.4272  135.3797  155.2148 H   0  0  0  0  0  0  0  0  0  0  0  0  # atno 10763 bound_to 10752
  154.8748  135.3831  154.4312 H   0  0  0  0  0  0  0  0  0  0  0  0  # atno 10764 bound_to 10752
  153.4840  135.7088  153.5984 H   0  0  0  0  0  0  0  0  0  0  0  0  # atno 10765 bound_to 10752
  140.4430  134.1302  155.7693 H   0  0  0  0  0  0  0  0  0  0  0  0  # atno 11005 bound_to 11000
  146.2595  140.5072  142.8859 LP  0  0  0  0  0  0  0  0  0  0  0  0  # atno 17320 bound_to 7965
  144.8169  140.6483  143.6379 LP  0  0  0  0  0  0  0  0  0  0  0  0  # atno 17321 bound_to 7965
  140.0219  143.5534  152.2797 LP  0  0  0  0  0  0  0  0  0  0  0  0  # atno 17342 bound_to 10162
  139.6295  144.7642  151.2566 LP  0  0  0  0  0  0  0  0  0  0  0  0  # atno 17343 bound_to 10162
  157.7299  131.0620  150.5751 LP  0  0  0  0  0  0  0  0  0  0  0  0  # atno 17370 bound_to 10713
  156.5852  130.4315  149.5960 LP  0  0  0  0  0  0  0  0  0  0  0  0  # atno 17371 bound_to 10713
  141.1697  133.8633  157.1608 LP  0  0  0  0  0  0  0  0  0  0  0  0  # atno 17394 bound_to 11000
  140.0057  135.0009  157.0287 LP  0  0  0  0  0  0  0  0  0  0  0  0  # atno 17395 bound_to 11000

$$$$
