AV-unprocessed.smi:1021|AV-procd|sdf|4455|dock3
  -GOLD-   22720 2423D 1   1.00000     0.00000
 Structure written by MMmdl.
 42 44  0  0  0  0  0  0  0  0  1 V2000
  151.3733  136.1979  155.5477 O   0  0  0  0  0  0  0  0  0  0  0  0
  151.2760  137.5075  156.0654 C   0  0  0  0  0  0  0  0  0  0  0  0
  152.4011  138.3929  155.5109 C   0  0  0  0  0  0  0  0  0  0  0  0
  152.2432  139.8787  155.8767 C   0  0  0  0  0  0  0  0  0  0  0  0
  150.8726  140.4050  155.5648 C   0  0  0  0  0  0  0  0  0  0  0  0
  150.3426  140.2764  154.3478 N   0  0  0  0  0  0  0  0  0  0  0  0
  149.1182  140.9004  154.4791 C   0  0  0  0  0  0  0  0  0  0  0  0
  148.0860  141.1049  153.5353 C   0  0  0  0  0  0  0  0  0  0  0  0
  146.9060  141.7840  153.9037 C   0  0  0  0  0  0  0  0  0  0  0  0
  146.7418  142.2672  155.2179 C   0  0  0  0  0  0  0  0  0  0  0  0
  147.7579  142.0735  156.1732 C   0  0  0  0  0  0  0  0  0  0  0  0
  148.9338  141.3941  155.8012 C   0  0  0  0  0  0  0  0  0  0  0  0
  150.0980  141.0440  156.4802 N   0  0  0  0  0  0  0  0  0  0  0  0
  150.3828  141.3202  157.8836 C   0  0  0  0  0  0  0  0  0  0  0  0
  151.0993  142.6672  158.1044 C   0  0  1  0  0  0  0  0  0  0  0  0
  150.1875  143.7343  157.9259 O   0  0  0  0  0  0  0  0  0  0  0  0
  151.7831  142.7110  159.4621 C   0  0  0  0  0  0  0  0  0  0  0  0
  152.6590  141.6712  159.8422 C   0  0  0  0  0  0  0  0  0  0  0  0
  153.2910  141.6996  161.1008 C   0  0  0  0  0  0  0  0  0  0  0  0
  153.0493  142.7665  161.9873 C   0  0  0  0  0  0  0  0  0  0  0  0
  153.6577  142.7937  163.1965 F   0  0  0  0  0  0  0  0  0  0  0  0
  152.1730  143.8041  161.6159 C   0  0  0  0  0  0  0  0  0  0  0  0
  151.5399  143.7757  160.3581 C   0  0  0  0  0  0  0  0  0  0  0  0
  150.5754  135.9974  155.0826 H   0  0  0  0  0  0  0  0  0  0  0  0
  150.2978  137.9244  155.8233 H   0  0  0  0  0  0  0  0  0  0  0  0
  151.3435  137.4546  157.1522 H   0  0  0  0  0  0  0  0  0  0  0  0
  153.3496  138.0275  155.9045 H   0  0  0  0  0  0  0  0  0  0  0  0
  152.4631  138.2795  154.4278 H   0  0  0  0  0  0  0  0  0  0  0  0
  152.4276  140.0189  156.9425 H   0  0  0  0  0  0  0  0  0  0  0  0
  153.0029  140.4666  155.3651 H   0  0  0  0  0  0  0  0  0  0  0  0
  148.2033  140.7400  152.5259 H   0  0  0  0  0  0  0  0  0  0  0  0
  146.1241  141.9355  153.1741 H   0  0  0  0  0  0  0  0  0  0  0  0
  145.8359  142.7876  155.4923 H   0  0  0  0  0  0  0  0  0  0  0  0
  147.6356  142.4468  157.1789 H   0  0  0  0  0  0  0  0  0  0  0  0
  149.4423  141.3085  158.4350 H   0  0  0  0  0  0  0  0  0  0  0  0
  150.9701  140.4982  158.2930 H   0  0  0  0  0  0  0  0  0  0  0  0
  151.8683  142.7889  157.3427 H   0  0  0  0  0  0  0  0  0  0  0  0
  149.3454  143.4684  158.2624 H   0  0  0  0  0  0  0  0  0  0  0  0
  152.8485  140.8468  159.1703 H   0  0  0  0  0  0  0  0  0  0  0  0
  153.9607  140.9020  161.3867 H   0  0  0  0  0  0  0  0  0  0  0  0
  151.9852  144.6216  162.2962 H   0  0  0  0  0  0  0  0  0  0  0  0
  150.8652  144.5740  160.0851 H   0  0  0  0  0  0  0  0  0  0  0  0
  1  2  1  0  0  0  0
  1 24  1  0  0  0  0
  2  3  1  0  0  0  0
  2 25  1  0  0  0  0
  2 26  1  0  0  0  0
  3  4  1  0  0  0  0
  3 27  1  0  0  0  0
  3 28  1  0  0  0  0
  4  5  1  0  0  0  0
  4 29  1  0  0  0  0
  4 30  1  0  0  0  0
  5 13  1  0  0  0  0
  5  6  2  0  0  0  0
  6  7  1  0  0  0  0
  7 12  2  0  0  0  0
  7  8  1  0  0  0  0
  8  9  2  0  0  0  0
  8 31  1  0  0  0  0
  9 10  1  0  0  0  0
  9 32  1  0  0  0  0
 10 11  2  0  0  0  0
 10 33  1  0  0  0  0
 11 12  1  0  0  0  0
 11 34  1  0  0  0  0
 12 13  1  0  0  0  0
 13 14  1  0  0  0  0
 14 15  1  0  0  0  0
 14 35  1  0  0  0  0
 14 36  1  0  0  0  0
 15 16  1  0  0  0  0
 15 17  1  0  0  0  0
 15 37  1  0  0  0  0
 16 38  1  0  0  0  0
 17 23  1  0  0  0  0
 17 18  2  0  0  0  0
 18 19  1  0  0  0  0
 18 39  1  0  0  0  0
 19 20  2  0  0  0  0
 19 40  1  0  0  0  0
 20 21  1  0  0  0  0
 20 22  1  0  0  0  0
 22 23  2  0  0  0  0
 22 41  1  0  0  0  0
 23 42  1  0  0  0  0
M  END
> <s_m_source_file>
AV-unprocessed.smi

> <i_m_source_file_index>
1021

> <i_lp_mmshare_version>
43012

> <i_f3d_flags>
0

> <s_epik_input>
W09IXVtDSDJdW0NIMl1bQ0gyXWMobjEpbihjKGMxMilbY0hdW2NIXVtjSF1bY0hdMilbQ0gyXVtDQEhdKFtPSF0pYzNbY0hdW2NIXWMoRilbY0hdW2NIXTM=

> <s_epik_cmdline>
J2VwaWtfcHl0aG9uJywgJy1waCcsICc3LjAnLCAnLXRuJywgJzgnLCAnLW1hJywgJzIwMCcsICctbWV0YWxfYmluZGluZycsICctaW1hZScsICc8aW5maWxlLm1hZT4nLCAnLW9tYWUnLCAnPG91dGZpbGUubWFlPic=

> <r_epik_Ionization_Penalty>
0.182562

> <r_epik_Ionization_Penalty_Charging>
0

> <r_epik_Ionization_Penalty_Neutral>
0.182562

> <r_epik_State_Penalty>
0.172086

> <r_epik_Charging_Adjusted_Penalty>
0.172086

> <i_epik_Tot_Q>
0

> <i_epik_Tot_abs_Q>
0

> <r_epik_Metal_State_Penalty>
0.000199649

> <b_epik_Metal_Only>
0

> <s_lp_Force_Field>
OPLS_2005

> <r_lp_Energy>
11.397

> <b_lp_Chiralities_Consistent>
1

> <s_lp_Variant>
AV-unprocessed.smi:1021-2

> <Gold.Version>
5.8.1

> <Gold.Id.Protein>
6NUR|6NUR_protein|mol2

> <Gold.PLP.Fitness>
58.5293

> <Gold.PLP.PLP>
-54.0423

> <Gold.PLP.part.hbond>
-3.3404

> <Gold.PLP.part.metal>
0.0000

> <Gold.PLP.part.buried>
-1.1108

> <Gold.PLP.part.nonpolar>
-47.6124

> <Gold.PLP.part.repulsive>
0.1130

> <Gold.PLP.ligand.clash>
0.0000

> <Gold.PLP.ligand.torsion>
0.6650

> <Gold.PLP.Chemscore.Hbond>
1.9000

> <Gold.PLP.Chemscore.CHOScore>
0.0000

> <Gold.PLP.Chemscore.Metal>
0.0000

> <Gold.Chemscore.Hbonds>
donor molecule, donor type, donor heavy atom, donor atom, acceptor molecule, acceptor atom, score
      P1  H  7989  7998       L1     6  0.90
      P1  H 10752 10764       L1     1  1.00

> <Gold.PLP.Chemscore.Internal.Correction>
0.1169

> <Gold.Rescore>
     Score         DG    S(hbond)    S(metal)    S(lipo)     H(rot)  DE(clash)    DE(int)     intcor
     17.00     -18.24       1.69        0.00     128.00       3.07       0.63       0.61       ----

> <Gold.Chemscore.Fitness>
16.9997

> <Gold.Chemscore.DG>
-18.2421

> <Gold.Chemscore.ZeroCoef>
-5.4800

> <Gold.Chemscore.Hbond>
1.6935

> <Gold.Chemscore.Metal>
0.0000

> <Gold.Chemscore.Lipo>
127.9954

> <Gold.Chemscore.Internal_Hbond>
0.0000

> <Gold.Chemscore.DEClash>
0.6320

> <Gold.Chemscore.DEInternal>
0.6103

> <Gold.Chemscore.Rot>
3.0741

> <Gold.Chemscore.Internal.Correction>
   9.000000E+99

> <Gold.Chemscore.Hbonds>
donor molecule, donor type, donor heavy atom, donor atom, acceptor molecule, acceptor atom, score
      P1  H  7989  7998       L1     6  0.17
      P1  H 10752 10764       L1     1  0.92

> <Gold.Chemscore.Hbond.Weighted>
-5.6564

> <Gold.Chemscore.Metal.Weighted>
-0.0000

> <Gold.Chemscore.Lipo.Weighted>
-14.9755

> <Gold.Chemscore.Internal_Hbond.Weighted>
0.0000

> <Gold.Chemscore.DEClash.Weighted>
0.6320

> <Gold.Chemscore.DEInternal.Weighted>
0.6103

> <Gold.Chemscore.Rot.Weighted>
7.8698

> <Gold.Chemscore.Internal.Correction.Weighted>
   9.000000E+99

> <Gold.Protein.RotatedTorsions>
[ 6907 6896 6895 6894 ] final   -2.38 input  -60.11 | X-H torsion
[ 7974 7965 7964 7962 ] final   45.16 input  175.53 | X-H torsion
[ 8008 7997 7996 7995 ] final   68.78 input   59.86 | X-H torsion
[ 10167 10162 10161 10158 ] final  -12.64 input  -65.29 | X-H torsion
[ 10718 10713 10712 10709 ] final   11.11 input   66.30 | X-H torsion
[ 10763 10752 10751 10750 ] final  -48.36 input  -60.55 | X-H torsion
[ 11005 11000 10999 10996 ] final -154.61 input  -57.11 | X-H torsion

> <Gold.Protein.ActiveResidues>
 VAL166  LYS551  ARG553  GLY616  TRP617  ASP618  TYR619  PRO620  LYS621  CYS622 
 ASP623  PHE694  ASN695  SER759  ASP760  ASP761  ALA762  ILE779  LEU786  VAL792 
 PHE793  MET794  SER795  GLU796  ALA797  LYS798  CYS799  TRP800  GLU811  SER814 

> <Gold.Protein.RotatedAtoms>
  151.5309  135.1068  159.9902 H   0  0  0  0  0  0  0  0  0  0  0  0  # atno 6907 bound_to 6896
  152.4579  133.7756  159.6833 H   0  0  0  0  0  0  0  0  0  0  0  0  # atno 6908 bound_to 6896
  150.8529  133.7694  159.3044 H   0  0  0  0  0  0  0  0  0  0  0  0  # atno 6909 bound_to 6896
  146.0505  139.4995  142.9721 H   0  0  0  0  0  0  0  0  0  0  0  0  # atno 7974 bound_to 7965
  155.7136  140.3494  155.4985 H   0  0  0  0  0  0  0  0  0  0  0  0  # atno 8008 bound_to 7997
  155.9333  140.1088  157.1136 H   0  0  0  0  0  0  0  0  0  0  0  0  # atno 8009 bound_to 7997
  154.4089  140.1227  156.4818 H   0  0  0  0  0  0  0  0  0  0  0  0  # atno 8010 bound_to 7997
  140.7165  143.5511  150.9300 H   0  0  0  0  0  0  0  0  0  0  0  0  # atno 10167 bound_to 10162
  156.9908  130.6041  149.5686 H   0  0  0  0  0  0  0  0  0  0  0  0  # atno 10718 bound_to 10713
  154.0765  135.6597  153.4831 H   0  0  0  0  0  0  0  0  0  0  0  0  # atno 10763 bound_to 10752
  153.0371  135.5170  154.7515 H   0  0  0  0  0  0  0  0  0  0  0  0  # atno 10764 bound_to 10752
  154.6597  135.3013  154.9850 H   0  0  0  0  0  0  0  0  0  0  0  0  # atno 10765 bound_to 10752
  140.6955  134.3995  157.5215 H   0  0  0  0  0  0  0  0  0  0  0  0  # atno 11005 bound_to 11000
  145.6733  141.0211  143.1646 LP  0  0  0  0  0  0  0  0  0  0  0  0  # atno 17320 bound_to 7965
  144.7120  139.8336  143.7411 LP  0  0  0  0  0  0  0  0  0  0  0  0  # atno 17321 bound_to 7965
  139.9235  143.6577  152.3092 LP  0  0  0  0  0  0  0  0  0  0  0  0  # atno 17342 bound_to 10162
  139.7003  144.7636  151.1285 LP  0  0  0  0  0  0  0  0  0  0  0  0  # atno 17343 bound_to 10162
  156.0208  130.5303  150.8269 LP  0  0  0  0  0  0  0  0  0  0  0  0  # atno 17370 bound_to 10713
  157.5460  131.0942  150.9762 LP  0  0  0  0  0  0  0  0  0  0  0  0  # atno 17371 bound_to 10713
  139.8911  134.8787  156.2335 LP  0  0  0  0  0  0  0  0  0  0  0  0  # atno 17394 bound_to 11000
  141.0207  133.7043  156.1263 LP  0  0  0  0  0  0  0  0  0  0  0  0  # atno 17395 bound_to 11000

$$$$
