AV-unprocessed.smi:438|AV-procd|sdf|2564|dock6
  -GOLD-   2262022533D 1   1.00000     0.00000
 Structure written by MMmdl.
 48 49  0  0  0  0  0  0  0  0  1 V2000
  145.8600  129.2628  151.8271 C   0  0  0  0  0  0  0  0  0  0  0  0
  146.3988  130.6526  152.1177 C   0  0  0  0  0  0  0  0  0  0  0  0
  147.3110  130.7380  153.1762 N   0  0  0  0  0  0  0  0  0  0  0  0
  147.8300  131.8798  153.4981 C   0  0  0  0  0  0  0  0  0  0  0  0
  149.0429  132.2739  154.7954 S   0  0  0  0  0  0  0  0  0  0  0  0
  149.4807  133.9970  154.4103 C   0  0  0  0  0  0  0  0  0  0  0  0
  150.1432  134.7040  155.5923 C   0  0  0  0  0  0  0  0  0  0  0  0
  150.5172  134.0532  156.5673 O   0  0  0  0  0  0  0  0  0  0  0  0
  150.2549  136.0381  155.5002 N   0  0  0  0  0  0  0  0  0  0  0  0
  150.7456  136.9458  156.5371 C   0  0  1  0  0  0  0  0  0  0  0  0
  152.1147  137.5203  156.1226 C   0  0  0  0  0  0  0  0  0  0  0  0
  152.0003  138.4960  154.9391 C   0  0  0  0  0  0  0  0  0  0  0  0
  151.0016  139.6227  155.2408 C   0  0  0  0  0  0  0  0  0  0  0  0
  149.6267  139.0635  155.6387 C   0  0  0  0  0  0  0  0  0  0  0  0
  149.7302  138.0829  156.8255 C   0  0  1  0  0  0  0  0  0  0  0  0
  148.3436  137.5648  157.2442 C   0  0  0  0  0  0  0  0  0  0  0  0
  147.4835  133.0349  152.7976 N   0  0  0  0  0  0  0  0  0  0  0  0
  146.6280  133.0569  151.7518 C   0  0  0  0  0  0  0  0  0  0  0  0
  146.3918  134.1117  151.1654 O   0  0  0  0  0  0  0  0  0  0  0  0
  146.0354  131.7542  151.4029 C   0  0  0  0  0  0  0  0  0  0  0  0
  145.0623  131.6978  150.2257 C   0  0  0  0  0  0  0  0  0  0  0  0
  143.6991  132.3438  150.5299 C   0  0  0  0  0  0  0  0  0  0  0  0
  142.7640  132.0709  149.5083 O   0  0  0  0  0  0  0  0  0  0  0  0
  144.7706  129.2603  151.8205 H   0  0  0  0  0  0  0  0  0  0  0  0
  146.1876  128.5468  152.5818 H   0  0  0  0  0  0  0  0  0  0  0  0
  146.2142  128.9124  150.8575 H   0  0  0  0  0  0  0  0  0  0  0  0
  148.6040  134.5511  154.0735 H   0  0  0  0  0  0  0  0  0  0  0  0
  150.1800  133.9876  153.5738 H   0  0  0  0  0  0  0  0  0  0  0  0
  149.9189  136.4726  154.6525 H   0  0  0  0  0  0  0  0  0  0  0  0
  150.8973  136.3852  157.4611 H   0  0  0  0  0  0  0  0  0  0  0  0
  152.5557  138.0422  156.9728 H   0  0  0  0  0  0  0  0  0  0  0  0
  152.8035  136.7117  155.8741 H   0  0  0  0  0  0  0  0  0  0  0  0
  152.9786  138.9195  154.7111 H   0  0  0  0  0  0  0  0  0  0  0  0
  151.6853  137.9552  154.0469 H   0  0  0  0  0  0  0  0  0  0  0  0
  151.3885  140.2459  156.0479 H   0  0  0  0  0  0  0  0  0  0  0  0
  150.9000  140.2721  154.3707 H   0  0  0  0  0  0  0  0  0  0  0  0
  148.9614  139.8884  155.8953 H   0  0  0  0  0  0  0  0  0  0  0  0
  149.1732  138.5653  154.7823 H   0  0  0  0  0  0  0  0  0  0  0  0
  150.1206  138.6467  157.6740 H   0  0  0  0  0  0  0  0  0  0  0  0
  147.8397  137.0512  156.4249 H   0  0  0  0  0  0  0  0  0  0  0  0
  147.6993  138.3857  157.5597 H   0  0  0  0  0  0  0  0  0  0  0  0
  148.4209  136.8674  158.0787 H   0  0  0  0  0  0  0  0  0  0  0  0
  147.9072  133.9093  153.0717 H   0  0  0  0  0  0  0  0  0  0  0  0
  144.9034  130.6564  149.9467 H   0  0  0  0  0  0  0  0  0  0  0  0
  145.5067  132.1570  149.3418 H   0  0  0  0  0  0  0  0  0  0  0  0
  143.3049  131.9549  151.4689 H   0  0  0  0  0  0  0  0  0  0  0  0
  143.7943  133.4233  150.6463 H   0  0  0  0  0  0  0  0  0  0  0  0
  142.0998  132.7429  149.5208 H   0  0  0  0  0  0  0  0  0  0  0  0
  1 24  1  0  0  0  0
  1 25  1  0  0  0  0
  1 26  1  0  0  0  0
  1  2  1  0  0  0  0
  2 20  2  0  0  0  0
  2  3  1  0  0  0  0
  3  4  2  0  0  0  0
  4  5  1  0  0  0  0
  4 17  1  0  0  0  0
  5  6  1  0  0  0  0
  6  7  1  0  0  0  0
  6 27  1  0  0  0  0
  6 28  1  0  0  0  0
  7  8  2  0  0  0  0
  7  9  1  0  0  0  0
  9 10  1  0  0  0  0
  9 29  1  0  0  0  0
 10 15  1  0  0  0  0
 10 11  1  0  0  0  0
 10 30  1  0  0  0  0
 11 12  1  0  0  0  0
 11 31  1  0  0  0  0
 11 32  1  0  0  0  0
 12 13  1  0  0  0  0
 12 33  1  0  0  0  0
 12 34  1  0  0  0  0
 13 14  1  0  0  0  0
 13 35  1  0  0  0  0
 13 36  1  0  0  0  0
 14 15  1  0  0  0  0
 14 37  1  0  0  0  0
 14 38  1  0  0  0  0
 15 16  1  0  0  0  0
 15 39  1  0  0  0  0
 16 40  1  0  0  0  0
 16 41  1  0  0  0  0
 16 42  1  0  0  0  0
 17 43  1  0  0  0  0
 17 18  1  0  0  0  0
 18 19  2  0  0  0  0
 18 20  1  0  0  0  0
 20 21  1  0  0  0  0
 21 22  1  0  0  0  0
 21 44  1  0  0  0  0
 21 45  1  0  0  0  0
 22 23  1  0  0  0  0
 22 46  1  0  0  0  0
 22 47  1  0  0  0  0
 23 48  1  0  0  0  0
M  END
> <s_m_source_file>
AV-unprocessed.smi

> <i_m_source_file_index>
438

> <i_lp_mmshare_version>
43012

> <i_f3d_flags>
0

> <s_epik_input>
W09IXVtDSDJdW0NIMl1jMWMoW09IXSluYyhuYzFbQ0gzXSlTW0NIMl1DKD1PKVtOSF1bQ0BASF0yW0NIMl1bQ0gyXVtDSDJdW0NIMl1bQ0BIXTJbQ0gzXQ==

> <s_epik_cmdline>
J2VwaWtfcHl0aG9uJywgJy1waCcsICc3LjAnLCAnLXRuJywgJzgnLCAnLW1hJywgJzIwMCcsICctbWV0YWxfYmluZGluZycsICctaW1hZScsICc8aW5maWxlLm1hZT4nLCAnLW9tYWUnLCAnPG91dGZpbGUubWFlPic=

> <r_lp_tautomer_probability>
0.660323

> <r_epik_Ionization_Penalty>
0.00860626

> <r_epik_Ionization_Penalty_Charging>
0.00860522

> <r_epik_Ionization_Penalty_Neutral>
1.04215e-06

> <r_epik_State_Penalty>
0.156825

> <r_epik_Charging_Adjusted_Penalty>
0.16543

> <i_epik_Tot_Q>
0

> <i_epik_Tot_abs_Q>
0

> <r_epik_Metal_State_Penalty>
0.752038

> <b_epik_Metal_Only>
0

> <s_lp_Force_Field>
OPLS_2005

> <r_lp_Energy>
10.8925

> <b_lp_Chiralities_Consistent>
1

> <s_lp_Variant>
AV-unprocessed.smi:438-2

> <Gold.Version>
5.8.1

> <Gold.Id.Protein>
6NUR|6NUR_protein|mol2

> <Gold.PLP.Fitness>
42.3638

> <Gold.PLP.PLP>
-38.0590

> <Gold.PLP.part.hbond>
-2.8442

> <Gold.PLP.part.metal>
0.0000

> <Gold.PLP.part.buried>
-4.4794

> <Gold.PLP.part.nonpolar>
-31.3109

> <Gold.PLP.part.repulsive>
0.3897

> <Gold.PLP.ligand.clash>
0.3115

> <Gold.PLP.ligand.torsion>
0.5099

> <Gold.PLP.Chemscore.Hbond>
1.8613

> <Gold.PLP.Chemscore.CHOScore>
0.0000

> <Gold.PLP.Chemscore.Metal>
0.0000

> <Gold.Chemscore.Hbonds>
donor molecule, donor type, donor heavy atom, donor atom, acceptor molecule, acceptor atom, score
      L1  H    23    48       P1 10186  1.00
      P1  H 10785 10796       L1    23  0.78

> <Gold.PLP.Chemscore.Internal.Correction>
0.0522

> <Gold.Rescore>
     Score         DG    S(hbond)    S(metal)    S(lipo)     H(rot)  DE(clash)    DE(int)     intcor
     13.10     -14.16       1.62        0.00      90.75       2.86       0.22       0.84       ----

> <Gold.Chemscore.Fitness>
13.1007

> <Gold.Chemscore.DG>
-14.1633

> <Gold.Chemscore.ZeroCoef>
-5.4800

> <Gold.Chemscore.Hbond>
1.6163

> <Gold.Chemscore.Metal>
0.0000

> <Gold.Chemscore.Lipo>
90.7516

> <Gold.Chemscore.Internal_Hbond>
0.0000

> <Gold.Chemscore.DEClash>
0.2249

> <Gold.Chemscore.DEInternal>
0.8377

> <Gold.Chemscore.Rot>
2.8645

> <Gold.Chemscore.Internal.Correction>
   9.000000E+99

> <Gold.Chemscore.Hbonds>
donor molecule, donor type, donor heavy atom, donor atom, acceptor molecule, acceptor atom, score
      L1  H    23    48       P1 10186  0.97
      P1  H 10785 10796       L1    23  0.50

> <Gold.Chemscore.Hbond.Weighted>
-5.3985

> <Gold.Chemscore.Metal.Weighted>
-0.0000

> <Gold.Chemscore.Lipo.Weighted>
-10.6179

> <Gold.Chemscore.Internal_Hbond.Weighted>
0.0000

> <Gold.Chemscore.DEClash.Weighted>
0.2249

> <Gold.Chemscore.DEInternal.Weighted>
0.8377

> <Gold.Chemscore.Rot.Weighted>
7.3331

> <Gold.Chemscore.Internal.Correction.Weighted>
   9.000000E+99

> <Gold.Protein.RotatedTorsions>
[ 6907 6896 6895 6894 ] final  -21.96 input  -60.11 | X-H torsion
[ 7974 7965 7964 7962 ] final  130.39 input  175.53 | X-H torsion
[ 8008 7997 7996 7995 ] final -121.42 input   59.86 | X-H torsion
[ 10167 10162 10161 10158 ] final -153.63 input  -65.29 | X-H torsion
[ 10718 10713 10712 10709 ] final   -4.39 input   66.30 | X-H torsion
[ 10763 10752 10751 10750 ] final  144.83 input  -60.55 | X-H torsion
[ 11005 11000 10999 10996 ] final   76.11 input  -57.11 | X-H torsion

> <Gold.Protein.ActiveResidues>
 VAL166  LYS551  ARG553  GLY616  TRP617  ASP618  TYR619  PRO620  LYS621  CYS622 
 ASP623  PHE694  ASN695  SER759  ASP760  ASP761  ALA762  ILE779  LEU786  VAL792 
 PHE793  MET794  SER795  GLU796  ALA797  LYS798  CYS799  TRP800  GLU811  SER814 

> <Gold.Protein.RotatedAtoms>
  151.2256  135.0535  159.8966 H   0  0  0  0  0  0  0  0  0  0  0  0  # atno 6907 bound_to 6896
  152.5410  134.0593  159.8155 H   0  0  0  0  0  0  0  0  0  0  0  0  # atno 6908 bound_to 6896
  151.0765  133.5375  159.2655 H   0  0  0  0  0  0  0  0  0  0  0  0  # atno 6909 bound_to 6896
  145.0184  139.4155  143.5210 H   0  0  0  0  0  0  0  0  0  0  0  0  # atno 7974 bound_to 7965
  155.1477  140.0403  157.2813 H   0  0  0  0  0  0  0  0  0  0  0  0  # atno 8008 bound_to 7997
  154.6427  140.2550  155.7277 H   0  0  0  0  0  0  0  0  0  0  0  0  # atno 8009 bound_to 7997
  156.2540  140.2852  156.0827 H   0  0  0  0  0  0  0  0  0  0  0  0  # atno 8010 bound_to 7997
  139.7081  143.9154  152.2457 H   0  0  0  0  0  0  0  0  0  0  0  0  # atno 10167 bound_to 10162
  156.7620  130.5272  149.5783 H   0  0  0  0  0  0  0  0  0  0  0  0  # atno 10718 bound_to 10713
  153.9953  135.2928  155.3408 H   0  0  0  0  0  0  0  0  0  0  0  0  # atno 10763 bound_to 10752
  154.7191  135.5117  153.8787 H   0  0  0  0  0  0  0  0  0  0  0  0  # atno 10764 bound_to 10752
  153.0791  135.6673  154.0201 H   0  0  0  0  0  0  0  0  0  0  0  0  # atno 10765 bound_to 10752
  139.9313  134.7574  156.1355 H   0  0  0  0  0  0  0  0  0  0  0  0  # atno 11005 bound_to 11000
  146.3481  139.9668  142.8711 LP  0  0  0  0  0  0  0  0  0  0  0  0  # atno 17320 bound_to 7965
  145.1929  140.9819  143.4201 LP  0  0  0  0  0  0  0  0  0  0  0  0  # atno 17321 bound_to 7965
  139.9015  144.6909  150.8660 LP  0  0  0  0  0  0  0  0  0  0  0  0  # atno 17342 bound_to 10162
  140.7726  143.3510  151.2014 LP  0  0  0  0  0  0  0  0  0  0  0  0  # atno 17343 bound_to 10162
  156.1333  130.6193  151.0364 LP  0  0  0  0  0  0  0  0  0  0  0  0  # atno 17370 bound_to 10713
  157.6730  131.0857  150.7564 LP  0  0  0  0  0  0  0  0  0  0  0  0  # atno 17371 bound_to 10713
  141.0903  133.6717  156.2526 LP  0  0  0  0  0  0  0  0  0  0  0  0  # atno 17394 bound_to 11000
  140.6195  134.5376  157.5545 LP  0  0  0  0  0  0  0  0  0  0  0  0  # atno 17395 bound_to 11000

$$$$
