AV-unprocessed.smi:175|AV-procd|sdf|1430|dock1
  -GOLD-   2262019203D 1   1.00000     0.00000
 Structure written by MMmdl.
 47 50  0  0  0  0  0  0  0  0  1 V2000
  143.6971  135.0333  152.2813 C   0  0  0  0  0  0  0  0  0  0  0  0
  144.4629  133.7418  151.9522 C   0  0  1  0  0  0  0  0  0  0  0  0
  144.1563  133.3006  150.6375 O   0  0  0  0  0  0  0  0  0  0  0  0
  145.1601  132.3729  150.2684 C   0  0  0  0  0  0  0  0  0  0  0  0
  146.4380  133.0573  150.7383 C   0  0  0  0  0  0  0  0  0  0  0  0
  146.0129  133.8049  152.0059 C   0  0  1  0  0  0  0  0  0  0  0  0
  146.4892  135.1377  151.9113 O   0  0  0  0  0  0  0  0  0  0  0  0
  146.6078  133.1672  153.2859 C   0  0  0  0  0  0  0  0  0  0  0  0
  146.4666  134.0017  154.4701 N   0  0  0  0  0  0  0  0  0  0  0  0
  145.3105  134.2344  155.1819 C   0  0  0  0  0  0  0  0  0  0  0  0
  145.4413  135.0175  156.2172 N   0  0  0  0  0  0  0  0  0  0  0  0
  146.7880  135.3579  156.2143 C   0  0  0  0  0  0  0  0  0  0  0  0
  147.6095  136.1683  157.0483 C   0  0  0  0  0  0  0  0  0  0  0  0
  147.1722  136.8407  158.1361 N   0  0  0  0  0  0  0  0  0  0  0  0
  148.2039  137.0900  159.1445 C   0  0  0  0  0  0  0  0  0  0  0  0
  147.6050  136.4939  160.4027 C   0  0  0  0  0  0  0  0  0  0  0  0
  148.1920  136.4646  161.4830 O   0  0  0  0  0  0  0  0  0  0  0  0
  146.3862  136.0176  160.1452 N   0  0  0  0  0  0  0  0  0  0  0  0
  145.4875  135.3545  161.0864 C   0  0  0  0  0  0  0  0  0  0  0  0
  146.1762  134.1997  161.8357 C   0  0  0  0  0  0  0  0  0  0  0  0
  146.9706  134.7073  162.7771 F   0  0  0  0  0  0  0  0  0  0  0  0
  145.2675  133.4204  162.4224 F   0  0  0  0  0  0  0  0  0  0  0  0
  146.9175  133.4620  161.0095 F   0  0  0  0  0  0  0  0  0  0  0  0
  145.9876  136.2564  158.7683 C   0  0  0  0  0  0  0  0  0  0  0  0
  148.9228  136.2800  156.7351 N   0  0  0  0  0  0  0  0  0  0  0  0
  149.4095  135.6392  155.6676 C   0  0  0  0  0  0  0  0  0  0  0  0
  148.7679  134.8518  154.8009 N   0  0  0  0  0  0  0  0  0  0  0  0
  147.4461  134.7354  155.1177 C   0  0  0  0  0  0  0  0  0  0  0  0
  143.9398  135.3907  153.2822 H   0  0  0  0  0  0  0  0  0  0  0  0
  142.6213  134.8625  152.2436 H   0  0  0  0  0  0  0  0  0  0  0  0
  143.9278  135.8281  151.5718 H   0  0  0  0  0  0  0  0  0  0  0  0
  144.1107  132.9536  152.6184 H   0  0  0  0  0  0  0  0  0  0  0  0
  145.0029  131.4296  150.7942 H   0  0  0  0  0  0  0  0  0  0  0  0
  145.1553  132.1770  149.1962 H   0  0  0  0  0  0  0  0  0  0  0  0
  147.2500  132.3480  150.9020 H   0  0  0  0  0  0  0  0  0  0  0  0
  146.7663  133.7531  149.9642 H   0  0  0  0  0  0  0  0  0  0  0  0
  147.4339  135.1205  151.9208 H   0  0  0  0  0  0  0  0  0  0  0  0
  146.1265  132.2086  153.4837 H   0  0  0  0  0  0  0  0  0  0  0  0
  147.6678  132.9502  153.1460 H   0  0  0  0  0  0  0  0  0  0  0  0
  144.3609  133.7957  154.9120 H   0  0  0  0  0  0  0  0  0  0  0  0
  149.1660  136.6257  158.9189 H   0  0  0  0  0  0  0  0  0  0  0  0
  148.3564  138.1622  159.2697 H   0  0  0  0  0  0  0  0  0  0  0  0
  145.1033  136.0857  161.7992 H   0  0  0  0  0  0  0  0  0  0  0  0
  144.6208  134.9754  160.5432 H   0  0  0  0  0  0  0  0  0  0  0  0
  145.1637  136.9700  158.7332 H   0  0  0  0  0  0  0  0  0  0  0  0
  145.6527  135.3301  158.2977 H   0  0  0  0  0  0  0  0  0  0  0  0
  150.4647  135.7759  155.4817 H   0  0  0  0  0  0  0  0  0  0  0  0
  1  2  1  0  0  0  0
  1 29  1  0  0  0  0
  1 30  1  0  0  0  0
  1 31  1  0  0  0  0
  2  6  1  0  0  0  0
  2  3  1  0  0  0  0
  2 32  1  0  0  0  0
  3  4  1  0  0  0  0
  4  5  1  0  0  0  0
  4 33  1  0  0  0  0
  4 34  1  0  0  0  0
  5  6  1  0  0  0  0
  5 35  1  0  0  0  0
  5 36  1  0  0  0  0
  6  7  1  0  0  0  0
  6  8  1  0  0  0  0
  7 37  1  0  0  0  0
  8  9  1  0  0  0  0
  8 38  1  0  0  0  0
  8 39  1  0  0  0  0
  9 28  1  0  0  0  0
  9 10  1  0  0  0  0
 10 11  2  0  0  0  0
 10 40  1  0  0  0  0
 11 12  1  0  0  0  0
 12 28  2  0  0  0  0
 12 13  1  0  0  0  0
 13 14  1  0  0  0  0
 13 25  2  0  0  0  0
 14 24  1  0  0  0  0
 14 15  1  0  0  0  0
 15 16  1  0  0  0  0
 15 41  1  0  0  0  0
 15 42  1  0  0  0  0
 16 17  2  0  0  0  0
 16 18  1  0  0  0  0
 18 19  1  0  0  0  0
 18 24  1  0  0  0  0
 19 20  1  0  0  0  0
 19 43  1  0  0  0  0
 19 44  1  0  0  0  0
 20 21  1  0  0  0  0
 20 22  1  0  0  0  0
 20 23  1  0  0  0  0
 24 45  1  0  0  0  0
 24 46  1  0  0  0  0
 25 26  1  0  0  0  0
 26 27  2  0  0  0  0
 26 47  1  0  0  0  0
 27 28  1  0  0  0  0
M  END
> <s_m_source_file>
AV-unprocessed.smi

> <i_m_source_file_index>
175

> <i_lp_mmshare_version>
43012

> <i_f3d_flags>
0

> <s_epik_input>
W0NIMl0xW0NIMl1PW0NAQEhdKFtDSDNdKVtDQEBdMShbT0hdKVtDSDJdbihbY0hdbjIpYyhjMjMpbltjSF1uYzNONFtDSDJdQyg9TylOKFtDSDJdNClbQ0gyXUMoRikoRilG

> <s_epik_cmdline>
J2VwaWtfcHl0aG9uJywgJy1waCcsICc3LjAnLCAnLXRuJywgJzgnLCAnLW1hJywgJzIwMCcsICctbWV0YWxfYmluZGluZycsICctaW1hZScsICc8aW5maWxlLm1hZT4nLCAnLW9tYWUnLCAnPG91dGZpbGUubWFlPic=

> <r_lp_tautomer_probability>
1

> <r_epik_Ionization_Penalty>
0.000307802

> <r_epik_Ionization_Penalty_Charging>
0

> <r_epik_Ionization_Penalty_Neutral>
0.000307802

> <r_epik_State_Penalty>
-0

> <r_epik_Charging_Adjusted_Penalty>
0

> <i_epik_Tot_Q>
0

> <i_epik_Tot_abs_Q>
0

> <r_epik_Metal_State_Penalty>
-0

> <b_epik_Metal_Only>
0

> <s_epik_Chemistry_Notes>
This compound contains an acetal/aminal-like group ( X-CH(R)-Y where X, Y are N, S, or O) that may be acid/base labile, releasing an aldehyde.

> <s_lp_Force_Field>
OPLS_2005

> <r_lp_Energy>
36.8699

> <b_lp_Chiralities_Consistent>
1

> <s_lp_Variant>
AV-unprocessed.smi:175-2

> <Gold.Version>
5.8.1

> <Gold.Id.Protein>
6NUR|6NUR_protein|mol2

> <Gold.PLP.Fitness>
40.7699

> <Gold.PLP.PLP>
-34.1749

> <Gold.PLP.part.hbond>
-2.0000

> <Gold.PLP.part.metal>
0.0000

> <Gold.PLP.part.buried>
-7.1624

> <Gold.PLP.part.nonpolar>
-26.2763

> <Gold.PLP.part.repulsive>
0.4320

> <Gold.PLP.ligand.clash>
0.0000

> <Gold.PLP.ligand.torsion>
1.2941

> <Gold.PLP.Chemscore.Hbond>
2.0000

> <Gold.PLP.Chemscore.CHOScore>
0.9735

> <Gold.PLP.Chemscore.Metal>
0.0000

> <Gold.Chemscore.Hbonds>
donor molecule, donor type, donor heavy atom, donor atom, acceptor molecule, acceptor atom, score
      L1  H     7    37       P1  7948  0.88
      P1  H  6931  6943       L1    17  1.00
      L1  C    10    40       P1 10957  0.71

> <Gold.PLP.Chemscore.Internal.Correction>
0.2627

> <Gold.Rescore>
     Score         DG    S(hbond)    S(metal)    S(lipo)     H(rot)  DE(clash)    DE(int)     intcor
      6.37     -10.24       1.99        0.00      50.73       3.05       0.05       3.82       ----

> <Gold.Chemscore.Fitness>
6.3723

> <Gold.Chemscore.DG>
-10.2449

> <Gold.Chemscore.ZeroCoef>
-5.4800

> <Gold.Chemscore.Hbond>
1.9861

> <Gold.Chemscore.Metal>
0.0000

> <Gold.Chemscore.Lipo>
50.7336

> <Gold.Chemscore.Internal_Hbond>
0.0000

> <Gold.Chemscore.DEClash>
0.0504

> <Gold.Chemscore.DEInternal>
3.8222

> <Gold.Chemscore.Rot>
3.0487

> <Gold.Chemscore.Internal.Correction>
   9.000000E+99

> <Gold.Chemscore.Hbonds>
donor molecule, donor type, donor heavy atom, donor atom, acceptor molecule, acceptor atom, score
      L1  H     7    37       P1  7948  0.82
      P1  H  6931  6943       L1    17  0.78

> <Gold.Chemscore.Hbond.Weighted>
-6.6336

> <Gold.Chemscore.Metal.Weighted>
-0.0000

> <Gold.Chemscore.Lipo.Weighted>
-5.9358

> <Gold.Chemscore.Internal_Hbond.Weighted>
0.0000

> <Gold.Chemscore.DEClash.Weighted>
0.0504

> <Gold.Chemscore.DEInternal.Weighted>
3.8222

> <Gold.Chemscore.Rot.Weighted>
7.8046

> <Gold.Chemscore.Internal.Correction.Weighted>
   9.000000E+99

> <Gold.Protein.RotatedTorsions>
[ 6907 6896 6895 6894 ] final  -55.96 input  -60.11 | X-H torsion
[ 7974 7965 7964 7962 ] final  123.29 input  175.53 | X-H torsion
[ 8008 7997 7996 7995 ] final   80.74 input   59.86 | X-H torsion
[ 10167 10162 10161 10158 ] final -166.26 input  -65.29 | X-H torsion
[ 10718 10713 10712 10709 ] final  -48.29 input   66.30 | X-H torsion
[ 10763 10752 10751 10750 ] final -139.64 input  -60.55 | X-H torsion
[ 11005 11000 10999 10996 ] final   94.29 input  -57.11 | X-H torsion

> <Gold.Protein.ActiveResidues>
 VAL166  LYS551  ARG553  GLY616  TRP617  ASP618  TYR619  PRO620  LYS621  CYS622 
 ASP623  PHE694  ASN695  SER759  ASP760  ASP761  ALA762  ILE779  LEU786  VAL792 
 PHE793  MET794  SER795  GLU796  ALA797  LYS798  CYS799  TRP800  GLU811  SER814 

> <Gold.Protein.RotatedAtoms>
  150.8207  134.7413  159.6769 H   0  0  0  0  0  0  0  0  0  0  0  0  # atno 6907 bound_to 6896
  152.4323  134.5751  159.9942 H   0  0  0  0  0  0  0  0  0  0  0  0  # atno 6908 bound_to 6896
  151.5936  133.3326  159.3068 H   0  0  0  0  0  0  0  0  0  0  0  0  # atno 6909 bound_to 6896
  145.0977  139.3541  143.4828 H   0  0  0  0  0  0  0  0  0  0  0  0  # atno 7974 bound_to 7965
  155.8877  140.3440  155.5933 H   0  0  0  0  0  0  0  0  0  0  0  0  # atno 8008 bound_to 7997
  155.7647  140.0837  157.2157 H   0  0  0  0  0  0  0  0  0  0  0  0  # atno 8009 bound_to 7997
  154.4030  140.1529  156.2860 H   0  0  0  0  0  0  0  0  0  0  0  0  # atno 8010 bound_to 7997
  139.6127  144.0782  152.1857 H   0  0  0  0  0  0  0  0  0  0  0  0  # atno 10167 bound_to 10162
  156.2002  130.4156  149.9251 H   0  0  0  0  0  0  0  0  0  0  0  0  # atno 10718 bound_to 10713
  154.8603  135.3576  154.5580 H   0  0  0  0  0  0  0  0  0  0  0  0  # atno 10763 bound_to 10752
  153.6196  135.7006  153.5320 H   0  0  0  0  0  0  0  0  0  0  0  0  # atno 10764 bound_to 10752
  153.3140  135.4170  155.1321 H   0  0  0  0  0  0  0  0  0  0  0  0  # atno 10765 bound_to 10752
  139.8800  134.8837  156.3843 H   0  0  0  0  0  0  0  0  0  0  0  0  # atno 11005 bound_to 11000
  146.3530  140.0840  142.8616 LP  0  0  0  0  0  0  0  0  0  0  0  0  # atno 17320 bound_to 7965
  145.0992  140.9335  143.4723 LP  0  0  0  0  0  0  0  0  0  0  0  0  # atno 17321 bound_to 7965
  140.0405  144.6011  150.7415 LP  0  0  0  0  0  0  0  0  0  0  0  0  # atno 17342 bound_to 10162
  140.7330  143.2712  151.3883 LP  0  0  0  0  0  0  0  0  0  0  0  0  # atno 17343 bound_to 10162
  156.6963  130.8915  151.3594 LP  0  0  0  0  0  0  0  0  0  0  0  0  # atno 17370 bound_to 10713
  157.6981  130.9304  150.0704 LP  0  0  0  0  0  0  0  0  0  0  0  0  # atno 17371 bound_to 10713
  140.9377  133.7536  156.0106 LP  0  0  0  0  0  0  0  0  0  0  0  0  # atno 17394 bound_to 11000
  140.8256  134.3238  157.5367 LP  0  0  0  0  0  0  0  0  0  0  0  0  # atno 17395 bound_to 11000

$$$$
