AV-unprocessed.smi:609|AV-procd|sdf|3051|dock10
  -GOLD-   2262023573D 1   1.00000     0.00000
 Structure written by MMmdl.
 43 45  0  0  0  0  0  0  0  0  2 V2000
  152.1249  145.1613  160.1360 C   0  0  0  0  0  0  0  0  0  0  0  0
  151.7331  143.8290  159.5198 C   0  0  0  0  0  0  0  0  0  0  0  0
  150.9426  143.8346  158.3482 C   0  0  0  0  0  0  0  0  0  0  0  0
  150.6019  142.6007  157.8072 C   0  0  0  0  0  0  0  0  0  0  0  0
  149.8490  142.2724  156.6774 N   0  3  0  0  0  0  0  0  0  0  0  0
  149.7902  140.9177  156.5488 C   0  0  0  0  0  0  0  0  0  0  0  0
  150.4933  140.3775  157.5806 N   0  0  0  0  0  0  0  0  0  0  0  0
  150.7506  138.9703  157.9131 C   0  0  0  0  0  0  0  0  0  0  0  0
  149.4586  138.1408  158.0455 C   0  0  2  0  0  0  0  0  0  0  0  0
  148.4196  138.9631  158.5416 O   0  0  0  0  0  0  0  0  0  0  0  0
  149.6436  136.9364  158.9817 C   0  0  0  0  0  0  0  0  0  0  0  0
  148.1632  135.8804  159.0328 S   0  0  0  0  0  0  0  0  0  0  0  0
  147.7663  135.9900  160.7527 C   0  0  0  0  0  0  0  0  0  0  0  0
  147.6225  137.1229  161.4365 N   0  0  0  0  0  0  0  0  0  0  0  0
  147.3175  136.7269  162.7340 C   0  0  0  0  0  0  0  0  0  0  0  0
  147.2861  135.3553  162.7940 C   0  0  0  0  0  0  0  0  0  0  0  0
  147.5755  134.8968  161.5157 N   0  0  0  0  0  0  0  0  0  0  0  0
  147.6528  133.5084  161.1049 C   0  0  0  0  0  0  0  0  0  0  0  0
  151.0177  141.3888  158.3916 C   0  0  0  0  0  0  0  0  0  0  0  0
  151.7959  141.3644  159.5461 C   0  0  0  0  0  0  0  0  0  0  0  0
  152.1541  142.6094  160.1112 C   0  0  0  0  0  0  0  0  0  0  0  0
  153.0050  142.6152  161.3698 C   0  0  0  0  0  0  0  0  0  0  0  0
  151.7621  145.9993  159.5397 H   0  0  0  0  0  0  0  0  0  0  0  0
  153.2094  145.2481  160.2058 H   0  0  0  0  0  0  0  0  0  0  0  0
  151.7040  145.2574  161.1371 H   0  0  0  0  0  0  0  0  0  0  0  0
  150.6189  144.7588  157.8922 H   0  0  0  0  0  0  0  0  0  0  0  0
  149.2822  140.3705  155.7678 H   0  0  0  0  0  0  0  0  0  0  0  0
  151.4097  138.5514  157.1517 H   0  0  0  0  0  0  0  0  0  0  0  0
  151.3091  138.9526  158.8499 H   0  0  0  0  0  0  0  0  0  0  0  0
  149.1605  137.7810  157.0601 H   0  0  0  0  0  0  0  0  0  0  0  0
  148.7926  139.5764  159.1569 H   0  0  0  0  0  0  0  0  0  0  0  0
  150.4818  136.3304  158.6359 H   0  0  0  0  0  0  0  0  0  0  0  0
  149.8848  137.2750  159.9901 H   0  0  0  0  0  0  0  0  0  0  0  0
  147.1460  137.4523  163.5158 H   0  0  0  0  0  0  0  0  0  0  0  0
  147.0875  134.6859  163.6182 H   0  0  0  0  0  0  0  0  0  0  0  0
  147.4411  132.8526  161.9500 H   0  0  0  0  0  0  0  0  0  0  0  0
  148.6532  133.2897  160.7303 H   0  0  0  0  0  0  0  0  0  0  0  0
  146.9238  133.3155  160.3172 H   0  0  0  0  0  0  0  0  0  0  0  0
  152.1168  140.4354  159.9939 H   0  0  0  0  0  0  0  0  0  0  0  0
  153.1967  141.6027  161.7263 H   0  0  0  0  0  0  0  0  0  0  0  0
  152.5038  143.1593  162.1707 H   0  0  0  0  0  0  0  0  0  0  0  0
  153.9676  143.0892  161.1773 H   0  0  0  0  0  0  0  0  0  0  0  0
  149.4094  142.9220  156.0380 H   0  0  0  0  0  0  0  0  0  0  0  0
  1  2  1  0  0  0  0
  1 23  1  0  0  0  0
  1 24  1  0  0  0  0
  1 25  1  0  0  0  0
  2 21  1  0  0  0  0
  2  3  2  0  0  0  0
  3  4  1  0  0  0  0
  3 26  1  0  0  0  0
  4 19  2  0  0  0  0
  4  5  1  0  0  0  0
  5  6  2  0  0  0  0
  5 43  1  0  0  0  0
  6  7  1  0  0  0  0
  6 27  1  0  0  0  0
  7  8  1  0  0  0  0
  7 19  1  0  0  0  0
  8  9  1  0  0  0  0
  8 28  1  0  0  0  0
  8 29  1  0  0  0  0
  9 10  1  0  0  0  0
  9 11  1  0  0  0  0
  9 30  1  0  0  0  0
 10 31  1  0  0  0  0
 11 12  1  0  0  0  0
 11 32  1  0  0  0  0
 11 33  1  0  0  0  0
 12 13  1  0  0  0  0
 13 17  1  0  0  0  0
 13 14  2  0  0  0  0
 14 15  1  0  0  0  0
 15 16  2  0  0  0  0
 15 34  1  0  0  0  0
 16 17  1  0  0  0  0
 16 35  1  0  0  0  0
 17 18  1  0  0  0  0
 18 36  1  0  0  0  0
 18 37  1  0  0  0  0
 18 38  1  0  0  0  0
 19 20  1  0  0  0  0
 20 21  2  0  0  0  0
 20 39  1  0  0  0  0
 21 22  1  0  0  0  0
 22 40  1  0  0  0  0
 22 41  1  0  0  0  0
 22 42  1  0  0  0  0
M  CHG  1   5   1
M  END
> <s_m_source_file>
AV-unprocessed.smi

> <i_m_source_file_index>
609

> <i_lp_mmshare_version>
43012

> <i_f3d_flags>
0

> <s_epik_input>
W0NIM11jKFtjSF0xKWMoW0NIM10pW2NIXWMoYzEyKW4oW2NIXW4yKVtDSDJdW0NASF0oW09IXSlbQ0gyXVNjM25bY0hdW2NIXW4zW0NIM10=

> <s_epik_cmdline>
J2VwaWtfcHl0aG9uJywgJy1waCcsICc3LjAnLCAnLXRuJywgJzgnLCAnLW1hJywgJzIwMCcsICctbWV0YWxfYmluZGluZycsICctaW1hZScsICc8aW5maWxlLm1hZT4nLCAnLW9tYWUnLCAnPG91dGZpbGUubWFlPic=

> <r_epik_Ionization_Penalty>
2.09683

> <r_epik_Ionization_Penalty_Charging>
2.09682

> <r_epik_Ionization_Penalty_Neutral>
2.49751e-06

> <r_epik_State_Penalty>
2.21514

> <r_epik_Charging_Adjusted_Penalty>
4.31197

> <i_epik_Tot_Q>
1

> <i_epik_Tot_abs_Q>
1

> <r_epik_Metal_State_Penalty>
1.52634

> <b_epik_Metal_Only>
0

> <s_lp_Force_Field>
OPLS_2005

> <r_lp_Energy>
12.8682

> <b_lp_Chiralities_Consistent>
1

> <s_lp_Variant>
AV-unprocessed.smi:609-7

> <Gold.Version>
5.8.1

> <Gold.Id.Protein>
6NUR|6NUR_protein|mol2

> <Gold.PLP.Fitness>
60.0137

> <Gold.PLP.PLP>
-50.8247

> <Gold.PLP.part.hbond>
-4.0000

> <Gold.PLP.part.metal>
0.0000

> <Gold.PLP.part.buried>
-6.1095

> <Gold.PLP.part.nonpolar>
-40.9191

> <Gold.PLP.part.repulsive>
0.0384

> <Gold.PLP.ligand.clash>
0.0000

> <Gold.PLP.ligand.torsion>
0.7872

> <Gold.PLP.Chemscore.Hbond>
3.5860

> <Gold.PLP.Chemscore.CHOScore>
0.0000

> <Gold.PLP.Chemscore.Metal>
0.0000

> <Gold.Chemscore.Hbonds>
donor molecule, donor type, donor heavy atom, donor atom, acceptor molecule, acceptor atom, score
      L1  H     5    43       P1  8028  1.92
      P1  H  6931  6943       L1    14  0.80
      P1  H  6934  6947       L1    14  0.83

> <Gold.PLP.Chemscore.Internal.Correction>
0.0054

> <Gold.Rescore>
     Score         DG    S(hbond)    S(metal)    S(lipo)     H(rot)  DE(clash)    DE(int)     intcor
     17.65     -18.34       1.81        0.00     112.56       2.48       0.09       0.60       ----

> <Gold.Chemscore.Fitness>
17.6450

> <Gold.Chemscore.DG>
-18.3410

> <Gold.Chemscore.ZeroCoef>
-5.4800

> <Gold.Chemscore.Hbond>
1.8075

> <Gold.Chemscore.Metal>
0.0000

> <Gold.Chemscore.Lipo>
112.5617

> <Gold.Chemscore.Internal_Hbond>
0.0000

> <Gold.Chemscore.DEClash>
0.0915

> <Gold.Chemscore.DEInternal>
0.6045

> <Gold.Chemscore.Rot>
2.4789

> <Gold.Chemscore.Internal.Correction>
   9.000000E+99

> <Gold.Chemscore.Hbonds>
donor molecule, donor type, donor heavy atom, donor atom, acceptor molecule, acceptor atom, score
      L1  H     5    43       P1  8028  0.92
      P1  H  6931  6943       L1    14  0.11
      P1  H  6934  6947       L1    14  0.75

> <Gold.Chemscore.Hbond.Weighted>
-6.0371

> <Gold.Chemscore.Metal.Weighted>
-0.0000

> <Gold.Chemscore.Lipo.Weighted>
-13.1697

> <Gold.Chemscore.Internal_Hbond.Weighted>
0.0000

> <Gold.Chemscore.DEClash.Weighted>
0.0915

> <Gold.Chemscore.DEInternal.Weighted>
0.6045

> <Gold.Chemscore.Rot.Weighted>
6.3459

> <Gold.Chemscore.Internal.Correction.Weighted>
   9.000000E+99

> <Gold.Protein.RotatedTorsions>
[ 6907 6896 6895 6894 ] final   90.12 input  -60.11 | X-H torsion
[ 7974 7965 7964 7962 ] final  167.66 input  175.53 | X-H torsion
[ 8008 7997 7996 7995 ] final  -64.62 input   59.86 | X-H torsion
[ 10167 10162 10161 10158 ] final -171.53 input  -65.29 | X-H torsion
[ 10718 10713 10712 10709 ] final  -61.66 input   66.30 | X-H torsion
[ 10763 10752 10751 10750 ] final   64.26 input  -60.55 | X-H torsion
[ 11005 11000 10999 10996 ] final   -9.64 input  -57.11 | X-H torsion

> <Gold.Protein.ActiveResidues>
 VAL166  LYS551  ARG553  GLY616  TRP617  ASP618  TYR619  PRO620  LYS621  CYS622 
 ASP623  PHE694  ASN695  SER759  ASP760  ASP761  ALA762  ILE779  LEU786  VAL792 
 PHE793  MET794  SER795  GLU796  ALA797  LYS798  CYS799  TRP800  GLU811  SER814 

> <Gold.Protein.RotatedAtoms>
  152.5442  134.1861  159.8654 H   0  0  0  0  0  0  0  0  0  0  0  0  # atno 6907 bound_to 6896
  151.1860  133.4689  159.2602 H   0  0  0  0  0  0  0  0  0  0  0  0  # atno 6908 bound_to 6896
  151.1130  135.0049  159.8558 H   0  0  0  0  0  0  0  0  0  0  0  0  # atno 6909 bound_to 6896
  144.7416  139.8793  143.6395 H   0  0  0  0  0  0  0  0  0  0  0  0  # atno 7974 bound_to 7965
  154.4622  140.0950  156.6925 H   0  0  0  0  0  0  0  0  0  0  0  0  # atno 8008 bound_to 7997
  155.4960  140.3472  155.4344 H   0  0  0  0  0  0  0  0  0  0  0  0  # atno 8009 bound_to 7997
  156.0892  140.1393  156.9603 H   0  0  0  0  0  0  0  0  0  0  0  0  # atno 8010 bound_to 7997
  139.5797  144.1452  152.1498 H   0  0  0  0  0  0  0  0  0  0  0  0  # atno 10167 bound_to 10162
  156.0906  130.4201  150.1026 H   0  0  0  0  0  0  0  0  0  0  0  0  # atno 10718 bound_to 10713
  153.0049  135.5399  154.6482 H   0  0  0  0  0  0  0  0  0  0  0  0  # atno 10763 bound_to 10752
  154.5721  135.2842  155.0819 H   0  0  0  0  0  0  0  0  0  0  0  0  # atno 10764 bound_to 10752
  154.1981  135.6488  153.5131 H   0  0  0  0  0  0  0  0  0  0  0  0  # atno 10765 bound_to 10752
  140.7363  133.8707  155.8932 H   0  0  0  0  0  0  0  0  0  0  0  0  # atno 11005 bound_to 11000
  146.1223  139.4243  143.0220 LP  0  0  0  0  0  0  0  0  0  0  0  0  # atno 17320 bound_to 7965
  145.7286  141.0050  143.1364 LP  0  0  0  0  0  0  0  0  0  0  0  0  # atno 17321 bound_to 7965
  140.1002  144.5546  150.6994 LP  0  0  0  0  0  0  0  0  0  0  0  0  # atno 17342 bound_to 10162
  140.7076  143.2480  151.4678 LP  0  0  0  0  0  0  0  0  0  0  0  0  # atno 17343 bound_to 10162
  156.9037  130.9628  151.3573 LP  0  0  0  0  0  0  0  0  0  0  0  0  # atno 17370 bound_to 10713
  157.6055  130.8544  149.8868 LP  0  0  0  0  0  0  0  0  0  0  0  0  # atno 17371 bound_to 10713
  140.9877  134.1321  157.4437 LP  0  0  0  0  0  0  0  0  0  0  0  0  # atno 17394 bound_to 11000
  139.8815  135.0030  156.6163 LP  0  0  0  0  0  0  0  0  0  0  0  0  # atno 17395 bound_to 11000

$$$$
