#       Name:                AV-unprocessed.smi:3254
#       Creating user name   scv26
#       Creation time:       Fri Mar 27 18:35:10 2020


#       File generated by GOLD software.
#

@<TRIPOS>MOLECULE
AV-unprocessed.smi:3254
    41    42     1
SMALL
NO_CHARGES


@<TRIPOS>ATOM
      1 ****        -3.1410  -3.9362   1.1636 C.3            1 S1                 0.0000
      2 ****        -3.7350  -2.5216   1.1925 C.3            1 S1                 0.0000
      3 ****        -2.9425  -1.5957   0.3891 N.am           1 S1                 0.0000
      4 ****        -2.0310  -0.6576   1.0220 C.3            1 S1                 0.0000
      5 ****        -1.2131  -0.0360  -0.1298 C.3            1 S1                 0.0000
      6 ****         0.2363  -0.5473  -0.1575 C.2            1 S1                 0.0000
      7 ****         0.4652  -1.7531  -0.2605 O.2            1 S1                 0.0000
      8 ****         1.1982   0.3824  -0.0621 N.am           1 S1                 0.0000
      9 ****         2.6356   0.1273  -0.0806 C.3            1 S1                 0.0000
     10 ****         3.3554   1.0879  -1.0408 C.3            1 S1                 0.0000
     11 ****         3.2620   2.4696  -0.6085 N.pl3          1 S1                 0.0000
     12 ****         3.9946   3.0826   0.3993 C.2            1 S1                 0.0000
     13 ****         3.5668   4.3898   0.4562 C.2            1 S1                 0.0000
     14 ****         2.5786   4.6020  -0.5024 N.2            1 S1                 0.0000
     15 ****         2.4546   3.4218  -1.0957 C.2            1 S1                 0.0000
     16 ****        -1.9741  -0.4260  -1.4129 C.3            1 S1                 0.0000
     17 ****        -2.9728  -1.4707  -0.9423 C.2            1 S1                 0.0000
     18 ****        -3.6865  -2.1073  -1.7158 O.2            1 S1                 0.0000
     19 ****        -3.7263  -4.6149   1.7841 H              1 S1                 0.0000
     20 ****        -2.1176  -3.9396   1.5402 H              1 S1                 0.0000
     21 ****        -3.1268  -4.3418   0.1515 H              1 S1                 0.0000
     22 ****        -4.7625  -2.5395   0.8260 H              1 S1                 0.0000
     23 ****        -3.7813  -2.1623   2.2213 H              1 S1                 0.0000
     24 ****        -2.6070   0.1075   1.5442 H              1 S1                 0.0000
     25 ****        -1.4101  -1.1650   1.7628 H              1 S1                 0.0000
     26 ****        -1.2043   1.0504  -0.0239 H              1 S1                 0.0000
     27 ****         0.9123   1.3470   0.0260 H              1 S1                 0.0000
     28 ****         3.0250   0.2390   0.9319 H              1 S1                 0.0000
     29 ****         2.8498  -0.8991  -0.3825 H              1 S1                 0.0000
     30 ****         4.4117   0.8250  -1.1073 H              1 S1                 0.0000
     31 ****         2.9464   1.0012  -2.0486 H              1 S1                 0.0000
     32 ****         4.7370   2.5524   0.9778 H              1 S1                 0.0000
     33 ****         3.8918   5.1873   1.1080 H              1 S1                 0.0000
     34 ****         1.7563   3.2447  -1.9008 H              1 S1                 0.0000
     35 ****        -2.5114   0.4282  -1.8258 H              1 S1                 0.0000
     36 ****        -1.3338  -0.8327  -2.1975 H              1 S1                 0.0000
     37 ****        -0.2928  -2.4021  -0.3264 LP             1 S1                 0.0000
     38 ****         1.4090  -2.0831  -0.2783 LP             1 S1                 0.0000
     39 ****         2.0795   5.4463  -0.6977 LP             1 S1                 0.0000
     40 ****        -4.3202  -2.7945  -1.3606 LP             1 S1                 0.0000
     41 ****        -3.6331  -1.9376  -2.6999 LP             1 S1                 0.0000
@<TRIPOS>BOND
    1    1    2 1     
    2    1   19 1     
    3    1   20 1     
    4    1   21 1     
    5    2    3 1     
    6    2   22 1     
    7    2   23 1     
    8    3   17 am    
    9    3    4 1     
   10    4    5 1     
   11    4   24 1     
   12    4   25 1     
   13    5    6 1     
   14    5   16 1     
   15    5   26 1     
   16    6    7 2     
   17    6    8 am    
   18    8    9 1     
   19    8   27 1     
   20    9   10 1     
   21    9   28 1     
   22    9   29 1     
   23   10   11 1     
   24   10   30 1     
   25   10   31 1     
   26   11   15 1     
   27   11   12 1     
   28   12   13 2     
   29   12   32 1     
   30   13   14 1     
   31   13   33 1     
   32   14   15 2     
   33   15   34 1     
   34   16   17 1     
   35   16   35 1     
   36   16   36 1     
   37   17   18 2     
   38    7   37 1     
   39    7   38 1     
   40   14   39 1     
   41   18   40 1     
   42   18   41 1     
@<TRIPOS>SUBSTRUCTURE
      1 S1             1
@<TRIPOS>SET
LONE_PAIRS      STATIC     ATOMS    <user>   **** ""
5 37 38 39 40 41
DONOR_HYDROGENS      STATIC     ATOMS    <user>   **** ""
1 27
ATOM$BLUE        STATIC     ATOMS    COLORGROUP SYSTEM
5 37 38 39 40 41
ATOM$RED        STATIC     ATOMS    COLORGROUP SYSTEM
1 27
