AV-unprocessed.smi:701|AV-procd|sdf|3413|dock10
  -GOLD-   22720 0393D 1   1.00000     0.00000
 Structure written by MMmdl.
 48 50  0  0  0  0  0  0  0  0  2 V2000
  151.9403  137.8778  154.8754 C   0  0  0  0  0  0  0  0  0  0  0  0
  152.7052  139.2014  154.9381 C   0  0  0  0  0  0  0  0  0  0  0  0
  152.5589  139.7466  156.2383 O   0  0  0  0  0  0  0  0  0  0  0  0
  151.6573  140.8455  156.2910 C   0  0  1  0  0  0  0  0  0  0  0  0
  150.2606  140.4751  155.7771 C   0  0  0  0  0  0  0  0  0  0  0  0
  149.8748  140.1424  157.2255 C   0  0  1  0  0  0  0  0  0  0  0  0
  150.0667  138.7232  157.5264 N   0  0  0  0  0  0  0  0  0  0  0  0
  149.2031  137.9643  158.2151 C   0  0  0  0  0  0  0  0  0  0  0  0
  148.1467  138.3999  158.6759 O   0  0  0  0  0  0  0  0  0  0  0  0
  149.5894  136.4868  158.3716 C   0  0  0  0  0  0  0  0  0  0  0  0
  148.5620  135.6848  159.0553 N   0  0  0  0  0  0  0  0  0  0  0  0
  148.1178  134.5145  158.4152 C   0  0  0  0  0  0  0  0  0  0  0  0
  147.1728  133.7232  158.9571 C   0  0  0  0  0  0  0  0  0  0  0  0
  146.6074  134.1067  160.2446 C   0  0  0  0  0  0  0  0  0  0  0  0
  145.7473  133.3931  160.7573 O   0  0  0  0  0  0  0  0  0  0  0  0
  147.0680  135.2539  160.8239 N   0  5  0  0  0  0  0  0  0  0  0  0
  148.0261  136.0519  160.2580 C   0  0  0  0  0  0  0  0  0  0  0  0
  148.4222  137.0872  160.7946 O   0  0  0  0  0  0  0  0  0  0  0  0
  151.0470  141.0446  157.7042 C   0  0  0  0  0  0  0  0  0  0  0  0
  151.8887  140.5625  158.9070 C   0  0  0  0  0  0  0  0  0  0  0  0
  153.1147  141.4523  159.1717 C   0  0  0  0  0  0  0  0  0  0  0  0
  152.6986  142.9063  159.4241 C   0  0  0  0  0  0  0  0  0  0  0  0
  151.8168  143.4331  158.2859 C   0  0  0  0  0  0  0  0  0  0  0  0
  150.6251  142.4954  158.0221 C   0  0  0  0  0  0  0  0  0  0  0  0
  152.0288  137.4223  153.8890 H   0  0  0  0  0  0  0  0  0  0  0  0
  150.8803  138.0294  155.0809 H   0  0  0  0  0  0  0  0  0  0  0  0
  152.3260  137.1681  155.6077 H   0  0  0  0  0  0  0  0  0  0  0  0
  153.7607  139.0340  154.7195 H   0  0  0  0  0  0  0  0  0  0  0  0
  152.3172  139.8883  154.1854 H   0  0  0  0  0  0  0  0  0  0  0  0
  152.0681  141.7567  155.8543 H   0  0  0  0  0  0  0  0  0  0  0  0
  149.7160  141.3353  155.3858 H   0  0  0  0  0  0  0  0  0  0  0  0
  150.2239  139.6386  155.0785 H   0  0  0  0  0  0  0  0  0  0  0  0
  148.8910  140.5192  157.5101 H   0  0  0  0  0  0  0  0  0  0  0  0
  150.9074  138.2890  157.1742 H   0  0  0  0  0  0  0  0  0  0  0  0
  149.7837  136.0794  157.3786 H   0  0  0  0  0  0  0  0  0  0  0  0
  150.5421  136.4160  158.8997 H   0  0  0  0  0  0  0  0  0  0  0  0
  148.5821  134.3077  157.4621 H   0  0  0  0  0  0  0  0  0  0  0  0
  146.8390  132.8300  158.4501 H   0  0  0  0  0  0  0  0  0  0  0  0
  151.2693  140.5303  159.8043 H   0  0  0  0  0  0  0  0  0  0  0  0
  152.2387  139.5406  158.7612 H   0  0  0  0  0  0  0  0  0  0  0  0
  153.6723  141.0729  160.0284 H   0  0  0  0  0  0  0  0  0  0  0  0
  153.7918  141.4064  158.3178 H   0  0  0  0  0  0  0  0  0  0  0  0
  152.1495  142.9670  160.3644 H   0  0  0  0  0  0  0  0  0  0  0  0
  153.5810  143.5364  159.5389 H   0  0  0  0  0  0  0  0  0  0  0  0
  151.4561  144.4325  158.5302 H   0  0  0  0  0  0  0  0  0  0  0  0
  152.4145  143.5369  157.3800 H   0  0  0  0  0  0  0  0  0  0  0  0
  150.0307  142.9103  157.2075 H   0  0  0  0  0  0  0  0  0  0  0  0
  149.9672  142.5059  158.8923 H   0  0  0  0  0  0  0  0  0  0  0  0
  1  2  1  0  0  0  0
  1 25  1  0  0  0  0
  1 26  1  0  0  0  0
  1 27  1  0  0  0  0
  2  3  1  0  0  0  0
  2 28  1  0  0  0  0
  2 29  1  0  0  0  0
  3  4  1  0  0  0  0
  4 19  1  0  0  0  0
  4  5  1  0  0  0  0
  4 30  1  0  0  0  0
  5  6  1  0  0  0  0
  5 31  1  0  0  0  0
  5 32  1  0  0  0  0
  6  7  1  0  0  0  0
  6 19  1  0  0  0  0
  6 33  1  0  0  0  0
  7  8  1  0  0  0  0
  7 34  1  0  0  0  0
  8  9  2  0  0  0  0
  8 10  1  0  0  0  0
 10 11  1  0  0  0  0
 10 35  1  0  0  0  0
 10 36  1  0  0  0  0
 11 17  1  0  0  0  0
 11 12  1  0  0  0  0
 12 13  2  0  0  0  0
 12 37  1  0  0  0  0
 13 14  1  0  0  0  0
 13 38  1  0  0  0  0
 14 15  2  0  0  0  0
 14 16  1  0  0  0  0
 16 17  1  0  0  0  0
 17 18  2  0  0  0  0
 19 24  1  0  0  0  0
 19 20  1  0  0  0  0
 20 21  1  0  0  0  0
 20 39  1  0  0  0  0
 20 40  1  0  0  0  0
 21 22  1  0  0  0  0
 21 41  1  0  0  0  0
 21 42  1  0  0  0  0
 22 23  1  0  0  0  0
 22 43  1  0  0  0  0
 22 44  1  0  0  0  0
 23 24  1  0  0  0  0
 23 45  1  0  0  0  0
 23 46  1  0  0  0  0
 24 47  1  0  0  0  0
 24 48  1  0  0  0  0
M  CHG  1  16  -1
M  END
> <s_m_source_file>
AV-unprocessed.smi

> <i_m_source_file_index>
701

> <i_lp_mmshare_version>
43012

> <i_f3d_flags>
0

> <s_epik_input>
W0NIMl0xW0NIMl1bQ0gyXVtDSDJdW0NIMl1DMTJbQ0BIXShPW0NIMl1bQ0gzXSlbQ0gyXVtDQEhdMltOSF1DKD1PKVtDSDJdbjNbY0hdW2NIXWMoPU8pW25IXWMzPU8=

> <s_epik_cmdline>
J2VwaWtfcHl0aG9uJywgJy1waCcsICc3LjAnLCAnLXRuJywgJzgnLCAnLW1hJywgJzIwMCcsICctbWV0YWxfYmluZGluZycsICctaW1hZScsICc8aW5maWxlLm1hZT4nLCAnLW9tYWUnLCAnPG91dGZpbGUubWFlPic=

> <r_lp_tautomer_probability>
0.999537

> <r_epik_Ionization_Penalty>
3.12423

> <r_epik_Ionization_Penalty_Charging>
2.92877e-08

> <r_epik_Ionization_Penalty_Neutral>
3.12423

> <r_epik_State_Penalty>
3.12332

> <r_epik_Charging_Adjusted_Penalty>
3.12332

> <i_epik_Tot_Q>
-1

> <i_epik_Tot_abs_Q>
1

> <r_epik_Metal_State_Penalty>
0.463873

> <b_epik_Metal_Only>
1

> <s_lp_Force_Field>
OPLS_2005

> <r_lp_Energy>
39.3964

> <b_lp_Chiralities_Consistent>
1

> <s_lp_Variant>
AV-unprocessed.smi:701-6

> <Gold.Version>
5.8.1

> <Gold.Id.Protein>
6NUR|6NUR_protein|mol2

> <Gold.PLP.Fitness>
43.7206

> <Gold.PLP.PLP>
-37.4588

> <Gold.PLP.part.hbond>
-3.9329

> <Gold.PLP.part.metal>
0.0000

> <Gold.PLP.part.buried>
-5.0523

> <Gold.PLP.part.nonpolar>
-29.2103

> <Gold.PLP.part.repulsive>
0.0710

> <Gold.PLP.ligand.clash>
0.0000

> <Gold.PLP.ligand.torsion>
0.6456

> <Gold.PLP.Chemscore.Hbond>
2.4004

> <Gold.PLP.Chemscore.CHOScore>
0.0000

> <Gold.PLP.Chemscore.Metal>
0.0000

> <Gold.Chemscore.Hbonds>
donor molecule, donor type, donor heavy atom, donor atom, acceptor molecule, acceptor atom, score
      P1  H  6931  6943       L1    18  0.91
      P1  H  6934  6947       L1    18  0.20
      P1  H  7997  8008       L1     3  0.93

> <Gold.PLP.Chemscore.Internal.Correction>
0.3518

> <Gold.Rescore>
     Score         DG    S(hbond)    S(metal)    S(lipo)     H(rot)  DE(clash)    DE(int)     intcor
     12.22     -17.54       2.05        0.00      89.26       2.04       0.01       5.31       ----

> <Gold.Chemscore.Fitness>
12.2215

> <Gold.Chemscore.DG>
-17.5400

> <Gold.Chemscore.ZeroCoef>
-5.4800

> <Gold.Chemscore.Hbond>
2.0476

> <Gold.Chemscore.Metal>
0.0000

> <Gold.Chemscore.Lipo>
89.2566

> <Gold.Chemscore.Internal_Hbond>
0.0000

> <Gold.Chemscore.DEClash>
0.0089

> <Gold.Chemscore.DEInternal>
5.3096

> <Gold.Chemscore.Rot>
2.0399

> <Gold.Chemscore.Internal.Correction>
   9.000000E+99

> <Gold.Chemscore.Hbonds>
donor molecule, donor type, donor heavy atom, donor atom, acceptor molecule, acceptor atom, score
      P1  H  6931  6943       L1    18  0.90
      P1  H  6934  6947       L1    18  0.20
      P1  H  7997  8008       L1     3  0.22

> <Gold.Chemscore.Hbond.Weighted>
-6.8391

> <Gold.Chemscore.Metal.Weighted>
-0.0000

> <Gold.Chemscore.Lipo.Weighted>
-10.4430

> <Gold.Chemscore.Internal_Hbond.Weighted>
0.0000

> <Gold.Chemscore.DEClash.Weighted>
0.0089

> <Gold.Chemscore.DEInternal.Weighted>
5.3096

> <Gold.Chemscore.Rot.Weighted>
5.2222

> <Gold.Chemscore.Internal.Correction.Weighted>
   9.000000E+99

> <Gold.Protein.RotatedTorsions>
[ 6907 6896 6895 6894 ] final -161.67 input  -60.11 | X-H torsion
[ 7974 7965 7964 7962 ] final  161.11 input  175.53 | X-H torsion
[ 8008 7997 7996 7995 ] final  -65.00 input   59.86 | X-H torsion
[ 10167 10162 10161 10158 ] final  -62.83 input  -65.29 | X-H torsion
[ 10718 10713 10712 10709 ] final   49.67 input   66.30 | X-H torsion
[ 10763 10752 10751 10750 ] final   40.67 input  -60.55 | X-H torsion
[ 11005 11000 10999 10996 ] final   86.00 input  -57.11 | X-H torsion

> <Gold.Protein.ActiveResidues>
 VAL166  LYS551  ARG553  GLY616  TRP617  ASP618  TYR619  PRO620  LYS621  CYS622 
 ASP623  PHE694  ASN695  SER759  ASP760  ASP761  ALA762  ILE779  LEU786  VAL792 
 PHE793  MET794  SER795  GLU796  ALA797  LYS798  CYS799  TRP800  GLU811  SER814 

> <Gold.Protein.RotatedAtoms>
  151.3683  133.3864  159.2696 H   0  0  0  0  0  0  0  0  0  0  0  0  # atno 6907 bound_to 6896
  150.9671  134.9051  159.7776 H   0  0  0  0  0  0  0  0  0  0  0  0  # atno 6908 bound_to 6896
  152.5171  134.3644  159.9348 H   0  0  0  0  0  0  0  0  0  0  0  0  # atno 6909 bound_to 6896
  144.7702  139.7852  143.6300 H   0  0  0  0  0  0  0  0  0  0  0  0  # atno 7974 bound_to 7965
  154.4645  140.0942  156.6983 H   0  0  0  0  0  0  0  0  0  0  0  0  # atno 8008 bound_to 7997
  155.4897  140.3470  155.4334 H   0  0  0  0  0  0  0  0  0  0  0  0  # atno 8009 bound_to 7997
  156.0931  140.1402  156.9554 H   0  0  0  0  0  0  0  0  0  0  0  0  # atno 8010 bound_to 7997
  140.5912  143.2342  151.6135 H   0  0  0  0  0  0  0  0  0  0  0  0  # atno 10167 bound_to 10162
  157.4809  130.8315  149.8092 H   0  0  0  0  0  0  0  0  0  0  0  0  # atno 10718 bound_to 10713
  152.9929  135.6184  154.2664 H   0  0  0  0  0  0  0  0  0  0  0  0  # atno 10763 bound_to 10752
  154.2398  135.2789  155.2860 H   0  0  0  0  0  0  0  0  0  0  0  0  # atno 10764 bound_to 10752
  154.5378  135.5769  153.6871 H   0  0  0  0  0  0  0  0  0  0  0  0  # atno 10765 bound_to 10752
  139.8956  134.8325  156.2660 H   0  0  0  0  0  0  0  0  0  0  0  0  # atno 11005 bound_to 11000
  146.1843  139.5050  142.9846 LP  0  0  0  0  0  0  0  0  0  0  0  0  # atno 17320 bound_to 7965
  145.6347  141.0297  143.1844 LP  0  0  0  0  0  0  0  0  0  0  0  0  # atno 17321 bound_to 7965
  139.5229  144.3150  152.0960 LP  0  0  0  0  0  0  0  0  0  0  0  0  # atno 17342 bound_to 10162
  140.2314  144.4364  150.6298 LP  0  0  0  0  0  0  0  0  0  0  0  0  # atno 17343 bound_to 10162
  156.0121  130.3829  150.2230 LP  0  0  0  0  0  0  0  0  0  0  0  0  # atno 17370 bound_to 10713
  157.0416  131.0037  151.3282 LP  0  0  0  0  0  0  0  0  0  0  0  0  # atno 17371 bound_to 10713
  141.0132  133.7084  156.1145 LP  0  0  0  0  0  0  0  0  0  0  0  0  # atno 17394 bound_to 11000
  140.7339  134.4225  157.5563 LP  0  0  0  0  0  0  0  0  0  0  0  0  # atno 17395 bound_to 11000

$$$$
