AV-unprocessed.smi:1106|AV-procd|sdf|4777|dock8
  -GOLD-   22720 3313D 1   1.00000     0.00000
 Structure written by MMmdl.
 48 49  0  0  0  0  0  0  0  0  2 V2000
  152.2788  142.7317  159.2440 C   0  0  0  0  0  0  0  0  0  0  0  0
  151.8167  141.3488  158.7610 C   0  0  0  0  0  0  0  0  0  0  0  0
  150.6536  141.4090  157.9141 N   0  0  0  0  0  0  0  0  0  0  0  0
  149.4470  141.9011  158.3725 C   0  0  0  0  0  0  0  0  0  0  0  0
  148.3407  141.9639  157.6006 C   0  0  0  0  0  0  0  0  0  0  0  0
  147.1080  142.4808  158.0958 C   0  0  0  0  0  0  0  0  0  0  0  0
  146.1040  142.8810  158.5095 N   0  0  0  0  0  0  0  0  0  0  0  0
  148.3594  141.5013  156.2149 C   0  0  0  0  0  0  0  0  0  0  0  0
  147.3833  141.5527  155.4640 O   0  0  0  0  0  0  0  0  0  0  0  0
  149.6072  140.9859  155.7820 N   0  0  0  0  0  0  0  0  0  0  0  0
  149.6892  140.5016  154.4114 C   0  0  0  0  0  0  0  0  0  0  0  0
  148.9146  139.1887  154.1579 C   0  0  2  0  0  0  0  0  0  0  0  0
  149.7356  138.3602  153.3604 O   0  0  0  0  0  0  0  0  0  0  0  0
  147.5698  139.3935  153.4281 C   0  0  0  0  0  0  0  0  0  0  0  0
  147.0896  138.1555  152.7631 N   0  3  2  0  0  0  0  0  0  0  0  0
  146.4146  138.4352  151.4699 C   0  0  0  0  0  0  0  0  0  0  0  0
  146.0524  137.1316  150.7381 C   0  0  0  0  0  0  0  0  0  0  0  0
  145.1745  136.2224  151.6148 C   0  0  1  0  0  0  0  0  0  0  0  0
  144.8325  134.9045  150.9054 C   0  0  0  0  0  0  0  0  0  0  0  0
  145.8829  135.9793  152.9579 C   0  0  0  0  0  0  0  0  0  0  0  0
  146.2457  137.3061  153.6457 C   0  0  0  0  0  0  0  0  0  0  0  0
  150.7705  140.9293  156.5887 C   0  0  0  0  0  0  0  0  0  0  0  0
  151.8413  140.4930  156.1578 O   0  0  0  0  0  0  0  0  0  0  0  0
  153.1838  142.6467  159.8456 H   0  0  0  0  0  0  0  0  0  0  0  0
  151.5202  143.2182  159.8578 H   0  0  0  0  0  0  0  0  0  0  0  0
  152.5004  143.3882  158.4022 H   0  0  0  0  0  0  0  0  0  0  0  0
  152.5960  140.8700  158.1664 H   0  0  0  0  0  0  0  0  0  0  0  0
  151.5906  140.6692  159.5848 H   0  0  0  0  0  0  0  0  0  0  0  0
  149.3846  142.2528  159.3925 H   0  0  0  0  0  0  0  0  0  0  0  0
  149.3653  141.2954  153.7369 H   0  0  0  0  0  0  0  0  0  0  0  0
  150.7524  140.3805  154.1934 H   0  0  0  0  0  0  0  0  0  0  0  0
  148.7613  138.6780  155.1076 H   0  0  0  0  0  0  0  0  0  0  0  0
  149.1851  137.7480  152.8954 H   0  0  0  0  0  0  0  0  0  0  0  0
  146.7978  139.7385  154.1164 H   0  0  0  0  0  0  0  0  0  0  0  0
  147.6966  140.1889  152.6917 H   0  0  0  0  0  0  0  0  0  0  0  0
  145.5179  139.0319  151.6462 H   0  0  0  0  0  0  0  0  0  0  0  0
  147.0712  139.0294  150.8329 H   0  0  0  0  0  0  0  0  0  0  0  0
  145.5348  137.3662  149.8072 H   0  0  0  0  0  0  0  0  0  0  0  0
  146.9669  136.6060  150.4586 H   0  0  0  0  0  0  0  0  0  0  0  0
  144.2371  136.7442  151.8140 H   0  0  0  0  0  0  0  0  0  0  0  0
  145.7312  134.3304  150.6774 H   0  0  0  0  0  0  0  0  0  0  0  0
  144.3081  135.0887  149.9672 H   0  0  0  0  0  0  0  0  0  0  0  0
  144.1876  134.2811  151.5252 H   0  0  0  0  0  0  0  0  0  0  0  0
  145.2436  135.3892  153.6157 H   0  0  0  0  0  0  0  0  0  0  0  0
  146.7886  135.3916  152.7997 H   0  0  0  0  0  0  0  0  0  0  0  0
  146.7664  137.0886  154.5775 H   0  0  0  0  0  0  0  0  0  0  0  0
  145.3372  137.8481  153.9132 H   0  0  0  0  0  0  0  0  0  0  0  0
  147.9168  137.6211  152.5368 H   0  0  0  0  0  0  0  0  0  0  0  0
  1  2  1  0  0  0  0
  1 24  1  0  0  0  0
  1 25  1  0  0  0  0
  1 26  1  0  0  0  0
  2  3  1  0  0  0  0
  2 27  1  0  0  0  0
  2 28  1  0  0  0  0
  3 22  1  0  0  0  0
  3  4  1  0  0  0  0
  4  5  2  0  0  0  0
  4 29  1  0  0  0  0
  5  6  1  0  0  0  0
  5  8  1  0  0  0  0
  6  7  3  0  0  0  0
  8  9  2  0  0  0  0
  8 10  1  0  0  0  0
 10 11  1  0  0  0  0
 10 22  1  0  0  0  0
 11 12  1  0  0  0  0
 11 30  1  0  0  0  0
 11 31  1  0  0  0  0
 12 13  1  0  0  0  0
 12 14  1  0  0  0  0
 12 32  1  0  0  0  0
 13 33  1  0  0  0  0
 14 15  1  0  0  0  0
 14 34  1  0  0  0  0
 14 35  1  0  0  0  0
 15 21  1  0  0  0  0
 15 16  1  0  0  0  0
 15 48  1  0  0  0  0
 16 17  1  0  0  0  0
 16 36  1  0  0  0  0
 16 37  1  0  0  0  0
 17 18  1  0  0  0  0
 17 38  1  0  0  0  0
 17 39  1  0  0  0  0
 18 19  1  0  0  0  0
 18 20  1  0  0  0  0
 18 40  1  0  0  0  0
 19 41  1  0  0  0  0
 19 42  1  0  0  0  0
 19 43  1  0  0  0  0
 20 21  1  0  0  0  0
 20 44  1  0  0  0  0
 20 45  1  0  0  0  0
 21 46  1  0  0  0  0
 21 47  1  0  0  0  0
 22 23  2  0  0  0  0
M  CHG  1  15   1
M  END
> <s_m_source_file>
AV-unprocessed.smi

> <i_m_source_file_index>
1106

> <i_lp_mmshare_version>
43012

> <i_f3d_flags>
0

> <s_epik_input>
W0NIM11bQ0gyXW4xW2NIXWMoQyNOKWMoPU8pbihjMT1PKVtDSDJdW0NASF0oW09IXSlbQ0gyXU4yW0NIMl1bQ0gyXVtDSF0oW0NIM10pW0NIMl1bQ0gyXTI=

> <s_epik_cmdline>
J2VwaWtfcHl0aG9uJywgJy1waCcsICc3LjAnLCAnLXRuJywgJzgnLCAnLW1hJywgJzIwMCcsICctbWV0YWxfYmluZGluZycsICctaW1hZScsICc8aW5maWxlLm1hZT4nLCAnLW9tYWUnLCAnPG91dGZpbGUubWFlPic=

> <r_epik_Ionization_Penalty>
0.00136816

> <r_epik_Ionization_Penalty_Charging>
0.00136813

> <r_epik_Ionization_Penalty_Neutral>
3.19882e-08

> <r_epik_State_Penalty>
0.000910892

> <r_epik_Charging_Adjusted_Penalty>
0.00227902

> <i_epik_Tot_Q>
1

> <i_epik_Tot_abs_Q>
1

> <r_epik_Metal_State_Penalty>
-0

> <b_epik_Metal_Only>
0

> <s_lp_Force_Field>
OPLS_2005

> <r_lp_Energy>
27.8711

> <b_lp_Chiralities_Consistent>
1

> <s_lp_Variant>
AV-unprocessed.smi:1106-1

> <Gold.Version>
5.8.1

> <Gold.Id.Protein>
6NUR|6NUR_protein|mol2

> <Gold.PLP.Fitness>
41.5337

> <Gold.PLP.PLP>
-35.1849

> <Gold.PLP.part.hbond>
-3.0000

> <Gold.PLP.part.metal>
0.0000

> <Gold.PLP.part.buried>
4.0334

> <Gold.PLP.part.nonpolar>
-36.1430

> <Gold.PLP.part.repulsive>
0.2597

> <Gold.PLP.ligand.clash>
0.0000

> <Gold.PLP.ligand.torsion>
1.3399

> <Gold.PLP.Chemscore.Hbond>
3.0000

> <Gold.PLP.Chemscore.CHOScore>
0.0000

> <Gold.PLP.Chemscore.Metal>
0.0000

> <Gold.Chemscore.Hbonds>
donor molecule, donor type, donor heavy atom, donor atom, acceptor molecule, acceptor atom, score
      L1  H    13    33       P1  7948  1.00
      L1  H    15    48       P1  7948  2.00

> <Gold.PLP.Chemscore.Internal.Correction>
0.0286

> <Gold.Rescore>
     Score         DG    S(hbond)    S(metal)    S(lipo)     H(rot)  DE(clash)    DE(int)     intcor
     13.33     -15.78       2.31        0.00      76.38       2.48       1.06       1.39       ----

> <Gold.Chemscore.Fitness>
13.3340

> <Gold.Chemscore.DG>
-15.7764

> <Gold.Chemscore.ZeroCoef>
-5.4800

> <Gold.Chemscore.Hbond>
2.3109

> <Gold.Chemscore.Metal>
0.0000

> <Gold.Chemscore.Lipo>
76.3790

> <Gold.Chemscore.Internal_Hbond>
0.0000

> <Gold.Chemscore.DEClash>
1.0552

> <Gold.Chemscore.DEInternal>
1.3871

> <Gold.Chemscore.Rot>
2.4838

> <Gold.Chemscore.Internal.Correction>
   9.000000E+99

> <Gold.Chemscore.Hbonds>
donor molecule, donor type, donor heavy atom, donor atom, acceptor molecule, acceptor atom, score
      L1  H    13    33       P1  7948  0.93
      L1  H    15    48       P1  7948  0.99

> <Gold.Chemscore.Hbond.Weighted>
-7.7185

> <Gold.Chemscore.Metal.Weighted>
-0.0000

> <Gold.Chemscore.Lipo.Weighted>
-8.9363

> <Gold.Chemscore.Internal_Hbond.Weighted>
0.0000

> <Gold.Chemscore.DEClash.Weighted>
1.0552

> <Gold.Chemscore.DEInternal.Weighted>
1.3871

> <Gold.Chemscore.Rot.Weighted>
6.3585

> <Gold.Chemscore.Internal.Correction.Weighted>
   9.000000E+99

> <Gold.Protein.RotatedTorsions>
[ 6907 6896 6895 6894 ] final  -48.28 input  -60.11 | X-H torsion
[ 7974 7965 7964 7962 ] final  130.87 input  175.53 | X-H torsion
[ 8008 7997 7996 7995 ] final -142.33 input   59.86 | X-H torsion
[ 10167 10162 10161 10158 ] final  144.58 input  -65.29 | X-H torsion
[ 10718 10713 10712 10709 ] final   26.70 input   66.30 | X-H torsion
[ 10763 10752 10751 10750 ] final  -44.74 input  -60.55 | X-H torsion
[ 11005 11000 10999 10996 ] final  163.46 input  -57.11 | X-H torsion

> <Gold.Protein.ActiveResidues>
 VAL166  LYS551  ARG553  GLY616  TRP617  ASP618  TYR619  PRO620  LYS621  CYS622 
 ASP623  PHE694  ASN695  SER759  ASP760  ASP761  ALA762  ILE779  LEU786  VAL792 
 PHE793  MET794  SER795  GLU796  ALA797  LYS798  CYS799  TRP800  GLU811  SER814 

> <Gold.Protein.RotatedAtoms>
  150.8922  134.8327  159.7300 H   0  0  0  0  0  0  0  0  0  0  0  0  # atno 6907 bound_to 6896
  152.4843  134.4631  159.9621 H   0  0  0  0  0  0  0  0  0  0  0  0  # atno 6908 bound_to 6896
  151.4692  133.3534  159.2856 H   0  0  0  0  0  0  0  0  0  0  0  0  # atno 6909 bound_to 6896
  145.0133  139.4199  143.5234 H   0  0  0  0  0  0  0  0  0  0  0  0  # atno 7974 bound_to 7965
  155.4924  140.0569  157.2951 H   0  0  0  0  0  0  0  0  0  0  0  0  # atno 8008 bound_to 7997
  154.4618  140.2000  156.0175 H   0  0  0  0  0  0  0  0  0  0  0  0  # atno 8009 bound_to 7997
  156.0904  140.3234  155.7812 H   0  0  0  0  0  0  0  0  0  0  0  0  # atno 8010 bound_to 7997
  139.4944  144.5962  151.6578 H   0  0  0  0  0  0  0  0  0  0  0  0  # atno 10167 bound_to 10162
  157.2104  130.6931  149.6226 H   0  0  0  0  0  0  0  0  0  0  0  0  # atno 10718 bound_to 10713
  154.0170  135.6674  153.4769 H   0  0  0  0  0  0  0  0  0  0  0  0  # atno 10763 bound_to 10752
  153.0596  135.5035  154.8059 H   0  0  0  0  0  0  0  0  0  0  0  0  # atno 10764 bound_to 10752
  154.6961  135.3070  154.9374 H   0  0  0  0  0  0  0  0  0  0  0  0  # atno 10765 bound_to 10752
  140.2361  134.8087  157.3365 H   0  0  0  0  0  0  0  0  0  0  0  0  # atno 11005 bound_to 11000
  146.3473  139.9590  142.8719 LP  0  0  0  0  0  0  0  0  0  0  0  0  # atno 17320 bound_to 7965
  145.1993  140.9847  143.4165 LP  0  0  0  0  0  0  0  0  0  0  0  0  # atno 17321 bound_to 7965
  140.5600  144.0284  150.6165 LP  0  0  0  0  0  0  0  0  0  0  0  0  # atno 17342 bound_to 10162
  140.3366  143.3045  152.0631 LP  0  0  0  0  0  0  0  0  0  0  0  0  # atno 17343 bound_to 10162
  155.9691  130.4553  150.5882 LP  0  0  0  0  0  0  0  0  0  0  0  0  # atno 17370 bound_to 10713
  157.3678  131.0760  151.1583 LP  0  0  0  0  0  0  0  0  0  0  0  0  # atno 17371 bound_to 10713
  140.1701  134.4619  155.7837 LP  0  0  0  0  0  0  0  0  0  0  0  0  # atno 17394 bound_to 11000
  141.2214  133.6938  156.7693 LP  0  0  0  0  0  0  0  0  0  0  0  0  # atno 17395 bound_to 11000

$$$$
