AV-unprocessed.smi:2471|AV-procd|sdf|9737|dock9
  -GOLD-   2272013373D 1   1.00000     0.00000
 Structure written by MMmdl.
 40 41  0  0  0  0  0  0  0  0  1 V2000
  153.7823  141.4822  160.2200 C   0  0  0  0  0  0  0  0  0  0  0  0
  152.8727  142.5615  159.6719 C   0  0  0  0  0  0  0  0  0  0  0  0
  152.8065  143.8311  160.2789 C   0  0  0  0  0  0  0  0  0  0  0  0
  151.9457  144.7904  159.7165 C   0  0  0  0  0  0  0  0  0  0  0  0
  151.1911  144.4429  158.5793 C   0  0  0  0  0  0  0  0  0  0  0  0
  151.3135  143.1453  158.0335 C   0  0  0  0  0  0  0  0  0  0  0  0
  150.5082  142.8952  156.8908 N   0  0  0  0  0  0  0  0  0  0  0  0
  150.4171  141.7648  156.1680 C   0  0  0  0  0  0  0  0  0  0  0  0
  151.0333  140.7225  156.3925 O   0  0  0  0  0  0  0  0  0  0  0  0
  149.5551  141.9089  155.1511 N   0  0  0  0  0  0  0  0  0  0  0  0
  149.2208  140.8708  154.1805 C   0  0  0  0  0  0  0  0  0  0  0  0
  147.7224  140.4822  154.2043 C   0  0  2  0  0  0  0  0  0  0  0  0
  147.0806  140.7779  155.5804 C   0  0  0  0  0  0  0  0  0  0  0  0
  145.6001  140.3707  155.6281 C   0  0  0  0  0  0  0  0  0  0  0  0
  145.4219  138.8900  155.2675 C   0  0  0  0  0  0  0  0  0  0  0  0
  146.0286  138.5886  153.8904 C   0  0  0  0  0  0  0  0  0  0  0  0
  147.5131  138.9942  153.8290 C   0  0  1  0  0  0  0  0  0  0  0  0
  147.9758  138.7470  152.5162 O   0  0  0  0  0  0  0  0  0  0  0  0
  152.1487  142.2278  158.5820 N   0  0  0  0  0  0  0  0  0  0  0  0
  154.2329  141.7869  161.1651 H   0  0  0  0  0  0  0  0  0  0  0  0
  154.5836  141.2693  159.5121 H   0  0  0  0  0  0  0  0  0  0  0  0
  153.2220  140.5629  160.3921 H   0  0  0  0  0  0  0  0  0  0  0  0
  153.3991  144.0667  161.1508 H   0  0  0  0  0  0  0  0  0  0  0  0
  151.8650  145.7767  160.1489 H   0  0  0  0  0  0  0  0  0  0  0  0
  150.5252  145.1685  158.1351 H   0  0  0  0  0  0  0  0  0  0  0  0
  149.9317  143.6668  156.5902 H   0  0  0  0  0  0  0  0  0  0  0  0
  149.0941  142.8001  155.0397 H   0  0  0  0  0  0  0  0  0  0  0  0
  149.5186  141.2090  153.1868 H   0  0  0  0  0  0  0  0  0  0  0  0
  149.8340  139.9960  154.3988 H   0  0  0  0  0  0  0  0  0  0  0  0
  147.2012  141.0881  153.4611 H   0  0  0  0  0  0  0  0  0  0  0  0
  147.6264  140.2464  156.3612 H   0  0  0  0  0  0  0  0  0  0  0  0
  147.1596  141.8390  155.8182 H   0  0  0  0  0  0  0  0  0  0  0  0
  145.1940  140.5628  156.6215 H   0  0  0  0  0  0  0  0  0  0  0  0
  145.0282  140.9891  154.9351 H   0  0  0  0  0  0  0  0  0  0  0  0
  145.8997  138.2663  156.0240 H   0  0  0  0  0  0  0  0  0  0  0  0
  144.3630  138.6296  155.2740 H   0  0  0  0  0  0  0  0  0  0  0  0
  145.9211  137.5265  153.6670 H   0  0  0  0  0  0  0  0  0  0  0  0
  145.4653  139.1243  153.1245 H   0  0  0  0  0  0  0  0  0  0  0  0
  148.0841  138.3629  154.5113 H   0  0  0  0  0  0  0  0  0  0  0  0
  148.2461  137.8432  152.4581 H   0  0  0  0  0  0  0  0  0  0  0  0
  1  2  1  0  0  0  0
  1 20  1  0  0  0  0
  1 21  1  0  0  0  0
  1 22  1  0  0  0  0
  2 19  1  0  0  0  0
  2  3  2  0  0  0  0
  3  4  1  0  0  0  0
  3 23  1  0  0  0  0
  4  5  2  0  0  0  0
  4 24  1  0  0  0  0
  5  6  1  0  0  0  0
  5 25  1  0  0  0  0
  6  7  1  0  0  0  0
  6 19  2  0  0  0  0
  7  8  1  0  0  0  0
  7 26  1  0  0  0  0
  8  9  2  0  0  0  0
  8 10  1  0  0  0  0
 10 11  1  0  0  0  0
 10 27  1  0  0  0  0
 11 12  1  0  0  0  0
 11 28  1  0  0  0  0
 11 29  1  0  0  0  0
 12 17  1  0  0  0  0
 12 13  1  0  0  0  0
 12 30  1  0  0  0  0
 13 14  1  0  0  0  0
 13 31  1  0  0  0  0
 13 32  1  0  0  0  0
 14 15  1  0  0  0  0
 14 33  1  0  0  0  0
 14 34  1  0  0  0  0
 15 16  1  0  0  0  0
 15 35  1  0  0  0  0
 15 36  1  0  0  0  0
 16 17  1  0  0  0  0
 16 37  1  0  0  0  0
 16 38  1  0  0  0  0
 17 18  1  0  0  0  0
 17 39  1  0  0  0  0
 18 40  1  0  0  0  0
M  END
> <s_m_source_file>
AV-unprocessed.smi

> <i_m_source_file_index>
2471

> <i_lp_mmshare_version>
43012

> <i_f3d_flags>
0

> <s_epik_input>
W0NIM11jMVtjSF1bY0hdW2NIXWMobjEpW05IXUMoPU8pW05IXVtDSDJdW0NAQEhdMltDSDJdW0NIMl1bQ0gyXVtDSDJdW0NASF0yW09IXQ==

> <s_epik_cmdline>
J2VwaWtfcHl0aG9uJywgJy1waCcsICc3LjAnLCAnLXRuJywgJzgnLCAnLW1hJywgJzIwMCcsICctbWV0YWxfYmluZGluZycsICctaW1hZScsICc8aW5maWxlLm1hZT4nLCAnLW9tYWUnLCAnPG91dGZpbGUubWFlPic=

> <r_lp_tautomer_probability>
1

> <r_epik_Ionization_Penalty>
8.52237e-05

> <r_epik_Ionization_Penalty_Charging>
0

> <r_epik_Ionization_Penalty_Neutral>
8.52237e-05

> <r_epik_State_Penalty>
-0

> <r_epik_Charging_Adjusted_Penalty>
0

> <i_epik_Tot_Q>
0

> <i_epik_Tot_abs_Q>
0

> <r_epik_Metal_State_Penalty>
-0

> <b_epik_Metal_Only>
0

> <s_lp_Force_Field>
OPLS_2005

> <r_lp_Energy>
13.6744

> <b_lp_Chiralities_Consistent>
1

> <s_lp_Variant>
AV-unprocessed.smi:2471-1

> <Gold.Version>
5.8.1

> <Gold.Id.Protein>
6NUR|6NUR_protein|mol2

> <Gold.PLP.Fitness>
45.1436

> <Gold.PLP.PLP>
-37.0342

> <Gold.PLP.part.hbond>
-3.8549

> <Gold.PLP.part.metal>
0.0000

> <Gold.PLP.part.buried>
-5.5566

> <Gold.PLP.part.nonpolar>
-28.5113

> <Gold.PLP.part.repulsive>
0.2462

> <Gold.PLP.ligand.clash>
0.0000

> <Gold.PLP.ligand.torsion>
0.4350

> <Gold.PLP.Chemscore.Hbond>
2.9920

> <Gold.PLP.Chemscore.CHOScore>
0.0000

> <Gold.PLP.Chemscore.Metal>
0.0000

> <Gold.Chemscore.Hbonds>
donor molecule, donor type, donor heavy atom, donor atom, acceptor molecule, acceptor atom, score
      L1  H     7    26       P1  8028  1.00
      L1  H    10    27       P1  8028  0.98
      L1  H    18    40       P1  7948  1.00

> <Gold.PLP.Chemscore.Internal.Correction>
0.0034

> <Gold.Rescore>
     Score         DG    S(hbond)    S(metal)    S(lipo)     H(rot)  DE(clash)    DE(int)     intcor
     19.49     -21.29       2.94        0.00      89.14       1.73       0.09       1.71       ----

> <Gold.Chemscore.Fitness>
19.4881

> <Gold.Chemscore.DG>
-21.2866

> <Gold.Chemscore.ZeroCoef>
-5.4800

> <Gold.Chemscore.Hbond>
2.9390

> <Gold.Chemscore.Metal>
0.0000

> <Gold.Chemscore.Lipo>
89.1367

> <Gold.Chemscore.Internal_Hbond>
0.0000

> <Gold.Chemscore.DEClash>
0.0875

> <Gold.Chemscore.DEInternal>
1.7110

> <Gold.Chemscore.Rot>
1.7339

> <Gold.Chemscore.Internal.Correction>
   9.000000E+99

> <Gold.Chemscore.Hbonds>
donor molecule, donor type, donor heavy atom, donor atom, acceptor molecule, acceptor atom, score
      L1  H     7    26       P1  8028  1.00
      L1  H    10    27       P1  8028  0.88
      L1  H    18    40       P1  7948  1.00

> <Gold.Chemscore.Hbond.Weighted>
-9.8163

> <Gold.Chemscore.Metal.Weighted>
-0.0000

> <Gold.Chemscore.Lipo.Weighted>
-10.4290

> <Gold.Chemscore.Internal_Hbond.Weighted>
0.0000

> <Gold.Chemscore.DEClash.Weighted>
0.0875

> <Gold.Chemscore.DEInternal.Weighted>
1.7110

> <Gold.Chemscore.Rot.Weighted>
4.4387

> <Gold.Chemscore.Internal.Correction.Weighted>
   9.000000E+99

> <Gold.Protein.RotatedTorsions>
[ 6907 6896 6895 6894 ] final -137.32 input  -60.11 | X-H torsion
[ 7974 7965 7964 7962 ] final  158.08 input  175.53 | X-H torsion
[ 8008 7997 7996 7995 ] final  -78.78 input   59.86 | X-H torsion
[ 10167 10162 10161 10158 ] final   59.11 input  -65.29 | X-H torsion
[ 10718 10713 10712 10709 ] final  -97.95 input   66.30 | X-H torsion
[ 10763 10752 10751 10750 ] final  164.29 input  -60.55 | X-H torsion
[ 11005 11000 10999 10996 ] final  -37.98 input  -57.11 | X-H torsion

> <Gold.Protein.ActiveResidues>
 VAL166  LYS551  ARG553  GLY616  TRP617  ASP618  TYR619  PRO620  LYS621  CYS622 
 ASP623  PHE694  ASN695  SER759  ASP760  ASP761  ALA762  ILE779  LEU786  VAL792 
 PHE793  MET794  SER795  GLU796  ALA797  LYS798  CYS799  TRP800  GLU811  SER814 

> <Gold.Protein.RotatedAtoms>
  151.0210  133.5877  159.2671 H   0  0  0  0  0  0  0  0  0  0  0  0  # atno 6907 bound_to 6896
  151.2994  135.0763  159.9243 H   0  0  0  0  0  0  0  0  0  0  0  0  # atno 6908 bound_to 6896
  152.5323  133.9894  159.7898 H   0  0  0  0  0  0  0  0  0  0  0  0  # atno 6909 bound_to 6896
  144.7866  139.7429  143.6238 H   0  0  0  0  0  0  0  0  0  0  0  0  # atno 7974 bound_to 7965
  154.5722  140.0689  156.8981 H   0  0  0  0  0  0  0  0  0  0  0  0  # atno 8008 bound_to 7997
  155.2613  140.3358  155.4255 H   0  0  0  0  0  0  0  0  0  0  0  0  # atno 8009 bound_to 7997
  156.2127  140.1765  156.7644 H   0  0  0  0  0  0  0  0  0  0  0  0  # atno 8010 bound_to 7997
  140.1799  144.4192  150.6620 H   0  0  0  0  0  0  0  0  0  0  0  0  # atno 10167 bound_to 10162
  156.0095  130.5216  150.6450 H   0  0  0  0  0  0  0  0  0  0  0  0  # atno 10718 bound_to 10713
  154.3066  135.2758  155.2586 H   0  0  0  0  0  0  0  0  0  0  0  0  # atno 10763 bound_to 10752
  154.4999  135.5811  153.6526 H   0  0  0  0  0  0  0  0  0  0  0  0  # atno 10764 bound_to 10752
  152.9893  135.6155  154.3241 H   0  0  0  0  0  0  0  0  0  0  0  0  # atno 10765 bound_to 10752
  140.9993  133.6964  156.1993 H   0  0  0  0  0  0  0  0  0  0  0  0  # atno 11005 bound_to 11000
  146.2100  139.5450  142.9687 LP  0  0  0  0  0  0  0  0  0  0  0  0  # atno 17320 bound_to 7965
  145.5905  141.0370  143.2072 LP  0  0  0  0  0  0  0  0  0  0  0  0  # atno 17321 bound_to 7965
  140.6526  143.2229  151.6041 LP  0  0  0  0  0  0  0  0  0  0  0  0  # atno 17342 bound_to 10162
  139.5301  144.2943  152.1126 LP  0  0  0  0  0  0  0  0  0  0  0  0  # atno 17343 bound_to 10162
  157.4222  131.0838  151.1119 LP  0  0  0  0  0  0  0  0  0  0  0  0  # atno 17370 bound_to 10713
  157.1718  130.6270  149.5643 LP  0  0  0  0  0  0  0  0  0  0  0  0  # atno 17371 bound_to 10713
  140.6915  134.4661  157.5588 LP  0  0  0  0  0  0  0  0  0  0  0  0  # atno 17394 bound_to 11000
  139.9030  134.8511  156.1816 LP  0  0  0  0  0  0  0  0  0  0  0  0  # atno 17395 bound_to 11000

$$$$
