AV-unprocessed.smi:3028|AV-procd|sdf|11522|dock4
  -GOLD-   2272016463D 1   1.00000     0.00000
 Structure written by MMmdl.
 47 48  0  0  0  0  0  0  0  0  1 V2000
  151.7507  143.1087  158.4244 C   0  0  0  0  0  0  0  0  0  0  0  0
  151.3043  141.8982  157.6572 C   0  0  0  0  0  0  0  0  0  0  0  0
  151.9242  140.6178  157.6049 C   0  0  0  0  0  0  0  0  0  0  0  0
  151.2780  139.7646  156.8281 N   0  0  0  0  0  0  0  0  0  0  0  0
  150.2210  140.4628  156.3597 N   0  0  0  0  0  0  0  0  0  0  0  0
  149.2734  139.8252  155.4527 C   0  0  1  0  0  0  0  0  0  0  0  0
  148.9935  140.7719  154.2701 C   0  0  0  0  0  0  0  0  0  0  0  0
  149.7573  138.4139  155.0115 C   0  0  2  0  0  0  0  0  0  0  0  0
  150.8289  138.4625  153.9083 C   0  0  0  0  0  0  0  0  0  0  0  0
  148.6451  137.6492  154.4508 N   0  0  0  0  0  0  0  0  0  0  0  0
  148.0913  136.6697  155.3957 C   0  0  0  0  0  0  0  0  0  0  0  0
  147.0030  135.7869  154.7654 C   0  0  0  0  0  0  0  0  0  0  0  0
  146.0109  135.4675  155.4193 O   0  0  0  0  0  0  0  0  0  0  0  0
  147.1409  135.3815  153.4913 N   0  0  0  0  0  0  0  0  0  0  0  0
  146.2267  134.5459  152.7158 C   0  0  0  0  0  0  0  0  0  0  0  0
  146.9699  133.3086  152.1905 C   0  0  0  0  0  0  0  0  0  0  0  0
  146.0688  132.4954  151.2469 C   0  0  0  0  0  0  0  0  0  0  0  0
  145.6134  133.3172  150.1771 O   0  0  0  0  0  0  0  0  0  0  0  0
  144.8206  134.4138  150.6185 C   0  0  0  0  0  0  0  0  0  0  0  0
  145.6541  135.3329  151.5251 C   0  0  0  0  0  0  0  0  0  0  0  0
  150.2149  141.7553  156.8457 C   0  0  0  0  0  0  0  0  0  0  0  0
  152.8100  143.0595  158.6765 H   0  0  0  0  0  0  0  0  0  0  0  0
  151.2018  143.2159  159.3598 H   0  0  0  0  0  0  0  0  0  0  0  0
  151.6005  144.0259  157.8544 H   0  0  0  0  0  0  0  0  0  0  0  0
  152.8232  140.2865  158.1034 H   0  0  0  0  0  0  0  0  0  0  0  0
  148.3305  139.7062  155.9903 H   0  0  0  0  0  0  0  0  0  0  0  0
  148.1560  140.4244  153.6656 H   0  0  0  0  0  0  0  0  0  0  0  0
  149.8622  140.8650  153.6177 H   0  0  0  0  0  0  0  0  0  0  0  0
  148.7345  141.7707  154.6233 H   0  0  0  0  0  0  0  0  0  0  0  0
  150.1924  137.8901  155.8646 H   0  0  0  0  0  0  0  0  0  0  0  0
  151.7538  138.9137  154.2672 H   0  0  0  0  0  0  0  0  0  0  0  0
  150.4890  139.0365  153.0453 H   0  0  0  0  0  0  0  0  0  0  0  0
  151.0839  137.4602  153.5615 H   0  0  0  0  0  0  0  0  0  0  0  0
  148.9555  137.1922  153.6052 H   0  0  0  0  0  0  0  0  0  0  0  0
  148.8897  136.0214  155.7585 H   0  0  0  0  0  0  0  0  0  0  0  0
  147.6798  137.1944  156.2551 H   0  0  0  0  0  0  0  0  0  0  0  0
  147.9701  135.6928  153.0063 H   0  0  0  0  0  0  0  0  0  0  0  0
  145.4068  134.1959  153.3444 H   0  0  0  0  0  0  0  0  0  0  0  0
  147.8682  133.6136  151.6517 H   0  0  0  0  0  0  0  0  0  0  0  0
  147.3001  132.6842  153.0211 H   0  0  0  0  0  0  0  0  0  0  0  0
  146.6242  131.6541  150.8321 H   0  0  0  0  0  0  0  0  0  0  0  0
  145.2170  132.0787  151.7867 H   0  0  0  0  0  0  0  0  0  0  0  0
  144.4677  134.9670  149.7481 H   0  0  0  0  0  0  0  0  0  0  0  0
  143.9368  134.0487  151.1435 H   0  0  0  0  0  0  0  0  0  0  0  0
  145.0438  136.1657  151.8724 H   0  0  0  0  0  0  0  0  0  0  0  0
  146.4671  135.7679  150.9419 H   0  0  0  0  0  0  0  0  0  0  0  0
  149.4439  142.4608  156.5734 H   0  0  0  0  0  0  0  0  0  0  0  0
  1  2  1  0  0  0  0
  1 22  1  0  0  0  0
  1 23  1  0  0  0  0
  1 24  1  0  0  0  0
  2 21  2  0  0  0  0
  2  3  1  0  0  0  0
  3  4  2  0  0  0  0
  3 25  1  0  0  0  0
  4  5  1  0  0  0  0
  5  6  1  0  0  0  0
  5 21  1  0  0  0  0
  6  7  1  0  0  0  0
  6  8  1  0  0  0  0
  6 26  1  0  0  0  0
  7 27  1  0  0  0  0
  7 28  1  0  0  0  0
  7 29  1  0  0  0  0
  8  9  1  0  0  0  0
  8 10  1  0  0  0  0
  8 30  1  0  0  0  0
  9 31  1  0  0  0  0
  9 32  1  0  0  0  0
  9 33  1  0  0  0  0
 10 11  1  0  0  0  0
 10 34  1  0  0  0  0
 11 12  1  0  0  0  0
 11 35  1  0  0  0  0
 11 36  1  0  0  0  0
 12 13  2  0  0  0  0
 12 14  1  0  0  0  0
 14 15  1  0  0  0  0
 14 37  1  0  0  0  0
 15 20  1  0  0  0  0
 15 16  1  0  0  0  0
 15 38  1  0  0  0  0
 16 17  1  0  0  0  0
 16 39  1  0  0  0  0
 16 40  1  0  0  0  0
 17 18  1  0  0  0  0
 17 41  1  0  0  0  0
 17 42  1  0  0  0  0
 18 19  1  0  0  0  0
 19 20  1  0  0  0  0
 19 43  1  0  0  0  0
 19 44  1  0  0  0  0
 20 45  1  0  0  0  0
 20 46  1  0  0  0  0
 21 47  1  0  0  0  0
M  END
> <s_m_source_file>
AV-unprocessed.smi

> <i_m_source_file_index>
3028

> <i_lp_mmshare_version>
43012

> <i_f3d_flags>
0

> <s_epik_input>
W0NIM11jMVtjSF1ubihbY0hdMSlbQ0BIXShbQ0gzXSlbQ0BIXShbQ0gzXSlbTkhdW0NIMl1DKD1PKVtOSF1bQ0hdMltDSDJdW0NIMl1PW0NIMl1bQ0gyXTI=

> <s_epik_cmdline>
J2VwaWtfcHl0aG9uJywgJy1waCcsICc3LjAnLCAnLXRuJywgJzgnLCAnLW1hJywgJzIwMCcsICctbWV0YWxfYmluZGluZycsICctaW1hZScsICc8aW5maWxlLm1hZT4nLCAnLW9tYWUnLCAnPG91dGZpbGUubWFlPic=

> <r_lp_tautomer_probability>
1

> <r_epik_Ionization_Penalty>
0.88617

> <r_epik_Ionization_Penalty_Charging>
0

> <r_epik_Ionization_Penalty_Neutral>
0.88617

> <r_epik_State_Penalty>
0.921066

> <r_epik_Charging_Adjusted_Penalty>
0.921066

> <i_epik_Tot_Q>
0

> <i_epik_Tot_abs_Q>
0

> <r_epik_Metal_State_Penalty>
0.917309

> <b_epik_Metal_Only>
0

> <s_lp_Force_Field>
OPLS_2005

> <r_lp_Energy>
17.6671

> <b_lp_Chiralities_Consistent>
1

> <s_lp_Variant>
AV-unprocessed.smi:3028-6

> <Gold.Version>
5.8.1

> <Gold.Id.Protein>
6NUR|6NUR_protein|mol2

> <Gold.PLP.Fitness>
37.6531

> <Gold.PLP.PLP>
-31.3687

> <Gold.PLP.part.hbond>
-2.0000

> <Gold.PLP.part.metal>
0.0000

> <Gold.PLP.part.buried>
-4.0902

> <Gold.PLP.part.nonpolar>
-25.8423

> <Gold.PLP.part.repulsive>
0.8715

> <Gold.PLP.ligand.clash>
0.0000

> <Gold.PLP.ligand.torsion>
1.3990

> <Gold.PLP.Chemscore.Hbond>
2.0000

> <Gold.PLP.Chemscore.CHOScore>
1.0000

> <Gold.PLP.Chemscore.Metal>
0.0000

> <Gold.Chemscore.Hbonds>
donor molecule, donor type, donor heavy atom, donor atom, acceptor molecule, acceptor atom, score
      L1  H    10    34       P1  7948  1.00
      L1  H    14    37       P1  7948  1.00
      L1  C    21    47       P1  8028  1.00

> <Gold.PLP.Chemscore.Internal.Correction>
0.0823

> <Gold.Rescore>
     Score         DG    S(hbond)    S(metal)    S(lipo)     H(rot)  DE(clash)    DE(int)     intcor
     15.53     -17.01       1.94        0.00      85.27       1.92       0.09       1.39       ----

> <Gold.Chemscore.Fitness>
15.5346

> <Gold.Chemscore.DG>
-17.0102

> <Gold.Chemscore.ZeroCoef>
-5.4800

> <Gold.Chemscore.Hbond>
1.9394

> <Gold.Chemscore.Metal>
0.0000

> <Gold.Chemscore.Lipo>
85.2672

> <Gold.Chemscore.Internal_Hbond>
0.0000

> <Gold.Chemscore.DEClash>
0.0898

> <Gold.Chemscore.DEInternal>
1.3858

> <Gold.Chemscore.Rot>
1.9233

> <Gold.Chemscore.Internal.Correction>
   9.000000E+99

> <Gold.Chemscore.Hbonds>
donor molecule, donor type, donor heavy atom, donor atom, acceptor molecule, acceptor atom, score
      L1  H    10    34       P1  7948  0.98
      L1  H    14    37       P1  7948  0.98

> <Gold.Chemscore.Hbond.Weighted>
-6.4775

> <Gold.Chemscore.Metal.Weighted>
-0.0000

> <Gold.Chemscore.Lipo.Weighted>
-9.9763

> <Gold.Chemscore.Internal_Hbond.Weighted>
0.0000

> <Gold.Chemscore.DEClash.Weighted>
0.0898

> <Gold.Chemscore.DEInternal.Weighted>
1.3858

> <Gold.Chemscore.Rot.Weighted>
4.9235

> <Gold.Chemscore.Internal.Correction.Weighted>
   9.000000E+99

> <Gold.Protein.RotatedTorsions>
[ 6907 6896 6895 6894 ] final -134.66 input  -60.11 | X-H torsion
[ 7974 7965 7964 7962 ] final -125.91 input  175.53 | X-H torsion
[ 8008 7997 7996 7995 ] final  -96.77 input   59.86 | X-H torsion
[ 10167 10162 10161 10158 ] final  127.97 input  -65.29 | X-H torsion
[ 10718 10713 10712 10709 ] final  167.99 input   66.30 | X-H torsion
[ 10763 10752 10751 10750 ] final -103.93 input  -60.55 | X-H torsion
[ 11005 11000 10999 10996 ] final  168.46 input  -57.11 | X-H torsion

> <Gold.Protein.ActiveResidues>
 VAL166  LYS551  ARG553  GLY616  TRP617  ASP618  TYR619  PRO620  LYS621  CYS622 
 ASP623  PHE694  ASN695  SER759  ASP760  ASP761  ALA762  ILE779  LEU786  VAL792 
 PHE793  MET794  SER795  GLU796  ALA797  LYS798  CYS799  TRP800  GLU811  SER814 

> <Gold.Protein.RotatedAtoms>
  150.9885  133.6173  159.2711 H   0  0  0  0  0  0  0  0  0  0  0  0  # atno 6907 bound_to 6896
  151.3402  135.0861  159.9378 H   0  0  0  0  0  0  0  0  0  0  0  0  # atno 6908 bound_to 6896
  152.5238  133.9498  159.7720 H   0  0  0  0  0  0  0  0  0  0  0  0  # atno 6909 bound_to 6896
  144.9927  140.7747  143.4544 H   0  0  0  0  0  0  0  0  0  0  0  0  # atno 7974 bound_to 7965
  154.7789  140.0468  157.1111 H   0  0  0  0  0  0  0  0  0  0  0  0  # atno 8008 bound_to 7997
  154.9729  140.3092  155.4960 H   0  0  0  0  0  0  0  0  0  0  0  0  # atno 8009 bound_to 7997
  156.2933  140.2250  156.4823 H   0  0  0  0  0  0  0  0  0  0  0  0  # atno 8010 bound_to 7997
  139.5551  144.6842  151.4207 H   0  0  0  0  0  0  0  0  0  0  0  0  # atno 10167 bound_to 10162
  157.0435  131.0293  151.2705 H   0  0  0  0  0  0  0  0  0  0  0  0  # atno 10718 bound_to 10713
  154.7842  135.4805  153.9910 H   0  0  0  0  0  0  0  0  0  0  0  0  # atno 10763 bound_to 10752
  153.1537  135.6796  153.8852 H   0  0  0  0  0  0  0  0  0  0  0  0  # atno 10764 bound_to 10752
  153.8488  135.3170  155.3409 H   0  0  0  0  0  0  0  0  0  0  0  0  # atno 10765 bound_to 10752
  140.2875  134.7700  157.3811 H   0  0  0  0  0  0  0  0  0  0  0  0  # atno 11005 bound_to 11000
  145.2263  139.2135  143.5066 LP  0  0  0  0  0  0  0  0  0  0  0  0  # atno 17320 bound_to 7965
  146.3435  140.2131  142.8590 LP  0  0  0  0  0  0  0  0  0  0  0  0  # atno 17321 bound_to 7965
  140.6822  143.8056  150.7137 LP  0  0  0  0  0  0  0  0  0  0  0  0  # atno 17342 bound_to 10162
  140.1512  143.4356  152.2129 LP  0  0  0  0  0  0  0  0  0  0  0  0  # atno 17343 bound_to 10162
  157.5086  130.7924  149.7680 LP  0  0  0  0  0  0  0  0  0  0  0  0  # atno 17370 bound_to 10713
  156.0030  130.3870  150.2534 LP  0  0  0  0  0  0  0  0  0  0  0  0  # atno 17371 bound_to 10713
  140.1226  134.5200  155.8171 LP  0  0  0  0  0  0  0  0  0  0  0  0  # atno 17394 bound_to 11000
  141.2152  133.6761  156.6893 LP  0  0  0  0  0  0  0  0  0  0  0  0  # atno 17395 bound_to 11000

$$$$
