AV-unprocessed.smi:2498|AV-procd|sdf|9830|dock6
  -GOLD-   2272013463D 1   1.00000     0.00000
 Structure written by MMmdl.
 36 36  0  0  0  0  0  0  0  0  2 V2000
  151.1232  140.0543  157.6542 C   0  0  0  0  0  0  0  0  0  0  0  0
  151.5144  141.1341  158.6230 C   0  0  0  0  0  0  0  0  0  0  0  0
  152.4461  140.8721  159.5236 N   0  0  0  0  0  0  0  0  0  0  0  0
  152.6082  142.0267  160.2024 N   0  0  0  0  0  0  0  0  0  0  0  0
  153.5591  142.0879  161.2991 C   0  0  0  0  0  0  0  0  0  0  0  0
  152.9251  142.3989  162.4295 F   0  0  0  0  0  0  0  0  0  0  0  0
  154.1933  140.9227  161.4407 F   0  0  0  0  0  0  0  0  0  0  0  0
  151.7449  143.0078  159.7544 C   0  0  0  0  0  0  0  0  0  0  0  0
  151.7123  144.3742  160.3585 C   0  0  0  0  0  0  0  0  0  0  0  0
  151.0206  142.4694  158.7242 C   0  0  0  0  0  0  0  0  0  0  0  0
  149.9599  143.1314  157.8786 C   0  0  0  0  0  0  0  0  0  0  0  0
  148.6248  142.4139  158.0766 C   0  0  0  0  0  0  0  0  0  0  0  0
  148.6047  141.1864  158.1551 O   0  0  0  0  0  0  0  0  0  0  0  0
  147.5456  143.2148  158.1521 N   0  0  0  0  0  0  0  0  0  0  0  0
  146.1352  142.9382  158.4588 C   0  0  0  0  0  0  0  0  0  0  0  0
  145.2718  143.8971  157.6101 C   0  0  0  0  0  0  0  0  0  0  0  0
  145.6840  141.4789  158.1852 C   0  0  0  0  0  0  0  0  0  0  0  0
  145.9693  143.2558  159.9635 C   0  0  0  0  0  0  0  0  0  0  0  0
  145.2005  144.1891  160.2868 O   0  0  0  0  0  0  0  0  0  0  0  0
  146.5775  142.5298  160.7821 O   0  5  0  0  0  0  0  0  0  0  0  0
  150.2747  140.3512  157.0387 H   0  0  0  0  0  0  0  0  0  0  0  0
  150.8469  139.1378  158.1759 H   0  0  0  0  0  0  0  0  0  0  0  0
  151.9483  139.8193  156.9811 H   0  0  0  0  0  0  0  0  0  0  0  0
  154.3127  142.8516  161.1070 H   0  0  0  0  0  0  0  0  0  0  0  0
  150.8870  144.9647  159.9620 H   0  0  0  0  0  0  0  0  0  0  0  0
  152.6367  144.9110  160.1455 H   0  0  0  0  0  0  0  0  0  0  0  0
  151.5929  144.3185  161.4407 H   0  0  0  0  0  0  0  0  0  0  0  0
  149.8387  144.1843  158.1339 H   0  0  0  0  0  0  0  0  0  0  0  0
  150.2242  143.1132  156.8210 H   0  0  0  0  0  0  0  0  0  0  0  0
  147.7451  144.2000  158.0582 H   0  0  0  0  0  0  0  0  0  0  0  0
  144.2157  143.8198  157.8720 H   0  0  0  0  0  0  0  0  0  0  0  0
  145.3615  143.6651  156.5485 H   0  0  0  0  0  0  0  0  0  0  0  0
  145.5692  144.9395  157.7346 H   0  0  0  0  0  0  0  0  0  0  0  0
  144.6578  141.3165  158.5177 H   0  0  0  0  0  0  0  0  0  0  0  0
  146.3095  140.7468  158.6980 H   0  0  0  0  0  0  0  0  0  0  0  0
  145.7085  141.2469  157.1202 H   0  0  0  0  0  0  0  0  0  0  0  0
  1  2  1  0  0  0  0
  1 21  1  0  0  0  0
  1 22  1  0  0  0  0
  1 23  1  0  0  0  0
  2 10  1  0  0  0  0
  2  3  2  0  0  0  0
  3  4  1  0  0  0  0
  4  5  1  0  0  0  0
  4  8  1  0  0  0  0
  5  6  1  0  0  0  0
  5  7  1  0  0  0  0
  5 24  1  0  0  0  0
  8  9  1  0  0  0  0
  8 10  2  0  0  0  0
  9 25  1  0  0  0  0
  9 26  1  0  0  0  0
  9 27  1  0  0  0  0
 10 11  1  0  0  0  0
 11 12  1  0  0  0  0
 11 28  1  0  0  0  0
 11 29  1  0  0  0  0
 12 13  2  0  0  0  0
 12 14  1  0  0  0  0
 14 15  1  0  0  0  0
 14 30  1  0  0  0  0
 15 16  1  0  0  0  0
 15 17  1  0  0  0  0
 15 18  1  0  0  0  0
 16 31  1  0  0  0  0
 16 32  1  0  0  0  0
 16 33  1  0  0  0  0
 17 34  1  0  0  0  0
 17 35  1  0  0  0  0
 17 36  1  0  0  0  0
 18 19  2  0  0  0  0
 18 20  1  0  0  0  0
M  CHG  1  20  -1
M  END
> <s_m_source_file>
AV-unprocessed.smi

> <i_m_source_file_index>
2498

> <i_lp_mmshare_version>
43012

> <i_f3d_flags>
0

> <s_epik_input>
W0NIM11jMW5uKFtDSF0oRilGKWMoW0NIM10pYzFbQ0gyXUMoPU8pW05IXUMoW0NIM10pKFtDSDNdKUMoPU8pW09IXQ==

> <s_epik_cmdline>
J2VwaWtfcHl0aG9uJywgJy1waCcsICc3LjAnLCAnLXRuJywgJzgnLCAnLW1hJywgJzIwMCcsICctbWV0YWxfYmluZGluZycsICctaW1hZScsICc8aW5maWxlLm1hZT4nLCAnLW9tYWUnLCAnPG91dGZpbGUubWFlPic=

> <r_lp_tautomer_probability>
1

> <r_epik_Ionization_Penalty>
0.000275972

> <r_epik_Ionization_Penalty_Charging>
0.000275542

> <r_epik_Ionization_Penalty_Neutral>
4.29922e-07

> <r_epik_State_Penalty>
-0

> <r_epik_Charging_Adjusted_Penalty>
0.000275542

> <i_epik_Tot_Q>
-1

> <i_epik_Tot_abs_Q>
1

> <r_epik_Metal_State_Penalty>
-0

> <b_epik_Metal_Only>
0

> <s_lp_Force_Field>
OPLS_2005

> <r_lp_Energy>
1.362

> <b_lp_Chiralities_Consistent>
1

> <s_lp_Variant>
AV-unprocessed.smi:2498-1

> <Gold.Version>
5.8.1

> <Gold.Id.Protein>
6NUR|6NUR_protein|mol2

> <Gold.PLP.Fitness>
47.6748

> <Gold.PLP.PLP>
-35.5127

> <Gold.PLP.part.hbond>
-4.3599

> <Gold.PLP.part.metal>
0.0000

> <Gold.PLP.part.buried>
-1.7418

> <Gold.PLP.part.nonpolar>
-29.4964

> <Gold.PLP.part.repulsive>
0.2224

> <Gold.PLP.ligand.clash>
0.0000

> <Gold.PLP.ligand.torsion>
0.8375

> <Gold.PLP.Chemscore.Hbond>
4.5840

> <Gold.PLP.Chemscore.CHOScore>
0.0000

> <Gold.PLP.Chemscore.Metal>
0.0000

> <Gold.Chemscore.Hbonds>
donor molecule, donor type, donor heavy atom, donor atom, acceptor molecule, acceptor atom, score
      L1  H    14    30       P1  8029  1.00
      P1  H  6933  6944       L1    20  1.41
      P1  H  6934  6946       L1    20  1.92

> <Gold.PLP.Chemscore.Internal.Correction>
0.0852

> <Gold.Rescore>
     Score         DG    S(hbond)    S(metal)    S(lipo)     H(rot)  DE(clash)    DE(int)     intcor
     11.85     -15.42       2.42        0.00      62.96       2.15       1.34       2.22       ----

> <Gold.Chemscore.Fitness>
11.8525

> <Gold.Chemscore.DG>
-15.4199

> <Gold.Chemscore.ZeroCoef>
-5.4800

> <Gold.Chemscore.Hbond>
2.4185

> <Gold.Chemscore.Metal>
0.0000

> <Gold.Chemscore.Lipo>
62.9594

> <Gold.Chemscore.Internal_Hbond>
0.0000

> <Gold.Chemscore.DEClash>
1.3445

> <Gold.Chemscore.DEInternal>
2.2229

> <Gold.Chemscore.Rot>
2.1501

> <Gold.Chemscore.Internal.Correction>
   9.000000E+99

> <Gold.Chemscore.Hbonds>
donor molecule, donor type, donor heavy atom, donor atom, acceptor molecule, acceptor atom, score
      L1  H    14    30       P1  8029  0.25
      P1  H  6933  6944       L1    20  0.66
      P1  H  6934  6946       L1    20  0.92

> <Gold.Chemscore.Hbond.Weighted>
-8.0779

> <Gold.Chemscore.Metal.Weighted>
-0.0000

> <Gold.Chemscore.Lipo.Weighted>
-7.3662

> <Gold.Chemscore.Internal_Hbond.Weighted>
0.0000

> <Gold.Chemscore.DEClash.Weighted>
1.3445

> <Gold.Chemscore.DEInternal.Weighted>
2.2229

> <Gold.Chemscore.Rot.Weighted>
5.5043

> <Gold.Chemscore.Internal.Correction.Weighted>
   9.000000E+99

> <Gold.Protein.RotatedTorsions>
[ 6907 6896 6895 6894 ] final   -0.84 input  -60.11 | X-H torsion
[ 7974 7965 7964 7962 ] final -177.59 input  175.53 | X-H torsion
[ 8008 7997 7996 7995 ] final  138.45 input   59.86 | X-H torsion
[ 10167 10162 10161 10158 ] final   73.61 input  -65.29 | X-H torsion
[ 10718 10713 10712 10709 ] final  131.35 input   66.30 | X-H torsion
[ 10763 10752 10751 10750 ] final   67.86 input  -60.55 | X-H torsion
[ 11005 11000 10999 10996 ] final   44.85 input  -57.11 | X-H torsion

> <Gold.Protein.ActiveResidues>
 VAL166  LYS551  ARG553  GLY616  TRP617  ASP618  TYR619  PRO620  LYS621  CYS622 
 ASP623  PHE694  ASN695  SER759  ASP760  ASP761  ALA762  ILE779  LEU786  VAL792 
 PHE793  MET794  SER795  GLU796  ALA797  LYS798  CYS799  TRP800  GLU811  SER814 

> <Gold.Protein.RotatedAtoms>
  151.5557  135.1066  159.9960 H   0  0  0  0  0  0  0  0  0  0  0  0  # atno 6907 bound_to 6896
  152.4470  133.7552  159.6726 H   0  0  0  0  0  0  0  0  0  0  0  0  # atno 6908 bound_to 6896
  150.8388  133.7902  159.3093 H   0  0  0  0  0  0  0  0  0  0  0  0  # atno 6909 bound_to 6896
  144.7128  140.0996  143.6417 H   0  0  0  0  0  0  0  0  0  0  0  0  # atno 7974 bound_to 7965
  156.2997  140.2393  156.4075 H   0  0  0  0  0  0  0  0  0  0  0  0  # atno 8008 bound_to 7997
  154.8471  140.0425  157.1599 H   0  0  0  0  0  0  0  0  0  0  0  0  # atno 8009 bound_to 7997
  154.9039  140.2981  155.5306 H   0  0  0  0  0  0  0  0  0  0  0  0  # atno 8010 bound_to 7997
  140.0226  144.5528  150.7570 H   0  0  0  0  0  0  0  0  0  0  0  0  # atno 10167 bound_to 10162
  157.4976  131.1093  150.9471 H   0  0  0  0  0  0  0  0  0  0  0  0  # atno 10718 bound_to 10713
  153.0206  135.5268  154.7044 H   0  0  0  0  0  0  0  0  0  0  0  0  # atno 10763 bound_to 10752
  154.6144  135.2882  155.0399 H   0  0  0  0  0  0  0  0  0  0  0  0  # atno 10764 bound_to 10752
  154.1408  135.6578  153.4994 H   0  0  0  0  0  0  0  0  0  0  0  0  # atno 10765 bound_to 10752
  140.1514  134.4457  155.8379 H   0  0  0  0  0  0  0  0  0  0  0  0  # atno 11005 bound_to 11000
  145.9549  139.2759  143.1190 LP  0  0  0  0  0  0  0  0  0  0  0  0  # atno 17320 bound_to 7965
  145.9283  140.9066  143.0369 LP  0  0  0  0  0  0  0  0  0  0  0  0  # atno 17321 bound_to 7965
  140.7336  143.2719  151.3862 LP  0  0  0  0  0  0  0  0  0  0  0  0  # atno 17342 bound_to 10162
  139.6129  144.1061  152.2317 LP  0  0  0  0  0  0  0  0  0  0  0  0  # atno 17343 bound_to 10162
  157.0153  130.5652  149.5325 LP  0  0  0  0  0  0  0  0  0  0  0  0  # atno 17370 bound_to 10713
  156.0210  130.5304  150.8274 LP  0  0  0  0  0  0  0  0  0  0  0  0  # atno 17371 bound_to 10713
  141.2199  133.6874  156.7428 LP  0  0  0  0  0  0  0  0  0  0  0  0  # atno 17394 bound_to 11000
  140.2601  134.8474  157.3750 LP  0  0  0  0  0  0  0  0  0  0  0  0  # atno 17395 bound_to 11000

$$$$
