#       Name:                AV-unprocessed.smi:415
#       Creating user name   scv26
#       Creation time:       Thu Mar 26 22:46:59 2020


#       File generated by GOLD software.
#

@<TRIPOS>MOLECULE
AV-unprocessed.smi:415
    61    62     1
SMALL
NO_CHARGES


@<TRIPOS>ATOM
      1 ****        -2.3970  -3.7152   4.6995 C.3            1 S1                 0.0000
      2 ****        -2.0503  -3.0184   3.5161 O.3            1 S1                 0.0000
      3 ****        -3.1843  -2.5317   2.8180 C.3            1 S1                 0.0000
      4 ****        -2.7400  -1.7745   1.5560 C.3            1 S1                 0.0000
      5 ****        -2.1035  -0.5039   1.8493 N.am           1 S1                 0.0000
      6 ****        -2.8190   0.6749   2.0396 C.2            1 S1                 0.0000
      7 ****        -4.2007   0.6539   1.9735 N.pl3          1 S1                 0.0000
      8 ****        -2.1944   1.8447   2.2998 C.2            1 S1                 0.0000
      9 ****        -0.7446   1.9371   2.3976 C.2            1 S1                 0.0000
     10 ****        -0.1552   2.9990   2.5998 O.2            1 S1                 0.0000
     11 ****        -0.0394   0.7231   2.2320 N.am           1 S1                 0.0000
     12 ****         1.4410   0.7464   2.3027 C.3            1 S1                 0.0000
     13 ****         2.1487   0.9228   0.9468 C.2            1 S1                 0.0000
     14 ****         3.3783   0.9386   0.9130 O.2            1 S1                 0.0000
     15 ****         1.3831   1.0406  -0.1521 N.am           1 S1                 0.0000
     16 ****         1.8497   1.1645  -1.5304 C.3            1 S1                 0.0000
     17 ****         1.2193   2.4275  -2.1478 C.3            1 S1                 0.0000
     18 ****         1.5789   2.5814  -3.6319 C.3            1 S1                 0.0000
     19 ****         1.1951   1.3243  -4.4282 C.3            1 S1                 0.0000
     20 ****         1.8351   0.0473  -3.8463 C.3            1 S1                 0.0000
     21 ****         3.3472  -0.0161  -4.1432 C.3            1 S1                 0.0000
     22 ****         1.4756  -0.1030  -2.3440 C.3            1 S1                 0.0000
     23 ****         2.0357  -1.4031  -1.7329 C.3            1 S1                 0.0000
     24 ****        -0.6894  -0.5040   1.9641 C.2            1 S1                 0.0000
     25 ****        -0.0290  -1.5368   1.8226 O.2            1 S1                 0.0000
     26 ****        -1.4928  -4.0732   5.1917 H              1 S1                 0.0000
     27 ****        -3.0251  -4.5795   4.4795 H              1 S1                 0.0000
     28 ****        -2.9258  -3.0655   5.3982 H              1 S1                 0.0000
     29 ****        -3.8178  -3.3720   2.5304 H              1 S1                 0.0000
     30 ****        -3.7803  -1.8826   3.4613 H              1 S1                 0.0000
     31 ****        -2.0793  -2.3698   0.9241 H              1 S1                 0.0000
     32 ****        -3.5963  -1.5443   0.9226 H              1 S1                 0.0000
     33 ****        -4.7126  -0.1972   1.7898 H              1 S1                 0.0000
     34 ****        -4.7526   1.4924   2.0840 H              1 S1                 0.0000
     35 ****        -2.7784   2.7435   2.4377 H              1 S1                 0.0000
     36 ****         1.7922   1.5337   2.9714 H              1 S1                 0.0000
     37 ****         1.8167  -0.1687   2.7632 H              1 S1                 0.0000
     38 ****         0.3823   1.0177  -0.0213 H              1 S1                 0.0000
     39 ****         2.9338   1.2852  -1.5466 H              1 S1                 0.0000
     40 ****         0.1335   2.3837  -2.0474 H              1 S1                 0.0000
     41 ****         1.5430   3.3127  -1.5988 H              1 S1                 0.0000
     42 ****         1.0680   3.4509  -4.0465 H              1 S1                 0.0000
     43 ****         2.6465   2.7783  -3.7337 H              1 S1                 0.0000
     44 ****         0.1095   1.2174  -4.4194 H              1 S1                 0.0000
     45 ****         1.4762   1.4453  -5.4750 H              1 S1                 0.0000
     46 ****         1.3870  -0.7961  -4.3734 H              1 S1                 0.0000
     47 ****         3.9031   0.7625  -3.6217 H              1 S1                 0.0000
     48 ****         3.5377   0.1042  -5.2099 H              1 S1                 0.0000
     49 ****         3.7726  -0.9763  -3.8527 H              1 S1                 0.0000
     50 ****         0.3890  -0.1969  -2.3003 H              1 S1                 0.0000
     51 ****         3.1166  -1.3514  -1.6016 H              1 S1                 0.0000
     52 ****         1.8145  -2.2628  -2.3660 H              1 S1                 0.0000
     53 ****         1.5978  -1.6053  -0.7550 H              1 S1                 0.0000
     54 ****        -1.5461  -3.6386   2.9152 LP             1 S1                 0.0000
     55 ****        -1.4672  -2.2433   3.7598 LP             1 S1                 0.0000
     56 ****        -0.6746   3.8471   2.7045 LP             1 S1                 0.0000
     57 ****         0.8430   3.0134   2.6593 LP             1 S1                 0.0000
     58 ****         3.9031   0.8378   1.7582 LP             1 S1                 0.0000
     59 ****         3.8531   1.0524   0.0402 LP             1 S1                 0.0000
     60 ****        -0.4897  -2.4013   1.6218 LP             1 S1                 0.0000
     61 ****         0.9669  -1.5092   1.9086 LP             1 S1                 0.0000
@<TRIPOS>BOND
    1    1    2 1     
    2    1   26 1     
    3    1   27 1     
    4    1   28 1     
    5    2    3 1     
    6    3    4 1     
    7    3   29 1     
    8    3   30 1     
    9    4    5 1     
   10    4   31 1     
   11    4   32 1     
   12    5   24 am    
   13    5    6 1     
   14    6    7 1     
   15    6    8 2     
   16    7   33 1     
   17    7   34 1     
   18    8    9 1     
   19    8   35 1     
   20    9   10 2     
   21    9   11 am    
   22   11   12 1     
   23   11   24 am    
   24   12   13 1     
   25   12   36 1     
   26   12   37 1     
   27   13   14 2     
   28   13   15 am    
   29   15   16 1     
   30   15   38 1     
   31   16   22 1     
   32   16   17 1     
   33   16   39 1     
   34   17   18 1     
   35   17   40 1     
   36   17   41 1     
   37   18   19 1     
   38   18   42 1     
   39   18   43 1     
   40   19   20 1     
   41   19   44 1     
   42   19   45 1     
   43   20   21 1     
   44   20   22 1     
   45   20   46 1     
   46   21   47 1     
   47   21   48 1     
   48   21   49 1     
   49   22   23 1     
   50   22   50 1     
   51   23   51 1     
   52   23   52 1     
   53   23   53 1     
   54   24   25 2     
   55    2   54 1     
   56    2   55 1     
   57   10   56 1     
   58   10   57 1     
   59   14   58 1     
   60   14   59 1     
   61   25   60 1     
   62   25   61 1     
@<TRIPOS>SUBSTRUCTURE
      1 S1             1
@<TRIPOS>SET
LONE_PAIRS      STATIC     ATOMS    <user>   **** ""
8 54 55 56 57 58 59 60 61
DONOR_HYDROGENS      STATIC     ATOMS    <user>   **** ""
3 33 34 38
ATOM$BLUE        STATIC     ATOMS    COLORGROUP SYSTEM
8 54 55 56 57 58 59 60 61
ATOM$RED        STATIC     ATOMS    COLORGROUP SYSTEM
3 33 34 38
