AV-unprocessed.smi:1965|AV-procd|sdf|7938|dock3
  -GOLD-   2272010103D 1   1.00000     0.00000
 Structure written by MMmdl.
 37 39  0  0  0  0  0  0  0  0  2 V2000
  145.0395  137.6778  153.1916 O   0  0  0  0  0  0  0  0  0  0  0  0
  146.1880  137.3616  152.8859 C   0  0  0  0  0  0  0  0  0  0  0  0
  146.4423  136.2334  152.1900 N   0  0  0  0  0  0  0  0  0  0  0  0
  145.5698  135.2272  151.6829 C   0  0  0  0  0  0  0  0  0  0  0  0
  145.9641  134.0657  151.1449 N   0  0  0  0  0  0  0  0  0  0  0  0
  144.8834  133.2690  150.7587 C   0  0  0  0  0  0  0  0  0  0  0  0
  143.6623  133.8380  151.0196 C   0  0  0  0  0  0  0  0  0  0  0  0
  143.8228  135.4049  151.7662 S   0  0  0  0  0  0  0  0  0  0  0  0
  147.2556  138.1058  153.2173 N   0  0  0  0  0  0  0  0  0  0  0  0
  147.2133  139.3317  154.0076 C   0  0  2  0  0  0  0  0  0  0  0  0
  147.0991  140.5915  153.1594 C   0  0  0  0  0  0  0  0  0  0  0  0
  147.5599  141.6950  154.1171 C   0  0  0  0  0  0  0  0  0  0  0  0
  148.4762  141.0597  155.0962 N   0  3  2  0  0  0  0  0  0  0  0  0
  149.8186  141.6967  155.1697 C   0  0  0  0  0  0  0  0  0  0  0  0
  150.8252  140.7790  155.8794 C   0  0  0  0  0  0  0  0  0  0  0  0
  151.0188  139.4553  155.1155 C   0  0  0  0  0  0  0  0  0  0  0  0
  149.8111  139.1067  154.2248 C   0  0  0  0  0  0  0  0  0  0  0  0
  148.4779  139.5896  154.8486 C   0  0  2  0  0  0  0  0  0  0  0  0
  147.4106  136.1110  151.9308 H   0  0  0  0  0  0  0  0  0  0  0  0
  145.0747  132.3070  150.3065 H   0  0  0  0  0  0  0  0  0  0  0  0
  142.6819  133.4310  150.8213 H   0  0  0  0  0  0  0  0  0  0  0  0
  148.1655  137.7786  152.9242 H   0  0  0  0  0  0  0  0  0  0  0  0
  146.3474  139.2999  154.6724 H   0  0  0  0  0  0  0  0  0  0  0  0
  147.7765  140.5365  152.3057 H   0  0  0  0  0  0  0  0  0  0  0  0
  146.0910  140.7578  152.7783 H   0  0  0  0  0  0  0  0  0  0  0  0
  148.0146  142.5280  153.5792 H   0  0  0  0  0  0  0  0  0  0  0  0
  146.7065  142.0922  154.6676 H   0  0  0  0  0  0  0  0  0  0  0  0
  150.1849  141.9208  154.1662 H   0  0  0  0  0  0  0  0  0  0  0  0
  149.7310  142.6491  155.6936 H   0  0  0  0  0  0  0  0  0  0  0  0
  151.7847  141.2831  155.9995 H   0  0  0  0  0  0  0  0  0  0  0  0
  150.4632  140.5692  156.8871 H   0  0  0  0  0  0  0  0  0  0  0  0
  151.9129  139.5075  154.4932 H   0  0  0  0  0  0  0  0  0  0  0  0
  151.1969  138.6543  155.8341 H   0  0  0  0  0  0  0  0  0  0  0  0
  149.9391  139.5697  153.2453 H   0  0  0  0  0  0  0  0  0  0  0  0
  149.7999  138.0306  154.0505 H   0  0  0  0  0  0  0  0  0  0  0  0
  148.3658  139.0870  155.8106 H   0  0  0  0  0  0  0  0  0  0  0  0
  148.0491  141.1829  156.0033 H   0  0  0  0  0  0  0  0  0  0  0  0
  1  2  2  0  0  0  0
  2  3  1  0  0  0  0
  2  9  1  0  0  0  0
  3  4  1  0  0  0  0
  3 19  1  0  0  0  0
  4  8  1  0  0  0  0
  4  5  2  0  0  0  0
  5  6  1  0  0  0  0
  6  7  2  0  0  0  0
  6 20  1  0  0  0  0
  7  8  1  0  0  0  0
  7 21  1  0  0  0  0
  9 10  1  0  0  0  0
  9 22  1  0  0  0  0
 10 18  1  0  0  0  0
 10 11  1  0  0  0  0
 10 23  1  0  0  0  0
 11 12  1  0  0  0  0
 11 24  1  0  0  0  0
 11 25  1  0  0  0  0
 12 13  1  0  0  0  0
 12 26  1  0  0  0  0
 12 27  1  0  0  0  0
 13 18  1  0  0  0  0
 13 14  1  0  0  0  0
 13 37  1  0  0  0  0
 14 15  1  0  0  0  0
 14 28  1  0  0  0  0
 14 29  1  0  0  0  0
 15 16  1  0  0  0  0
 15 30  1  0  0  0  0
 15 31  1  0  0  0  0
 16 17  1  0  0  0  0
 16 32  1  0  0  0  0
 16 33  1  0  0  0  0
 17 18  1  0  0  0  0
 17 34  1  0  0  0  0
 17 35  1  0  0  0  0
 18 36  1  0  0  0  0
M  CHG  1  13   1
M  END
> <s_m_source_file>
AV-unprocessed.smi

> <i_m_source_file_index>
1965

> <i_lp_mmshare_version>
43012

> <i_f3d_flags>
0

> <s_epik_input>
czFbY0hdW2NIXW5jMVtOSF1DKD1PKVtOSF1bQ0BIXShbQ0gyXVtDSDJdMilbQ0BASF0oTjIzKVtDSDJdW0NIMl1bQ0gyXVtDSDJdMw==

> <s_epik_cmdline>
J2VwaWtfcHl0aG9uJywgJy1waCcsICc3LjAnLCAnLXRuJywgJzgnLCAnLW1hJywgJzIwMCcsICctbWV0YWxfYmluZGluZycsICctaW1hZScsICc8aW5maWxlLm1hZT4nLCAnLW9tYWUnLCAnPG91dGZpbGUubWFlPic=

> <r_lp_tautomer_probability>
1

> <r_epik_Ionization_Penalty>
0.00125962

> <r_epik_Ionization_Penalty_Charging>
0.00107044

> <r_epik_Ionization_Penalty_Neutral>
0.000189176

> <r_epik_State_Penalty>
-0

> <r_epik_Charging_Adjusted_Penalty>
0.00107044

> <i_epik_Tot_Q>
1

> <i_epik_Tot_abs_Q>
1

> <r_epik_Metal_State_Penalty>
0.0179285

> <b_epik_Metal_Only>
0

> <s_lp_Force_Field>
OPLS_2005

> <r_lp_Energy>
41.6274

> <b_lp_Chiralities_Consistent>
1

> <s_lp_Variant>
AV-unprocessed.smi:1965-7

> <Gold.Version>
5.8.1

> <Gold.Id.Protein>
6NUR|6NUR_protein|mol2

> <Gold.PLP.Fitness>
36.5917

> <Gold.PLP.PLP>
-29.2249

> <Gold.PLP.part.hbond>
-1.9459

> <Gold.PLP.part.metal>
0.0000

> <Gold.PLP.part.buried>
-1.6309

> <Gold.PLP.part.nonpolar>
-25.8993

> <Gold.PLP.part.repulsive>
0.5192

> <Gold.PLP.ligand.clash>
0.0000

> <Gold.PLP.ligand.torsion>
0.3848

> <Gold.PLP.Chemscore.Hbond>
1.7753

> <Gold.PLP.Chemscore.CHOScore>
0.9359

> <Gold.PLP.Chemscore.Metal>
0.0000

> <Gold.Chemscore.Hbonds>
donor molecule, donor type, donor heavy atom, donor atom, acceptor molecule, acceptor atom, score
      L1  H     3    19       P1  7948  0.99
      L1  H     9    22       P1  7948  0.78
      L1  C     7    21       P1 10186  0.93

> <Gold.PLP.Chemscore.Internal.Correction>
0.0030

> <Gold.Rescore>
     Score         DG    S(hbond)    S(metal)    S(lipo)     H(rot)  DE(clash)    DE(int)     intcor
     16.00     -17.64       1.93        0.00      70.75       1.00       0.07       1.57       ----

> <Gold.Chemscore.Fitness>
16.0037

> <Gold.Chemscore.DG>
-17.6376

> <Gold.Chemscore.ZeroCoef>
-5.4800

> <Gold.Chemscore.Hbond>
1.9281

> <Gold.Chemscore.Metal>
0.0000

> <Gold.Chemscore.Lipo>
70.7506

> <Gold.Chemscore.Internal_Hbond>
0.0000

> <Gold.Chemscore.DEClash>
0.0674

> <Gold.Chemscore.DEInternal>
1.5665

> <Gold.Chemscore.Rot>
1.0000

> <Gold.Chemscore.Internal.Correction>
   9.000000E+99

> <Gold.Chemscore.Hbonds>
donor molecule, donor type, donor heavy atom, donor atom, acceptor molecule, acceptor atom, score
      L1  H     3    19       P1  7948  0.92
      L1  H     9    22       P1  7948  0.73

> <Gold.Chemscore.Hbond.Weighted>
-6.4398

> <Gold.Chemscore.Metal.Weighted>
-0.0000

> <Gold.Chemscore.Lipo.Weighted>
-8.2778

> <Gold.Chemscore.Internal_Hbond.Weighted>
0.0000

> <Gold.Chemscore.DEClash.Weighted>
0.0674

> <Gold.Chemscore.DEInternal.Weighted>
1.5665

> <Gold.Chemscore.Rot.Weighted>
2.5600

> <Gold.Chemscore.Internal.Correction.Weighted>
   9.000000E+99

> <Gold.Protein.RotatedTorsions>
[ 6907 6896 6895 6894 ] final -141.85 input  -60.11 | X-H torsion
[ 7974 7965 7964 7962 ] final  -76.25 input  175.53 | X-H torsion
[ 8008 7997 7996 7995 ] final  -73.90 input   59.86 | X-H torsion
[ 10167 10162 10161 10158 ] final  -55.68 input  -65.29 | X-H torsion
[ 10718 10713 10712 10709 ] final  -39.00 input   66.30 | X-H torsion
[ 10763 10752 10751 10750 ] final  169.43 input  -60.55 | X-H torsion
[ 11005 11000 10999 10996 ] final   84.07 input  -57.11 | X-H torsion

> <Gold.Protein.ActiveResidues>
 VAL166  LYS551  ARG553  GLY616  TRP617  ASP618  TYR619  PRO620  LYS621  CYS622 
 ASP623  PHE694  ASN695  SER759  ASP760  ASP761  ALA762  ILE779  LEU786  VAL792 
 PHE793  MET794  SER795  GLU796  ALA797  LYS798  CYS799  TRP800  GLU811  SER814 

> <Gold.Protein.RotatedAtoms>
  151.0792  133.5403  159.2621 H   0  0  0  0  0  0  0  0  0  0  0  0  # atno 6907 bound_to 6896
  151.2313  135.0555  159.8998 H   0  0  0  0  0  0  0  0  0  0  0  0  # atno 6908 bound_to 6896
  152.5421  134.0581  159.8193 H   0  0  0  0  0  0  0  0  0  0  0  0  # atno 6909 bound_to 6896
  145.6154  140.9376  143.1167 H   0  0  0  0  0  0  0  0  0  0  0  0  # atno 7974 bound_to 7965
  154.5286  140.0771  156.8304 H   0  0  0  0  0  0  0  0  0  0  0  0  # atno 8008 bound_to 7997
  155.3423  140.3408  155.4221 H   0  0  0  0  0  0  0  0  0  0  0  0  # atno 8009 bound_to 7997
  156.1757  140.1635  156.8353 H   0  0  0  0  0  0  0  0  0  0  0  0  # atno 8010 bound_to 7997
  140.6361  143.2483  151.5115 H   0  0  0  0  0  0  0  0  0  0  0  0  # atno 10167 bound_to 10162
  156.2974  130.4236  149.8177 H   0  0  0  0  0  0  0  0  0  0  0  0  # atno 10718 bound_to 10713
  154.3830  135.2753  155.2200 H   0  0  0  0  0  0  0  0  0  0  0  0  # atno 10763 bound_to 10752
  154.4298  135.5980  153.6065 H   0  0  0  0  0  0  0  0  0  0  0  0  # atno 10764 bound_to 10752
  152.9834  135.5993  154.4075 H   0  0  0  0  0  0  0  0  0  0  0  0  # atno 10765 bound_to 10752
  139.9011  134.8190  156.2395 H   0  0  0  0  0  0  0  0  0  0  0  0  # atno 11005 bound_to 11000
  144.7253  139.7897  143.7367 LP  0  0  0  0  0  0  0  0  0  0  0  0  # atno 17320 bound_to 7965
  146.1472  139.4545  143.0071 LP  0  0  0  0  0  0  0  0  0  0  0  0  # atno 17321 bound_to 7965
  139.5571  144.2248  152.1630 LP  0  0  0  0  0  0  0  0  0  0  0  0  # atno 17342 bound_to 10162
  140.1505  144.5119  150.6690 LP  0  0  0  0  0  0  0  0  0  0  0  0  # atno 17343 bound_to 10162
  156.5568  130.8366  151.3316 LP  0  0  0  0  0  0  0  0  0  0  0  0  # atno 17370 bound_to 10713
  157.7359  130.9770  150.2106 LP  0  0  0  0  0  0  0  0  0  0  0  0  # atno 17371 bound_to 10713
  141.0294  133.6997  156.1403 LP  0  0  0  0  0  0  0  0  0  0  0  0  # atno 17394 bound_to 11000
  140.7119  134.4452  157.5581 LP  0  0  0  0  0  0  0  0  0  0  0  0  # atno 17395 bound_to 11000

$$$$
