AV-unprocessed.smi:809|AV-procd|sdf|3805|dock8
  -GOLD-   22720 1243D 1   1.00000     0.00000
 Structure written by MMmdl.
 40 41  0  0  0  0  0  0  0  0  2 V2000
  151.0698  141.1192  156.1480 C   0  0  0  0  0  0  0  0  0  0  0  0
  149.8248  140.7597  155.3998 C   0  0  0  0  0  0  0  0  0  0  0  0
  148.7915  141.5997  155.0625 C   0  0  0  0  0  0  0  0  0  0  0  0
  147.5342  140.7702  154.1847 S   0  0  0  0  0  0  0  0  0  0  0  0
  148.4743  139.2920  154.3132 C   0  0  0  0  0  0  0  0  0  0  0  0
  148.0246  138.0664  153.7562 N   0  0  0  0  0  0  0  0  0  0  0  0
  146.8021  137.5141  153.8418 C   0  0  0  0  0  0  0  0  0  0  0  0
  145.8320  138.0164  154.4096 O   0  0  0  0  0  0  0  0  0  0  0  0
  146.7645  136.3251  153.2238 N   0  0  0  0  0  0  0  0  0  0  0  0
  145.5985  135.4476  153.1557 C   0  0  0  0  0  0  0  0  0  0  0  0
  145.4637  134.6951  151.8057 C   0  0  1  0  0  0  0  0  0  0  0  0
  146.7632  134.2748  151.4300 O   0  0  0  0  0  0  0  0  0  0  0  0
  144.6109  133.4214  152.0002 C   0  0  0  0  0  0  0  0  0  0  0  0
  144.3437  132.6728  150.6818 C   0  0  0  0  0  0  0  0  0  0  0  0
  143.7201  133.5690  149.6790 N   0  3  2  0  0  0  0  0  0  0  0  0
  143.3276  132.8494  148.4481 C   0  0  0  0  0  0  0  0  0  0  0  0
  144.5681  134.7520  149.3961 C   0  0  0  0  0  0  0  0  0  0  0  0
  144.8478  135.5580  150.6782 C   0  0  0  0  0  0  0  0  0  0  0  0
  149.6324  139.4450  154.9655 N   0  0  0  0  0  0  0  0  0  0  0  0
  151.0063  142.1227  156.5692 H   0  0  0  0  0  0  0  0  0  0  0  0
  151.9419  141.0897  155.4946 H   0  0  0  0  0  0  0  0  0  0  0  0
  151.2493  140.4278  156.9716 H   0  0  0  0  0  0  0  0  0  0  0  0
  148.6948  142.6539  155.2752 H   0  0  0  0  0  0  0  0  0  0  0  0
  148.7192  137.5442  153.2427 H   0  0  0  0  0  0  0  0  0  0  0  0
  147.6073  135.9961  152.7762 H   0  0  0  0  0  0  0  0  0  0  0  0
  145.5787  134.7544  153.9991 H   0  0  0  0  0  0  0  0  0  0  0  0
  144.7343  136.0986  153.2911 H   0  0  0  0  0  0  0  0  0  0  0  0
  147.3309  135.0284  151.3852 H   0  0  0  0  0  0  0  0  0  0  0  0
  145.0888  132.7503  152.7156 H   0  0  0  0  0  0  0  0  0  0  0  0
  143.6505  133.6939  152.4402 H   0  0  0  0  0  0  0  0  0  0  0  0
  145.2711  132.2606  150.2808 H   0  0  0  0  0  0  0  0  0  0  0  0
  143.6824  131.8272  150.8751 H   0  0  0  0  0  0  0  0  0  0  0  0
  144.2007  132.4408  147.9375 H   0  0  0  0  0  0  0  0  0  0  0  0
  142.8094  133.5175  147.7595 H   0  0  0  0  0  0  0  0  0  0  0  0
  142.6520  132.0262  148.6824 H   0  0  0  0  0  0  0  0  0  0  0  0
  145.5049  134.4303  148.9381 H   0  0  0  0  0  0  0  0  0  0  0  0
  144.0680  135.3933  148.6695 H   0  0  0  0  0  0  0  0  0  0  0  0
  143.9122  135.9942  151.0314 H   0  0  0  0  0  0  0  0  0  0  0  0
  145.5012  136.3964  150.4334 H   0  0  0  0  0  0  0  0  0  0  0  0
  142.8660  133.9164  150.0919 H   0  0  0  0  0  0  0  0  0  0  0  0
  1  2  1  0  0  0  0
  1 20  1  0  0  0  0
  1 21  1  0  0  0  0
  1 22  1  0  0  0  0
  2 19  1  0  0  0  0
  2  3  2  0  0  0  0
  3  4  1  0  0  0  0
  3 23  1  0  0  0  0
  4  5  1  0  0  0  0
  5  6  1  0  0  0  0
  5 19  2  0  0  0  0
  6  7  1  0  0  0  0
  6 24  1  0  0  0  0
  7  8  2  0  0  0  0
  7  9  1  0  0  0  0
  9 10  1  0  0  0  0
  9 25  1  0  0  0  0
 10 11  1  0  0  0  0
 10 26  1  0  0  0  0
 10 27  1  0  0  0  0
 11 18  1  0  0  0  0
 11 12  1  0  0  0  0
 11 13  1  0  0  0  0
 12 28  1  0  0  0  0
 13 14  1  0  0  0  0
 13 29  1  0  0  0  0
 13 30  1  0  0  0  0
 14 15  1  0  0  0  0
 14 31  1  0  0  0  0
 14 32  1  0  0  0  0
 15 16  1  0  0  0  0
 15 17  1  0  0  0  0
 15 40  1  0  0  0  0
 16 33  1  0  0  0  0
 16 34  1  0  0  0  0
 16 35  1  0  0  0  0
 17 18  1  0  0  0  0
 17 36  1  0  0  0  0
 17 37  1  0  0  0  0
 18 38  1  0  0  0  0
 18 39  1  0  0  0  0
M  CHG  1  15   1
M  END
> <s_m_source_file>
AV-unprocessed.smi

> <i_m_source_file_index>
809

> <i_lp_mmshare_version>
43012

> <i_f3d_flags>
0

> <s_epik_input>
W0NIM11jMVtjSF1zYyhuMSlbTkhdQyg9TylbTkhdW0NIMl1DMihbT0hdKVtDSDJdW0NIMl1OKFtDSDNdKVtDSDJdW0NIMl0y

> <s_epik_cmdline>
J2VwaWtfcHl0aG9uJywgJy1waCcsICc3LjAnLCAnLXRuJywgJzgnLCAnLW1hJywgJzIwMCcsICctbWV0YWxfYmluZGluZycsICctaW1hZScsICc8aW5maWxlLm1hZT4nLCAnLW9tYWUnLCAnPG91dGZpbGUubWFlPic=

> <r_lp_tautomer_probability>
0.999

> <r_epik_Ionization_Penalty>
0.00116503

> <r_epik_Ionization_Penalty_Charging>
0.000767707

> <r_epik_Ionization_Penalty_Neutral>
0.00039732

> <r_epik_State_Penalty>
0.000177984

> <r_epik_Charging_Adjusted_Penalty>
0.00094569

> <i_epik_Tot_Q>
1

> <i_epik_Tot_abs_Q>
1

> <r_epik_Metal_State_Penalty>
0.00775393

> <b_epik_Metal_Only>
0

> <s_lp_Force_Field>
OPLS_2005

> <r_lp_Energy>
16.8218

> <b_lp_Chiralities_Consistent>
1

> <s_lp_Variant>
AV-unprocessed.smi:809-1

> <Gold.Version>
5.8.1

> <Gold.Id.Protein>
6NUR|6NUR_protein|mol2

> <Gold.PLP.Fitness>
45.0128

> <Gold.PLP.PLP>
-29.2124

> <Gold.PLP.part.hbond>
-4.0000

> <Gold.PLP.part.metal>
0.0000

> <Gold.PLP.part.buried>
4.7895

> <Gold.PLP.part.nonpolar>
-28.1704

> <Gold.PLP.part.repulsive>
0.3304

> <Gold.PLP.ligand.clash>
0.0000

> <Gold.PLP.ligand.torsion>
0.8501

> <Gold.PLP.Chemscore.Hbond>
4.8320

> <Gold.PLP.Chemscore.CHOScore>
1.0000

> <Gold.PLP.Chemscore.Metal>
0.0000

> <Gold.Chemscore.Hbonds>
donor molecule, donor type, donor heavy atom, donor atom, acceptor molecule, acceptor atom, score
      L1  H     6    24       P1  7948  0.90
      L1  H     9    25       P1  7948  1.00
      L1  H    12    28       P1  7948  1.00
      L1  H    15    40       P1 10186  1.60
      L1  C     3    23       P1  8028  1.00

> <Gold.PLP.Chemscore.Internal.Correction>
0.0045

> <Gold.Rescore>
     Score         DG    S(hbond)    S(metal)    S(lipo)     H(rot)  DE(clash)    DE(int)     intcor
     19.32     -22.39       3.70        0.00      79.28       1.85       2.26       0.81       ----

> <Gold.Chemscore.Fitness>
19.3153

> <Gold.Chemscore.DG>
-22.3877

> <Gold.Chemscore.ZeroCoef>
-5.4800

> <Gold.Chemscore.Hbond>
3.7009

> <Gold.Chemscore.Metal>
0.0000

> <Gold.Chemscore.Lipo>
79.2776

> <Gold.Chemscore.Internal_Hbond>
0.0000

> <Gold.Chemscore.DEClash>
2.2611

> <Gold.Chemscore.DEInternal>
0.8113

> <Gold.Chemscore.Rot>
1.8471

> <Gold.Chemscore.Internal.Correction>
   9.000000E+99

> <Gold.Chemscore.Hbonds>
donor molecule, donor type, donor heavy atom, donor atom, acceptor molecule, acceptor atom, score
      L1  H     6    24       P1  7948  0.88
      L1  H     9    25       P1  7948  0.96
      L1  H    12    28       P1  7948  0.61
      L1  H    15    40       P1 10186  0.76

> <Gold.Chemscore.Hbond.Weighted>
-12.3609

> <Gold.Chemscore.Metal.Weighted>
-0.0000

> <Gold.Chemscore.Lipo.Weighted>
-9.2755

> <Gold.Chemscore.Internal_Hbond.Weighted>
0.0000

> <Gold.Chemscore.DEClash.Weighted>
2.2611

> <Gold.Chemscore.DEInternal.Weighted>
0.8113

> <Gold.Chemscore.Rot.Weighted>
4.7286

> <Gold.Chemscore.Internal.Correction.Weighted>
   9.000000E+99

> <Gold.Protein.RotatedTorsions>
[ 6907 6896 6895 6894 ] final -139.84 input  -60.11 | X-H torsion
[ 7974 7965 7964 7962 ] final   80.88 input  175.53 | X-H torsion
[ 8008 7997 7996 7995 ] final -112.80 input   59.86 | X-H torsion
[ 10167 10162 10161 10158 ] final -135.50 input  -65.29 | X-H torsion
[ 10718 10713 10712 10709 ] final  151.69 input   66.30 | X-H torsion
[ 10763 10752 10751 10750 ] final   20.81 input  -60.55 | X-H torsion
[ 11005 11000 10999 10996 ] final -109.69 input  -57.11 | X-H torsion

> <Gold.Protein.ActiveResidues>
 VAL166  LYS551  ARG553  GLY616  TRP617  ASP618  TYR619  PRO620  LYS621  CYS622 
 ASP623  PHE694  ASN695  SER759  ASP760  ASP761  ALA762  ILE779  LEU786  VAL792 
 PHE793  MET794  SER795  GLU796  ALA797  LYS798  CYS799  TRP800  GLU811  SER814 

> <Gold.Protein.RotatedAtoms>
  151.0529  133.5608  159.2640 H   0  0  0  0  0  0  0  0  0  0  0  0  # atno 6907 bound_to 6896
  151.2612  135.0654  159.9109 H   0  0  0  0  0  0  0  0  0  0  0  0  # atno 6908 bound_to 6896
  152.5385  134.0275  159.8063 H   0  0  0  0  0  0  0  0  0  0  0  0  # atno 6909 bound_to 6896
  145.6455  139.2435  143.2006 H   0  0  0  0  0  0  0  0  0  0  0  0  # atno 7974 bound_to 7965
  155.0108  140.0393  157.2398 H   0  0  0  0  0  0  0  0  0  0  0  0  # atno 8008 bound_to 7997
  154.7462  140.2758  155.6308 H   0  0  0  0  0  0  0  0  0  0  0  0  # atno 8009 bound_to 7997
  156.2875  140.2656  156.2203 H   0  0  0  0  0  0  0  0  0  0  0  0  # atno 8010 bound_to 7997
  139.8773  143.6883  152.2632 H   0  0  0  0  0  0  0  0  0  0  0  0  # atno 10167 bound_to 10162
  157.2674  131.0810  151.1624 H   0  0  0  0  0  0  0  0  0  0  0  0  # atno 10718 bound_to 10713
  153.1046  135.6681  153.9609 H   0  0  0  0  0  0  0  0  0  0  0  0  # atno 10763 bound_to 10752
  153.9170  135.3019  155.3449 H   0  0  0  0  0  0  0  0  0  0  0  0  # atno 10764 bound_to 10752
  154.7468  135.5054  153.9293 H   0  0  0  0  0  0  0  0  0  0  0  0  # atno 10765 bound_to 10752
  141.0833  133.9181  157.2240 H   0  0  0  0  0  0  0  0  0  0  0  0  # atno 11005 bound_to 11000
  146.1246  140.7264  142.9441 LP  0  0  0  0  0  0  0  0  0  0  0  0  # atno 17320 bound_to 7965
  144.7142  140.4148  143.7057 LP  0  0  0  0  0  0  0  0  0  0  0  0  # atno 17321 bound_to 7965
  139.7228  144.7599  151.0927 LP  0  0  0  0  0  0  0  0  0  0  0  0  # atno 17342 bound_to 10162
  140.7750  143.5186  150.9565 LP  0  0  0  0  0  0  0  0  0  0  0  0  # atno 17343 bound_to 10162
  157.3109  130.6889  149.6215 LP  0  0  0  0  0  0  0  0  0  0  0  0  # atno 17370 bound_to 10713
  155.9663  130.4364  150.5131 LP  0  0  0  0  0  0  0  0  0  0  0  0  # atno 17371 bound_to 10713
  139.9649  135.0144  156.9361 LP  0  0  0  0  0  0  0  0  0  0  0  0  # atno 17394 bound_to 11000
  140.5419  134.0712  155.7344 LP  0  0  0  0  0  0  0  0  0  0  0  0  # atno 17395 bound_to 11000

$$$$
