AV-unprocessed.smi:1487|AV-procd|sdf|6009|dock4
  -GOLD-   22720 6103D 1   1.00000     0.00000
 Structure written by MMmdl.
 48 50  0  0  0  0  0  0  0  0  2 V2000
  153.1220  142.6096  160.3335 C   0  0  0  0  0  0  0  0  0  0  0  0
  152.4031  142.1488  159.0779 C   0  0  0  0  0  0  0  0  0  0  0  0
  152.6049  140.8285  158.6164 C   0  0  0  0  0  0  0  0  0  0  0  0
  151.9548  140.3604  157.4539 C   0  0  0  0  0  0  0  0  0  0  0  0
  152.0060  139.1252  156.8316 N   0  0  0  0  0  0  0  0  0  0  0  0
  151.1858  139.3090  155.8016 C   0  0  0  0  0  0  0  0  0  0  0  0
  150.6195  140.5247  155.6735 N   0  0  0  0  0  0  0  0  0  0  0  0
  149.7061  140.9582  154.6311 C   0  0  0  0  0  0  0  0  0  0  0  0
  148.6577  139.8857  154.2720 C   0  0  2  0  0  0  0  0  0  0  0  0
  149.2918  138.9328  153.4424 O   0  0  0  0  0  0  0  0  0  0  0  0
  147.4201  140.4520  153.5389 C   0  0  0  0  0  0  0  0  0  0  0  0
  146.2359  139.5634  153.6548 N   0  3  2  0  0  0  0  0  0  0  0  0
  145.8112  139.3654  155.0640 C   0  0  0  0  0  0  0  0  0  0  0  0
  144.4831  138.5958  155.1345 C   0  0  0  0  0  0  0  0  0  0  0  0
  144.5883  137.2470  154.4093 C   0  0  0  0  0  0  0  0  0  0  0  0
  145.1105  137.4287  152.9741 C   0  0  1  0  0  0  0  0  0  0  0  0
  144.1256  138.0373  152.1618 O   0  0  0  0  0  0  0  0  0  0  0  0
  146.4034  138.2668  152.9414 C   0  0  0  0  0  0  0  0  0  0  0  0
  151.0911  141.2566  156.7586 C   0  0  0  0  0  0  0  0  0  0  0  0
  150.8794  142.5714  157.2103 C   0  0  0  0  0  0  0  0  0  0  0  0
  151.5386  143.0239  158.3724 C   0  0  0  0  0  0  0  0  0  0  0  0
  151.3053  144.4463  158.8500 C   0  0  0  0  0  0  0  0  0  0  0  0
  153.6875  141.7965  160.7898 H   0  0  0  0  0  0  0  0  0  0  0  0
  152.4084  142.9743  161.0726 H   0  0  0  0  0  0  0  0  0  0  0  0
  153.8201  143.4133  160.0986 H   0  0  0  0  0  0  0  0  0  0  0  0
  153.2623  140.1612  159.1546 H   0  0  0  0  0  0  0  0  0  0  0  0
  150.9929  138.5160  155.0937 H   0  0  0  0  0  0  0  0  0  0  0  0
  149.2120  141.8731  154.9628 H   0  0  0  0  0  0  0  0  0  0  0  0
  150.2955  141.2224  153.7521 H   0  0  0  0  0  0  0  0  0  0  0  0
  148.3593  139.3781  155.1877 H   0  0  0  0  0  0  0  0  0  0  0  0
  149.2745  139.2402  152.5491 H   0  0  0  0  0  0  0  0  0  0  0  0
  147.1462  141.4360  153.9211 H   0  0  0  0  0  0  0  0  0  0  0  0
  147.6807  140.6016  152.4898 H   0  0  0  0  0  0  0  0  0  0  0  0
  146.5905  138.8326  155.6119 H   0  0  0  0  0  0  0  0  0  0  0  0
  145.6846  140.3330  155.5511 H   0  0  0  0  0  0  0  0  0  0  0  0
  144.1996  138.4361  156.1754 H   0  0  0  0  0  0  0  0  0  0  0  0
  143.6880  139.1946  154.6878 H   0  0  0  0  0  0  0  0  0  0  0  0
  145.2733  136.6004  154.9593 H   0  0  0  0  0  0  0  0  0  0  0  0
  143.6228  136.7391  154.4063 H   0  0  0  0  0  0  0  0  0  0  0  0
  145.3094  136.4462  152.5445 H   0  0  0  0  0  0  0  0  0  0  0  0
  144.2355  138.9754  152.2033 H   0  0  0  0  0  0  0  0  0  0  0  0
  146.7060  138.4275  151.9068 H   0  0  0  0  0  0  0  0  0  0  0  0
  147.2119  137.7056  153.4133 H   0  0  0  0  0  0  0  0  0  0  0  0
  150.2135  143.2270  156.6694 H   0  0  0  0  0  0  0  0  0  0  0  0
  150.6763  145.0018  158.1538 H   0  0  0  0  0  0  0  0  0  0  0  0
  152.2509  144.9805  158.9437 H   0  0  0  0  0  0  0  0  0  0  0  0
  150.8102  144.4444  159.8214 H   0  0  0  0  0  0  0  0  0  0  0  0
  145.4725  140.0474  153.2042 H   0  0  0  0  0  0  0  0  0  0  0  0
  1  2  1  0  0  0  0
  1 23  1  0  0  0  0
  1 24  1  0  0  0  0
  1 25  1  0  0  0  0
  2 21  1  0  0  0  0
  2  3  2  0  0  0  0
  3  4  1  0  0  0  0
  3 26  1  0  0  0  0
  4 19  2  0  0  0  0
  4  5  1  0  0  0  0
  5  6  2  0  0  0  0
  6  7  1  0  0  0  0
  6 27  1  0  0  0  0
  7  8  1  0  0  0  0
  7 19  1  0  0  0  0
  8  9  1  0  0  0  0
  8 28  1  0  0  0  0
  8 29  1  0  0  0  0
  9 10  1  0  0  0  0
  9 11  1  0  0  0  0
  9 30  1  0  0  0  0
 10 31  1  0  0  0  0
 11 12  1  0  0  0  0
 11 32  1  0  0  0  0
 11 33  1  0  0  0  0
 12 18  1  0  0  0  0
 12 13  1  0  0  0  0
 12 48  1  0  0  0  0
 13 14  1  0  0  0  0
 13 34  1  0  0  0  0
 13 35  1  0  0  0  0
 14 15  1  0  0  0  0
 14 36  1  0  0  0  0
 14 37  1  0  0  0  0
 15 16  1  0  0  0  0
 15 38  1  0  0  0  0
 15 39  1  0  0  0  0
 16 17  1  0  0  0  0
 16 18  1  0  0  0  0
 16 40  1  0  0  0  0
 17 41  1  0  0  0  0
 18 42  1  0  0  0  0
 18 43  1  0  0  0  0
 19 20  1  0  0  0  0
 20 21  2  0  0  0  0
 20 44  1  0  0  0  0
 21 22  1  0  0  0  0
 22 45  1  0  0  0  0
 22 46  1  0  0  0  0
 22 47  1  0  0  0  0
M  CHG  1  12   1
M  END
> <s_m_source_file>
AV-unprocessed.smi

> <i_m_source_file_index>
1487

> <i_lp_mmshare_version>
43012

> <i_f3d_flags>
0

> <s_epik_input>
W0NIM11jKFtjSF0xKWMoW0NIM10pW2NIXWMoYzEyKW4oW2NIXW4yKVtDSDJdW0NASF0oW09IXSlbQ0gyXU4zW0NIMl1bQ0gyXVtDSDJdW0NAQEhdKFtPSF0pW0NIMl0z

> <s_epik_cmdline>
J2VwaWtfcHl0aG9uJywgJy1waCcsICc3LjAnLCAnLXRuJywgJzgnLCAnLW1hJywgJzIwMCcsICctbWV0YWxfYmluZGluZycsICctaW1hZScsICc8aW5maWxlLm1hZT4nLCAnLW9tYWUnLCAnPG91dGZpbGUubWFlPic=

> <r_epik_Ionization_Penalty>
0.0940186

> <r_epik_Ionization_Penalty_Charging>
0.00679686

> <r_epik_Ionization_Penalty_Neutral>
0.0872218

> <r_epik_State_Penalty>
0.0799311

> <r_epik_Charging_Adjusted_Penalty>
0.086728

> <i_epik_Tot_Q>
1

> <i_epik_Tot_abs_Q>
1

> <r_epik_Metal_State_Penalty>
7.95545e-05

> <b_epik_Metal_Only>
0

> <s_lp_Force_Field>
OPLS_2005

> <r_lp_Energy>
25.8202

> <b_lp_Chiralities_Consistent>
1

> <s_lp_Variant>
AV-unprocessed.smi:1487-3

> <Gold.Version>
5.8.1

> <Gold.Id.Protein>
6NUR|6NUR_protein|mol2

> <Gold.PLP.Fitness>
52.6248

> <Gold.PLP.PLP>
-41.8820

> <Gold.PLP.part.hbond>
-4.4176

> <Gold.PLP.part.metal>
0.0000

> <Gold.PLP.part.buried>
-3.3086

> <Gold.PLP.part.nonpolar>
-34.9937

> <Gold.PLP.part.repulsive>
0.0000

> <Gold.PLP.ligand.clash>
0.0000

> <Gold.PLP.ligand.torsion>
0.6447

> <Gold.PLP.Chemscore.Hbond>
4.0000

> <Gold.PLP.Chemscore.CHOScore>
0.0000

> <Gold.PLP.Chemscore.Metal>
0.0000

> <Gold.Chemscore.Hbonds>
donor molecule, donor type, donor heavy atom, donor atom, acceptor molecule, acceptor atom, score
      L1  H    10    31       P1  7957  1.00
      L1  H    12    48       P1 10175  2.00
      L1  H    17    41       P1 10175  1.00

> <Gold.PLP.Chemscore.Internal.Correction>
0.0322

> <Gold.Rescore>
     Score         DG    S(hbond)    S(metal)    S(lipo)     H(rot)  DE(clash)    DE(int)     intcor
     19.19     -21.17       2.97        0.00     107.88       2.67       0.22       1.76       ----

> <Gold.Chemscore.Fitness>
19.1857

> <Gold.Chemscore.DG>
-21.1738

> <Gold.Chemscore.ZeroCoef>
-5.4800

> <Gold.Chemscore.Hbond>
2.9672

> <Gold.Chemscore.Metal>
0.0000

> <Gold.Chemscore.Lipo>
107.8788

> <Gold.Chemscore.Internal_Hbond>
0.0000

> <Gold.Chemscore.DEClash>
0.2242

> <Gold.Chemscore.DEInternal>
1.7639

> <Gold.Chemscore.Rot>
2.6712

> <Gold.Chemscore.Internal.Correction>
   9.000000E+99

> <Gold.Chemscore.Hbonds>
donor molecule, donor type, donor heavy atom, donor atom, acceptor molecule, acceptor atom, score
      L1  H    10    31       P1  7957  0.99
      L1  H    12    48       P1 10175  0.98
      L1  H    17    41       P1 10175  0.94

> <Gold.Chemscore.Hbond.Weighted>
-9.9104

> <Gold.Chemscore.Metal.Weighted>
-0.0000

> <Gold.Chemscore.Lipo.Weighted>
-12.6218

> <Gold.Chemscore.Internal_Hbond.Weighted>
0.0000

> <Gold.Chemscore.DEClash.Weighted>
0.2242

> <Gold.Chemscore.DEInternal.Weighted>
1.7639

> <Gold.Chemscore.Rot.Weighted>
6.8383

> <Gold.Chemscore.Internal.Correction.Weighted>
   9.000000E+99

> <Gold.Protein.RotatedTorsions>
[ 6907 6896 6895 6894 ] final -170.48 input  -60.11 | X-H torsion
[ 7974 7965 7964 7962 ] final  123.94 input  175.53 | X-H torsion
[ 8008 7997 7996 7995 ] final -171.54 input   59.86 | X-H torsion
[ 10167 10162 10161 10158 ] final -117.57 input  -65.29 | X-H torsion
[ 10718 10713 10712 10709 ] final  -25.55 input   66.30 | X-H torsion
[ 10763 10752 10751 10750 ] final  153.12 input  -60.55 | X-H torsion
[ 11005 11000 10999 10996 ] final -120.63 input  -57.11 | X-H torsion

> <Gold.Protein.ActiveResidues>
 VAL166  LYS551  ARG553  GLY616  TRP617  ASP618  TYR619  PRO620  LYS621  CYS622 
 ASP623  PHE694  ASN695  SER759  ASP760  ASP761  ALA762  ILE779  LEU786  VAL792 
 PHE793  MET794  SER795  GLU796  ALA797  LYS798  CYS799  TRP800  GLU811  SER814 

> <Gold.Protein.RotatedAtoms>
  151.5084  133.3490  159.2880 H   0  0  0  0  0  0  0  0  0  0  0  0  # atno 6907 bound_to 6896
  150.8728  134.8107  159.7178 H   0  0  0  0  0  0  0  0  0  0  0  0  # atno 6908 bound_to 6896
  152.4710  134.4971  159.9765 H   0  0  0  0  0  0  0  0  0  0  0  0  # atno 6909 bound_to 6896
  145.0901  139.3593  143.4865 H   0  0  0  0  0  0  0  0  0  0  0  0  # atno 7974 bound_to 7965
  155.9329  140.1094  157.1117 H   0  0  0  0  0  0  0  0  0  0  0  0  # atno 8008 bound_to 7997
  154.4074  140.1234  156.4892 H   0  0  0  0  0  0  0  0  0  0  0  0  # atno 8009 bound_to 7997
  155.7057  140.3471  155.4954 H   0  0  0  0  0  0  0  0  0  0  0  0  # atno 8010 bound_to 7997
  140.0669  143.4914  152.2001 H   0  0  0  0  0  0  0  0  0  0  0  0  # atno 10167 bound_to 10162
  156.4628  130.4507  149.6918 H   0  0  0  0  0  0  0  0  0  0  0  0  # atno 10718 bound_to 10713
  154.1311  135.2826  155.3185 H   0  0  0  0  0  0  0  0  0  0  0  0  # atno 10763 bound_to 10752
  154.6355  135.5420  153.7732 H   0  0  0  0  0  0  0  0  0  0  0  0  # atno 10764 bound_to 10752
  153.0281  135.6473  154.1461 H   0  0  0  0  0  0  0  0  0  0  0  0  # atno 10765 bound_to 10752
  141.0130  134.0237  157.3388 H   0  0  0  0  0  0  0  0  0  0  0  0  # atno 11005 bound_to 11000
  146.3531  140.0732  142.8622 LP  0  0  0  0  0  0  0  0  0  0  0  0  # atno 17320 bound_to 7965
  145.1076  140.9385  143.4676 LP  0  0  0  0  0  0  0  0  0  0  0  0  # atno 17321 bound_to 7965
  139.5859  144.7531  151.3521 LP  0  0  0  0  0  0  0  0  0  0  0  0  # atno 17342 bound_to 10162
  140.7144  143.7304  150.7628 LP  0  0  0  0  0  0  0  0  0  0  0  0  # atno 17343 bound_to 10162
  156.3698  130.7525  151.2506 LP  0  0  0  0  0  0  0  0  0  0  0  0  # atno 17370 bound_to 10713
  157.7496  131.0326  150.4235 LP  0  0  0  0  0  0  0  0  0  0  0  0  # atno 17371 bound_to 10713
  139.9100  135.0188  156.7653 LP  0  0  0  0  0  0  0  0  0  0  0  0  # atno 17394 bound_to 11000
  140.6702  133.9566  155.7852 LP  0  0  0  0  0  0  0  0  0  0  0  0  # atno 17395 bound_to 11000

$$$$
