AV-unprocessed.smi:2237|AV-procd|sdf|9053|dock2
  -GOLD-   2272012253D 1   1.00000     0.00000
 Structure written by MMmdl.
 54 56  0  0  0  0  0  0  0  0  2 V2000
  153.4986  141.7655  161.0577 C   0  0  0  0  0  0  0  0  0  0  0  0
  152.6002  142.8021  160.4166 C   0  0  0  0  0  0  0  0  0  0  0  0
  152.3675  144.0444  161.0384 C   0  0  0  0  0  0  0  0  0  0  0  0
  151.5254  144.9636  160.3873 C   0  0  0  0  0  0  0  0  0  0  0  0
  150.9553  144.6056  159.1502 C   0  0  0  0  0  0  0  0  0  0  0  0
  151.2359  143.3361  158.5972 C   0  0  0  0  0  0  0  0  0  0  0  0
  150.6193  143.0730  157.3448 N   0  0  0  0  0  0  0  0  0  0  0  0
  150.4922  141.8907  156.7166 C   0  0  0  0  0  0  0  0  0  0  0  0
  150.8430  140.8016  157.1718 O   0  0  0  0  0  0  0  0  0  0  0  0
  149.9110  142.0358  155.5164 N   0  0  0  0  0  0  0  0  0  0  0  0
  149.6048  140.9448  154.5953 C   0  0  2  0  0  0  0  0  0  0  0  0
  148.2922  140.2571  155.0096 C   0  0  0  0  0  0  0  0  0  0  0  0
  148.0218  139.0236  154.1277 C   0  0  0  0  0  0  0  0  0  0  0  0
  149.1392  138.0389  154.2006 N   0  3  2  0  0  0  0  0  0  0  0  0
  149.2620  137.2897  155.4970 C   0  0  0  0  0  0  0  0  0  0  0  0
  150.1842  136.0547  155.3607 C   0  0  0  0  0  0  0  0  0  0  0  0
  150.2306  135.2190  156.6514 C   0  0  0  0  0  0  0  0  0  0  0  0
  148.8879  134.7679  157.0048 N   0  0  0  0  0  0  0  0  0  0  0  0
  148.9591  133.9193  158.1860 C   0  0  0  0  0  0  0  0  0  0  0  0
  148.0466  135.9254  157.2931 C   0  0  0  0  0  0  0  0  0  0  0  0
  147.8966  136.7962  156.0344 C   0  0  0  0  0  0  0  0  0  0  0  0
  150.3966  138.6861  153.7259 C   0  0  0  0  0  0  0  0  0  0  0  0
  150.7620  139.9275  154.5642 C   0  0  0  0  0  0  0  0  0  0  0  0
  152.0497  142.4565  159.2327 N   0  0  0  0  0  0  0  0  0  0  0  0
  154.0455  142.1848  161.9027 H   0  0  0  0  0  0  0  0  0  0  0  0
  154.2255  141.3916  160.3358 H   0  0  0  0  0  0  0  0  0  0  0  0
  152.9063  140.9236  161.4166 H   0  0  0  0  0  0  0  0  0  0  0  0
  152.8212  144.2893  161.9878 H   0  0  0  0  0  0  0  0  0  0  0  0
  151.3198  145.9278  160.8282 H   0  0  0  0  0  0  0  0  0  0  0  0
  150.3074  145.3014  158.6371 H   0  0  0  0  0  0  0  0  0  0  0  0
  150.2382  143.8789  156.8718 H   0  0  0  0  0  0  0  0  0  0  0  0
  149.6543  142.9672  155.2229 H   0  0  0  0  0  0  0  0  0  0  0  0
  149.4647  141.3425  153.5881 H   0  0  0  0  0  0  0  0  0  0  0  0
  148.3304  139.9647  156.0595 H   0  0  0  0  0  0  0  0  0  0  0  0
  147.4632  140.9600  154.9189 H   0  0  0  0  0  0  0  0  0  0  0  0
  147.0594  138.5736  154.3629 H   0  0  0  0  0  0  0  0  0  0  0  0
  147.9231  139.3472  153.0905 H   0  0  0  0  0  0  0  0  0  0  0  0
  149.6900  137.9524  156.2493 H   0  0  0  0  0  0  0  0  0  0  0  0
  149.8476  135.4278  154.5334 H   0  0  0  0  0  0  0  0  0  0  0  0
  151.2066  136.3501  155.1321 H   0  0  0  0  0  0  0  0  0  0  0  0
  150.8763  134.3532  156.4984 H   0  0  0  0  0  0  0  0  0  0  0  0
  150.6636  135.8008  157.4670 H   0  0  0  0  0  0  0  0  0  0  0  0
  147.9659  133.5609  158.4592 H   0  0  0  0  0  0  0  0  0  0  0  0
  149.3757  134.4561  159.0397 H   0  0  0  0  0  0  0  0  0  0  0  0
  149.5837  133.0464  157.9930 H   0  0  0  0  0  0  0  0  0  0  0  0
  147.0619  135.5874  157.6187 H   0  0  0  0  0  0  0  0  0  0  0  0
  148.4710  136.5094  158.1117 H   0  0  0  0  0  0  0  0  0  0  0  0
  147.2579  137.6368  156.3032 H   0  0  0  0  0  0  0  0  0  0  0  0
  147.3709  136.2326  155.2622 H   0  0  0  0  0  0  0  0  0  0  0  0
  151.2301  137.9880  153.6898 H   0  0  0  0  0  0  0  0  0  0  0  0
  150.2478  138.9934  152.6897 H   0  0  0  0  0  0  0  0  0  0  0  0
  151.6540  140.3972  154.1478 H   0  0  0  0  0  0  0  0  0  0  0  0
  151.0271  139.6274  155.5785 H   0  0  0  0  0  0  0  0  0  0  0  0
  148.9178  137.3313  153.5142 H   0  0  0  0  0  0  0  0  0  0  0  0
  1  2  1  0  0  0  0
  1 25  1  0  0  0  0
  1 26  1  0  0  0  0
  1 27  1  0  0  0  0
  2 24  1  0  0  0  0
  2  3  2  0  0  0  0
  3  4  1  0  0  0  0
  3 28  1  0  0  0  0
  4  5  2  0  0  0  0
  4 29  1  0  0  0  0
  5  6  1  0  0  0  0
  5 30  1  0  0  0  0
  6  7  1  0  0  0  0
  6 24  2  0  0  0  0
  7  8  1  0  0  0  0
  7 31  1  0  0  0  0
  8  9  2  0  0  0  0
  8 10  1  0  0  0  0
 10 11  1  0  0  0  0
 10 32  1  0  0  0  0
 11 23  1  0  0  0  0
 11 12  1  0  0  0  0
 11 33  1  0  0  0  0
 12 13  1  0  0  0  0
 12 34  1  0  0  0  0
 12 35  1  0  0  0  0
 13 14  1  0  0  0  0
 13 36  1  0  0  0  0
 13 37  1  0  0  0  0
 14 15  1  0  0  0  0
 14 22  1  0  0  0  0
 14 54  1  0  0  0  0
 15 21  1  0  0  0  0
 15 16  1  0  0  0  0
 15 38  1  0  0  0  0
 16 17  1  0  0  0  0
 16 39  1  0  0  0  0
 16 40  1  0  0  0  0
 17 18  1  0  0  0  0
 17 41  1  0  0  0  0
 17 42  1  0  0  0  0
 18 19  1  0  0  0  0
 18 20  1  0  0  0  0
 19 43  1  0  0  0  0
 19 44  1  0  0  0  0
 19 45  1  0  0  0  0
 20 21  1  0  0  0  0
 20 46  1  0  0  0  0
 20 47  1  0  0  0  0
 21 48  1  0  0  0  0
 21 49  1  0  0  0  0
 22 23  1  0  0  0  0
 22 50  1  0  0  0  0
 22 51  1  0  0  0  0
 23 52  1  0  0  0  0
 23 53  1  0  0  0  0
M  CHG  1  14   1
M  END
> <s_m_source_file>
AV-unprocessed.smi

> <i_m_source_file_index>
2237

> <i_lp_mmshare_version>
43012

> <i_f3d_flags>
0

> <s_epik_input>
W0NIM11jMVtjSF1bY0hdW2NIXWMobjEpW05IXUMoPU8pW05IXVtDSF0yW0NIMl1bQ0gyXU4oW0NIMl1bQ0gyXTIpW0NIXTNbQ0gyXVtDSDJdTihbQ0gzXSlbQ0gyXVtDSDJdMw==

> <s_epik_cmdline>
J2VwaWtfcHl0aG9uJywgJy1waCcsICc3LjAnLCAnLXRuJywgJzgnLCAnLW1hJywgJzIwMCcsICctbWV0YWxfYmluZGluZycsICctaW1hZScsICc8aW5maWxlLm1hZT4nLCAnLW9tYWUnLCAnPG91dGZpbGUubWFlPic=

> <r_epik_Ionization_Penalty>
1.37251

> <r_epik_Ionization_Penalty_Charging>
0.00081195

> <r_epik_Ionization_Penalty_Neutral>
1.3717

> <r_epik_State_Penalty>
1.55149

> <r_epik_Charging_Adjusted_Penalty>
1.5523

> <i_epik_Tot_Q>
1

> <i_epik_Tot_abs_Q>
1

> <r_epik_Metal_State_Penalty>
1.55149

> <b_epik_Metal_Only>
0

> <s_lp_Force_Field>
OPLS_2005

> <r_lp_Energy>
34.5276

> <b_lp_Chiralities_Consistent>
1

> <s_lp_Variant>
AV-unprocessed.smi:2237-8

> <Gold.Version>
5.8.1

> <Gold.Id.Protein>
6NUR|6NUR_protein|mol2

> <Gold.PLP.Fitness>
49.5199

> <Gold.PLP.PLP>
-38.5374

> <Gold.PLP.part.hbond>
-3.0000

> <Gold.PLP.part.metal>
0.0000

> <Gold.PLP.part.buried>
-2.1314

> <Gold.PLP.part.nonpolar>
-33.6820

> <Gold.PLP.part.repulsive>
0.1934

> <Gold.PLP.ligand.clash>
0.0000

> <Gold.PLP.ligand.torsion>
0.4732

> <Gold.PLP.Chemscore.Hbond>
3.9585

> <Gold.PLP.Chemscore.CHOScore>
0.0000

> <Gold.PLP.Chemscore.Metal>
0.0000

> <Gold.Chemscore.Hbonds>
donor molecule, donor type, donor heavy atom, donor atom, acceptor molecule, acceptor atom, score
      L1  H     7    31       P1  8028  1.00
      L1  H    10    32       P1  8028  1.00
      L1  H    14    54       P1  7948  2.00

> <Gold.PLP.Chemscore.Internal.Correction>
0.0534

> <Gold.Rescore>
     Score         DG    S(hbond)    S(metal)    S(lipo)     H(rot)  DE(clash)    DE(int)     intcor
     18.50     -24.69       2.95        0.00     106.48       1.21       3.07       3.12       ----

> <Gold.Chemscore.Fitness>
18.4986

> <Gold.Chemscore.DG>
-24.6926

> <Gold.Chemscore.ZeroCoef>
-5.4800

> <Gold.Chemscore.Hbond>
2.9507

> <Gold.Chemscore.Metal>
0.0000

> <Gold.Chemscore.Lipo>
106.4810

> <Gold.Chemscore.Internal_Hbond>
0.0000

> <Gold.Chemscore.DEClash>
3.0731

> <Gold.Chemscore.DEInternal>
3.1208

> <Gold.Chemscore.Rot>
1.2113

> <Gold.Chemscore.Internal.Correction>
   9.000000E+99

> <Gold.Chemscore.Hbonds>
donor molecule, donor type, donor heavy atom, donor atom, acceptor molecule, acceptor atom, score
      L1  H     7    31       P1  8028  0.93
      L1  H    10    32       P1  8028  0.93
      L1  H    14    54       P1  7948  0.98

> <Gold.Chemscore.Hbond.Weighted>
-9.8552

> <Gold.Chemscore.Metal.Weighted>
-0.0000

> <Gold.Chemscore.Lipo.Weighted>
-12.4583

> <Gold.Chemscore.Internal_Hbond.Weighted>
0.0000

> <Gold.Chemscore.DEClash.Weighted>
3.0731

> <Gold.Chemscore.DEInternal.Weighted>
3.1208

> <Gold.Chemscore.Rot.Weighted>
3.1009

> <Gold.Chemscore.Internal.Correction.Weighted>
   9.000000E+99

> <Gold.Protein.RotatedTorsions>
[ 6907 6896 6895 6894 ] final  -30.67 input  -60.11 | X-H torsion
[ 7974 7965 7964 7962 ] final   37.06 input  175.53 | X-H torsion
[ 8008 7997 7996 7995 ] final   13.72 input   59.86 | X-H torsion
[ 10167 10162 10161 10158 ] final   28.13 input  -65.29 | X-H torsion
[ 10718 10713 10712 10709 ] final -150.01 input   66.30 | X-H torsion
[ 10763 10752 10751 10750 ] final   50.30 input  -60.55 | X-H torsion
[ 11005 11000 10999 10996 ] final  -19.25 input  -57.11 | X-H torsion

> <Gold.Protein.ActiveResidues>
 VAL166  LYS551  ARG553  GLY616  TRP617  ASP618  TYR619  PRO620  LYS621  CYS622 
 ASP623  PHE694  ASN695  SER759  ASP760  ASP761  ALA762  ILE779  LEU786  VAL792 
 PHE793  MET794  SER795  GLU796  ALA797  LYS798  CYS799  TRP800  GLU811  SER814 

> <Gold.Protein.RotatedAtoms>
  151.1024  134.9980  159.8454 H   0  0  0  0  0  0  0  0  0  0  0  0  # atno 6907 bound_to 6896
  152.5438  134.1934  159.8693 H   0  0  0  0  0  0  0  0  0  0  0  0  # atno 6908 bound_to 6896
  151.1978  133.4584  159.2629 H   0  0  0  0  0  0  0  0  0  0  0  0  # atno 6909 bound_to 6896
  146.1165  139.5940  142.9318 H   0  0  0  0  0  0  0  0  0  0  0  0  # atno 7974 bound_to 7965
  154.8384  140.2911  155.5675 H   0  0  0  0  0  0  0  0  0  0  0  0  # atno 8008 bound_to 7997
  156.3010  140.2518  156.3254 H   0  0  0  0  0  0  0  0  0  0  0  0  # atno 8009 bound_to 7997
  154.9152  140.0387  157.1957 H   0  0  0  0  0  0  0  0  0  0  0  0  # atno 8010 bound_to 7997
  140.4879  144.0513  150.6287 H   0  0  0  0  0  0  0  0  0  0  0  0  # atno 10167 bound_to 10162
  156.4406  130.8120  151.2349 H   0  0  0  0  0  0  0  0  0  0  0  0  # atno 10718 bound_to 10713
  152.9785  135.5883  154.4230 H   0  0  0  0  0  0  0  0  0  0  0  0  # atno 10763 bound_to 10752
  154.3852  135.2767  155.2189 H   0  0  0  0  0  0  0  0  0  0  0  0  # atno 10764 bound_to 10752
  154.4086  135.6087  153.5993 H   0  0  0  0  0  0  0  0  0  0  0  0  # atno 10765 bound_to 10752
  140.8348  133.7970  155.9797 H   0  0  0  0  0  0  0  0  0  0  0  0  # atno 11005 bound_to 11000
  145.5556  141.0409  143.2254 LP  0  0  0  0  0  0  0  0  0  0  0  0  # atno 17320 bound_to 7965
  144.7558  139.7079  143.7255 LP  0  0  0  0  0  0  0  0  0  0  0  0  # atno 17321 bound_to 7965
  140.3774  143.2821  152.0210 LP  0  0  0  0  0  0  0  0  0  0  0  0  # atno 17342 bound_to 10162
  139.4845  144.6182  151.7305 LP  0  0  0  0  0  0  0  0  0  0  0  0  # atno 17343 bound_to 10162
  157.7506  131.0169  150.3565 LP  0  0  0  0  0  0  0  0  0  0  0  0  # atno 17370 bound_to 10713
  156.3922  130.3900  149.7021 LP  0  0  0  0  0  0  0  0  0  0  0  0  # atno 17371 bound_to 10713
  140.8959  134.2438  157.5069 LP  0  0  0  0  0  0  0  0  0  0  0  0  # atno 17394 bound_to 11000
  139.8704  134.9683  156.4628 LP  0  0  0  0  0  0  0  0  0  0  0  0  # atno 17395 bound_to 11000

$$$$
