AV-unprocessed.smi:910|AV-procd|sdf|4134|dock10
  -GOLD-   22720 2 43D 1   1.00000     0.00000
 Structure written by MMmdl.
 45 46  0  0  0  0  0  0  0  0  2 V2000
  147.3499  136.8564  163.5543 C   0  0  0  0  0  0  0  0  0  0  0  0
  147.2945  136.3464  162.1490 C   0  0  0  0  0  0  0  0  0  0  0  0
  147.6949  137.1170  161.0687 N   0  0  0  0  0  0  0  0  0  0  0  0
  147.5193  136.3503  159.9905 C   0  0  0  0  0  0  0  0  0  0  0  0
  147.7897  136.6947  158.7214 N   0  5  0  0  0  0  0  0  0  0  0  0
  148.7270  136.0075  158.0311 C   0  0  0  0  0  0  0  0  0  0  0  0
  149.2369  134.9348  158.3637 O   0  0  0  0  0  0  0  0  0  0  0  0
  149.1159  136.6126  156.8991 N   0  0  0  0  0  0  0  0  0  0  0  0
  150.2092  136.1825  156.0328 C   0  0  0  0  0  0  0  0  0  0  0  0
  150.6742  137.3307  155.1238 C   0  0  0  0  0  0  0  0  0  0  0  0
  150.0130  138.5253  155.5117 O   0  0  0  0  0  0  0  0  0  0  0  0
  150.6132  139.7283  155.0490 C   0  0  2  0  0  0  0  0  0  0  0  0
  151.9780  139.8563  155.7506 C   0  0  0  0  0  0  0  0  0  0  0  0
  151.8255  140.0506  157.2694 C   0  0  0  0  0  0  0  0  0  0  0  0
  150.9274  141.2544  157.5910 C   0  0  0  0  0  0  0  0  0  0  0  0
  149.5601  141.1316  156.9005 C   0  0  0  0  0  0  0  0  0  0  0  0
  149.7097  140.9432  155.3772 C   0  0  2  0  0  0  0  0  0  0  0  0
  148.3425  140.8839  154.6795 C   0  0  0  0  0  0  0  0  0  0  0  0
  147.0115  135.1258  160.3084 O   0  0  0  0  0  0  0  0  0  0  0  0
  146.8770  135.1338  161.6700 C   0  0  0  0  0  0  0  0  0  0  0  0
  146.3418  133.9073  162.3268 C   0  0  0  0  0  0  0  0  0  0  0  0
  146.4509  137.4212  163.8011 H   0  0  0  0  0  0  0  0  0  0  0  0
  148.2071  137.5136  163.7033 H   0  0  0  0  0  0  0  0  0  0  0  0
  147.4345  136.0382  164.2695 H   0  0  0  0  0  0  0  0  0  0  0  0
  148.6637  137.4834  156.6630 H   0  0  0  0  0  0  0  0  0  0  0  0
  151.0422  135.7849  156.6145 H   0  0  0  0  0  0  0  0  0  0  0  0
  149.8401  135.3608  155.4193 H   0  0  0  0  0  0  0  0  0  0  0  0
  151.7512  137.4740  155.2176 H   0  0  0  0  0  0  0  0  0  0  0  0
  150.4695  137.0848  154.0811 H   0  0  0  0  0  0  0  0  0  0  0  0
  150.7894  139.6823  153.9724 H   0  0  0  0  0  0  0  0  0  0  0  0
  152.5843  138.9729  155.5488 H   0  0  0  0  0  0  0  0  0  0  0  0
  152.5216  140.7039  155.3318 H   0  0  0  0  0  0  0  0  0  0  0  0
  151.3996  139.1500  157.7139 H   0  0  0  0  0  0  0  0  0  0  0  0
  152.8057  140.1853  157.7267 H   0  0  0  0  0  0  0  0  0  0  0  0
  150.7911  141.3387  158.6696 H   0  0  0  0  0  0  0  0  0  0  0  0
  151.4182  142.1732  157.2683 H   0  0  0  0  0  0  0  0  0  0  0  0
  149.0100  140.2921  157.3268 H   0  0  0  0  0  0  0  0  0  0  0  0
  148.9657  142.0215  157.1104 H   0  0  0  0  0  0  0  0  0  0  0  0
  150.2150  141.8296  154.9907 H   0  0  0  0  0  0  0  0  0  0  0  0
  147.7418  140.0523  155.0474 H   0  0  0  0  0  0  0  0  0  0  0  0
  148.4544  140.7677  153.6014 H   0  0  0  0  0  0  0  0  0  0  0  0
  147.7752  141.7980  154.8554 H   0  0  0  0  0  0  0  0  0  0  0  0
  147.1241  133.4024  162.8933 H   0  0  0  0  0  0  0  0  0  0  0  0
  145.9520  133.2057  161.5890 H   0  0  0  0  0  0  0  0  0  0  0  0
  145.5339  134.1589  163.0136 H   0  0  0  0  0  0  0  0  0  0  0  0
  1 22  1  0  0  0  0
  1 23  1  0  0  0  0
  1 24  1  0  0  0  0
  1  2  1  0  0  0  0
  2  3  1  0  0  0  0
  2 20  2  0  0  0  0
  3  4  2  0  0  0  0
  4 19  1  0  0  0  0
  4  5  1  0  0  0  0
  5  6  1  0  0  0  0
  6  8  1  0  0  0  0
  6  7  2  0  0  0  0
  8  9  1  0  0  0  0
  8 25  1  0  0  0  0
  9 10  1  0  0  0  0
  9 26  1  0  0  0  0
  9 27  1  0  0  0  0
 10 11  1  0  0  0  0
 10 28  1  0  0  0  0
 10 29  1  0  0  0  0
 11 12  1  0  0  0  0
 12 17  1  0  0  0  0
 12 13  1  0  0  0  0
 12 30  1  0  0  0  0
 13 14  1  0  0  0  0
 13 31  1  0  0  0  0
 13 32  1  0  0  0  0
 14 15  1  0  0  0  0
 14 33  1  0  0  0  0
 14 34  1  0  0  0  0
 15 16  1  0  0  0  0
 15 35  1  0  0  0  0
 15 36  1  0  0  0  0
 16 17  1  0  0  0  0
 16 37  1  0  0  0  0
 16 38  1  0  0  0  0
 17 18  1  0  0  0  0
 17 39  1  0  0  0  0
 18 40  1  0  0  0  0
 18 41  1  0  0  0  0
 18 42  1  0  0  0  0
 19 20  1  0  0  0  0
 20 21  1  0  0  0  0
 21 43  1  0  0  0  0
 21 44  1  0  0  0  0
 21 45  1  0  0  0  0
M  CHG  1   5  -1
M  END
> <s_m_source_file>
AV-unprocessed.smi

> <i_m_source_file_index>
910

> <i_lp_mmshare_version>
43012

> <i_f3d_flags>
0

> <s_epik_input>
W0NIM11jMW5jKG9jMVtDSDNdKVtOSF1DKD1PKVtOSF1bQ0gyXVtDSDJdT1tDQEBIXTJbQ0gyXVtDSDJdW0NIMl1bQ0gyXVtDQEhdMltDSDNd

> <s_epik_cmdline>
J2VwaWtfcHl0aG9uJywgJy1waCcsICc3LjAnLCAnLXRuJywgJzgnLCAnLW1hJywgJzIwMCcsICctbWV0YWxfYmluZGluZycsICctaW1hZScsICc8aW5maWxlLm1hZT4nLCAnLW9tYWUnLCAnPG91dGZpbGUubWFlPic=

> <r_lp_tautomer_probability>
0.107061

> <r_epik_Ionization_Penalty>
10.1763

> <r_epik_Ionization_Penalty_Charging>
7.13067

> <r_epik_Ionization_Penalty_Neutral>
3.04564

> <r_epik_State_Penalty>
5.57927

> <r_epik_Charging_Adjusted_Penalty>
12.7099

> <i_epik_Tot_Q>
-1

> <i_epik_Tot_abs_Q>
1

> <r_epik_Metal_State_Penalty>
1.52303

> <b_epik_Metal_Only>
1

> <s_lp_Force_Field>
OPLS_2005

> <r_lp_Energy>
5.26856

> <b_lp_Chiralities_Consistent>
1

> <s_lp_Variant>
AV-unprocessed.smi:910-19

> <Gold.Version>
5.8.1

> <Gold.Id.Protein>
6NUR|6NUR_protein|mol2

> <Gold.PLP.Fitness>
42.7874

> <Gold.PLP.PLP>
-36.9459

> <Gold.PLP.part.hbond>
-3.0000

> <Gold.PLP.part.metal>
0.0000

> <Gold.PLP.part.buried>
-2.8877

> <Gold.PLP.part.nonpolar>
-31.5154

> <Gold.PLP.part.repulsive>
0.0695

> <Gold.PLP.ligand.clash>
0.0000

> <Gold.PLP.ligand.torsion>
1.2290

> <Gold.PLP.Chemscore.Hbond>
2.7440

> <Gold.PLP.Chemscore.CHOScore>
0.0000

> <Gold.PLP.Chemscore.Metal>
0.0000

> <Gold.Chemscore.Hbonds>
donor molecule, donor type, donor heavy atom, donor atom, acceptor molecule, acceptor atom, score
      P1  H  6896  6908       L1     7  1.00
      P1  H  6931  6943       L1     3  0.94
      P1  H  6934  6947       L1     3  0.90

> <Gold.PLP.Chemscore.Internal.Correction>
0.0674

> <Gold.Rescore>
     Score         DG    S(hbond)    S(metal)    S(lipo)     H(rot)  DE(clash)    DE(int)     intcor
     16.60     -18.40       1.98        0.00      89.39       1.62       0.55       1.25       ----

> <Gold.Chemscore.Fitness>
16.6014

> <Gold.Chemscore.DG>
-18.4011

> <Gold.Chemscore.ZeroCoef>
-5.4800

> <Gold.Chemscore.Hbond>
1.9767

> <Gold.Chemscore.Metal>
0.0000

> <Gold.Chemscore.Lipo>
89.3866

> <Gold.Chemscore.Internal_Hbond>
0.0000

> <Gold.Chemscore.DEClash>
0.5453

> <Gold.Chemscore.DEInternal>
1.2544

> <Gold.Chemscore.Rot>
1.6169

> <Gold.Chemscore.Internal.Correction>
   9.000000E+99

> <Gold.Chemscore.Hbonds>
donor molecule, donor type, donor heavy atom, donor atom, acceptor molecule, acceptor atom, score
      P1  H  6896  6908       L1     7  0.98
      P1  H  6931  6943       L1     3  0.27
      P1  H  6934  6947       L1     3  0.81

> <Gold.Chemscore.Hbond.Weighted>
-6.6021

> <Gold.Chemscore.Metal.Weighted>
-0.0000

> <Gold.Chemscore.Lipo.Weighted>
-10.4582

> <Gold.Chemscore.Internal_Hbond.Weighted>
0.0000

> <Gold.Chemscore.DEClash.Weighted>
0.5453

> <Gold.Chemscore.DEInternal.Weighted>
1.2544

> <Gold.Chemscore.Rot.Weighted>
4.1393

> <Gold.Chemscore.Internal.Correction.Weighted>
   9.000000E+99

> <Gold.Protein.RotatedTorsions>
[ 6907 6896 6895 6894 ] final  140.31 input  -60.11 | X-H torsion
[ 7974 7965 7964 7962 ] final   67.32 input  175.53 | X-H torsion
[ 8008 7997 7996 7995 ] final  140.05 input   59.86 | X-H torsion
[ 10167 10162 10161 10158 ] final   41.61 input  -65.29 | X-H torsion
[ 10718 10713 10712 10709 ] final  -18.63 input   66.30 | X-H torsion
[ 10763 10752 10751 10750 ] final  151.63 input  -60.55 | X-H torsion
[ 11005 11000 10999 10996 ] final  111.80 input  -57.11 | X-H torsion

> <Gold.Protein.ActiveResidues>
 VAL166  LYS551  ARG553  GLY616  TRP617  ASP618  TYR619  PRO620  LYS621  CYS622 
 ASP623  PHE694  ASN695  SER759  ASP760  ASP761  ALA762  ILE779  LEU786  VAL792 
 PHE793  MET794  SER795  GLU796  ALA797  LYS798  CYS799  TRP800  GLU811  SER814 

> <Gold.Protein.RotatedAtoms>
  152.2446  133.5163  159.5289 H   0  0  0  0  0  0  0  0  0  0  0  0  # atno 6907 bound_to 6896
  150.7074  134.1043  159.3986 H   0  0  0  0  0  0  0  0  0  0  0  0  # atno 6908 bound_to 6896
  151.8964  135.0396  160.0553 H   0  0  0  0  0  0  0  0  0  0  0  0  # atno 6909 bound_to 6896
  145.8161  139.3059  143.1071 H   0  0  0  0  0  0  0  0  0  0  0  0  # atno 7974 bound_to 7965
  156.2983  140.2351  156.4337 H   0  0  0  0  0  0  0  0  0  0  0  0  # atno 8008 bound_to 7997
  154.8247  140.0436  157.1456 H   0  0  0  0  0  0  0  0  0  0  0  0  # atno 8009 bound_to 7997
  154.9275  140.3012  155.5188 H   0  0  0  0  0  0  0  0  0  0  0  0  # atno 8010 bound_to 7997
  140.3626  144.2209  150.6137 H   0  0  0  0  0  0  0  0  0  0  0  0  # atno 10167 bound_to 10162
  156.5568  130.4715  149.6425 H   0  0  0  0  0  0  0  0  0  0  0  0  # atno 10718 bound_to 10713
  154.1069  135.2842  155.3239 H   0  0  0  0  0  0  0  0  0  0  0  0  # atno 10763 bound_to 10752
  154.6516  135.5367  153.7912 H   0  0  0  0  0  0  0  0  0  0  0  0  # atno 10764 bound_to 10752
  153.0359  135.6511  154.1230 H   0  0  0  0  0  0  0  0  0  0  0  0  # atno 10765 bound_to 10752
  139.8912  134.9516  156.6488 H   0  0  0  0  0  0  0  0  0  0  0  0  # atno 11005 bound_to 11000
  145.9725  140.8748  143.0155 LP  0  0  0  0  0  0  0  0  0  0  0  0  # atno 17320 bound_to 7965
  144.6752  140.1966  143.7391 LP  0  0  0  0  0  0  0  0  0  0  0  0  # atno 17321 bound_to 7965
  140.5112  143.2290  151.8532 LP  0  0  0  0  0  0  0  0  0  0  0  0  # atno 17342 bound_to 10162
  139.4812  144.4947  151.9139 LP  0  0  0  0  0  0  0  0  0  0  0  0  # atno 17343 bound_to 10162
  156.2834  130.7084  151.1914 LP  0  0  0  0  0  0  0  0  0  0  0  0  # atno 17370 bound_to 10713
  157.7376  131.0549  150.5343 LP  0  0  0  0  0  0  0  0  0  0  0  0  # atno 17371 bound_to 10713
  140.7537  133.8876  155.8366 LP  0  0  0  0  0  0  0  0  0  0  0  0  # atno 17394 bound_to 11000
  140.9980  134.1189  157.4345 LP  0  0  0  0  0  0  0  0  0  0  0  0  # atno 17395 bound_to 11000

$$$$
