#       Name:                AV-unprocessed.smi:1995
#       Creating user name   scv26
#       Creation time:       Fri Mar 27 10:29:31 2020


#       File generated by GOLD software.
#

@<TRIPOS>MOLECULE
AV-unprocessed.smi:1995
    48    49     1
SMALL
NO_CHARGES


@<TRIPOS>ATOM
      1 ****        -2.6820  -1.3765  -1.4851 C.3            1 S1                 0.0000
      2 ****        -1.1616  -1.2224  -1.2981 C.3            1 S1                 0.0000
      3 ****        -0.7082  -0.5601   0.0423 C.3            1 S1                 0.0000
      4 ****        -1.1900   0.9146  -0.0149 C.3            1 S1                 0.0000
      5 ****         0.8551  -0.5751   0.0914 C.3            1 S1                 0.0000
      6 ****         1.4924   0.0820  -1.0510 N.am           1 S1                 0.0000
      7 ****         2.0268   1.3118  -1.0727 C.2            1 S1                 0.0000
      8 ****         2.0193   2.0076  -0.0546 O.2            1 S1                 0.0000
      9 ****         2.5289   1.6634  -2.2784 N.pl3          1 S1                -1.0000
     10 ****         3.0631   2.8832  -2.4526 C.2            1 S1                 0.0000
     11 ****         4.3813   3.1122  -2.4405 N.2            1 S1                 0.0000
     12 ****         4.7138   4.4526  -2.6463 C.2            1 S1                 0.0000
     13 ****         3.6233   5.2614  -2.8275 C.2            1 S1                 0.0000
     14 ****         2.1375   4.3585  -2.7459 S.3            1 S1                 0.0000
     15 ****        -1.3110  -1.2553   1.2157 N.3            1 S1                 0.0000
     16 ****        -1.0513  -0.6253   2.5161 C.3            1 S1                 0.0000
     17 ****        -1.8229  -1.3140   3.6548 C.3            1 S1                 0.0000
     18 ****        -1.4918  -2.6972   3.6930 O.3            1 S1                 0.0000
     19 ****        -1.7791  -3.3583   2.4667 C.3            1 S1                 0.0000
     20 ****        -1.0027  -2.6865   1.3213 C.3            1 S1                 0.0000
     21 ****        -2.9004  -1.8569  -2.4388 H              1 S1                 0.0000
     22 ****        -3.1889  -0.4121  -1.4859 H              1 S1                 0.0000
     23 ****        -3.1282  -1.9907  -0.7030 H              1 S1                 0.0000
     24 ****        -0.6928  -2.1994  -1.4142 H              1 S1                 0.0000
     25 ****        -0.7900  -0.6423  -2.1436 H              1 S1                 0.0000
     26 ****        -0.9710   1.3805  -0.9761 H              1 S1                 0.0000
     27 ****        -0.7054   1.5318   0.7417 H              1 S1                 0.0000
     28 ****        -2.2659   0.9943   0.1411 H              1 S1                 0.0000
     29 ****         1.2245  -0.1368   1.0184 H              1 S1                 0.0000
     30 ****         1.2239  -1.6001   0.0867 H              1 S1                 0.0000
     31 ****         1.5235  -0.4439  -1.9120 H              1 S1                 0.0000
     32 ****         5.7541   4.7422  -2.6490 H              1 S1                 0.0000
     33 ****         3.6025   6.3261  -3.0042 H              1 S1                 0.0000
     34 ****         0.0131  -0.6585   2.7482 H              1 S1                 0.0000
     35 ****        -1.3402   0.4241   2.5067 H              1 S1                 0.0000
     36 ****        -1.5677  -0.8607   4.6128 H              1 S1                 0.0000
     37 ****        -2.8989  -1.1932   3.5195 H              1 S1                 0.0000
     38 ****        -1.4946  -4.4070   2.5527 H              1 S1                 0.0000
     39 ****        -2.8526  -3.3315   2.2731 H              1 S1                 0.0000
     40 ****        -1.2509  -3.2095   0.3997 H              1 S1                 0.0000
     41 ****         0.0639  -2.8324   1.4910 H              1 S1                 0.0000
     42 ****         1.6143   1.6550   0.7890 LP             1 S1                 0.0000
     43 ****         2.4183   2.9244  -0.0726 LP             1 S1                 0.0000
     44 ****         2.5024   1.0155  -3.0396 LP             1 S1                 0.0000
     45 ****         5.0619   2.3935  -2.2979 LP             1 S1                 0.0000
     46 ****        -2.2838  -1.1573   1.0057 LP             1 S1                 0.0000
     47 ****        -2.0175  -3.1331   4.4236 LP             1 S1                 0.0000
     48 ****        -0.5147  -2.7882   3.8856 LP             1 S1                 0.0000
@<TRIPOS>BOND
    1    1    2 1     
    2    1   21 1     
    3    1   22 1     
    4    1   23 1     
    5    2    3 1     
    6    2   24 1     
    7    2   25 1     
    8    3    4 1     
    9    3    5 1     
   10    3   15 1     
   11    4   26 1     
   12    4   27 1     
   13    4   28 1     
   14    5    6 1     
   15    5   29 1     
   16    5   30 1     
   17    6    7 am    
   18    6   31 1     
   19    7    8 2     
   20    7    9 1     
   21    9   10 1     
   22   10   14 1     
   23   10   11 2     
   24   11   12 1     
   25   12   13 2     
   26   12   32 1     
   27   13   14 1     
   28   13   33 1     
   29   15   20 1     
   30   15   16 1     
   31   16   17 1     
   32   16   34 1     
   33   16   35 1     
   34   17   18 1     
   35   17   36 1     
   36   17   37 1     
   37   18   19 1     
   38   19   20 1     
   39   19   38 1     
   40   19   39 1     
   41   20   40 1     
   42   20   41 1     
   43    8   42 1     
   44    8   43 1     
   45    9   44 1     
   46   11   45 1     
   47   15   46 1     
   48   18   47 1     
   49   18   48 1     
@<TRIPOS>SUBSTRUCTURE
      1 S1             1
@<TRIPOS>SET
LONE_PAIRS      STATIC     ATOMS    <user>   **** ""
7 42 43 44 45 46 47 48
DONOR_HYDROGENS      STATIC     ATOMS    <user>   **** ""
1 31
ATOM$BLUE        STATIC     ATOMS    COLORGROUP SYSTEM
7 42 43 44 45 46 47 48
ATOM$RED        STATIC     ATOMS    COLORGROUP SYSTEM
1 31
