AV-unprocessed.smi:786|AV-procd|sdf|3723|dock4
  -GOLD-   22720 1153D 1   1.00000     0.00000
 Structure written by MMmdl.
 38 39  0  0  0  0  0  0  0  0  2 V2000
  150.6850  139.8800  154.8321 O   0  0  0  0  0  0  0  0  0  0  0  0
  151.1668  140.2213  156.1813 S   0  0  0  0  0  0  0  0  0  0  0  0
  152.5873  139.9618  156.4573 O   0  0  0  0  0  0  0  0  0  0  0  0
  150.9286  142.0571  156.3570 C   0  0  0  0  0  0  0  0  0  0  0  0
  151.2422  142.5963  157.7707 C   0  0  0  0  0  0  0  0  0  0  0  0
  151.6073  144.0893  157.7199 C   0  0  0  0  0  0  0  0  0  0  0  0
  151.9750  144.6167  159.1164 C   0  0  0  0  0  0  0  0  0  0  0  0
  153.0461  143.8536  159.6590 O   0  0  0  0  0  0  0  0  0  0  0  0
  152.7084  142.4823  159.8360 C   0  0  0  0  0  0  0  0  0  0  0  0
  152.3831  141.8396  158.4776 C   0  0  0  0  0  0  0  0  0  0  0  0
  150.2306  139.6260  157.3717 N   0  5  0  0  0  0  0  0  0  0  0  0
  149.9254  138.2040  157.4620 C   0  0  0  0  0  0  0  0  0  0  0  0
  150.4095  137.6223  158.8102 C   0  0  0  0  0  0  0  0  0  0  0  0
  149.4316  136.6745  159.5023 C   0  0  0  0  0  0  0  0  0  0  0  0
  149.0240  135.4744  158.8756 C   0  0  0  0  0  0  0  0  0  0  0  0
  148.1332  134.6242  159.5588 C   0  0  0  0  0  0  0  0  0  0  0  0
  147.6884  134.9973  160.8413 C   0  0  0  0  0  0  0  0  0  0  0  0
  148.1557  136.2098  161.3852 C   0  0  0  0  0  0  0  0  0  0  0  0
  149.0080  137.0325  160.7387 N   0  0  0  0  0  0  0  0  0  0  0  0
  151.5648  142.5455  155.6191 H   0  0  0  0  0  0  0  0  0  0  0  0
  149.9029  142.2875  156.0712 H   0  0  0  0  0  0  0  0  0  0  0  0
  150.3422  142.5069  158.3803 H   0  0  0  0  0  0  0  0  0  0  0  0
  152.4495  144.2409  157.0433 H   0  0  0  0  0  0  0  0  0  0  0  0
  150.7757  144.6661  157.3151 H   0  0  0  0  0  0  0  0  0  0  0  0
  152.2816  145.6608  159.0532 H   0  0  0  0  0  0  0  0  0  0  0  0
  151.1163  144.5788  159.7876 H   0  0  0  0  0  0  0  0  0  0  0  0
  153.5514  141.9701  160.2999 H   0  0  0  0  0  0  0  0  0  0  0  0
  151.8641  142.3897  160.5210 H   0  0  0  0  0  0  0  0  0  0  0  0
  152.1267  140.7935  158.6324 H   0  0  0  0  0  0  0  0  0  0  0  0
  153.2768  141.8492  157.8523 H   0  0  0  0  0  0  0  0  0  0  0  0
  148.8589  138.0017  157.3593 H   0  0  0  0  0  0  0  0  0  0  0  0
  150.4054  137.6538  156.6523 H   0  0  0  0  0  0  0  0  0  0  0  0
  151.3394  137.0777  158.6433 H   0  0  0  0  0  0  0  0  0  0  0  0
  150.6657  138.4347  159.4923 H   0  0  0  0  0  0  0  0  0  0  0  0
  149.3832  135.2144  157.8905 H   0  0  0  0  0  0  0  0  0  0  0  0
  147.7968  133.7030  159.1069 H   0  0  0  0  0  0  0  0  0  0  0  0
  147.0033  134.3718  161.3938 H   0  0  0  0  0  0  0  0  0  0  0  0
  147.8335  136.5296  162.3649 H   0  0  0  0  0  0  0  0  0  0  0  0
  1  2  2  0  0  0  0
  2  3  2  0  0  0  0
  2  4  1  0  0  0  0
  2 11  1  0  0  0  0
  4  5  1  0  0  0  0
  4 20  1  0  0  0  0
  4 21  1  0  0  0  0
  5 10  1  0  0  0  0
  5  6  1  0  0  0  0
  5 22  1  0  0  0  0
  6  7  1  0  0  0  0
  6 23  1  0  0  0  0
  6 24  1  0  0  0  0
  7  8  1  0  0  0  0
  7 25  1  0  0  0  0
  7 26  1  0  0  0  0
  8  9  1  0  0  0  0
  9 10  1  0  0  0  0
  9 27  1  0  0  0  0
  9 28  1  0  0  0  0
 10 29  1  0  0  0  0
 10 30  1  0  0  0  0
 11 12  1  0  0  0  0
 12 13  1  0  0  0  0
 12 31  1  0  0  0  0
 12 32  1  0  0  0  0
 13 14  1  0  0  0  0
 13 33  1  0  0  0  0
 13 34  1  0  0  0  0
 14 19  1  0  0  0  0
 14 15  2  0  0  0  0
 15 16  1  0  0  0  0
 15 35  1  0  0  0  0
 16 17  2  0  0  0  0
 16 36  1  0  0  0  0
 17 18  1  0  0  0  0
 17 37  1  0  0  0  0
 18 19  2  0  0  0  0
 18 38  1  0  0  0  0
M  CHG  1  11  -1
M  END
> <s_m_source_file>
AV-unprocessed.smi

> <i_m_source_file_index>
786

> <i_lp_mmshare_version>
43012

> <i_f3d_flags>
0

> <s_epik_input>
W0NIMl0xW0NIMl1PW0NIMl1bQ0gyXVtDSF0xW0NIMl1TKD1PKSg9TylbTkhdW0NIMl1bQ0gyXWMyW2NIXVtjSF1bY0hdW2NIXW4y

> <s_epik_cmdline>
J2VwaWtfcHl0aG9uJywgJy1waCcsICc3LjAnLCAnLXRuJywgJzgnLCAnLW1hJywgJzIwMCcsICctbWV0YWxfYmluZGluZycsICctaW1hZScsICc8aW5maWxlLm1hZT4nLCAnLW9tYWUnLCAnPG91dGZpbGUubWFlPic=

> <r_epik_Ionization_Penalty>
6.60618

> <r_epik_Ionization_Penalty_Charging>
6.53386

> <r_epik_Ionization_Penalty_Neutral>
0.0723214

> <r_epik_State_Penalty>
6.55045

> <r_epik_Charging_Adjusted_Penalty>
13.0843

> <i_epik_Tot_Q>
-1

> <i_epik_Tot_abs_Q>
1

> <r_epik_Metal_State_Penalty>
2.49618

> <b_epik_Metal_Only>
1

> <s_lp_Force_Field>
OPLS_2005

> <r_lp_Energy>
5.55421

> <b_lp_Chiralities_Consistent>
1

> <s_lp_Variant>
AV-unprocessed.smi:786-3

> <Gold.Version>
5.8.1

> <Gold.Id.Protein>
6NUR|6NUR_protein|mol2

> <Gold.PLP.Fitness>
44.9707

> <Gold.PLP.PLP>
-37.7451

> <Gold.PLP.part.hbond>
-3.9520

> <Gold.PLP.part.metal>
0.0000

> <Gold.PLP.part.buried>
-4.5303

> <Gold.PLP.part.nonpolar>
-28.7648

> <Gold.PLP.part.repulsive>
0.0620

> <Gold.PLP.ligand.clash>
0.0000

> <Gold.PLP.ligand.torsion>
1.2487

> <Gold.PLP.Chemscore.Hbond>
2.8725

> <Gold.PLP.Chemscore.CHOScore>
0.0000

> <Gold.PLP.Chemscore.Metal>
0.0000

> <Gold.Chemscore.Hbonds>
donor molecule, donor type, donor heavy atom, donor atom, acceptor molecule, acceptor atom, score
      P1  H  6931  6943       L1    19  0.69
      P1  H  7989  7998       L1     1  1.00
      P1  H  7997  8009       L1     3  1.00

> <Gold.PLP.Chemscore.Internal.Correction>
1.1055

> <Gold.Rescore>
     Score         DG    S(hbond)    S(metal)    S(lipo)     H(rot)  DE(clash)    DE(int)     intcor
     19.00     -21.50       2.80        0.00      91.36       1.57       0.01       2.49       ----

> <Gold.Chemscore.Fitness>
19.0022

> <Gold.Chemscore.DG>
-21.5004

> <Gold.Chemscore.ZeroCoef>
-5.4800

> <Gold.Chemscore.Hbond>
2.8027

> <Gold.Chemscore.Metal>
0.0000

> <Gold.Chemscore.Lipo>
91.3574

> <Gold.Chemscore.Internal_Hbond>
0.0000

> <Gold.Chemscore.DEClash>
0.0126

> <Gold.Chemscore.DEInternal>
2.4856

> <Gold.Chemscore.Rot>
1.5740

> <Gold.Chemscore.Internal.Correction>
   9.000000E+99

> <Gold.Chemscore.Hbonds>
donor molecule, donor type, donor heavy atom, donor atom, acceptor molecule, acceptor atom, score
      P1  H  6931  6943       L1    19  0.14
      P1  H  7989  7998       L1     1  0.78
      P1  H  7997  8009       L1     3  0.99

> <Gold.Chemscore.Hbond.Weighted>
-9.3609

> <Gold.Chemscore.Metal.Weighted>
-0.0000

> <Gold.Chemscore.Lipo.Weighted>
-10.6888

> <Gold.Chemscore.Internal_Hbond.Weighted>
0.0000

> <Gold.Chemscore.DEClash.Weighted>
0.0126

> <Gold.Chemscore.DEInternal.Weighted>
2.4856

> <Gold.Chemscore.Rot.Weighted>
4.0293

> <Gold.Chemscore.Internal.Correction.Weighted>
   9.000000E+99

> <Gold.Protein.RotatedTorsions>
[ 6907 6896 6895 6894 ] final  114.98 input  -60.11 | X-H torsion
[ 7974 7965 7964 7962 ] final    0.79 input  175.53 | X-H torsion
[ 8008 7997 7996 7995 ] final -157.69 input   59.86 | X-H torsion
[ 10167 10162 10161 10158 ] final   84.57 input  -65.29 | X-H torsion
[ 10718 10713 10712 10709 ] final   -3.96 input   66.30 | X-H torsion
[ 10763 10752 10751 10750 ] final  -52.61 input  -60.55 | X-H torsion
[ 11005 11000 10999 10996 ] final  -66.49 input  -57.11 | X-H torsion

> <Gold.Protein.ActiveResidues>
 VAL166  LYS551  ARG553  GLY616  TRP617  ASP618  TYR619  PRO620  LYS621  CYS622 
 ASP623  PHE694  ASN695  SER759  ASP760  ASP761  ALA762  ILE779  LEU786  VAL792 
 PHE793  MET794  SER795  GLU796  ALA797  LYS798  CYS799  TRP800  GLU811  SER814 

> <Gold.Protein.RotatedAtoms>
  152.4769  133.8160  159.7028 H   0  0  0  0  0  0  0  0  0  0  0  0  # atno 6907 bound_to 6896
  150.8792  133.7386  159.2943 H   0  0  0  0  0  0  0  0  0  0  0  0  # atno 6908 bound_to 6896
  151.4895  135.1060  159.9852 H   0  0  0  0  0  0  0  0  0  0  0  0  # atno 6909 bound_to 6896
  146.2436  140.1084  142.8345 H   0  0  0  0  0  0  0  0  0  0  0  0  # atno 7974 bound_to 7965
  155.7362  140.0808  157.2266 H   0  0  0  0  0  0  0  0  0  0  0  0  # atno 8008 bound_to 7997
  154.4027  140.1586  156.2620 H   0  0  0  0  0  0  0  0  0  0  0  0  # atno 8009 bound_to 7997
  155.9062  140.3406  155.6067 H   0  0  0  0  0  0  0  0  0  0  0  0  # atno 8010 bound_to 7997
  139.9067  144.6297  150.8580 H   0  0  0  0  0  0  0  0  0  0  0  0  # atno 10167 bound_to 10162
  156.7683  130.5292  149.5772 H   0  0  0  0  0  0  0  0  0  0  0  0  # atno 10718 bound_to 10713
  154.1455  135.6498  153.4951 H   0  0  0  0  0  0  0  0  0  0  0  0  # atno 10763 bound_to 10752
  153.0153  135.5325  154.6862 H   0  0  0  0  0  0  0  0  0  0  0  0  # atno 10764 bound_to 10752
  154.6135  135.2956  155.0377 H   0  0  0  0  0  0  0  0  0  0  0  0  # atno 10765 bound_to 10752
  141.1483  133.6700  156.6147 H   0  0  0  0  0  0  0  0  0  0  0  0  # atno 11005 bound_to 11000
  145.0508  140.9016  143.4997 LP  0  0  0  0  0  0  0  0  0  0  0  0  # atno 17320 bound_to 7965
  145.1182  139.2711  143.5602 LP  0  0  0  0  0  0  0  0  0  0  0  0  # atno 17321 bound_to 7965
  140.7695  143.3396  151.2236 LP  0  0  0  0  0  0  0  0  0  0  0  0  # atno 17342 bound_to 10162
  139.6978  143.9583  152.2891 LP  0  0  0  0  0  0  0  0  0  0  0  0  # atno 17343 bound_to 10162
  156.1294  130.6167  151.0311 LP  0  0  0  0  0  0  0  0  0  0  0  0  # atno 17370 bound_to 10713
  157.6703  131.0863  150.7629 LP  0  0  0  0  0  0  0  0  0  0  0  0  # atno 17371 bound_to 10713
  140.3587  134.7706  157.4518 LP  0  0  0  0  0  0  0  0  0  0  0  0  # atno 17394 bound_to 11000
  140.0802  134.5741  155.8548 LP  0  0  0  0  0  0  0  0  0  0  0  0  # atno 17395 bound_to 11000

$$$$
