AV-unprocessed.smi:1592|AV-procd|sdf|6408|dock6
  -GOLD-   22720 7 43D 1   1.00000     0.00000
 Structure written by MMmdl.
 26 27  0  0  0  0  0  0  0  0  2 V2000
  150.1250  142.3656  157.3254 O   0  0  0  0  0  0  0  0  0  0  0  0
  151.3063  142.0964  157.5499 C   0  0  0  0  0  0  0  0  0  0  0  0
  151.9887  141.0927  156.9690 N   0  0  0  0  0  0  0  0  0  0  0  0
  151.5429  140.1599  155.9918 C   0  0  0  0  0  0  0  0  0  0  0  0
  150.4868  140.3983  155.1735 N   0  0  0  0  0  0  0  0  0  0  0  0
  150.1247  139.4631  154.2716 C   0  0  0  0  0  0  0  0  0  0  0  0
  150.7904  138.2333  154.1262 C   0  0  0  0  0  0  0  0  0  0  0  0
  151.8865  137.9717  154.9663 C   0  0  0  0  0  0  0  0  0  0  0  0
  152.2715  138.9433  155.9118 C   0  0  0  0  0  0  0  0  0  0  0  0
  153.3401  138.6876  156.7282 O   0  5  0  0  0  0  0  0  0  0  0  0
  152.0935  142.9290  158.5680 C   0  0  1  0  0  0  0  0  0  0  0  0
  152.2658  144.4057  158.1647 C   0  0  0  0  0  0  0  0  0  0  0  0
  151.4338  145.1606  159.1837 C   0  0  0  0  0  0  0  0  0  0  0  0
  151.4846  144.2283  160.3852 C   0  0  0  0  0  0  0  0  0  0  0  0
  151.3627  142.9456  159.7928 O   0  0  0  0  0  0  0  0  0  0  0  0
  152.9514  140.9786  157.2520 H   0  0  0  0  0  0  0  0  0  0  0  0
  149.2776  139.7037  153.6465 H   0  0  0  0  0  0  0  0  0  0  0  0
  150.4696  137.5107  153.3911 H   0  0  0  0  0  0  0  0  0  0  0  0
  152.4238  137.0380  154.8843 H   0  0  0  0  0  0  0  0  0  0  0  0
  153.0732  142.4826  158.7484 H   0  0  0  0  0  0  0  0  0  0  0  0
  153.3153  144.6891  158.2544 H   0  0  0  0  0  0  0  0  0  0  0  0
  151.9565  144.6280  157.1423 H   0  0  0  0  0  0  0  0  0  0  0  0
  151.8190  146.1577  159.3985 H   0  0  0  0  0  0  0  0  0  0  0  0
  150.4059  145.2568  158.8309 H   0  0  0  0  0  0  0  0  0  0  0  0
  152.4429  144.3057  160.9012 H   0  0  0  0  0  0  0  0  0  0  0  0
  150.6863  144.4178  161.1030 H   0  0  0  0  0  0  0  0  0  0  0  0
  1  2  2  0  0  0  0
  2  3  1  0  0  0  0
  2 11  1  0  0  0  0
  3 16  1  0  0  0  0
  3  4  1  0  0  0  0
  4  9  2  0  0  0  0
  4  5  1  0  0  0  0
  5  6  2  0  0  0  0
  6 17  1  0  0  0  0
  6  7  1  0  0  0  0
  7 18  1  0  0  0  0
  7  8  2  0  0  0  0
  8  9  1  0  0  0  0
  8 19  1  0  0  0  0
  9 10  1  0  0  0  0
 11 15  1  0  0  0  0
 11 12  1  0  0  0  0
 11 20  1  0  0  0  0
 12 13  1  0  0  0  0
 12 21  1  0  0  0  0
 12 22  1  0  0  0  0
 13 14  1  0  0  0  0
 13 23  1  0  0  0  0
 13 24  1  0  0  0  0
 14 15  1  0  0  0  0
 14 25  1  0  0  0  0
 14 26  1  0  0  0  0
M  CHG  1  10  -1
M  END
> <s_m_source_file>
AV-unprocessed.smi

> <i_m_source_file_index>
1592

> <i_lp_mmshare_version>
43012

> <i_f3d_flags>
0

> <s_epik_input>
TzFbQ0gyXVtDSDJdW0NIMl1bQ0BIXTFDKD1PKVtOSF1jMm5bY0hdW2NIXVtjSF1jMltPSF0=

> <s_epik_cmdline>
J2VwaWtfcHl0aG9uJywgJy1waCcsICc3LjAnLCAnLXRuJywgJzgnLCAnLW1hJywgJzIwMCcsICctbWV0YWxfYmluZGluZycsICctaW1hZScsICc8aW5maWxlLm1hZT4nLCAnLW9tYWUnLCAnPG91dGZpbGUubWFlPic=

> <r_epik_Ionization_Penalty>
4.05601

> <r_epik_Ionization_Penalty_Charging>
2.06015

> <r_epik_Ionization_Penalty_Neutral>
1.99585

> <r_epik_State_Penalty>
2.62166

> <r_epik_Charging_Adjusted_Penalty>
4.68182

> <i_epik_Tot_Q>
-1

> <i_epik_Tot_abs_Q>
1

> <r_epik_Metal_State_Penalty>
0.603772

> <b_epik_Metal_Only>
0

> <s_lp_Force_Field>
OPLS_2005

> <r_lp_Energy>
18.4071

> <b_lp_Chiralities_Consistent>
1

> <s_lp_Variant>
AV-unprocessed.smi:1592-8

> <Gold.Version>
5.8.1

> <Gold.Id.Protein>
6NUR|6NUR_protein|mol2

> <Gold.PLP.Fitness>
40.7884

> <Gold.PLP.PLP>
-32.7498

> <Gold.PLP.part.hbond>
-2.3671

> <Gold.PLP.part.metal>
0.0000

> <Gold.PLP.part.buried>
-1.6277

> <Gold.PLP.part.nonpolar>
-29.0358

> <Gold.PLP.part.repulsive>
0.3447

> <Gold.PLP.ligand.clash>
0.0000

> <Gold.PLP.ligand.torsion>
0.1612

> <Gold.PLP.Chemscore.Hbond>
2.0000

> <Gold.PLP.Chemscore.CHOScore>
0.7843

> <Gold.PLP.Chemscore.Metal>
0.0000

> <Gold.Chemscore.Hbonds>
donor molecule, donor type, donor heavy atom, donor atom, acceptor molecule, acceptor atom, score
      P1  H  7997  8009       L1    10  2.00
      L1  C     6    17       P1  7957  0.79

> <Gold.PLP.Chemscore.Internal.Correction>
0.0082

> <Gold.Rescore>
     Score         DG    S(hbond)    S(metal)    S(lipo)     H(rot)  DE(clash)    DE(int)     intcor
     13.87     -15.27       0.99        0.00      77.38       1.00       0.05       1.35       ----

> <Gold.Chemscore.Fitness>
13.8734

> <Gold.Chemscore.DG>
-15.2698

> <Gold.Chemscore.ZeroCoef>
-5.4800

> <Gold.Chemscore.Hbond>
0.9868

> <Gold.Chemscore.Metal>
0.0000

> <Gold.Chemscore.Lipo>
77.3842

> <Gold.Chemscore.Internal_Hbond>
0.0000

> <Gold.Chemscore.DEClash>
0.0451

> <Gold.Chemscore.DEInternal>
1.3514

> <Gold.Chemscore.Rot>
1.0000

> <Gold.Chemscore.Internal.Correction>
   9.000000E+99

> <Gold.Chemscore.Hbonds>
donor molecule, donor type, donor heavy atom, donor atom, acceptor molecule, acceptor atom, score
      P1  H  7997  8009       L1    10  0.58

> <Gold.Chemscore.Hbond.Weighted>
-3.2959

> <Gold.Chemscore.Metal.Weighted>
-0.0000

> <Gold.Chemscore.Lipo.Weighted>
-9.0539

> <Gold.Chemscore.Internal_Hbond.Weighted>
0.0000

> <Gold.Chemscore.DEClash.Weighted>
0.0451

> <Gold.Chemscore.DEInternal.Weighted>
1.3514

> <Gold.Chemscore.Rot.Weighted>
2.5600

> <Gold.Chemscore.Internal.Correction.Weighted>
   9.000000E+99

> <Gold.Protein.RotatedTorsions>
[ 6907 6896 6895 6894 ] final  140.20 input  -60.11 | X-H torsion
[ 7974 7965 7964 7962 ] final   49.49 input  175.53 | X-H torsion
[ 8008 7997 7996 7995 ] final -179.95 input   59.86 | X-H torsion
[ 10167 10162 10161 10158 ] final -139.08 input  -65.29 | X-H torsion
[ 10718 10713 10712 10709 ] final  168.31 input   66.30 | X-H torsion
[ 10763 10752 10751 10750 ] final   83.62 input  -60.55 | X-H torsion
[ 11005 11000 10999 10996 ] final  -10.23 input  -57.11 | X-H torsion

> <Gold.Protein.ActiveResidues>
 VAL166  LYS551  ARG553  GLY616  TRP617  ASP618  TYR619  PRO620  LYS621  CYS622 
 ASP623  PHE694  ASN695  SER759  ASP760  ASP761  ALA762  ILE779  LEU786  VAL792 
 PHE793  MET794  SER795  GLU796  ALA797  LYS798  CYS799  TRP800  GLU811  SER814 

> <Gold.Protein.RotatedAtoms>
  152.2458  133.5173  159.5296 H   0  0  0  0  0  0  0  0  0  0  0  0  # atno 6907 bound_to 6896
  150.7078  134.1027  159.3980 H   0  0  0  0  0  0  0  0  0  0  0  0  # atno 6908 bound_to 6896
  151.8947  135.0402  160.0552 H   0  0  0  0  0  0  0  0  0  0  0  0  # atno 6909 bound_to 6896
  146.0103  139.4536  142.9960 H   0  0  0  0  0  0  0  0  0  0  0  0  # atno 7974 bound_to 7965
  156.0364  140.1293  157.0204 H   0  0  0  0  0  0  0  0  0  0  0  0  # atno 8008 bound_to 7997
  154.4371  140.1039  156.6243 H   0  0  0  0  0  0  0  0  0  0  0  0  # atno 8009 bound_to 7997
  155.5732  140.3467  155.4523 H   0  0  0  0  0  0  0  0  0  0  0  0  # atno 8010 bound_to 7997
  139.8414  143.7317  152.2663 H   0  0  0  0  0  0  0  0  0  0  0  0  # atno 10167 bound_to 10162
  157.0389  131.0281  151.2720 H   0  0  0  0  0  0  0  0  0  0  0  0  # atno 10718 bound_to 10713
  153.1308  135.4684  154.9345 H   0  0  0  0  0  0  0  0  0  0  0  0  # atno 10763 bound_to 10752
  154.7662  135.3145  154.8284 H   0  0  0  0  0  0  0  0  0  0  0  0  # atno 10764 bound_to 10752
  153.8827  135.6892  153.4820 H   0  0  0  0  0  0  0  0  0  0  0  0  # atno 10765 bound_to 10752
  140.7426  133.8658  155.8979 H   0  0  0  0  0  0  0  0  0  0  0  0  # atno 11005 bound_to 11000
  145.7351  141.0028  143.1331 LP  0  0  0  0  0  0  0  0  0  0  0  0  # atno 17320 bound_to 7965
  144.6951  139.9032  143.7459 LP  0  0  0  0  0  0  0  0  0  0  0  0  # atno 17321 bound_to 7965
  139.7555  144.7522  151.0442 LP  0  0  0  0  0  0  0  0  0  0  0  0  # atno 17342 bound_to 10162
  140.7797  143.4811  151.0017 LP  0  0  0  0  0  0  0  0  0  0  0  0  # atno 17343 bound_to 10162
  157.5120  130.7944  149.7715 LP  0  0  0  0  0  0  0  0  0  0  0  0  # atno 17370 bound_to 10713
  156.0044  130.3863  150.2484 LP  0  0  0  0  0  0  0  0  0  0  0  0  # atno 17371 bound_to 10713
  140.9823  134.1389  157.4483 LP  0  0  0  0  0  0  0  0  0  0  0  0  # atno 17394 bound_to 11000
  139.8803  135.0014  156.6068 LP  0  0  0  0  0  0  0  0  0  0  0  0  # atno 17395 bound_to 11000

$$$$
