AV-unprocessed.smi:52|AV-procd|sdf|512|dock4
  -GOLD-   2262016383D 1   1.00000     0.00000
 Structure written by MMmdl.
 26 27  0  0  0  0  0  0  0  0  2 V2000
  153.0628  138.4161  155.8071 O   0  0  0  0  0  0  0  0  0  0  0  0
  153.0165  137.7542  156.8678 C   0  0  0  0  0  0  0  0  0  0  0  0
  152.8926  136.5094  156.8633 O   0  5  0  0  0  0  0  0  0  0  0  0
  153.1117  138.4680  158.1679 C   0  0  0  0  0  0  0  0  0  0  0  0
  153.0809  137.9030  159.4180 C   0  0  0  0  0  0  0  0  0  0  0  0
  153.1929  138.8887  160.3609 O   0  0  0  0  0  0  0  0  0  0  0  0
  153.2891  140.0359  159.6357 C   0  0  0  0  0  0  0  0  0  0  0  0
  153.4131  141.3380  160.3561 C   0  0  0  0  0  0  0  0  0  0  0  0
  152.3246  142.2624  160.0568 N   0  0  0  0  0  0  0  0  0  0  0  0
  152.5019  143.5877  160.6282 C   0  0  0  0  0  0  0  0  0  0  0  0
  151.5931  144.5329  159.8297 C   0  0  0  0  0  0  0  0  0  0  0  0
  151.2441  143.7339  158.5632 C   0  0  1  0  0  0  0  0  0  0  0  0
  151.4436  144.4721  157.3764 O   0  0  0  0  0  0  0  0  0  0  0  0
  152.1653  142.5156  158.6404 C   0  0  0  0  0  0  0  0  0  0  0  0
  153.2480  139.8426  158.3193 N   0  0  0  0  0  0  0  0  0  0  0  0
  150.2036  143.4093  158.6117 H   0  0  0  0  0  0  0  0  0  0  0  0
  152.9893  136.8892  159.7789 H   0  0  0  0  0  0  0  0  0  0  0  0
  153.4663  141.1446  161.4284 H   0  0  0  0  0  0  0  0  0  0  0  0
  154.3642  141.7894  160.0713 H   0  0  0  0  0  0  0  0  0  0  0  0
  152.2723  143.5969  161.6943 H   0  0  0  0  0  0  0  0  0  0  0  0
  153.5387  143.9079  160.5117 H   0  0  0  0  0  0  0  0  0  0  0  0
  150.6890  144.7777  160.3885 H   0  0  0  0  0  0  0  0  0  0  0  0
  152.1115  145.4668  159.6083 H   0  0  0  0  0  0  0  0  0  0  0  0
  150.6272  144.5031  156.9014 H   0  0  0  0  0  0  0  0  0  0  0  0
  153.1340  142.7506  158.1952 H   0  0  0  0  0  0  0  0  0  0  0  0
  151.7568  141.6498  158.1181 H   0  0  0  0  0  0  0  0  0  0  0  0
  1  2  2  0  0  0  0
  2  3  1  0  0  0  0
  2  4  1  0  0  0  0
  4 15  1  0  0  0  0
  4  5  2  0  0  0  0
  5  6  1  0  0  0  0
  5 17  1  0  0  0  0
  6  7  1  0  0  0  0
  7  8  1  0  0  0  0
  7 15  2  0  0  0  0
  8  9  1  0  0  0  0
  8 18  1  0  0  0  0
  8 19  1  0  0  0  0
  9 14  1  0  0  0  0
  9 10  1  0  0  0  0
 10 11  1  0  0  0  0
 10 20  1  0  0  0  0
 10 21  1  0  0  0  0
 11 12  1  0  0  0  0
 11 22  1  0  0  0  0
 11 23  1  0  0  0  0
 12 16  1  0  0  0  0
 12 13  1  0  0  0  0
 12 14  1  0  0  0  0
 13 24  1  0  0  0  0
 14 25  1  0  0  0  0
 14 26  1  0  0  0  0
M  CHG  1   3  -1
M  END
> <s_m_source_file>
AV-unprocessed.smi

> <i_m_source_file_index>
52

> <i_lp_mmshare_version>
43012

> <i_f3d_flags>
0

> <s_epik_input>
Tz1DKFtPSF0pYzFbY0hdb2MobjEpW0NIMl1OMltDSDJdW0NIMl1bQ0BIXShbT0hdKVtDSDJdMg==

> <s_epik_cmdline>
J2VwaWtfcHl0aG9uJywgJy1waCcsICc3LjAnLCAnLXRuJywgJzgnLCAnLW1hJywgJzIwMCcsICctbWV0YWxfYmluZGluZycsICctaW1hZScsICc8aW5maWxlLm1hZT4nLCAnLW9tYWUnLCAnPG91dGZpbGUubWFlPic=

> <r_epik_Ionization_Penalty>
1.6537

> <r_epik_Ionization_Penalty_Charging>
0.000221913

> <r_epik_Ionization_Penalty_Neutral>
1.65348

> <r_epik_State_Penalty>
1.75577

> <r_epik_Charging_Adjusted_Penalty>
1.75599

> <i_epik_Tot_Q>
-1

> <i_epik_Tot_abs_Q>
1

> <r_epik_Metal_State_Penalty>
1.75577

> <b_epik_Metal_Only>
0

> <s_lp_Force_Field>
OPLS_2005

> <r_lp_Energy>
35.559

> <b_lp_Chiralities_Consistent>
1

> <s_lp_Variant>
AV-unprocessed.smi:52-6

> <Gold.Version>
5.8.1

> <Gold.Id.Protein>
6NUR|6NUR_protein|mol2

> <Gold.PLP.Fitness>
41.0332

> <Gold.PLP.PLP>
-26.5916

> <Gold.PLP.part.hbond>
-4.0000

> <Gold.PLP.part.metal>
0.0000

> <Gold.PLP.part.buried>
-3.5695

> <Gold.PLP.part.nonpolar>
-18.3730

> <Gold.PLP.part.repulsive>
0.0000

> <Gold.PLP.ligand.clash>
0.0000

> <Gold.PLP.ligand.torsion>
0.0162

> <Gold.PLP.Chemscore.Hbond>
4.8240

> <Gold.PLP.Chemscore.CHOScore>
0.0000

> <Gold.PLP.Chemscore.Metal>
0.0000

> <Gold.Chemscore.Hbonds>
donor molecule, donor type, donor heavy atom, donor atom, acceptor molecule, acceptor atom, score
      L1  H    13    24       P1  8028  0.78
      P1  H  7997  8008       L1     1  1.26
      P1  H 10752 10763       L1     3  2.00

> <Gold.PLP.Chemscore.Internal.Correction>
0.0021

> <Gold.Rescore>
     Score         DG    S(hbond)    S(metal)    S(lipo)     H(rot)  DE(clash)    DE(int)     intcor
     15.23     -16.47       2.58        0.00      63.06       1.95       0.03       1.21       ----

> <Gold.Chemscore.Fitness>
15.2258

> <Gold.Chemscore.DG>
-16.4695

> <Gold.Chemscore.ZeroCoef>
-5.4800

> <Gold.Chemscore.Hbond>
2.5758

> <Gold.Chemscore.Metal>
0.0000

> <Gold.Chemscore.Lipo>
63.0571

> <Gold.Chemscore.Internal_Hbond>
0.0000

> <Gold.Chemscore.DEClash>
0.0321

> <Gold.Chemscore.DEInternal>
1.2116

> <Gold.Chemscore.Rot>
1.9497

> <Gold.Chemscore.Internal.Correction>
   9.000000E+99

> <Gold.Chemscore.Hbonds>
donor molecule, donor type, donor heavy atom, donor atom, acceptor molecule, acceptor atom, score
      L1  H    13    24       P1  8028  0.71
      P1  H  7997  8008       L1     1  0.26
      P1  H 10752 10763       L1     3  0.89

> <Gold.Chemscore.Hbond.Weighted>
-8.6030

> <Gold.Chemscore.Metal.Weighted>
-0.0000

> <Gold.Chemscore.Lipo.Weighted>
-7.3777

> <Gold.Chemscore.Internal_Hbond.Weighted>
0.0000

> <Gold.Chemscore.DEClash.Weighted>
0.0321

> <Gold.Chemscore.DEInternal.Weighted>
1.2116

> <Gold.Chemscore.Rot.Weighted>
4.9912

> <Gold.Chemscore.Internal.Correction.Weighted>
   9.000000E+99

> <Gold.Protein.RotatedTorsions>
[ 6907 6896 6895 6894 ] final   19.97 input  -60.11 | X-H torsion
[ 7974 7965 7964 7962 ] final   68.60 input  175.53 | X-H torsion
[ 8008 7997 7996 7995 ] final  -39.72 input   59.86 | X-H torsion
[ 10167 10162 10161 10158 ] final  145.01 input  -65.29 | X-H torsion
[ 10718 10713 10712 10709 ] final  177.99 input   66.30 | X-H torsion
[ 10763 10752 10751 10750 ] final  125.68 input  -60.55 | X-H torsion
[ 11005 11000 10999 10996 ] final  134.56 input  -57.11 | X-H torsion

> <Gold.Protein.ActiveResidues>
 VAL166  LYS551  ARG553  GLY616  TRP617  ASP618  TYR619  PRO620  LYS621  CYS622 
 ASP623  PHE694  ASN695  SER759  ASP760  ASP761  ALA762  ILE779  LEU786  VAL792 
 PHE793  MET794  SER795  GLU796  ALA797  LYS798  CYS799  TRP800  GLU811  SER814 

> <Gold.Protein.RotatedAtoms>
  151.8892  135.0423  160.0495 H   0  0  0  0  0  0  0  0  0  0  0  0  # atno 6907 bound_to 6896
  152.2450  133.5162  159.5300 H   0  0  0  0  0  0  0  0  0  0  0  0  # atno 6908 bound_to 6896
  150.7065  134.0954  159.3989 H   0  0  0  0  0  0  0  0  0  0  0  0  # atno 6909 bound_to 6896
  145.8006  139.2980  143.1157 H   0  0  0  0  0  0  0  0  0  0  0  0  # atno 7974 bound_to 7965
  154.4020  140.1544  156.2909 H   0  0  0  0  0  0  0  0  0  0  0  0  # atno 8008 bound_to 7997
  155.8786  140.3445  155.5850 H   0  0  0  0  0  0  0  0  0  0  0  0  # atno 8009 bound_to 7997
  155.7693  140.0828  157.2107 H   0  0  0  0  0  0  0  0  0  0  0  0  # atno 8010 bound_to 7997
  139.4935  144.5932  151.6638 H   0  0  0  0  0  0  0  0  0  0  0  0  # atno 10167 bound_to 10162
  156.8972  130.9867  151.3041 H   0  0  0  0  0  0  0  0  0  0  0  0  # atno 10718 bound_to 10713
  153.6813  135.3314  155.3179 H   0  0  0  0  0  0  0  0  0  0  0  0  # atno 10763 bound_to 10752
  154.8465  135.4409  154.1604 H   0  0  0  0  0  0  0  0  0  0  0  0  # atno 10764 bound_to 10752
  153.2621  135.6992  153.7645 H   0  0  0  0  0  0  0  0  0  0  0  0  # atno 10765 bound_to 10752
  139.9923  134.9510  156.9884 H   0  0  0  0  0  0  0  0  0  0  0  0  # atno 11005 bound_to 11000
  145.9882  140.8625  143.0080 LP  0  0  0  0  0  0  0  0  0  0  0  0  # atno 17320 bound_to 7965
  144.6769  140.2177  143.7370 LP  0  0  0  0  0  0  0  0  0  0  0  0  # atno 17321 bound_to 7965
  140.5563  144.0342  150.6149 LP  0  0  0  0  0  0  0  0  0  0  0  0  # atno 17342 bound_to 10162
  140.3413  143.3018  152.0585 LP  0  0  0  0  0  0  0  0  0  0  0  0  # atno 17343 bound_to 10162
  157.6048  130.8539  149.8858 LP  0  0  0  0  0  0  0  0  0  0  0  0  # atno 17370 bound_to 10713
  156.0600  130.3701  150.1004 LP  0  0  0  0  0  0  0  0  0  0  0  0  # atno 17371 bound_to 10713
  140.4885  134.1217  155.7228 LP  0  0  0  0  0  0  0  0  0  0  0  0  # atno 17394 bound_to 11000
  141.1576  133.8854  157.1936 LP  0  0  0  0  0  0  0  0  0  0  0  0  # atno 17395 bound_to 11000

$$$$
