AV-unprocessed.smi:1485|AV-procd|sdf|6001|dock4
  -GOLD-   22720 6 93D 1   1.00000     0.00000
 Structure written by MMmdl.
 44 45  0  0  0  0  0  0  0  0  1 V2000
  156.5040  138.5315  159.5520 C   0  0  0  0  0  0  0  0  0  0  0  0
  155.8147  139.7555  159.3718 O   0  0  0  0  0  0  0  0  0  0  0  0
  155.2341  140.2382  160.5730 C   0  0  0  0  0  0  0  0  0  0  0  0
  154.1471  139.2587  161.0432 C   0  0  0  0  0  0  0  0  0  0  0  0
  153.2073  138.9328  159.9647 N   0  0  0  0  0  0  0  0  0  0  0  0
  152.7045  140.0423  159.3078 N   0  0  0  0  0  0  0  0  0  0  0  0
  151.8566  139.8995  158.3415 C   0  0  0  0  0  0  0  0  0  0  0  0
  151.2715  141.0720  157.6354 C   0  0  0  0  0  0  0  0  0  0  0  0
  150.6753  140.9579  156.5633 O   0  0  0  0  0  0  0  0  0  0  0  0
  151.4407  142.2513  158.2591 N   0  0  0  0  0  0  0  0  0  0  0  0
  150.9612  143.5507  157.7943 C   0  0  2  0  0  0  0  0  0  0  0  0
  152.0755  144.6136  157.8783 C   0  0  0  0  0  0  0  0  0  0  0  0
  152.4272  144.9684  159.3337 C   0  0  0  0  0  0  0  0  0  0  0  0
  151.1808  145.3999  160.1233 C   0  0  0  0  0  0  0  0  0  0  0  0
  150.0778  144.3256  160.0747 C   0  0  1  0  0  0  0  0  0  0  0  0
  148.8332  144.7608  160.8606 C   0  0  0  0  0  0  0  0  0  0  0  0
  149.7271  143.9803  158.6120 C   0  0  0  0  0  0  0  0  0  0  0  0
  151.4331  138.5773  157.9132 C   0  0  0  0  0  0  0  0  0  0  0  0
  151.9176  137.5037  158.5757 C   0  0  0  0  0  0  0  0  0  0  0  0
  152.8544  137.6400  159.6928 C   0  0  0  0  0  0  0  0  0  0  0  0
  153.2828  136.6799  160.3324 O   0  0  0  0  0  0  0  0  0  0  0  0
  156.9183  138.2021  158.5992 H   0  0  0  0  0  0  0  0  0  0  0  0
  155.8340  137.7512  159.9153 H   0  0  0  0  0  0  0  0  0  0  0  0
  157.3279  138.6434  160.2576 H   0  0  0  0  0  0  0  0  0  0  0  0
  156.0059  140.3197  161.3395 H   0  0  0  0  0  0  0  0  0  0  0  0
  154.8157  141.2353  160.4258 H   0  0  0  0  0  0  0  0  0  0  0  0
  154.6118  138.3474  161.4243 H   0  0  0  0  0  0  0  0  0  0  0  0
  153.6159  139.6850  161.8959 H   0  0  0  0  0  0  0  0  0  0  0  0
  151.9409  142.2450  159.1366 H   0  0  0  0  0  0  0  0  0  0  0  0
  150.6508  143.4540  156.7526 H   0  0  0  0  0  0  0  0  0  0  0  0
  152.9670  144.2733  157.3499 H   0  0  0  0  0  0  0  0  0  0  0  0
  151.7454  145.5164  157.3630 H   0  0  0  0  0  0  0  0  0  0  0  0
  152.8909  144.1100  159.8216 H   0  0  0  0  0  0  0  0  0  0  0  0
  153.1691  145.7671  159.3498 H   0  0  0  0  0  0  0  0  0  0  0  0
  151.4578  145.6033  161.1583 H   0  0  0  0  0  0  0  0  0  0  0  0
  150.8001  146.3376  159.7161 H   0  0  0  0  0  0  0  0  0  0  0  0
  150.4635  143.4255  160.5554 H   0  0  0  0  0  0  0  0  0  0  0  0
  148.3884  145.6602  160.4339 H   0  0  0  0  0  0  0  0  0  0  0  0
  149.0801  144.9725  161.9011 H   0  0  0  0  0  0  0  0  0  0  0  0
  148.0736  143.9785  160.8556 H   0  0  0  0  0  0  0  0  0  0  0  0
  149.2743  144.8518  158.1368 H   0  0  0  0  0  0  0  0  0  0  0  0
  148.9711  143.1943  158.5827 H   0  0  0  0  0  0  0  0  0  0  0  0
  150.7430  138.4487  157.0922 H   0  0  0  0  0  0  0  0  0  0  0  0
  151.6069  136.5149  158.2717 H   0  0  0  0  0  0  0  0  0  0  0  0
  1  2  1  0  0  0  0
  1 22  1  0  0  0  0
  1 23  1  0  0  0  0
  1 24  1  0  0  0  0
  2  3  1  0  0  0  0
  3  4  1  0  0  0  0
  3 25  1  0  0  0  0
  3 26  1  0  0  0  0
  4  5  1  0  0  0  0
  4 27  1  0  0  0  0
  4 28  1  0  0  0  0
  5 20  1  0  0  0  0
  5  6  1  0  0  0  0
  6  7  2  0  0  0  0
  7  8  1  0  0  0  0
  7 18  1  0  0  0  0
  8  9  2  0  0  0  0
  8 10  1  0  0  0  0
 10 11  1  0  0  0  0
 10 29  1  0  0  0  0
 11 17  1  0  0  0  0
 11 12  1  0  0  0  0
 11 30  1  0  0  0  0
 12 13  1  0  0  0  0
 12 31  1  0  0  0  0
 12 32  1  0  0  0  0
 13 14  1  0  0  0  0
 13 33  1  0  0  0  0
 13 34  1  0  0  0  0
 14 15  1  0  0  0  0
 14 35  1  0  0  0  0
 14 36  1  0  0  0  0
 15 16  1  0  0  0  0
 15 17  1  0  0  0  0
 15 37  1  0  0  0  0
 16 38  1  0  0  0  0
 16 39  1  0  0  0  0
 16 40  1  0  0  0  0
 17 41  1  0  0  0  0
 17 42  1  0  0  0  0
 18 19  2  0  0  0  0
 18 43  1  0  0  0  0
 19 20  1  0  0  0  0
 19 44  1  0  0  0  0
 20 21  2  0  0  0  0
M  END
> <s_m_source_file>
AV-unprocessed.smi

> <i_m_source_file_index>
1485

> <i_lp_mmshare_version>
43012

> <i_f3d_flags>
0

> <s_epik_input>
W0NIM11PW0NIMl1bQ0gyXW4xbmMoW2NIXVtjSF1jMT1PKUMoPU8pW05IXVtDQEBIXTJbQ0gyXVtDSDJdW0NIMl1bQ0BASF0oW0NIM10pW0NIMl0y

> <s_epik_cmdline>
J2VwaWtfcHl0aG9uJywgJy1waCcsICc3LjAnLCAnLXRuJywgJzgnLCAnLW1hJywgJzIwMCcsICctbWV0YWxfYmluZGluZycsICctaW1hZScsICc8aW5maWxlLm1hZT4nLCAnLW9tYWUnLCAnPG91dGZpbGUubWFlPic=

> <r_lp_tautomer_probability>
1

> <r_epik_Ionization_Penalty>
6.4688e-07

> <r_epik_Ionization_Penalty_Charging>
6.63567e-09

> <r_epik_Ionization_Penalty_Neutral>
6.40245e-07

> <r_epik_State_Penalty>
-0

> <r_epik_Charging_Adjusted_Penalty>
6.63567e-09

> <i_epik_Tot_Q>
0

> <i_epik_Tot_abs_Q>
0

> <r_epik_Metal_State_Penalty>
-0

> <b_epik_Metal_Only>
0

> <s_lp_Force_Field>
OPLS_2005

> <r_lp_Energy>
29.3151

> <b_lp_Chiralities_Consistent>
1

> <s_lp_Variant>
AV-unprocessed.smi:1485-1

> <Gold.Version>
5.8.1

> <Gold.Id.Protein>
6NUR|6NUR_protein|mol2

> <Gold.PLP.Fitness>
39.2567

> <Gold.PLP.PLP>
-34.0759

> <Gold.PLP.part.hbond>
-1.9539

> <Gold.PLP.part.metal>
0.0000

> <Gold.PLP.part.buried>
-3.9041

> <Gold.PLP.part.nonpolar>
-28.5073

> <Gold.PLP.part.repulsive>
0.1080

> <Gold.PLP.ligand.clash>
0.0000

> <Gold.PLP.ligand.torsion>
0.4102

> <Gold.PLP.Chemscore.Hbond>
1.9913

> <Gold.PLP.Chemscore.CHOScore>
0.0000

> <Gold.PLP.Chemscore.Metal>
0.0000

> <Gold.Chemscore.Hbonds>
donor molecule, donor type, donor heavy atom, donor atom, acceptor molecule, acceptor atom, score
      P1  H  6896  6908       L1    21  0.93
      P1  H  7997  8010       L1     2  0.93

> <Gold.PLP.Chemscore.Internal.Correction>
0.0274

> <Gold.Rescore>
     Score         DG    S(hbond)    S(metal)    S(lipo)     H(rot)  DE(clash)    DE(int)     intcor
     18.78     -19.49       1.98        0.00      97.19       1.55       0.25       0.46       ----

> <Gold.Chemscore.Fitness>
18.7819

> <Gold.Chemscore.DG>
-19.4936

> <Gold.Chemscore.ZeroCoef>
-5.4800

> <Gold.Chemscore.Hbond>
1.9773

> <Gold.Chemscore.Metal>
0.0000

> <Gold.Chemscore.Lipo>
97.1936

> <Gold.Chemscore.Internal_Hbond>
0.0000

> <Gold.Chemscore.DEClash>
0.2540

> <Gold.Chemscore.DEInternal>
0.4577

> <Gold.Chemscore.Rot>
1.5478

> <Gold.Chemscore.Internal.Correction>
   9.000000E+99

> <Gold.Chemscore.Hbonds>
donor molecule, donor type, donor heavy atom, donor atom, acceptor molecule, acceptor atom, score
      P1  H  6896  6908       L1    21  0.69
      P1  H  7997  8010       L1     2  0.57

> <Gold.Chemscore.Hbond.Weighted>
-6.6042

> <Gold.Chemscore.Metal.Weighted>
-0.0000

> <Gold.Chemscore.Lipo.Weighted>
-11.3717

> <Gold.Chemscore.Internal_Hbond.Weighted>
0.0000

> <Gold.Chemscore.DEClash.Weighted>
0.2540

> <Gold.Chemscore.DEInternal.Weighted>
0.4577

> <Gold.Chemscore.Rot.Weighted>
3.9623

> <Gold.Chemscore.Internal.Correction.Weighted>
   9.000000E+99

> <Gold.Protein.RotatedTorsions>
[ 6907 6896 6895 6894 ] final  -88.80 input  -60.11 | X-H torsion
[ 7974 7965 7964 7962 ] final  106.19 input  175.53 | X-H torsion
[ 8008 7997 7996 7995 ] final  -27.91 input   59.86 | X-H torsion
[ 10167 10162 10161 10158 ] final -108.66 input  -65.29 | X-H torsion
[ 10718 10713 10712 10709 ] final  -65.59 input   66.30 | X-H torsion
[ 10763 10752 10751 10750 ] final  -71.68 input  -60.55 | X-H torsion
[ 11005 11000 10999 10996 ] final  -76.39 input  -57.11 | X-H torsion

> <Gold.Protein.ActiveResidues>
 VAL166  LYS551  ARG553  GLY616  TRP617  ASP618  TYR619  PRO620  LYS621  CYS622 
 ASP623  PHE694  ASN695  SER759  ASP760  ASP761  ALA762  ILE779  LEU786  VAL792 
 PHE793  MET794  SER795  GLU796  ALA797  LYS798  CYS799  TRP800  GLU811  SER814 

> <Gold.Protein.RotatedAtoms>
  150.6870  134.2686  159.4578 H   0  0  0  0  0  0  0  0  0  0  0  0  # atno 6907 bound_to 6896
  152.0610  134.9592  160.0584 H   0  0  0  0  0  0  0  0  0  0  0  0  # atno 6908 bound_to 6896
  152.1019  133.4219  159.4628 H   0  0  0  0  0  0  0  0  0  0  0  0  # atno 6909 bound_to 6896
  145.3099  139.2543  143.3768 H   0  0  0  0  0  0  0  0  0  0  0  0  # atno 7974 bound_to 7965
  154.4355  140.1859  156.1007 H   0  0  0  0  0  0  0  0  0  0  0  0  # atno 8008 bound_to 7997
  156.0294  140.3332  155.7098 H   0  0  0  0  0  0  0  0  0  0  0  0  # atno 8009 bound_to 7997
  155.5861  140.0626  157.2761 H   0  0  0  0  0  0  0  0  0  0  0  0  # atno 8010 bound_to 7997
  140.1638  143.4099  152.1406 H   0  0  0  0  0  0  0  0  0  0  0  0  # atno 10167 bound_to 10162
  156.0661  130.4249  150.1586 H   0  0  0  0  0  0  0  0  0  0  0  0  # atno 10718 bound_to 10713
  154.4351  135.5954  153.6093 H   0  0  0  0  0  0  0  0  0  0  0  0  # atno 10763 bound_to 10752
  152.9801  135.5984  154.3792 H   0  0  0  0  0  0  0  0  0  0  0  0  # atno 10764 bound_to 10752
  154.3634  135.2841  155.2285 H   0  0  0  0  0  0  0  0  0  0  0  0  # atno 10765 bound_to 10752
  141.1653  133.6982  156.7662 H   0  0  0  0  0  0  0  0  0  0  0  0  # atno 11005 bound_to 11000
  146.3121  140.3633  142.8667 LP  0  0  0  0  0  0  0  0  0  0  0  0  # atno 17320 bound_to 7965
  144.9024  140.7659  143.5858 LP  0  0  0  0  0  0  0  0  0  0  0  0  # atno 17321 bound_to 7965
  139.5369  144.7218  151.4863 LP  0  0  0  0  0  0  0  0  0  0  0  0  # atno 17342 bound_to 10162
  140.6626  143.8466  150.6905 LP  0  0  0  0  0  0  0  0  0  0  0  0  # atno 17343 bound_to 10162
  156.9646  130.9815  151.3472 LP  0  0  0  0  0  0  0  0  0  0  0  0  # atno 17370 bound_to 10713
  157.5703  130.8306  149.8382 LP  0  0  0  0  0  0  0  0  0  0  0  0  # atno 17371 bound_to 10713
  140.2498  134.8550  157.3656 LP  0  0  0  0  0  0  0  0  0  0  0  0  # atno 17394 bound_to 11000
  140.1714  134.4604  155.7829 LP  0  0  0  0  0  0  0  0  0  0  0  0  # atno 17395 bound_to 11000

$$$$
