AV-unprocessed.smi:258|AV-procd|sdf|1965|dock9
  -GOLD-   2262021113D 1   1.00000     0.00000
 Structure written by MMmdl.
 57 60  0  0  0  0  0  0  0  0  1 V2000
  148.1559  129.9912  152.8646 O   0  0  0  0  0  0  0  0  0  0  0  0
  149.2674  129.4177  153.5196 C   0  0  0  0  0  0  0  0  0  0  0  0
  149.5246  130.1342  154.8508 C   0  0  0  0  0  0  0  0  0  0  0  0
  149.7765  131.5089  154.5963 O   0  0  0  0  0  0  0  0  0  0  0  0
  149.9399  132.3039  155.7636 C   0  0  2  0  0  0  0  0  0  0  0  0
  148.7139  132.1886  156.6932 C   0  0  0  0  0  0  0  0  0  0  0  0
  148.8371  133.1756  157.8650 C   0  0  0  0  0  0  0  0  0  0  0  0
  149.0557  134.6086  157.3541 C   0  0  0  0  0  0  0  0  0  0  0  0
  150.2023  134.6624  156.4518 N   0  0  0  0  0  0  0  0  0  0  0  0
  150.5719  135.9175  156.1238 C   0  0  0  0  0  0  0  0  0  0  0  0
  150.6240  136.2226  154.8042 N   0  0  0  0  0  0  0  0  0  0  0  0
  150.9817  137.4511  154.4172 C   0  0  0  0  0  0  0  0  0  0  0  0
  151.3196  138.4997  155.1714 N   0  0  0  0  0  0  0  0  0  0  0  0
  151.2684  138.1920  156.4993 C   0  0  0  0  0  0  0  0  0  0  0  0
  150.9077  136.9352  157.0605 C   0  0  0  0  0  0  0  0  0  0  0  0
  150.9701  136.9991  158.4475 N   0  0  0  0  0  0  0  0  0  0  0  0
  151.3467  138.2247  158.6926 C   0  0  0  0  0  0  0  0  0  0  0  0
  151.5516  139.0083  157.5790 N   0  0  0  0  0  0  0  0  0  0  0  0
  151.9680  140.3994  157.5554 C   0  0  0  0  0  0  0  0  0  0  0  0
  150.8612  141.3787  158.0195 C   0  0  2  0  0  0  0  0  0  0  0  0
  149.6731  141.4511  157.0297 C   0  0  0  0  0  0  0  0  0  0  0  0
  150.0667  141.9996  155.7885 O   0  0  0  0  0  0  0  0  0  0  0  0
  151.4405  142.7778  158.3483 C   0  0  2  0  0  0  0  0  0  0  0  0
  152.4033  142.8075  159.5225 C   0  0  0  0  0  0  0  0  0  0  0  0
  152.4214  144.2873  159.8902 C   0  0  0  0  0  0  0  0  0  0  0  0
  151.1278  144.7830  159.5630 O   0  0  0  0  0  0  0  0  0  0  0  0
  150.4073  143.8081  158.8155 C   0  0  0  0  0  0  0  0  0  0  0  0
  150.1218  133.7616  155.3051 C   0  0  0  0  0  0  0  0  0  0  0  0
  148.3676  130.0966  151.9496 H   0  0  0  0  0  0  0  0  0  0  0  0
  149.0354  128.3686  153.7045 H   0  0  0  0  0  0  0  0  0  0  0  0
  150.1470  129.4457  152.8759 H   0  0  0  0  0  0  0  0  0  0  0  0
  148.6912  129.9866  155.5381 H   0  0  0  0  0  0  0  0  0  0  0  0
  150.4098  129.7015  155.3191 H   0  0  0  0  0  0  0  0  0  0  0  0
  150.8407  131.9996  156.3002 H   0  0  0  0  0  0  0  0  0  0  0  0
  147.8046  132.4025  156.1299 H   0  0  0  0  0  0  0  0  0  0  0  0
  148.6100  131.1759  157.0812 H   0  0  0  0  0  0  0  0  0  0  0  0
  147.9438  133.1330  158.4884 H   0  0  0  0  0  0  0  0  0  0  0  0
  149.6743  132.8838  158.5004 H   0  0  0  0  0  0  0  0  0  0  0  0
  148.1616  134.9525  156.8324 H   0  0  0  0  0  0  0  0  0  0  0  0
  149.2152  135.2831  158.1966 H   0  0  0  0  0  0  0  0  0  0  0  0
  151.0008  137.6178  153.3503 H   0  0  0  0  0  0  0  0  0  0  0  0
  151.4924  138.5917  159.6983 H   0  0  0  0  0  0  0  0  0  0  0  0
  152.8502  140.4884  158.1897 H   0  0  0  0  0  0  0  0  0  0  0  0
  152.2908  140.6458  156.5432 H   0  0  0  0  0  0  0  0  0  0  0  0
  150.4557  140.9765  158.9491 H   0  0  0  0  0  0  0  0  0  0  0  0
  149.2487  140.4623  156.8556 H   0  0  0  0  0  0  0  0  0  0  0  0
  148.8627  142.0548  157.4377 H   0  0  0  0  0  0  0  0  0  0  0  0
  149.8341  142.9155  155.7778 H   0  0  0  0  0  0  0  0  0  0  0  0
  151.9565  143.1760  157.4731 H   0  0  0  0  0  0  0  0  0  0  0  0
  152.0095  142.2215  160.3543 H   0  0  0  0  0  0  0  0  0  0  0  0
  153.3958  142.4284  159.2776 H   0  0  0  0  0  0  0  0  0  0  0  0
  152.6589  144.4520  160.9414 H   0  0  0  0  0  0  0  0  0  0  0  0
  153.1591  144.8198  159.2886 H   0  0  0  0  0  0  0  0  0  0  0  0
  149.8723  144.2700  157.9852 H   0  0  0  0  0  0  0  0  0  0  0  0
  149.6715  143.3470  159.4758 H   0  0  0  0  0  0  0  0  0  0  0  0
  151.0268  133.8497  154.7021 H   0  0  0  0  0  0  0  0  0  0  0  0
  149.2849  134.0547  154.6698 H   0  0  0  0  0  0  0  0  0  0  0  0
  1  2  1  0  0  0  0
  1 29  1  0  0  0  0
  2  3  1  0  0  0  0
  2 30  1  0  0  0  0
  2 31  1  0  0  0  0
  3  4  1  0  0  0  0
  3 32  1  0  0  0  0
  3 33  1  0  0  0  0
  4  5  1  0  0  0  0
  5 28  1  0  0  0  0
  5  6  1  0  0  0  0
  5 34  1  0  0  0  0
  6  7  1  0  0  0  0
  6 35  1  0  0  0  0
  6 36  1  0  0  0  0
  7  8  1  0  0  0  0
  7 37  1  0  0  0  0
  7 38  1  0  0  0  0
  8  9  1  0  0  0  0
  8 39  1  0  0  0  0
  8 40  1  0  0  0  0
  9 10  1  0  0  0  0
  9 28  1  0  0  0  0
 10 15  1  0  0  0  0
 10 11  2  0  0  0  0
 11 12  1  0  0  0  0
 12 13  2  0  0  0  0
 12 41  1  0  0  0  0
 13 14  1  0  0  0  0
 14 18  1  0  0  0  0
 14 15  2  0  0  0  0
 15 16  1  0  0  0  0
 16 17  2  0  0  0  0
 17 18  1  0  0  0  0
 17 42  1  0  0  0  0
 18 19  1  0  0  0  0
 19 20  1  0  0  0  0
 19 43  1  0  0  0  0
 19 44  1  0  0  0  0
 20 21  1  0  0  0  0
 20 23  1  0  0  0  0
 20 45  1  0  0  0  0
 21 22  1  0  0  0  0
 21 46  1  0  0  0  0
 21 47  1  0  0  0  0
 22 48  1  0  0  0  0
 23 27  1  0  0  0  0
 23 24  1  0  0  0  0
 23 49  1  0  0  0  0
 24 25  1  0  0  0  0
 24 50  1  0  0  0  0
 24 51  1  0  0  0  0
 25 26  1  0  0  0  0
 25 52  1  0  0  0  0
 25 53  1  0  0  0  0
 26 27  1  0  0  0  0
 27 54  1  0  0  0  0
 27 55  1  0  0  0  0
 28 56  1  0  0  0  0
 28 57  1  0  0  0  0
M  END
> <s_m_source_file>
AV-unprocessed.smi

> <i_m_source_file_index>
258

> <i_lp_mmshare_version>
43012

> <i_f3d_flags>
0

> <s_epik_input>
W09IXVtDSDJdW0NIMl1PW0NAQEhdMVtDSDJdW0NIMl1bQ0gyXU4oW0NIMl0xKWMobltjSF1uMiljKGMyMyluW2NIXW4zW0NIMl1bQ0BIXShbQ0gyXVtPSF0pW0NAQEhdNFtDSDJdW0NIMl1PW0NIMl00

> <s_epik_cmdline>
J2VwaWtfcHl0aG9uJywgJy1waCcsICc3LjAnLCAnLXRuJywgJzgnLCAnLW1hJywgJzIwMCcsICctbWV0YWxfYmluZGluZycsICctaW1hZScsICc8aW5maWxlLm1hZT4nLCAnLW9tYWUnLCAnPG91dGZpbGUubWFlPic=

> <r_lp_tautomer_probability>
1

> <r_epik_Ionization_Penalty>
0.00349036

> <r_epik_Ionization_Penalty_Charging>
0

> <r_epik_Ionization_Penalty_Neutral>
0.00349036

> <r_epik_State_Penalty>
0.00229798

> <r_epik_Charging_Adjusted_Penalty>
0.00229798

> <i_epik_Tot_Q>
0

> <i_epik_Tot_abs_Q>
0

> <r_epik_Metal_State_Penalty>
-0

> <b_epik_Metal_Only>
0

> <s_lp_Force_Field>
OPLS_2005

> <r_lp_Energy>
47.3811

> <b_lp_Chiralities_Consistent>
1

> <s_lp_Variant>
AV-unprocessed.smi:258-1

> <Gold.Version>
5.8.1

> <Gold.Id.Protein>
6NUR|6NUR_protein|mol2

> <Gold.PLP.Fitness>
47.0050

> <Gold.PLP.PLP>
-37.7009

> <Gold.PLP.part.hbond>
-2.3192

> <Gold.PLP.part.metal>
0.0000

> <Gold.PLP.part.buried>
-8.9654

> <Gold.PLP.part.nonpolar>
-27.0955

> <Gold.PLP.part.repulsive>
0.3705

> <Gold.PLP.ligand.clash>
0.0000

> <Gold.PLP.ligand.torsion>
0.3876

> <Gold.PLP.Chemscore.Hbond>
2.1691

> <Gold.PLP.Chemscore.CHOScore>
1.0555

> <Gold.PLP.Chemscore.Metal>
0.0000

> <Gold.Chemscore.Hbonds>
donor molecule, donor type, donor heavy atom, donor atom, acceptor molecule, acceptor atom, score
      L1  H     1    29       P1 10747  1.00
      L1  H    22    48       P1  8028  0.98
      P1  H  6896  6909       L1    16  0.13
      L1  C    12    41       P1  7948  0.05
      L1  C    12    41       P1  7949  1.00

> <Gold.PLP.Chemscore.Internal.Correction>
0.4055

> <Gold.Rescore>
     Score         DG    S(hbond)    S(metal)    S(lipo)     H(rot)  DE(clash)    DE(int)     intcor
     12.15     -12.49       2.43        0.00      82.85       4.22       0.00       0.33       ----

> <Gold.Chemscore.Fitness>
12.1542

> <Gold.Chemscore.DG>
-12.4911

> <Gold.Chemscore.ZeroCoef>
-5.4800

> <Gold.Chemscore.Hbond>
2.4347

> <Gold.Chemscore.Metal>
0.0000

> <Gold.Chemscore.Lipo>
82.8544

> <Gold.Chemscore.Internal_Hbond>
0.0000

> <Gold.Chemscore.DEClash>
0.0048

> <Gold.Chemscore.DEInternal>
0.3321

> <Gold.Chemscore.Rot>
4.2246

> <Gold.Chemscore.Internal.Correction>
   9.000000E+99

> <Gold.Chemscore.Hbonds>
donor molecule, donor type, donor heavy atom, donor atom, acceptor molecule, acceptor atom, score
      L1  H     1    29       P1 10747  0.74
      L1  H    22    48       P1  8028  0.91
      P1  H  6896  6909       L1    16  0.14

> <Gold.Chemscore.Hbond.Weighted>
-8.1320

> <Gold.Chemscore.Metal.Weighted>
-0.0000

> <Gold.Chemscore.Lipo.Weighted>
-9.6940

> <Gold.Chemscore.Internal_Hbond.Weighted>
0.0000

> <Gold.Chemscore.DEClash.Weighted>
0.0048

> <Gold.Chemscore.DEInternal.Weighted>
0.3321

> <Gold.Chemscore.Rot.Weighted>
10.8149

> <Gold.Chemscore.Internal.Correction.Weighted>
   9.000000E+99

> <Gold.Protein.RotatedTorsions>
[ 6907 6896 6895 6894 ] final   98.48 input  -60.11 | X-H torsion
[ 7974 7965 7964 7962 ] final   -3.28 input  175.53 | X-H torsion
[ 8008 7997 7996 7995 ] final -160.74 input   59.86 | X-H torsion
[ 10167 10162 10161 10158 ] final   24.56 input  -65.29 | X-H torsion
[ 10718 10713 10712 10709 ] final   87.91 input   66.30 | X-H torsion
[ 10763 10752 10751 10750 ] final   72.46 input  -60.55 | X-H torsion
[ 11005 11000 10999 10996 ] final -144.29 input  -57.11 | X-H torsion

> <Gold.Protein.ActiveResidues>
 VAL166  LYS551  ARG553  GLY616  TRP617  ASP618  TYR619  PRO620  LYS621  CYS622 
 ASP623  PHE694  ASN695  SER759  ASP760  ASP761  ALA762  ILE779  LEU786  VAL792 
 PHE793  MET794  SER795  GLU796  ALA797  LYS798  CYS799  TRP800  GLU811  SER814 

> <Gold.Protein.RotatedAtoms>
  152.5408  134.0574  159.8136 H   0  0  0  0  0  0  0  0  0  0  0  0  # atno 6907 bound_to 6896
  151.0707  133.5461  159.2634 H   0  0  0  0  0  0  0  0  0  0  0  0  # atno 6908 bound_to 6896
  151.2325  135.0568  159.9047 H   0  0  0  0  0  0  0  0  0  0  0  0  # atno 6909 bound_to 6896
  146.2392  140.1698  142.8332 H   0  0  0  0  0  0  0  0  0  0  0  0  # atno 7974 bound_to 7965
  155.7819  140.0866  157.2054 H   0  0  0  0  0  0  0  0  0  0  0  0  # atno 8008 bound_to 7997
  154.3990  140.1506  156.3120 H   0  0  0  0  0  0  0  0  0  0  0  0  # atno 8009 bound_to 7997
  155.8645  140.3428  155.5781 H   0  0  0  0  0  0  0  0  0  0  0  0  # atno 8010 bound_to 7997
  140.5178  144.0053  150.6402 H   0  0  0  0  0  0  0  0  0  0  0  0  # atno 10167 bound_to 10162
  157.6944  131.0274  150.3194 H   0  0  0  0  0  0  0  0  0  0  0  0  # atno 10718 bound_to 10713
  153.0460  135.5099  154.7748 H   0  0  0  0  0  0  0  0  0  0  0  0  # atno 10763 bound_to 10752
  154.6647  135.2944  154.9823 H   0  0  0  0  0  0  0  0  0  0  0  0  # atno 10764 bound_to 10752
  154.0662  135.6684  153.4871 H   0  0  0  0  0  0  0  0  0  0  0  0  # atno 10765 bound_to 10752
  140.8039  134.2824  157.4968 H   0  0  0  0  0  0  0  0  0  0  0  0  # atno 11005 bound_to 11000
  145.0021  140.8641  143.5275 LP  0  0  0  0  0  0  0  0  0  0  0  0  # atno 17320 bound_to 7965
  145.1719  139.2399  143.5337 LP  0  0  0  0  0  0  0  0  0  0  0  0  # atno 17321 bound_to 7965
  140.3394  143.3029  152.0604 LP  0  0  0  0  0  0  0  0  0  0  0  0  # atno 17342 bound_to 10162
  139.4914  144.6453  151.6791 LP  0  0  0  0  0  0  0  0  0  0  0  0  # atno 17343 bound_to 10162
  156.3684  130.3859  149.7195 LP  0  0  0  0  0  0  0  0  0  0  0  0  # atno 17370 bound_to 10713
  156.4618  130.7955  151.2975 LP  0  0  0  0  0  0  0  0  0  0  0  0  # atno 17371 bound_to 10713
  139.8719  134.9445  156.3883 LP  0  0  0  0  0  0  0  0  0  0  0  0  # atno 17394 bound_to 11000
  140.9267  133.7608  155.9973 LP  0  0  0  0  0  0  0  0  0  0  0  0  # atno 17395 bound_to 11000

$$$$
