AV-unprocessed.smi:1525|AV-procd|sdf|6141|dock3
  -GOLD-   22720 6283D 1   1.00000     0.00000
 Structure written by MMmdl.
 48 50  0  0  0  0  0  0  0  0  1 V2000
  150.1243  134.2633  155.6878 O   0  0  0  0  0  0  0  0  0  0  0  0
  149.7012  134.8197  154.6747 C   0  0  0  0  0  0  0  0  0  0  0  0
  149.8417  136.1313  154.4346 N   0  0  0  0  0  0  0  0  0  0  0  0
  150.4665  137.0926  155.3379 C   0  0  0  0  0  0  0  0  0  0  0  0
  151.3277  138.1152  154.5703 C   0  0  0  0  0  0  0  0  0  0  0  0
  150.8710  139.5034  154.6400 N   0  0  0  0  0  0  0  0  0  0  0  0
  149.4373  139.6396  154.3933 C   0  0  0  0  0  0  0  0  0  0  0  0
  148.9823  141.1070  154.4726 C   0  0  0  0  0  0  0  0  0  0  0  0
  149.3318  141.6477  155.7429 O   0  0  0  0  0  0  0  0  0  0  0  0
  150.7289  141.5696  156.0076 C   0  0  0  0  0  0  0  0  0  0  0  0
  151.1870  140.1026  155.9314 C   0  0  0  0  0  0  0  0  0  0  0  0
  149.0277  134.2171  153.6804 N   0  0  0  0  0  0  0  0  0  0  0  0
  148.5943  132.8629  153.5906 C   0  0  0  0  0  0  0  0  0  0  0  0
  149.2185  131.8237  154.3244 C   0  0  0  0  0  0  0  0  0  0  0  0
  148.7288  130.5110  154.2157 C   0  0  0  0  0  0  0  0  0  0  0  0
  147.6310  130.2793  153.3713 C   0  0  0  0  0  0  0  0  0  0  0  0
  147.0396  131.2515  152.6492 N   0  0  0  0  0  0  0  0  0  0  0  0
  147.5097  132.5206  152.7319 C   0  0  0  0  0  0  0  0  0  0  0  0
  146.8646  133.4926  151.9328 N   0  0  0  0  0  0  0  0  0  0  0  0
  146.0803  133.0293  150.7921 C   0  0  0  0  0  0  0  0  0  0  0  0
  144.8602  133.9521  150.7011 C   0  0  0  0  0  0  0  0  0  0  0  0
  145.2992  135.2048  151.4524 C   0  0  0  0  0  0  0  0  0  0  0  0
  146.1896  134.6298  152.5499 C   0  0  0  0  0  0  0  0  0  0  0  0
  149.4601  136.4994  153.5758 H   0  0  0  0  0  0  0  0  0  0  0  0
  149.7278  137.5786  155.9759 H   0  0  0  0  0  0  0  0  0  0  0  0
  151.1100  136.5281  156.0129 H   0  0  0  0  0  0  0  0  0  0  0  0
  152.3567  138.0553  154.9277 H   0  0  0  0  0  0  0  0  0  0  0  0
  151.3603  137.8025  153.5256 H   0  0  0  0  0  0  0  0  0  0  0  0
  149.1796  139.2486  153.4100 H   0  0  0  0  0  0  0  0  0  0  0  0
  148.8781  139.0482  155.1200 H   0  0  0  0  0  0  0  0  0  0  0  0
  149.4434  141.6965  153.6784 H   0  0  0  0  0  0  0  0  0  0  0  0
  147.9028  141.1776  154.3388 H   0  0  0  0  0  0  0  0  0  0  0  0
  151.2770  142.1827  155.2905 H   0  0  0  0  0  0  0  0  0  0  0  0
  150.9280  141.9789  156.9981 H   0  0  0  0  0  0  0  0  0  0  0  0
  150.7104  139.5331  156.7308 H   0  0  0  0  0  0  0  0  0  0  0  0
  152.2617  140.0531  156.1099 H   0  0  0  0  0  0  0  0  0  0  0  0
  148.6796  134.8257  152.9543 H   0  0  0  0  0  0  0  0  0  0  0  0
  150.0682  132.0065  154.9635 H   0  0  0  0  0  0  0  0  0  0  0  0
  149.1830  129.7024  154.7693 H   0  0  0  0  0  0  0  0  0  0  0  0
  147.2211  129.2859  153.2656 H   0  0  0  0  0  0  0  0  0  0  0  0
  146.6843  133.1249  149.8897 H   0  0  0  0  0  0  0  0  0  0  0  0
  145.7835  131.9845  150.8928 H   0  0  0  0  0  0  0  0  0  0  0  0
  144.5580  134.1549  149.6736 H   0  0  0  0  0  0  0  0  0  0  0  0
  144.0147  133.4948  151.2168 H   0  0  0  0  0  0  0  0  0  0  0  0
  145.8846  135.8483  150.7943 H   0  0  0  0  0  0  0  0  0  0  0  0
  144.4635  135.7861  151.8431 H   0  0  0  0  0  0  0  0  0  0  0  0
  145.5682  134.3074  153.3864 H   0  0  0  0  0  0  0  0  0  0  0  0
  146.9059  135.3652  152.9168 H   0  0  0  0  0  0  0  0  0  0  0  0
  1  2  2  0  0  0  0
  2  3  1  0  0  0  0
  2 12  1  0  0  0  0
  3  4  1  0  0  0  0
  3 24  1  0  0  0  0
  4  5  1  0  0  0  0
  4 25  1  0  0  0  0
  4 26  1  0  0  0  0
  5  6  1  0  0  0  0
  5 27  1  0  0  0  0
  5 28  1  0  0  0  0
  6 11  1  0  0  0  0
  6  7  1  0  0  0  0
  7  8  1  0  0  0  0
  7 29  1  0  0  0  0
  7 30  1  0  0  0  0
  8  9  1  0  0  0  0
  8 31  1  0  0  0  0
  8 32  1  0  0  0  0
  9 10  1  0  0  0  0
 10 11  1  0  0  0  0
 10 33  1  0  0  0  0
 10 34  1  0  0  0  0
 11 35  1  0  0  0  0
 11 36  1  0  0  0  0
 12 13  1  0  0  0  0
 12 37  1  0  0  0  0
 13 18  1  0  0  0  0
 13 14  2  0  0  0  0
 14 15  1  0  0  0  0
 14 38  1  0  0  0  0
 15 16  2  0  0  0  0
 15 39  1  0  0  0  0
 16 17  1  0  0  0  0
 16 40  1  0  0  0  0
 17 18  2  0  0  0  0
 18 19  1  0  0  0  0
 19 23  1  0  0  0  0
 19 20  1  0  0  0  0
 20 21  1  0  0  0  0
 20 41  1  0  0  0  0
 20 42  1  0  0  0  0
 21 22  1  0  0  0  0
 21 43  1  0  0  0  0
 21 44  1  0  0  0  0
 22 23  1  0  0  0  0
 22 45  1  0  0  0  0
 22 46  1  0  0  0  0
 23 47  1  0  0  0  0
 23 48  1  0  0  0  0
M  END
> <s_m_source_file>
AV-unprocessed.smi

> <i_m_source_file_index>
1525

> <i_lp_mmshare_version>
43012

> <i_f3d_flags>
0

> <s_epik_input>
W0NIMl0xW0NIMl1PW0NIMl1bQ0gyXU4xW0NIMl1bQ0gyXVtOSF1DKD1PKVtOSF1jMltjSF1bY0hdW2NIXW5jMk4zW0NIMl1bQ0gyXVtDSDJdW0NIMl0z

> <s_epik_cmdline>
J2VwaWtfcHl0aG9uJywgJy1waCcsICc3LjAnLCAnLXRuJywgJzgnLCAnLW1hJywgJzIwMCcsICctbWV0YWxfYmluZGluZycsICctaW1hZScsICc8aW5maWxlLm1hZT4nLCAnLW9tYWUnLCAnPG91dGZpbGUubWFlPic=

> <r_lp_tautomer_probability>
1

> <r_epik_Ionization_Penalty>
0.363951

> <r_epik_Ionization_Penalty_Charging>
0

> <r_epik_Ionization_Penalty_Neutral>
0.363951

> <r_epik_State_Penalty>
0.349372

> <r_epik_Charging_Adjusted_Penalty>
0.349372

> <i_epik_Tot_Q>
0

> <i_epik_Tot_abs_Q>
0

> <r_epik_Metal_State_Penalty>
0.33306

> <b_epik_Metal_Only>
0

> <s_lp_Force_Field>
OPLS_2005

> <r_lp_Energy>
53.9404

> <b_lp_Chiralities_Consistent>
1

> <s_lp_Variant>
AV-unprocessed.smi:1525-1

> <Gold.Version>
5.8.1

> <Gold.Id.Protein>
6NUR|6NUR_protein|mol2

> <Gold.PLP.Fitness>
48.9228

> <Gold.PLP.PLP>
-41.5686

> <Gold.PLP.part.hbond>
-3.3985

> <Gold.PLP.part.metal>
0.0000

> <Gold.PLP.part.buried>
-4.2251

> <Gold.PLP.part.nonpolar>
-34.8780

> <Gold.PLP.part.repulsive>
0.8671

> <Gold.PLP.ligand.clash>
0.0000

> <Gold.PLP.ligand.torsion>
1.0080

> <Gold.PLP.Chemscore.Hbond>
2.9920

> <Gold.PLP.Chemscore.CHOScore>
0.0000

> <Gold.PLP.Chemscore.Metal>
0.0000

> <Gold.Chemscore.Hbonds>
donor molecule, donor type, donor heavy atom, donor atom, acceptor molecule, acceptor atom, score
      L1  H     3    24       P1  7948  0.98
      L1  H    12    37       P1  7948  0.96
      P1  H  7989  7998       L1     6  0.95

> <Gold.PLP.Chemscore.Internal.Correction>
0.3942

> <Gold.Rescore>
     Score         DG    S(hbond)    S(metal)    S(lipo)     H(rot)  DE(clash)    DE(int)     intcor
     12.76     -15.90       1.55        0.00      79.75       1.60       0.13       3.00       ----

> <Gold.Chemscore.Fitness>
12.7592

> <Gold.Chemscore.DG>
-15.8958

> <Gold.Chemscore.ZeroCoef>
-5.4800

> <Gold.Chemscore.Hbond>
1.5511

> <Gold.Chemscore.Metal>
0.0000

> <Gold.Chemscore.Lipo>
79.7498

> <Gold.Chemscore.Internal_Hbond>
0.0000

> <Gold.Chemscore.DEClash>
0.1337

> <Gold.Chemscore.DEInternal>
3.0029

> <Gold.Chemscore.Rot>
1.5998

> <Gold.Chemscore.Internal.Correction>
   9.000000E+99

> <Gold.Chemscore.Hbonds>
donor molecule, donor type, donor heavy atom, donor atom, acceptor molecule, acceptor atom, score
      L1  H     3    24       P1  7948  0.72
      L1  H    12    37       P1  7948  0.24
      P1  H  7989  7998       L1     6  0.08

> <Gold.Chemscore.Hbond.Weighted>
-5.1807

> <Gold.Chemscore.Metal.Weighted>
-0.0000

> <Gold.Chemscore.Lipo.Weighted>
-9.3307

> <Gold.Chemscore.Internal_Hbond.Weighted>
0.0000

> <Gold.Chemscore.DEClash.Weighted>
0.1337

> <Gold.Chemscore.DEInternal.Weighted>
3.0029

> <Gold.Chemscore.Rot.Weighted>
4.0956

> <Gold.Chemscore.Internal.Correction.Weighted>
   9.000000E+99

> <Gold.Protein.RotatedTorsions>
[ 6907 6896 6895 6894 ] final    7.17 input  -60.11 | X-H torsion
[ 7974 7965 7964 7962 ] final  143.18 input  175.53 | X-H torsion
[ 8008 7997 7996 7995 ] final  -70.71 input   59.86 | X-H torsion
[ 10167 10162 10161 10158 ] final   -6.14 input  -65.29 | X-H torsion
[ 10718 10713 10712 10709 ] final   13.51 input   66.30 | X-H torsion
[ 10763 10752 10751 10750 ] final   96.90 input  -60.55 | X-H torsion
[ 11005 11000 10999 10996 ] final  -64.91 input  -57.11 | X-H torsion

> <Gold.Protein.ActiveResidues>
 VAL166  LYS551  ARG553  GLY616  TRP617  ASP618  TYR619  PRO620  LYS621  CYS622 
 ASP623  PHE694  ASN695  SER759  ASP760  ASP761  ALA762  ILE779  LEU786  VAL792 
 PHE793  MET794  SER795  GLU796  ALA797  LYS798  CYS799  TRP800  GLU811  SER814 

> <Gold.Protein.RotatedAtoms>
  151.6856  135.0955  160.0223 H   0  0  0  0  0  0  0  0  0  0  0  0  # atno 6907 bound_to 6896
  152.3809  133.6541  159.6169 H   0  0  0  0  0  0  0  0  0  0  0  0  # atno 6908 bound_to 6896
  150.7746  133.9031  159.3388 H   0  0  0  0  0  0  0  0  0  0  0  0  # atno 6909 bound_to 6896
  144.8943  139.5514  143.5784 H   0  0  0  0  0  0  0  0  0  0  0  0  # atno 7974 bound_to 7965
  154.5032  140.0829  156.7841 H   0  0  0  0  0  0  0  0  0  0  0  0  # atno 8008 bound_to 7997
  155.3954  140.3434  155.4235 H   0  0  0  0  0  0  0  0  0  0  0  0  # atno 8009 bound_to 7997
  156.1483  140.1550  156.8799 H   0  0  0  0  0  0  0  0  0  0  0  0  # atno 8010 bound_to 7997
  140.6987  143.6227  150.8597 H   0  0  0  0  0  0  0  0  0  0  0  0  # atno 10167 bound_to 10162
  157.0257  130.6172  149.5727 H   0  0  0  0  0  0  0  0  0  0  0  0  # atno 10718 bound_to 10713
  153.2705  135.4202  155.0983 H   0  0  0  0  0  0  0  0  0  0  0  0  # atno 10763 bound_to 10752
  154.8454  135.3471  154.6251 H   0  0  0  0  0  0  0  0  0  0  0  0  # atno 10764 bound_to 10752
  153.6671  135.7045  153.5216 H   0  0  0  0  0  0  0  0  0  0  0  0  # atno 10765 bound_to 10752
  141.1439  133.6673  156.5906 H   0  0  0  0  0  0  0  0  0  0  0  0  # atno 11005 bound_to 11000
  146.3072  139.7620  142.9047 LP  0  0  0  0  0  0  0  0  0  0  0  0  # atno 17320 bound_to 7965
  145.3728  141.0345  143.3221 LP  0  0  0  0  0  0  0  0  0  0  0  0  # atno 17321 bound_to 7965
  139.9948  143.5808  152.2897 LP  0  0  0  0  0  0  0  0  0  0  0  0  # atno 17342 bound_to 10162
  139.6476  144.7659  151.2212 LP  0  0  0  0  0  0  0  0  0  0  0  0  # atno 17343 bound_to 10162
  156.0087  130.5176  150.7916 LP  0  0  0  0  0  0  0  0  0  0  0  0  # atno 17370 bound_to 10713
  157.5216  131.0932  151.0071 LP  0  0  0  0  0  0  0  0  0  0  0  0  # atno 17371 bound_to 10713
  140.3766  134.7559  157.4634 LP  0  0  0  0  0  0  0  0  0  0  0  0  # atno 17394 bound_to 11000
  140.0669  134.5916  155.8685 LP  0  0  0  0  0  0  0  0  0  0  0  0  # atno 17395 bound_to 11000

$$$$
