#       Name:                AV-unprocessed.smi:305
#       Creating user name   scv26
#       Creation time:       Thu Mar 26 22:18:03 2020


#       File generated by GOLD software.
#

@<TRIPOS>MOLECULE
AV-unprocessed.smi:305
    55    57     1
SMALL
NO_CHARGES


@<TRIPOS>ATOM
      1 ****        -5.3130   1.9124  -1.2773 C.3            1 S1                 0.0000
      2 ****        -3.8011   2.1323  -1.3632 C.3            1 S1                 0.0000
      3 ****        -3.1457   0.8843  -1.2160 O.3            1 S1                 0.0000
      4 ****        -1.7345   0.9975  -1.2881 C.3            1 S1                 0.0000
      5 ****        -1.1160  -0.3945  -1.1065 C.3            1 S1                 0.0000
      6 ****         0.3421  -0.3444  -1.1147 N.pl3          1 S1                 0.0000
      7 ****         1.1759  -0.3158  -0.0440 C.2            1 S1                 0.0000
      8 ****         0.6783  -0.3273   1.2763 N.pl3          1 S1                 0.0000
      9 ****         0.0032   0.7384   1.7541 N.2            1 S1                 0.0000
     10 ****        -0.3143   0.4115   2.9950 C.2            1 S1                 0.0000
     11 ****        -1.0960   1.3837   3.8308 C.3            1 S1                 0.0000
     12 ****         0.1685  -0.8797   3.3575 C.2            1 S1                 0.0000
     13 ****         0.0093  -1.5801   4.6788 C.3            1 S1                 0.0000
     14 ****         0.7989  -1.3242   2.2265 C.2            1 S1                 0.0000
     15 ****         1.5065  -2.6120   1.9496 C.3            1 S1                 0.0000
     16 ****         2.4764  -0.2934  -0.3419 N.2            1 S1                 0.0000
     17 ****         2.4688  -0.2934  -1.7299 C.2            1 S1                 0.0000
     18 ****         1.1989  -0.3220  -2.2177 C.2            1 S1                 0.0000
     19 ****         0.8678  -0.3276  -3.6585 C.2            1 S1                 0.0000
     20 ****        -0.3006  -0.3487  -4.0403 O.2            1 S1                 0.0000
     21 ****         1.9900  -0.3045  -4.4455 N.pl3          1 S1                -1.0000
     22 ****         3.2936  -0.2757  -3.9974 C.2            1 S1                 0.0000
     23 ****         4.2481  -0.2543  -4.7757 O.2            1 S1                 0.0000
     24 ****         3.5515  -0.2700  -2.6513 N.am           1 S1                 0.0000
     25 ****         4.9270  -0.2364  -2.1469 C.3            1 S1                 0.0000
     26 ****        -5.8502   2.8550  -1.3836 H              1 S1                 0.0000
     27 ****        -5.5909   1.4745  -0.3185 H              1 S1                 0.0000
     28 ****        -5.6555   1.2411  -2.0651 H              1 S1                 0.0000
     29 ****        -3.5446   2.5814  -2.3239 H              1 S1                 0.0000
     30 ****        -3.4807   2.8205  -0.5796 H              1 S1                 0.0000
     31 ****        -1.4416   1.4212  -2.2496 H              1 S1                 0.0000
     32 ****        -1.3767   1.6739  -0.5109 H              1 S1                 0.0000
     33 ****        -1.4568  -0.8349  -0.1693 H              1 S1                 0.0000
     34 ****        -1.4555  -1.0736  -1.8879 H              1 S1                 0.0000
     35 ****        -1.7779   0.8641   4.5041 H              1 S1                 0.0000
     36 ****        -1.6939   2.0540   3.2121 H              1 S1                 0.0000
     37 ****        -0.4305   1.9963   4.4389 H              1 S1                 0.0000
     38 ****         0.8726  -2.2018   4.9161 H              1 S1                 0.0000
     39 ****        -0.8672  -2.2282   4.6854 H              1 S1                 0.0000
     40 ****        -0.1068  -0.8743   5.5013 H              1 S1                 0.0000
     41 ****         1.2988  -3.3507   2.7235 H              1 S1                 0.0000
     42 ****         2.5850  -2.4589   1.9105 H              1 S1                 0.0000
     43 ****         1.1894  -3.0341   0.9955 H              1 S1                 0.0000
     44 ****         5.4323   0.6714  -2.4799 H              1 S1                 0.0000
     45 ****         5.4908  -1.0954  -2.5138 H              1 S1                 0.0000
     46 ****         4.9769  -0.2568  -1.0585 H              1 S1                 0.0000
     47 ****        -3.4555   0.2721  -1.9436 LP             1 S1                 0.0000
     48 ****        -3.3909   0.4967  -0.3274 LP             1 S1                 0.0000
     49 ****        -0.2104   1.5895   1.2745 LP             1 S1                 0.0000
     50 ****         3.2600  -0.2800   0.2791 LP             1 S1                 0.0000
     51 ****        -1.0447  -0.3624  -3.3724 LP             1 S1                 0.0000
     52 ****        -0.5069  -0.3522  -5.0188 LP             1 S1                 0.0000
     53 ****         1.8503  -0.3090  -5.4357 LP             1 S1                 0.0000
     54 ****         4.0885  -0.2576  -5.7629 LP             1 S1                 0.0000
     55 ****         5.1826  -0.2337  -4.4204 LP             1 S1                 0.0000
@<TRIPOS>BOND
    1    1    2 1     
    2    1   26 1     
    3    1   27 1     
    4    1   28 1     
    5    2    3 1     
    6    2   29 1     
    7    2   30 1     
    8    3    4 1     
    9    4    5 1     
   10    4   31 1     
   11    4   32 1     
   12    5    6 1     
   13    5   33 1     
   14    5   34 1     
   15    6   18 1     
   16    6    7 1     
   17    7    8 1     
   18    7   16 2     
   19    8   14 1     
   20    8    9 1     
   21    9   10 2     
   22   10   11 1     
   23   10   12 1     
   24   11   35 1     
   25   11   36 1     
   26   11   37 1     
   27   12   13 1     
   28   12   14 2     
   29   13   38 1     
   30   13   39 1     
   31   13   40 1     
   32   14   15 1     
   33   15   41 1     
   34   15   42 1     
   35   15   43 1     
   36   16   17 1     
   37   17   24 1     
   38   17   18 2     
   39   18   19 1     
   40   19   20 2     
   41   19   21 1     
   42   21   22 1     
   43   22   23 2     
   44   22   24 am    
   45   24   25 1     
   46   25   44 1     
   47   25   45 1     
   48   25   46 1     
   49    3   47 1     
   50    3   48 1     
   51    9   49 1     
   52   16   50 1     
   53   20   51 1     
   54   20   52 1     
   55   21   53 1     
   56   23   54 1     
   57   23   55 1     
@<TRIPOS>SUBSTRUCTURE
      1 S1             1
@<TRIPOS>SET
LONE_PAIRS      STATIC     ATOMS    <user>   **** ""
9 47 48 49 50 51 52 53 54 55
ATOM$BLUE        STATIC     ATOMS    COLORGROUP SYSTEM
9 47 48 49 50 51 52 53 54 55
