AV-unprocessed.smi:1961|AV-procd|sdf|7921|dock8
  -GOLD-   2272010 93D 1   1.00000     0.00000
 Structure written by MMmdl.
 35 36  0  0  0  0  0  0  0  0  2 V2000
  152.2679  143.5039  161.8430 C   0  0  0  0  0  0  0  0  0  0  0  0
  152.3232  144.1013  160.4295 C   0  0  0  0  0  0  0  0  0  0  0  0
  151.4314  145.3402  160.2625 C   0  0  0  0  0  0  0  0  0  0  0  0
  152.0651  143.0737  159.3721 C   0  0  0  0  0  0  0  0  0  0  0  0
  151.0928  143.1896  158.4620 N   0  0  0  0  0  0  0  0  0  0  0  0
  151.0577  142.1102  157.5916 N   0  0  0  0  0  0  0  0  0  0  0  0
  152.0057  141.1977  157.8468 C   0  0  0  0  0  0  0  0  0  0  0  0
  152.1408  140.0756  157.1208 N   0  5  0  0  0  0  0  0  0  0  0  0
  151.4846  139.9484  155.9448 C   0  0  0  0  0  0  0  0  0  0  0  0
  151.9984  139.8161  154.8313 O   0  0  0  0  0  0  0  0  0  0  0  0
  150.1509  139.9730  156.0637 N   0  0  0  0  0  0  0  0  0  0  0  0
  149.2104  139.8450  154.9588 C   0  0  0  0  0  0  0  0  0  0  0  0
  148.3937  141.1332  154.7871 C   0  0  1  0  0  0  0  0  0  0  0  0
  147.1551  140.9600  153.9096 C   0  0  0  0  0  0  0  0  0  0  0  0
  146.2704  142.0812  154.4039 C   0  0  0  0  0  0  0  0  0  0  0  0
  146.5564  142.0651  155.9024 C   0  0  0  0  0  0  0  0  0  0  0  0
  147.8916  141.5866  156.0428 O   0  0  0  0  0  0  0  0  0  0  0  0
  153.0212  141.6075  159.2286 S   0  0  0  0  0  0  0  0  0  0  0  0
  152.9775  142.6826  161.9491 H   0  0  0  0  0  0  0  0  0  0  0  0
  151.2740  143.1174  162.0710 H   0  0  0  0  0  0  0  0  0  0  0  0
  152.5139  144.2527  162.5962 H   0  0  0  0  0  0  0  0  0  0  0  0
  153.3491  144.4416  160.2818 H   0  0  0  0  0  0  0  0  0  0  0  0
  151.5606  145.7850  159.2753 H   0  0  0  0  0  0  0  0  0  0  0  0
  151.6753  146.1023  161.0029 H   0  0  0  0  0  0  0  0  0  0  0  0
  150.3767  145.0890  160.3792 H   0  0  0  0  0  0  0  0  0  0  0  0
  149.7627  140.0789  156.9896 H   0  0  0  0  0  0  0  0  0  0  0  0
  149.7654  139.6353  154.0432 H   0  0  0  0  0  0  0  0  0  0  0  0
  148.5472  138.9971  155.1371 H   0  0  0  0  0  0  0  0  0  0  0  0
  149.0176  141.9247  154.3682 H   0  0  0  0  0  0  0  0  0  0  0  0
  147.3760  141.0260  152.8439 H   0  0  0  0  0  0  0  0  0  0  0  0
  146.6775  139.9979  154.1016 H   0  0  0  0  0  0  0  0  0  0  0  0
  146.5898  143.0292  153.9696 H   0  0  0  0  0  0  0  0  0  0  0  0
  145.2160  141.9335  154.1690 H   0  0  0  0  0  0  0  0  0  0  0  0
  146.4354  143.0483  156.3578 H   0  0  0  0  0  0  0  0  0  0  0  0
  145.8862  141.3711  156.4113 H   0  0  0  0  0  0  0  0  0  0  0  0
  1  2  1  0  0  0  0
  1 19  1  0  0  0  0
  1 20  1  0  0  0  0
  1 21  1  0  0  0  0
  2  3  1  0  0  0  0
  2  4  1  0  0  0  0
  2 22  1  0  0  0  0
  3 23  1  0  0  0  0
  3 24  1  0  0  0  0
  3 25  1  0  0  0  0
  4 18  1  0  0  0  0
  4  5  2  0  0  0  0
  5  6  1  0  0  0  0
  6  7  2  0  0  0  0
  7  8  1  0  0  0  0
  7 18  1  0  0  0  0
  8  9  1  0  0  0  0
  9 10  2  0  0  0  0
  9 11  1  0  0  0  0
 11 12  1  0  0  0  0
 11 26  1  0  0  0  0
 12 13  1  0  0  0  0
 12 27  1  0  0  0  0
 12 28  1  0  0  0  0
 13 17  1  0  0  0  0
 13 14  1  0  0  0  0
 13 29  1  0  0  0  0
 14 15  1  0  0  0  0
 14 30  1  0  0  0  0
 14 31  1  0  0  0  0
 15 16  1  0  0  0  0
 15 32  1  0  0  0  0
 15 33  1  0  0  0  0
 16 17  1  0  0  0  0
 16 34  1  0  0  0  0
 16 35  1  0  0  0  0
M  CHG  1   8  -1
M  END
> <s_m_source_file>
AV-unprocessed.smi

> <i_m_source_file_index>
1961

> <i_lp_mmshare_version>
43012

> <i_f3d_flags>
0

> <s_epik_input>
W0NIM11bQ0hdKFtDSDNdKWMxbm5jKHMxKVtOSF1DKD1PKVtOSF1bQ0gyXVtDQEBIXTJbQ0gyXVtDSDJdW0NIMl1PMg==

> <s_epik_cmdline>
J2VwaWtfcHl0aG9uJywgJy1waCcsICc3LjAnLCAnLXRuJywgJzgnLCAnLW1hJywgJzIwMCcsICctbWV0YWxfYmluZGluZycsICctaW1hZScsICc8aW5maWxlLm1hZT4nLCAnLW9tYWUnLCAnPG91dGZpbGUubWFlPic=

> <r_lp_tautomer_probability>
1

> <r_epik_Ionization_Penalty>
4.36179

> <r_epik_Ionization_Penalty_Charging>
4.21437

> <r_epik_Ionization_Penalty_Neutral>
0.147417

> <r_epik_State_Penalty>
4.21389

> <r_epik_Charging_Adjusted_Penalty>
8.42826

> <i_epik_Tot_Q>
-1

> <i_epik_Tot_abs_Q>
1

> <r_epik_Metal_State_Penalty>
0.693772

> <b_epik_Metal_Only>
1

> <s_lp_Force_Field>
OPLS_2005

> <r_lp_Energy>
8.86259

> <b_lp_Chiralities_Consistent>
1

> <s_lp_Variant>
AV-unprocessed.smi:1961-4

> <Gold.Version>
5.8.1

> <Gold.Id.Protein>
6NUR|6NUR_protein|mol2

> <Gold.PLP.Fitness>
45.5190

> <Gold.PLP.PLP>
-38.9393

> <Gold.PLP.part.hbond>
-2.0000

> <Gold.PLP.part.metal>
0.0000

> <Gold.PLP.part.buried>
-5.5460

> <Gold.PLP.part.nonpolar>
-30.8516

> <Gold.PLP.part.repulsive>
0.3637

> <Gold.PLP.ligand.clash>
0.0000

> <Gold.PLP.ligand.torsion>
0.7661

> <Gold.PLP.Chemscore.Hbond>
2.6705

> <Gold.PLP.Chemscore.CHOScore>
0.0000

> <Gold.PLP.Chemscore.Metal>
0.0000

> <Gold.Chemscore.Hbonds>
donor molecule, donor type, donor heavy atom, donor atom, acceptor molecule, acceptor atom, score
      P1  H  7989  7998       L1    10  0.88
      P1  H  7997  8010       L1     8  0.75

> <Gold.PLP.Chemscore.Internal.Correction>
0.1004

> <Gold.Rescore>
     Score         DG    S(hbond)    S(metal)    S(lipo)     H(rot)  DE(clash)    DE(int)     intcor
     13.69     -14.59       0.82        0.00      85.45       1.42       0.02       0.89       ----

> <Gold.Chemscore.Fitness>
13.6867

> <Gold.Chemscore.DG>
-14.5948

> <Gold.Chemscore.ZeroCoef>
-5.4800

> <Gold.Chemscore.Hbond>
0.8236

> <Gold.Chemscore.Metal>
0.0000

> <Gold.Chemscore.Lipo>
85.4480

> <Gold.Chemscore.Internal_Hbond>
0.0000

> <Gold.Chemscore.DEClash>
0.0166

> <Gold.Chemscore.DEInternal>
0.8915

> <Gold.Chemscore.Rot>
1.4193

> <Gold.Chemscore.Internal.Correction>
   9.000000E+99

> <Gold.Chemscore.Hbonds>
donor molecule, donor type, donor heavy atom, donor atom, acceptor molecule, acceptor atom, score
      P1  H  7989  7998       L1    10  0.86
      P1  H  7997  8010       L1     8  0.07

> <Gold.Chemscore.Hbond.Weighted>
-2.7507

> <Gold.Chemscore.Metal.Weighted>
-0.0000

> <Gold.Chemscore.Lipo.Weighted>
-9.9974

> <Gold.Chemscore.Internal_Hbond.Weighted>
0.0000

> <Gold.Chemscore.DEClash.Weighted>
0.0166

> <Gold.Chemscore.DEInternal.Weighted>
0.8915

> <Gold.Chemscore.Rot.Weighted>
3.6333

> <Gold.Chemscore.Internal.Correction.Weighted>
   9.000000E+99

> <Gold.Protein.RotatedTorsions>
[ 6907 6896 6895 6894 ] final  -98.11 input  -60.11 | X-H torsion
[ 7974 7965 7964 7962 ] final  -86.22 input  175.53 | X-H torsion
[ 8008 7997 7996 7995 ] final   65.45 input   59.86 | X-H torsion
[ 10167 10162 10161 10158 ] final -169.53 input  -65.29 | X-H torsion
[ 10718 10713 10712 10709 ] final  -56.31 input   66.30 | X-H torsion
[ 10763 10752 10751 10750 ] final   32.43 input  -60.55 | X-H torsion
[ 11005 11000 10999 10996 ] final -116.19 input  -57.11 | X-H torsion

> <Gold.Protein.ActiveResidues>
 VAL166  LYS551  ARG553  GLY616  TRP617  ASP618  TYR619  PRO620  LYS621  CYS622 
 ASP623  PHE694  ASN695  SER759  ASP760  ASP761  ALA762  ILE779  LEU786  VAL792 
 PHE793  MET794  SER795  GLU796  ALA797  LYS798  CYS799  TRP800  GLU811  SER814 

> <Gold.Protein.RotatedAtoms>
  150.7037  134.1244  159.4046 H   0  0  0  0  0  0  0  0  0  0  0  0  # atno 6907 bound_to 6896
  151.9230  135.0287  160.0533 H   0  0  0  0  0  0  0  0  0  0  0  0  # atno 6908 bound_to 6896
  152.2240  133.4970  159.5215 H   0  0  0  0  0  0  0  0  0  0  0  0  # atno 6909 bound_to 6896
  145.4828  140.9556  143.1855 H   0  0  0  0  0  0  0  0  0  0  0  0  # atno 7974 bound_to 7965
  155.6619  140.3497  155.4786 H   0  0  0  0  0  0  0  0  0  0  0  0  # atno 8008 bound_to 7997
  155.9761  140.1165  157.0792 H   0  0  0  0  0  0  0  0  0  0  0  0  # atno 8009 bound_to 7997
  154.4179  140.1147  156.5358 H   0  0  0  0  0  0  0  0  0  0  0  0  # atno 8010 bound_to 7997
  139.5917  144.1199  152.1642 H   0  0  0  0  0  0  0  0  0  0  0  0  # atno 10167 bound_to 10162
  156.1299  130.4160  150.0288 H   0  0  0  0  0  0  0  0  0  0  0  0  # atno 10718 bound_to 10713
  153.0263  135.6413  154.1353 H   0  0  0  0  0  0  0  0  0  0  0  0  # atno 10763 bound_to 10752
  154.1081  135.2855  155.3238 H   0  0  0  0  0  0  0  0  0  0  0  0  # atno 10764 bound_to 10752
  154.6351  135.5479  153.7787 H   0  0  0  0  0  0  0  0  0  0  0  0  # atno 10765 bound_to 10752
  141.0438  133.9794  157.2951 H   0  0  0  0  0  0  0  0  0  0  0  0  # atno 11005 bound_to 11000
  144.7879  139.6389  143.7126 LP  0  0  0  0  0  0  0  0  0  0  0  0  # atno 17320 bound_to 7965
  146.2331  139.5852  142.9542 LP  0  0  0  0  0  0  0  0  0  0  0  0  # atno 17321 bound_to 7965
  140.0775  144.5728  150.7146 LP  0  0  0  0  0  0  0  0  0  0  0  0  # atno 17342 bound_to 10162
  140.7178  143.2560  151.4377 LP  0  0  0  0  0  0  0  0  0  0  0  0  # atno 17343 bound_to 10162
  156.8203  130.9356  151.3641 LP  0  0  0  0  0  0  0  0  0  0  0  0  # atno 17370 bound_to 10713
  157.6477  130.8858  149.9571 LP  0  0  0  0  0  0  0  0  0  0  0  0  # atno 17371 bound_to 10713
  139.9296  135.0200  156.8354 LP  0  0  0  0  0  0  0  0  0  0  0  0  # atno 17394 bound_to 11000
  140.6185  134.0016  155.7607 LP  0  0  0  0  0  0  0  0  0  0  0  0  # atno 17395 bound_to 11000

$$$$
