AV-unprocessed.smi:87|AV-procd|sdf|820|dock6
  -GOLD-   2262017223D 1   1.00000     0.00000
 Structure written by MMmdl.
 58 60  0  0  0  0  0  0  0  0  1 V2000
  151.9031  144.6445  157.8539 C   0  0  0  0  0  0  0  0  0  0  0  0
  151.0760  143.5507  158.5455 C   0  0  0  0  0  0  0  0  0  0  0  0
  151.8720  142.6907  159.5562 C   0  0  0  0  0  0  0  0  0  0  0  0
  152.4817  143.5612  160.6798 C   0  0  0  0  0  0  0  0  0  0  0  0
  152.9418  142.7672  161.9115 C   0  0  0  0  0  0  0  0  0  0  0  0
  152.9772  141.8647  158.8478 C   0  0  0  0  0  0  0  0  0  0  0  0
  152.8457  140.4148  159.0190 N   0  0  0  0  0  0  0  0  0  0  0  0
  153.7301  139.7170  159.9516 C   0  0  0  0  0  0  0  0  0  0  0  0
  154.7130  140.6655  160.6546 C   0  0  0  0  0  0  0  0  0  0  0  0
  155.4642  139.9982  161.7274 C   0  0  0  0  0  0  0  0  0  0  0  0
  156.0556  139.4734  162.5718 N   0  0  0  0  0  0  0  0  0  0  0  0
  152.0983  139.7217  158.1163 C   0  0  0  0  0  0  0  0  0  0  0  0
  152.2329  140.0443  156.8024 N   0  0  0  0  0  0  0  0  0  0  0  0
  151.5311  139.4002  155.8666 C   0  0  0  0  0  0  0  0  0  0  0  0
  150.6483  138.4130  156.0195 N   0  0  0  0  0  0  0  0  0  0  0  0
  150.5109  138.0743  157.3327 C   0  0  0  0  0  0  0  0  0  0  0  0
  151.1905  138.6670  158.4366 C   0  0  0  0  0  0  0  0  0  0  0  0
  150.7976  138.0362  159.6130 N   0  0  0  0  0  0  0  0  0  0  0  0
  149.9338  137.1371  159.2300 C   0  0  0  0  0  0  0  0  0  0  0  0
  149.7024  137.0915  157.8758 N   0  0  0  0  0  0  0  0  0  0  0  0
  148.7998  136.1898  157.1798 C   0  0  0  0  0  0  0  0  0  0  0  0
  148.9987  136.2121  155.6466 C   0  0  2  0  0  0  0  0  0  0  0  0
  147.7467  135.9449  155.0417 O   0  0  0  0  0  0  0  0  0  0  0  0
  149.9946  135.1513  155.1186 C   0  0  2  0  0  0  0  0  0  0  0  0
  149.4633  133.7081  155.0698 C   0  0  0  0  0  0  0  0  0  0  0  0
  149.8710  133.1403  156.4092 C   0  0  0  0  0  0  0  0  0  0  0  0
  151.2314  133.7922  156.5947 C   0  0  0  0  0  0  0  0  0  0  0  0
  151.0827  135.0963  156.0467 O   0  0  0  0  0  0  0  0  0  0  0  0
  151.2642  145.2696  157.2298 H   0  0  0  0  0  0  0  0  0  0  0  0
  152.6759  144.2298  157.2081 H   0  0  0  0  0  0  0  0  0  0  0  0
  152.3855  145.2941  158.5848 H   0  0  0  0  0  0  0  0  0  0  0  0
  150.2589  144.0561  159.0579 H   0  0  0  0  0  0  0  0  0  0  0  0
  150.6091  142.9099  157.7969 H   0  0  0  0  0  0  0  0  0  0  0  0
  151.1704  142.0000  160.0252 H   0  0  0  0  0  0  0  0  0  0  0  0
  153.3153  144.1444  160.2865 H   0  0  0  0  0  0  0  0  0  0  0  0
  151.7482  144.2871  161.0267 H   0  0  0  0  0  0  0  0  0  0  0  0
  153.2718  143.4424  162.7011 H   0  0  0  0  0  0  0  0  0  0  0  0
  153.7766  142.1051  161.6849 H   0  0  0  0  0  0  0  0  0  0  0  0
  152.1299  142.1609  162.3141 H   0  0  0  0  0  0  0  0  0  0  0  0
  152.9797  142.1075  157.7848 H   0  0  0  0  0  0  0  0  0  0  0  0
  153.9641  142.1540  159.2057 H   0  0  0  0  0  0  0  0  0  0  0  0
  153.1425  139.1640  160.6831 H   0  0  0  0  0  0  0  0  0  0  0  0
  154.3034  138.9647  159.4095 H   0  0  0  0  0  0  0  0  0  0  0  0
  155.4344  141.0603  159.9391 H   0  0  0  0  0  0  0  0  0  0  0  0
  154.2018  141.5186  161.0988 H   0  0  0  0  0  0  0  0  0  0  0  0
  151.7022  139.7219  154.8499 H   0  0  0  0  0  0  0  0  0  0  0  0
  149.4425  136.4752  159.9283 H   0  0  0  0  0  0  0  0  0  0  0  0
  148.9714  135.1916  157.5806 H   0  0  0  0  0  0  0  0  0  0  0  0
  147.7734  136.4570  157.4342 H   0  0  0  0  0  0  0  0  0  0  0  0
  149.3229  137.2086  155.3436 H   0  0  0  0  0  0  0  0  0  0  0  0
  147.8618  135.9345  154.1036 H   0  0  0  0  0  0  0  0  0  0  0  0
  150.3585  135.4379  154.1307 H   0  0  0  0  0  0  0  0  0  0  0  0
  148.3975  133.6113  154.8743 H   0  0  0  0  0  0  0  0  0  0  0  0
  149.9813  133.1617  154.2802 H   0  0  0  0  0  0  0  0  0  0  0  0
  149.1807  133.4679  157.1874 H   0  0  0  0  0  0  0  0  0  0  0  0
  149.9146  132.0510  156.4202 H   0  0  0  0  0  0  0  0  0  0  0  0
  151.5438  133.8282  157.6386 H   0  0  0  0  0  0  0  0  0  0  0  0
  151.9932  133.2557  156.0277 H   0  0  0  0  0  0  0  0  0  0  0  0
  1  2  1  0  0  0  0
  1 29  1  0  0  0  0
  1 30  1  0  0  0  0
  1 31  1  0  0  0  0
  2  3  1  0  0  0  0
  2 32  1  0  0  0  0
  2 33  1  0  0  0  0
  3  4  1  0  0  0  0
  3  6  1  0  0  0  0
  3 34  1  0  0  0  0
  4  5  1  0  0  0  0
  4 35  1  0  0  0  0
  4 36  1  0  0  0  0
  5 37  1  0  0  0  0
  5 38  1  0  0  0  0
  5 39  1  0  0  0  0
  6  7  1  0  0  0  0
  6 40  1  0  0  0  0
  6 41  1  0  0  0  0
  7  8  1  0  0  0  0
  7 12  1  0  0  0  0
  8  9  1  0  0  0  0
  8 42  1  0  0  0  0
  8 43  1  0  0  0  0
  9 10  1  0  0  0  0
  9 44  1  0  0  0  0
  9 45  1  0  0  0  0
 10 11  3  0  0  0  0
 12 17  1  0  0  0  0
 12 13  2  0  0  0  0
 13 14  1  0  0  0  0
 14 15  2  0  0  0  0
 14 46  1  0  0  0  0
 15 16  1  0  0  0  0
 16 20  1  0  0  0  0
 16 17  2  0  0  0  0
 17 18  1  0  0  0  0
 18 19  2  0  0  0  0
 19 20  1  0  0  0  0
 19 47  1  0  0  0  0
 20 21  1  0  0  0  0
 21 22  1  0  0  0  0
 21 48  1  0  0  0  0
 21 49  1  0  0  0  0
 22 23  1  0  0  0  0
 22 24  1  0  0  0  0
 22 50  1  0  0  0  0
 23 51  1  0  0  0  0
 24 28  1  0  0  0  0
 24 25  1  0  0  0  0
 24 52  1  0  0  0  0
 25 26  1  0  0  0  0
 25 53  1  0  0  0  0
 25 54  1  0  0  0  0
 26 27  1  0  0  0  0
 26 55  1  0  0  0  0
 26 56  1  0  0  0  0
 27 28  1  0  0  0  0
 27 57  1  0  0  0  0
 27 58  1  0  0  0  0
M  END
> <s_m_source_file>
AV-unprocessed.smi

> <i_m_source_file_index>
87

> <i_lp_mmshare_version>
43012

> <i_f3d_flags>
0

> <s_epik_input>
W0NIM11bQ0gyXVtDSF0oW0NIMl1bQ0gzXSlbQ0gyXU4oW0NIMl1bQ0gyXUMjTiljKG5bY0hdbjEpYyhjMTIpbltjSF1uMltDSDJdW0NASF0oW09IXSlbQ0BASF0zW0NIMl1bQ0gyXVtDSDJdTzM=

> <s_epik_cmdline>
J2VwaWtfcHl0aG9uJywgJy1waCcsICc3LjAnLCAnLXRuJywgJzgnLCAnLW1hJywgJzIwMCcsICctbWV0YWxfYmluZGluZycsICctaW1hZScsICc8aW5maWxlLm1hZT4nLCAnLW9tYWUnLCAnPG91dGZpbGUubWFlPic=

> <r_lp_tautomer_probability>
1

> <r_epik_Ionization_Penalty>
0.000348566

> <r_epik_Ionization_Penalty_Charging>
0

> <r_epik_Ionization_Penalty_Neutral>
0.000348566

> <r_epik_State_Penalty>
-0

> <r_epik_Charging_Adjusted_Penalty>
0

> <i_epik_Tot_Q>
0

> <i_epik_Tot_abs_Q>
0

> <r_epik_Metal_State_Penalty>
-0

> <b_epik_Metal_Only>
0

> <s_lp_Force_Field>
OPLS_2005

> <r_lp_Energy>
36.7846

> <b_lp_Chiralities_Consistent>
1

> <s_lp_Variant>
AV-unprocessed.smi:87-1

> <Gold.Version>
5.8.1

> <Gold.Id.Protein>
6NUR|6NUR_protein|mol2

> <Gold.PLP.Fitness>
54.5680

> <Gold.PLP.PLP>
-50.6523

> <Gold.PLP.part.hbond>
-4.0000

> <Gold.PLP.part.metal>
0.0000

> <Gold.PLP.part.buried>
-4.7612

> <Gold.PLP.part.nonpolar>
-41.6181

> <Gold.PLP.part.repulsive>
0.0320

> <Gold.PLP.ligand.clash>
0.0000

> <Gold.PLP.ligand.torsion>
2.9087

> <Gold.PLP.Chemscore.Hbond>
3.0000

> <Gold.PLP.Chemscore.CHOScore>
0.0000

> <Gold.PLP.Chemscore.Metal>
0.0000

> <Gold.Chemscore.Hbonds>
donor molecule, donor type, donor heavy atom, donor atom, acceptor molecule, acceptor atom, score
      P1  H  7997  8010       L1    13  0.73
      P1  H 10752 10764       L1    28  0.34

> <Gold.PLP.Chemscore.Internal.Correction>
0.7331

> <Gold.Rescore>
     Score         DG    S(hbond)    S(metal)    S(lipo)     H(rot)  DE(clash)    DE(int)     intcor
     13.68     -17.88       2.33        0.00     113.02       3.37       0.01       4.19       ----

> <Gold.Chemscore.Fitness>
13.6753

> <Gold.Chemscore.DG>
-17.8791

> <Gold.Chemscore.ZeroCoef>
-5.4800

> <Gold.Chemscore.Hbond>
2.3342

> <Gold.Chemscore.Metal>
0.0000

> <Gold.Chemscore.Lipo>
113.0179

> <Gold.Chemscore.Internal_Hbond>
0.0000

> <Gold.Chemscore.DEClash>
0.0095

> <Gold.Chemscore.DEInternal>
4.1943

> <Gold.Chemscore.Rot>
3.3672

> <Gold.Chemscore.Internal.Correction>
   9.000000E+99

> <Gold.Chemscore.Hbonds>
donor molecule, donor type, donor heavy atom, donor atom, acceptor molecule, acceptor atom, score
      L1  H    23    51       P1  7948  0.01
      P1  H  7997  8010       L1    13  0.24
      P1  H 10752 10764       L1    28  0.11

> <Gold.Chemscore.Hbond.Weighted>
-7.7961

> <Gold.Chemscore.Metal.Weighted>
-0.0000

> <Gold.Chemscore.Lipo.Weighted>
-13.2231

> <Gold.Chemscore.Internal_Hbond.Weighted>
0.0000

> <Gold.Chemscore.DEClash.Weighted>
0.0095

> <Gold.Chemscore.DEInternal.Weighted>
4.1943

> <Gold.Chemscore.Rot.Weighted>
8.6201

> <Gold.Chemscore.Internal.Correction.Weighted>
   9.000000E+99

> <Gold.Protein.RotatedTorsions>
[ 6907 6896 6895 6894 ] final  100.17 input  -60.11 | X-H torsion
[ 7974 7965 7964 7962 ] final -125.78 input  175.53 | X-H torsion
[ 8008 7997 7996 7995 ] final   63.22 input   59.86 | X-H torsion
[ 10167 10162 10161 10158 ] final   92.73 input  -65.29 | X-H torsion
[ 10718 10713 10712 10709 ] final   72.33 input   66.30 | X-H torsion
[ 10763 10752 10751 10750 ] final  -35.55 input  -60.55 | X-H torsion
[ 11005 11000 10999 10996 ] final  -68.17 input  -57.11 | X-H torsion

> <Gold.Protein.ActiveResidues>
 VAL166  LYS551  ARG553  GLY616  TRP617  ASP618  TYR619  PRO620  LYS621  CYS622 
 ASP623  PHE694  ASN695  SER759  ASP760  ASP761  ALA762  ILE779  LEU786  VAL792 
 PHE793  MET794  SER795  GLU796  ALA797  LYS798  CYS799  TRP800  GLU811  SER814 

> <Gold.Protein.RotatedAtoms>
  152.5377  134.0317  159.8027 H   0  0  0  0  0  0  0  0  0  0  0  0  # atno 6907 bound_to 6896
  151.0487  133.5635  159.2651 H   0  0  0  0  0  0  0  0  0  0  0  0  # atno 6908 bound_to 6896
  151.2577  135.0651  159.9140 H   0  0  0  0  0  0  0  0  0  0  0  0  # atno 6909 bound_to 6896
  144.9941  140.7759  143.4536 H   0  0  0  0  0  0  0  0  0  0  0  0  # atno 7974 bound_to 7965
  155.6268  140.3496  155.4670 H   0  0  0  0  0  0  0  0  0  0  0  0  # atno 8008 bound_to 7997
  156.0035  140.1218  157.0548 H   0  0  0  0  0  0  0  0  0  0  0  0  # atno 8009 bound_to 7997
  154.4256  140.1096  156.5716 H   0  0  0  0  0  0  0  0  0  0  0  0  # atno 8010 bound_to 7997
  139.8248  144.6714  150.9473 H   0  0  0  0  0  0  0  0  0  0  0  0  # atno 10167 bound_to 10162
  157.6495  130.9573  150.0913 H   0  0  0  0  0  0  0  0  0  0  0  0  # atno 10718 bound_to 10713
  153.8651  135.6836  153.4779 H   0  0  0  0  0  0  0  0  0  0  0  0  # atno 10763 bound_to 10752
  153.1319  135.4694  154.9360 H   0  0  0  0  0  0  0  0  0  0  0  0  # atno 10764 bound_to 10752
  154.7740  135.3247  154.8080 H   0  0  0  0  0  0  0  0  0  0  0  0  # atno 10765 bound_to 10752
  141.1526  133.6735  156.6405 H   0  0  0  0  0  0  0  0  0  0  0  0  # atno 11005 bound_to 11000
  145.2245  139.2143  143.5075 LP  0  0  0  0  0  0  0  0  0  0  0  0  # atno 17320 bound_to 7965
  146.3438  140.2109  142.8590 LP  0  0  0  0  0  0  0  0  0  0  0  0  # atno 17321 bound_to 7965
  140.7811  143.4056  151.1076 LP  0  0  0  0  0  0  0  0  0  0  0  0  # atno 17342 bound_to 10162
  139.7714  143.8488  152.3121 LP  0  0  0  0  0  0  0  0  0  0  0  0  # atno 17343 bound_to 10162
  156.1861  130.3652  149.8970 LP  0  0  0  0  0  0  0  0  0  0  0  0  # atno 17370 bound_to 10713
  156.6910  130.8896  151.3588 LP  0  0  0  0  0  0  0  0  0  0  0  0  # atno 17371 bound_to 10713
  140.3397  134.7859  157.4388 LP  0  0  0  0  0  0  0  0  0  0  0  0  # atno 17394 bound_to 11000
  140.0948  134.5552  155.8409 LP  0  0  0  0  0  0  0  0  0  0  0  0  # atno 17395 bound_to 11000

$$$$
