AV-unprocessed.smi:2377|AV-procd|sdf|9446|dock8
  -GOLD-   2272013 73D 1   1.00000     0.00000
 Structure written by MMmdl.
 24 24  0  0  0  0  0  0  0  0  2 V2000
  149.8215  141.2630  155.3175 C   0  0  0  0  0  0  0  0  0  0  0  0
  150.3691  142.4831  155.9385 N   0  3  0  0  0  0  0  0  0  0  0  0
  150.8334  142.2921  157.3273 C   0  0  0  0  0  0  0  0  0  0  0  0
  151.6414  143.5036  157.8251 C   0  0  1  0  0  0  0  0  0  0  0  0
  150.8508  144.6683  157.6830 O   0  0  0  0  0  0  0  0  0  0  0  0
  152.1004  143.3040  159.2605 C   0  0  0  0  0  0  0  0  0  0  0  0
  151.7018  144.1833  160.2913 C   0  0  0  0  0  0  0  0  0  0  0  0
  152.1516  143.9424  161.6037 C   0  0  0  0  0  0  0  0  0  0  0  0
  152.9815  142.8275  161.8344 C   0  0  0  0  0  0  0  0  0  0  0  0
  153.3663  141.9766  160.8591 N   0  0  0  0  0  0  0  0  0  0  0  0
  152.9319  142.2153  159.6034 C   0  0  0  0  0  0  0  0  0  0  0  0
  149.4974  141.4764  154.2989 H   0  0  0  0  0  0  0  0  0  0  0  0
  148.9621  140.8950  155.8791 H   0  0  0  0  0  0  0  0  0  0  0  0
  150.5753  140.4760  155.2787 H   0  0  0  0  0  0  0  0  0  0  0  0
  151.1454  142.8101  155.3812 H   0  0  0  0  0  0  0  0  0  0  0  0
  149.9763  142.1121  157.9782 H   0  0  0  0  0  0  0  0  0  0  0  0
  151.4548  141.3959  157.3624 H   0  0  0  0  0  0  0  0  0  0  0  0
  152.5236  143.6309  157.1959 H   0  0  0  0  0  0  0  0  0  0  0  0
  150.3581  144.6019  156.8785 H   0  0  0  0  0  0  0  0  0  0  0  0
  151.0609  145.0276  160.0836 H   0  0  0  0  0  0  0  0  0  0  0  0
  151.8672  144.5965  162.4149 H   0  0  0  0  0  0  0  0  0  0  0  0
  153.3444  142.6124  162.8286 H   0  0  0  0  0  0  0  0  0  0  0  0
  153.2574  141.5128  158.8503 H   0  0  0  0  0  0  0  0  0  0  0  0
  149.6517  143.1947  155.9413 H   0  0  0  0  0  0  0  0  0  0  0  0
  1  2  1  0  0  0  0
  1 12  1  0  0  0  0
  1 13  1  0  0  0  0
  1 14  1  0  0  0  0
  2  3  1  0  0  0  0
  2 15  1  0  0  0  0
  2 24  1  0  0  0  0
  3  4  1  0  0  0  0
  3 16  1  0  0  0  0
  3 17  1  0  0  0  0
  4  5  1  0  0  0  0
  4  6  1  0  0  0  0
  4 18  1  0  0  0  0
  5 19  1  0  0  0  0
  6 11  1  0  0  0  0
  6  7  2  0  0  0  0
  7  8  1  0  0  0  0
  7 20  1  0  0  0  0
  8  9  2  0  0  0  0
  8 21  1  0  0  0  0
  9 10  1  0  0  0  0
  9 22  1  0  0  0  0
 10 11  2  0  0  0  0
 11 23  1  0  0  0  0
M  CHG  1   2   1
M  END
> <s_m_source_file>
AV-unprocessed.smi

> <i_m_source_file_index>
2377

> <i_lp_mmshare_version>
43012

> <i_f3d_flags>
0

> <s_epik_input>
W0NIM11bTkhdW0NIMl1bQ0BIXShbT0hdKWMxW2NIXVtjSF1bY0hdbltjSF0x

> <s_epik_cmdline>
J2VwaWtfcHl0aG9uJywgJy1waCcsICc3LjAnLCAnLXRuJywgJzgnLCAnLW1hJywgJzIwMCcsICctbWV0YWxfYmluZGluZycsICctaW1hZScsICc8aW5maWxlLm1hZT4nLCAnLW9tYWUnLCAnPG91dGZpbGUubWFlPic=

> <r_epik_Ionization_Penalty>
0.00990913

> <r_epik_Ionization_Penalty_Charging>
0.00939893

> <r_epik_Ionization_Penalty_Neutral>
0.000510194

> <r_epik_State_Penalty>
0.00713549

> <r_epik_Charging_Adjusted_Penalty>
0.0165344

> <i_epik_Tot_Q>
1

> <i_epik_Tot_abs_Q>
1

> <r_epik_Metal_State_Penalty>
0.00716299

> <b_epik_Metal_Only>
0

> <s_lp_Force_Field>
OPLS_2005

> <r_lp_Energy>
6.48909

> <b_lp_Chiralities_Consistent>
1

> <s_lp_Variant>
AV-unprocessed.smi:2377-2

> <Gold.Version>
5.8.1

> <Gold.Id.Protein>
6NUR|6NUR_protein|mol2

> <Gold.PLP.Fitness>
40.6908

> <Gold.PLP.PLP>
-31.7648

> <Gold.PLP.part.hbond>
-2.6516

> <Gold.PLP.part.metal>
0.0000

> <Gold.PLP.part.buried>
-4.0282

> <Gold.PLP.part.nonpolar>
-25.0462

> <Gold.PLP.part.repulsive>
0.1405

> <Gold.PLP.ligand.clash>
0.0000

> <Gold.PLP.ligand.torsion>
0.0406

> <Gold.PLP.Chemscore.Hbond>
3.0000

> <Gold.PLP.Chemscore.CHOScore>
0.0000

> <Gold.PLP.Chemscore.Metal>
0.0000

> <Gold.Chemscore.Hbonds>
donor molecule, donor type, donor heavy atom, donor atom, acceptor molecule, acceptor atom, score
      L1  H     2    24       P1  8028  2.00
      L1  H     5    19       P1  8028  1.00

> <Gold.PLP.Chemscore.Internal.Correction>
0.0073

> <Gold.Rescore>
     Score         DG    S(hbond)    S(metal)    S(lipo)     H(rot)  DE(clash)    DE(int)     intcor
     16.24     -16.34       1.86        0.00      84.08       2.03       0.02       0.07       ----

> <Gold.Chemscore.Fitness>
16.2443

> <Gold.Chemscore.DG>
-16.3361

> <Gold.Chemscore.ZeroCoef>
-5.4800

> <Gold.Chemscore.Hbond>
1.8644

> <Gold.Chemscore.Metal>
0.0000

> <Gold.Chemscore.Lipo>
84.0764

> <Gold.Chemscore.Internal_Hbond>
0.0000

> <Gold.Chemscore.DEClash>
0.0234

> <Gold.Chemscore.DEInternal>
0.0684

> <Gold.Chemscore.Rot>
2.0344

> <Gold.Chemscore.Internal.Correction>
   9.000000E+99

> <Gold.Chemscore.Hbonds>
donor molecule, donor type, donor heavy atom, donor atom, acceptor molecule, acceptor atom, score
      L1  H     2    24       P1  8028  0.99
      L1  H     5    19       P1  8028  0.78

> <Gold.Chemscore.Hbond.Weighted>
-6.2272

> <Gold.Chemscore.Metal.Weighted>
-0.0000

> <Gold.Chemscore.Lipo.Weighted>
-9.8369

> <Gold.Chemscore.Internal_Hbond.Weighted>
0.0000

> <Gold.Chemscore.DEClash.Weighted>
0.0234

> <Gold.Chemscore.DEInternal.Weighted>
0.0684

> <Gold.Chemscore.Rot.Weighted>
5.2080

> <Gold.Chemscore.Internal.Correction.Weighted>
   9.000000E+99

> <Gold.Protein.RotatedTorsions>
[ 6907 6896 6895 6894 ] final  108.68 input  -60.11 | X-H torsion
[ 7974 7965 7964 7962 ] final -130.86 input  175.53 | X-H torsion
[ 8008 7997 7996 7995 ] final   62.51 input   59.86 | X-H torsion
[ 10167 10162 10161 10158 ] final -157.09 input  -65.29 | X-H torsion
[ 10718 10713 10712 10709 ] final  -99.65 input   66.30 | X-H torsion
[ 10763 10752 10751 10750 ] final   22.08 input  -60.55 | X-H torsion
[ 11005 11000 10999 10996 ] final   75.92 input  -57.11 | X-H torsion

> <Gold.Protein.ActiveResidues>
 VAL166  LYS551  ARG553  GLY616  TRP617  ASP618  TYR619  PRO620  LYS621  CYS622 
 ASP623  PHE694  ASN695  SER759  ASP760  ASP761  ALA762  ILE779  LEU786  VAL792 
 PHE793  MET794  SER795  GLU796  ALA797  LYS798  CYS799  TRP800  GLU811  SER814 

> <Gold.Protein.RotatedAtoms>
  152.5101  133.9053  159.7460 H   0  0  0  0  0  0  0  0  0  0  0  0  # atno 6907 bound_to 6896
  150.9459  133.6595  159.2788 H   0  0  0  0  0  0  0  0  0  0  0  0  # atno 6908 bound_to 6896
  151.3890  135.0958  159.9573 H   0  0  0  0  0  0  0  0  0  0  0  0  # atno 6909 bound_to 6896
  144.9434  140.7264  143.4832 H   0  0  0  0  0  0  0  0  0  0  0  0  # atno 7974 bound_to 7965
  155.6155  140.3495  155.4635 H   0  0  0  0  0  0  0  0  0  0  0  0  # atno 8008 bound_to 7997
  156.0121  140.1235  157.0467 H   0  0  0  0  0  0  0  0  0  0  0  0  # atno 8009 bound_to 7997
  154.4284  140.1079  156.5830 H   0  0  0  0  0  0  0  0  0  0  0  0  # atno 8010 bound_to 7997
  139.6798  143.9601  152.2330 H   0  0  0  0  0  0  0  0  0  0  0  0  # atno 10167 bound_to 10162
  156.0140  130.5292  150.6701 H   0  0  0  0  0  0  0  0  0  0  0  0  # atno 10718 bound_to 10713
  153.0944  135.6655  153.9792 H   0  0  0  0  0  0  0  0  0  0  0  0  # atno 10763 bound_to 10752
  153.9380  135.2997  155.3445 H   0  0  0  0  0  0  0  0  0  0  0  0  # atno 10764 bound_to 10752
  154.7361  135.5101  153.9118 H   0  0  0  0  0  0  0  0  0  0  0  0  # atno 10765 bound_to 10752
  139.9321  134.7558  156.1331 H   0  0  0  0  0  0  0  0  0  0  0  0  # atno 11005 bound_to 11000
  145.2955  139.1868  143.4717 LP  0  0  0  0  0  0  0  0  0  0  0  0  # atno 17320 bound_to 7965
  146.3294  140.2938  142.8617 LP  0  0  0  0  0  0  0  0  0  0  0  0  # atno 17321 bound_to 7965
  139.9388  144.6695  150.8288 LP  0  0  0  0  0  0  0  0  0  0  0  0  # atno 17342 bound_to 10162
  140.7648  143.3258  151.2518 LP  0  0  0  0  0  0  0  0  0  0  0  0  # atno 17343 bound_to 10162
  157.4425  131.0863  151.0929 LP  0  0  0  0  0  0  0  0  0  0  0  0  # atno 17370 bound_to 10713
  157.1468  130.6167  149.5571 LP  0  0  0  0  0  0  0  0  0  0  0  0  # atno 17371 bound_to 10713
  141.0916  133.6712  156.2553 LP  0  0  0  0  0  0  0  0  0  0  0  0  # atno 17394 bound_to 11000
  140.6173  134.5397  157.5542 LP  0  0  0  0  0  0  0  0  0  0  0  0  # atno 17395 bound_to 11000

$$$$
