#       Name:                AV-unprocessed.smi:654
#       Creating user name   scv26
#       Creation time:       Fri Mar 27 00:15:06 2020


#       File generated by GOLD software.
#

@<TRIPOS>MOLECULE
AV-unprocessed.smi:654
    50    52     1
SMALL
NO_CHARGES


@<TRIPOS>ATOM
      1 ****         1.4588   1.1784  -0.8291 O.2            1 S1                 0.0000
      2 ****         0.9770   0.1702  -0.3109 C.2            1 S1                 0.0000
      3 ****         1.5507  -1.0380  -0.4362 N.am           1 S1                 0.0000
      4 ****         2.8204  -1.3048  -1.1040 C.3            1 S1                 0.0000
      5 ****         4.0324  -0.9165  -0.2349 C.3            1 S1                 0.0000
      6 ****         3.9666  -1.4836   1.1732 C.ar           1 S1                 0.0000
      7 ****         4.2857  -2.8338   1.4237 C.ar           1 S1                 0.0000
      8 ****         4.1922  -3.3194   2.7422 C.ar           1 S1                 0.0000
      9 ****         3.7838  -2.4306   3.7569 C.ar           1 S1                 0.0000
     10 ****         3.4766  -1.1355   3.5291 N.ar           1 S1                 0.0000
     11 ****         3.5701  -0.6777   2.2624 C.ar           1 S1                 0.0000
     12 ****        -0.1717   0.1809   0.4129 N.am           1 S1                 0.0000
     13 ****        -0.7825  -0.9744   1.0883 C.3            1 S1                 0.0000
     14 ****        -1.9949  -1.4419   0.2734 C.3            1 S1                 0.0000
     15 ****        -3.2646  -0.1409   0.1993 S.3            1 S1                 0.0000
     16 ****        -2.2766   1.3116  -0.3283 C.3            1 S1                 0.0000
     17 ****        -1.9190   1.2111  -1.8363 C.3            1 S1                 0.0000
     18 ****        -3.1399   1.3400  -2.7645 C.3            1 S1                 0.0000
     19 ****        -3.9133   2.6370  -2.4945 C.3            1 S1                 0.0000
     20 ****        -4.3242   2.7303  -1.0195 C.3            1 S1                 0.0000
     21 ****        -3.1020   2.6017  -0.0920 C.3            1 S1                 0.0000
     22 ****        -0.9985   1.3887   0.5508 C.3            1 S1                 0.0000
     23 ****         1.0943  -1.8239   0.0032 H              1 S1                 0.0000
     24 ****         2.8550  -2.3732  -1.3188 H              1 S1                 0.0000
     25 ****         2.8612  -0.7959  -2.0682 H              1 S1                 0.0000
     26 ****         4.9522  -1.2558  -0.7124 H              1 S1                 0.0000
     27 ****         4.1081   0.1701  -0.1751 H              1 S1                 0.0000
     28 ****         4.5913  -3.4876   0.6200 H              1 S1                 0.0000
     29 ****         4.4264  -4.3486   2.9706 H              1 S1                 0.0000
     30 ****         3.7008  -2.7695   4.7791 H              1 S1                 0.0000
     31 ****         3.3100   0.3600   2.1126 H              1 S1                 0.0000
     32 ****        -0.0918  -1.8046   1.2370 H              1 S1                 0.0000
     33 ****        -1.0972  -0.6922   2.0940 H              1 S1                 0.0000
     34 ****        -1.6952  -1.7160  -0.7385 H              1 S1                 0.0000
     35 ****        -2.4354  -2.3306   0.7254 H              1 S1                 0.0000
     36 ****        -1.2083   1.9994  -2.0885 H              1 S1                 0.0000
     37 ****        -1.4103   0.2725  -2.0539 H              1 S1                 0.0000
     38 ****        -2.8139   1.3156  -3.8045 H              1 S1                 0.0000
     39 ****        -3.8015   0.4833  -2.6327 H              1 S1                 0.0000
     40 ****        -3.2932   3.4950  -2.7572 H              1 S1                 0.0000
     41 ****        -4.7964   2.6852  -3.1323 H              1 S1                 0.0000
     42 ****        -4.8262   3.6808  -0.8367 H              1 S1                 0.0000
     43 ****        -5.0540   1.9530  -0.7909 H              1 S1                 0.0000
     44 ****        -3.4287   2.6515   0.9473 H              1 S1                 0.0000
     45 ****        -2.4632   3.4728  -0.2462 H              1 S1                 0.0000
     46 ****        -1.2755   1.5148   1.5987 H              1 S1                 0.0000
     47 ****        -0.4338   2.2896   0.3055 H              1 S1                 0.0000
     48 ****         2.3021   1.1122  -1.3623 LP             1 S1                 0.0000
     49 ****         1.0066   2.0632  -0.7165 LP             1 S1                 0.0000
     50 ****         3.1890  -0.5346   4.2749 LP             1 S1                 0.0000
@<TRIPOS>BOND
    1    1    2 2     
    2    2    3 am    
    3    2   12 am    
    4    3    4 1     
    5    3   23 1     
    6    4    5 1     
    7    4   24 1     
    8    4   25 1     
    9    5    6 1     
   10    5   26 1     
   11    5   27 1     
   12    6   11 ar    
   13    6    7 ar    
   14    7    8 ar    
   15    7   28 1     
   16    8    9 ar    
   17    8   29 1     
   18    9   10 ar    
   19    9   30 1     
   20   10   11 ar    
   21   11   31 1     
   22   12   22 1     
   23   12   13 1     
   24   13   14 1     
   25   13   32 1     
   26   13   33 1     
   27   14   15 1     
   28   14   34 1     
   29   14   35 1     
   30   15   16 1     
   31   16   21 1     
   32   16   17 1     
   33   16   22 1     
   34   17   18 1     
   35   17   36 1     
   36   17   37 1     
   37   18   19 1     
   38   18   38 1     
   39   18   39 1     
   40   19   20 1     
   41   19   40 1     
   42   19   41 1     
   43   20   21 1     
   44   20   42 1     
   45   20   43 1     
   46   21   44 1     
   47   21   45 1     
   48   22   46 1     
   49   22   47 1     
   50    1   48 1     
   51    1   49 1     
   52   10   50 1     
@<TRIPOS>SUBSTRUCTURE
      1 S1             1
@<TRIPOS>SET
LONE_PAIRS      STATIC     ATOMS    <user>   **** ""
3 48 49 50
DONOR_HYDROGENS      STATIC     ATOMS    <user>   **** ""
1 23
ATOM$BLUE        STATIC     ATOMS    COLORGROUP SYSTEM
3 48 49 50
ATOM$RED        STATIC     ATOMS    COLORGROUP SYSTEM
1 23
