AV-unprocessed.smi:2325|AV-procd|sdf|9296|dock9
  -GOLD-   2272012513D 1   1.00000     0.00000
 Structure written by MMmdl.
 40 41  0  0  0  0  0  0  0  0  1 V2000
  151.8268  140.7866  158.3379 C   0  0  0  0  0  0  0  0  0  0  0  0
  151.7968  139.7415  157.3331 N   0  0  0  0  0  0  0  0  0  0  0  0
  152.5224  139.8474  156.1951 N   0  0  0  0  0  0  0  0  0  0  0  0
  152.2273  138.7171  155.5525 C   0  0  0  0  0  0  0  0  0  0  0  0
  151.3590  137.8760  156.1882 N   0  0  0  0  0  0  0  0  0  0  0  0
  151.1338  138.5821  157.2919 C   0  0  0  0  0  0  0  0  0  0  0  0
  150.2820  138.2091  158.3658 N   0  0  0  0  0  0  0  0  0  0  0  0
  149.8323  136.9805  158.6709 C   0  0  0  0  0  0  0  0  0  0  0  0
  150.1126  135.9495  158.0595 O   0  0  0  0  0  0  0  0  0  0  0  0
  149.0234  137.0132  159.7390 N   0  0  0  0  0  0  0  0  0  0  0  0
  148.3417  135.8556  160.3146 C   0  0  1  0  0  0  0  0  0  0  0  0
  147.6816  136.2003  161.6348 C   0  0  0  0  0  0  0  0  0  0  0  0
  146.5815  135.1401  161.7615 C   0  0  0  0  0  0  0  0  0  0  0  0
  147.0809  133.8743  162.4791 C   0  0  0  0  0  0  0  0  0  0  0  0
  145.3165  135.6919  162.4363 C   0  0  0  0  0  0  0  0  0  0  0  0
  146.2556  134.7701  160.4227 O   0  0  0  0  0  0  0  0  0  0  0  0
  147.1522  135.3437  159.4721 C   0  0  0  0  0  0  0  0  0  0  0  0
  146.3649  136.4532  158.7435 C   0  0  0  0  0  0  0  0  0  0  0  0
  147.5644  134.2357  158.4901 C   0  0  0  0  0  0  0  0  0  0  0  0
  152.1190  140.3635  159.2994 H   0  0  0  0  0  0  0  0  0  0  0  0
  150.8364  141.2327  158.4309 H   0  0  0  0  0  0  0  0  0  0  0  0
  152.5414  141.5637  158.0631 H   0  0  0  0  0  0  0  0  0  0  0  0
  152.6546  138.4898  154.5869 H   0  0  0  0  0  0  0  0  0  0  0  0
  149.9749  138.9642  158.9607 H   0  0  0  0  0  0  0  0  0  0  0  0
  148.8502  137.9050  160.1787 H   0  0  0  0  0  0  0  0  0  0  0  0
  149.0529  135.0465  160.4931 H   0  0  0  0  0  0  0  0  0  0  0  0
  148.3801  136.1965  162.4723 H   0  0  0  0  0  0  0  0  0  0  0  0
  147.2408  137.1972  161.5816 H   0  0  0  0  0  0  0  0  0  0  0  0
  147.3649  134.0908  163.5094 H   0  0  0  0  0  0  0  0  0  0  0  0
  147.9500  133.4465  161.9787 H   0  0  0  0  0  0  0  0  0  0  0  0
  146.3079  133.1057  162.5034 H   0  0  0  0  0  0  0  0  0  0  0  0
  145.5231  136.0146  163.4571 H   0  0  0  0  0  0  0  0  0  0  0  0
  144.5310  134.9368  162.4780 H   0  0  0  0  0  0  0  0  0  0  0  0
  144.9185  136.5475  161.8898 H   0  0  0  0  0  0  0  0  0  0  0  0
  146.9609  136.9207  157.9594 H   0  0  0  0  0  0  0  0  0  0  0  0
  146.0434  137.2360  159.4306 H   0  0  0  0  0  0  0  0  0  0  0  0
  145.4696  136.0480  158.2712 H   0  0  0  0  0  0  0  0  0  0  0  0
  148.2489  134.6134  157.7307 H   0  0  0  0  0  0  0  0  0  0  0  0
  146.6963  133.8228  157.9756 H   0  0  0  0  0  0  0  0  0  0  0  0
  148.0607  133.4137  159.0066 H   0  0  0  0  0  0  0  0  0  0  0  0
  1  2  1  0  0  0  0
  1 20  1  0  0  0  0
  1 21  1  0  0  0  0
  1 22  1  0  0  0  0
  2  6  1  0  0  0  0
  2  3  1  0  0  0  0
  3  4  2  0  0  0  0
  4  5  1  0  0  0  0
  4 23  1  0  0  0  0
  5  6  2  0  0  0  0
  6  7  1  0  0  0  0
  7  8  1  0  0  0  0
  7 24  1  0  0  0  0
  8  9  2  0  0  0  0
  8 10  1  0  0  0  0
 10 11  1  0  0  0  0
 10 25  1  0  0  0  0
 11 17  1  0  0  0  0
 11 12  1  0  0  0  0
 11 26  1  0  0  0  0
 12 13  1  0  0  0  0
 12 27  1  0  0  0  0
 12 28  1  0  0  0  0
 13 14  1  0  0  0  0
 13 15  1  0  0  0  0
 13 16  1  0  0  0  0
 14 29  1  0  0  0  0
 14 30  1  0  0  0  0
 14 31  1  0  0  0  0
 15 32  1  0  0  0  0
 15 33  1  0  0  0  0
 15 34  1  0  0  0  0
 16 17  1  0  0  0  0
 17 18  1  0  0  0  0
 17 19  1  0  0  0  0
 18 35  1  0  0  0  0
 18 36  1  0  0  0  0
 18 37  1  0  0  0  0
 19 38  1  0  0  0  0
 19 39  1  0  0  0  0
 19 40  1  0  0  0  0
M  END
> <s_m_source_file>
AV-unprocessed.smi

> <i_m_source_file_index>
2325

> <i_lp_mmshare_version>
43012

> <i_f3d_flags>
0

> <s_epik_input>
W0NIM11uMW5bY0hdbmMxW05IXUMoPU8pW05IXVtDQEBIXShDKE8yKShbQ0gzXSlbQ0gzXSlbQ0gyXUMyKFtDSDNdKVtDSDNd

> <s_epik_cmdline>
J2VwaWtfcHl0aG9uJywgJy1waCcsICc3LjAnLCAnLXRuJywgJzgnLCAnLW1hJywgJzIwMCcsICctbWV0YWxfYmluZGluZycsICctaW1hZScsICc8aW5maWxlLm1hZT4nLCAnLW9tYWUnLCAnPG91dGZpbGUubWFlPic=

> <r_lp_tautomer_probability>
1

> <r_epik_Ionization_Penalty>
1.97832e-05

> <r_epik_Ionization_Penalty_Charging>
0

> <r_epik_Ionization_Penalty_Neutral>
1.97832e-05

> <r_epik_State_Penalty>
-0

> <r_epik_Charging_Adjusted_Penalty>
0

> <i_epik_Tot_Q>
0

> <i_epik_Tot_abs_Q>
0

> <r_epik_Metal_State_Penalty>
-0

> <b_epik_Metal_Only>
0

> <s_lp_Force_Field>
OPLS_2005

> <r_lp_Energy>
17.1515

> <b_lp_Chiralities_Consistent>
1

> <s_lp_Variant>
AV-unprocessed.smi:2325-2

> <Gold.Version>
5.8.1

> <Gold.Id.Protein>
6NUR|6NUR_protein|mol2

> <Gold.PLP.Fitness>
31.0733

> <Gold.PLP.PLP>
-25.8173

> <Gold.PLP.part.hbond>
-2.0000

> <Gold.PLP.part.metal>
0.0000

> <Gold.PLP.part.buried>
-3.8443

> <Gold.PLP.part.nonpolar>
-20.7725

> <Gold.PLP.part.repulsive>
0.4129

> <Gold.PLP.ligand.clash>
0.0000

> <Gold.PLP.ligand.torsion>
0.1977

> <Gold.PLP.Chemscore.Hbond>
1.8800

> <Gold.PLP.Chemscore.CHOScore>
0.0000

> <Gold.PLP.Chemscore.Metal>
0.0000

> <Gold.Chemscore.Hbonds>
donor molecule, donor type, donor heavy atom, donor atom, acceptor molecule, acceptor atom, score
      P1  H  6896  6909       L1     9  0.79
      P1  H  7997  8008       L1     3  1.00

> <Gold.PLP.Chemscore.Internal.Correction>
0.0112

> <Gold.Rescore>
     Score         DG    S(hbond)    S(metal)    S(lipo)     H(rot)  DE(clash)    DE(int)     intcor
     13.79     -15.17       1.90        0.00      50.44       1.00       0.05       1.33       ----

> <Gold.Chemscore.Fitness>
13.7949

> <Gold.Chemscore.DG>
-15.1727

> <Gold.Chemscore.ZeroCoef>
-5.4800

> <Gold.Chemscore.Hbond>
1.9016

> <Gold.Chemscore.Metal>
0.0000

> <Gold.Chemscore.Lipo>
50.4382

> <Gold.Chemscore.Internal_Hbond>
0.0000

> <Gold.Chemscore.DEClash>
0.0456

> <Gold.Chemscore.DEInternal>
1.3322

> <Gold.Chemscore.Rot>
1.0000

> <Gold.Chemscore.Internal.Correction>
   9.000000E+99

> <Gold.Chemscore.Hbonds>
donor molecule, donor type, donor heavy atom, donor atom, acceptor molecule, acceptor atom, score
      P1  H  6896  6909       L1     9  0.23
      P1  H  7997  8008       L1     3  0.80

> <Gold.Chemscore.Hbond.Weighted>
-6.3514

> <Gold.Chemscore.Metal.Weighted>
-0.0000

> <Gold.Chemscore.Lipo.Weighted>
-5.9013

> <Gold.Chemscore.Internal_Hbond.Weighted>
0.0000

> <Gold.Chemscore.DEClash.Weighted>
0.0456

> <Gold.Chemscore.DEInternal.Weighted>
1.3322

> <Gold.Chemscore.Rot.Weighted>
2.5600

> <Gold.Chemscore.Internal.Correction.Weighted>
   9.000000E+99

> <Gold.Protein.RotatedTorsions>
[ 6907 6896 6895 6894 ] final   60.93 input  -60.11 | X-H torsion
[ 7974 7965 7964 7962 ] final -148.83 input  175.53 | X-H torsion
[ 8008 7997 7996 7995 ] final  -49.43 input   59.86 | X-H torsion
[ 10167 10162 10161 10158 ] final -111.37 input  -65.29 | X-H torsion
[ 10718 10713 10712 10709 ] final    0.73 input   66.30 | X-H torsion
[ 10763 10752 10751 10750 ] final  -55.49 input  -60.55 | X-H torsion
[ 11005 11000 10999 10996 ] final   31.30 input  -57.11 | X-H torsion

> <Gold.Protein.ActiveResidues>
 VAL166  LYS551  ARG553  GLY616  TRP617  ASP618  TYR619  PRO620  LYS621  CYS622 
 ASP623  PHE694  ASN695  SER759  ASP760  ASP761  ALA762  ILE779  LEU786  VAL792 
 PHE793  MET794  SER795  GLU796  ALA797  LYS798  CYS799  TRP800  GLU811  SER814 

> <Gold.Protein.RotatedAtoms>
  152.4045  134.6230  160.0055 H   0  0  0  0  0  0  0  0  0  0  0  0  # atno 6907 bound_to 6896
  151.6425  133.3319  159.3141 H   0  0  0  0  0  0  0  0  0  0  0  0  # atno 6908 bound_to 6896
  150.7941  134.7030  159.6605 H   0  0  0  0  0  0  0  0  0  0  0  0  # atno 6909 bound_to 6896
  144.8005  140.5145  143.5710 H   0  0  0  0  0  0  0  0  0  0  0  0  # atno 7974 bound_to 7965
  154.4044  140.1297  156.4501 H   0  0  0  0  0  0  0  0  0  0  0  0  # atno 8008 bound_to 7997
  155.7374  140.3490  155.5068 H   0  0  0  0  0  0  0  0  0  0  0  0  # atno 8009 bound_to 7997
  155.9071  140.1029  157.1297 H   0  0  0  0  0  0  0  0  0  0  0  0  # atno 8010 bound_to 7997
  140.1343  143.4333  152.1606 H   0  0  0  0  0  0  0  0  0  0  0  0  # atno 10167 bound_to 10162
  156.8377  130.5510  149.5680 H   0  0  0  0  0  0  0  0  0  0  0  0  # atno 10718 bound_to 10713
  154.1917  135.6426  153.5062 H   0  0  0  0  0  0  0  0  0  0  0  0  # atno 10763 bound_to 10752
  153.0033  135.5430  154.6408 H   0  0  0  0  0  0  0  0  0  0  0  0  # atno 10764 bound_to 10752
  154.5799  135.2924  155.0716 H   0  0  0  0  0  0  0  0  0  0  0  0  # atno 10765 bound_to 10752
  140.2853  134.2926  155.7790 H   0  0  0  0  0  0  0  0  0  0  0  0  # atno 11005 bound_to 11000
  145.5565  139.1478  143.3365 LP  0  0  0  0  0  0  0  0  0  0  0  0  # atno 17320 bound_to 7965
  146.2285  140.5702  142.8986 LP  0  0  0  0  0  0  0  0  0  0  0  0  # atno 17321 bound_to 7965
  139.5503  144.7332  151.4454 LP  0  0  0  0  0  0  0  0  0  0  0  0  # atno 17342 bound_to 10162
  140.6798  143.8107  150.7106 LP  0  0  0  0  0  0  0  0  0  0  0  0  # atno 17343 bound_to 10162
  156.0898  130.5887  150.9713 LP  0  0  0  0  0  0  0  0  0  0  0  0  # atno 17370 bound_to 10713
  157.6373  131.0914  150.8323 LP  0  0  0  0  0  0  0  0  0  0  0  0  # atno 17371 bound_to 10713
  141.2156  133.7551  156.9542 LP  0  0  0  0  0  0  0  0  0  0  0  0  # atno 17394 bound_to 11000
  140.1245  134.9395  157.2251 LP  0  0  0  0  0  0  0  0  0  0  0  0  # atno 17395 bound_to 11000

$$$$
