AV-unprocessed.smi:281|AV-procd|sdf|2114|dock8
  -GOLD-   2262021413D 1   1.00000     0.00000
 Structure written by MMmdl.
 55 59  0  0  0  0  0  0  0  0  1 V2000
  153.8747  141.0695  161.4969 C   0  0  0  0  0  0  0  0  0  0  0  0
  153.4339  141.5345  160.1057 C   0  0  1  0  0  0  0  0  0  0  0  0
  152.8379  140.3864  159.2761 C   0  0  0  0  0  0  0  0  0  0  0  0
  152.3532  140.9047  158.0065 N   0  0  0  0  0  0  0  0  0  0  0  0
  151.9776  139.9468  157.1344 C   0  0  0  0  0  0  0  0  0  0  0  0
  152.7196  139.8137  156.0085 N   0  0  0  0  0  0  0  0  0  0  0  0
  152.3984  138.8831  155.1046 C   0  0  0  0  0  0  0  0  0  0  0  0
  151.3942  138.0039  155.1313 N   0  0  0  0  0  0  0  0  0  0  0  0
  150.6444  138.1389  156.2630 C   0  0  0  0  0  0  0  0  0  0  0  0
  150.8668  139.0743  157.3121 C   0  0  0  0  0  0  0  0  0  0  0  0
  149.9093  138.9091  158.3056 N   0  0  0  0  0  0  0  0  0  0  0  0
  149.1625  137.9328  157.8676 C   0  0  0  0  0  0  0  0  0  0  0  0
  149.5244  137.4189  156.6421 N   0  0  0  0  0  0  0  0  0  0  0  0
  148.8707  136.3379  155.9191 C   0  0  0  0  0  0  0  0  0  0  0  0
  149.8453  135.2431  155.4194 C   0  0  1  0  0  0  0  0  0  0  0  0
  150.6107  135.7624  154.3473 O   0  0  0  0  0  0  0  0  0  0  0  0
  150.7936  134.7593  156.5190 C   0  0  0  0  0  0  0  0  0  0  0  0
  150.2892  133.3571  156.8375 C   0  0  0  0  0  0  0  0  0  0  0  0
  149.8587  132.8896  155.5721 O   0  0  0  0  0  0  0  0  0  0  0  0
  149.1407  133.9506  154.9593 C   0  0  0  0  0  0  0  0  0  0  0  0
  151.3723  141.9687  158.1721 C   0  0  0  0  0  0  0  0  0  0  0  0
  151.9324  143.1095  159.0534 C   0  0  1  0  0  0  0  0  0  0  0  0
  152.9981  143.9611  158.3494 C   0  0  0  0  0  0  0  0  0  0  0  0
  152.2916  145.2753  158.0464 C   0  0  0  0  0  0  0  0  0  0  0  0
  151.4215  145.4157  159.1535 O   0  0  0  0  0  0  0  0  0  0  0  0
  150.8257  144.1453  159.3695 C   0  0  2  0  0  0  0  0  0  0  0  0
  150.2155  144.0707  160.7765 C   0  0  0  0  0  0  0  0  0  0  0  0
  152.4505  142.5574  160.2714 O   0  0  0  0  0  0  0  0  0  0  0  0
  154.6340  140.2900  161.4284 H   0  0  0  0  0  0  0  0  0  0  0  0
  153.0335  140.6701  162.0640 H   0  0  0  0  0  0  0  0  0  0  0  0
  154.2981  141.8968  162.0672 H   0  0  0  0  0  0  0  0  0  0  0  0
  154.3046  141.9394  159.5887 H   0  0  0  0  0  0  0  0  0  0  0  0
  153.5924  139.6185  159.1001 H   0  0  0  0  0  0  0  0  0  0  0  0
  152.0184  139.9172  159.8221 H   0  0  0  0  0  0  0  0  0  0  0  0
  153.0371  138.8364  154.2349 H   0  0  0  0  0  0  0  0  0  0  0  0
  148.3192  137.5614  158.4314 H   0  0  0  0  0  0  0  0  0  0  0  0
  148.1139  135.8997  156.5715 H   0  0  0  0  0  0  0  0  0  0  0  0
  148.3307  136.7715  155.0764 H   0  0  0  0  0  0  0  0  0  0  0  0
  150.0270  135.9621  153.6315 H   0  0  0  0  0  0  0  0  0  0  0  0
  151.8185  134.6898  156.1502 H   0  0  0  0  0  0  0  0  0  0  0  0
  150.8075  135.4044  157.3982 H   0  0  0  0  0  0  0  0  0  0  0  0
  151.0614  132.7169  157.2649 H   0  0  0  0  0  0  0  0  0  0  0  0
  149.4442  133.3904  157.5271 H   0  0  0  0  0  0  0  0  0  0  0  0
  148.1171  133.9065  155.3318 H   0  0  0  0  0  0  0  0  0  0  0  0
  149.1021  133.8341  153.8754 H   0  0  0  0  0  0  0  0  0  0  0  0
  151.0754  142.3543  157.1955 H   0  0  0  0  0  0  0  0  0  0  0  0
  150.4749  141.5601  158.6386 H   0  0  0  0  0  0  0  0  0  0  0  0
  153.8264  144.1661  159.0287 H   0  0  0  0  0  0  0  0  0  0  0  0
  153.4129  143.4939  157.4558 H   0  0  0  0  0  0  0  0  0  0  0  0
  152.9807  146.1163  157.9634 H   0  0  0  0  0  0  0  0  0  0  0  0
  151.7128  145.2078  157.1238 H   0  0  0  0  0  0  0  0  0  0  0  0
  150.0208  144.0522  158.6377 H   0  0  0  0  0  0  0  0  0  0  0  0
  149.7774  143.0896  160.9609 H   0  0  0  0  0  0  0  0  0  0  0  0
  149.4275  144.8144  160.8960 H   0  0  0  0  0  0  0  0  0  0  0  0
  150.9635  144.2572  161.5475 H   0  0  0  0  0  0  0  0  0  0  0  0
  1  2  1  0  0  0  0
  1 29  1  0  0  0  0
  1 30  1  0  0  0  0
  1 31  1  0  0  0  0
  2 28  1  0  0  0  0
  2  3  1  0  0  0  0
  2 32  1  0  0  0  0
  3  4  1  0  0  0  0
  3 33  1  0  0  0  0
  3 34  1  0  0  0  0
  4  5  1  0  0  0  0
  4 21  1  0  0  0  0
  5 10  1  0  0  0  0
  5  6  2  0  0  0  0
  6  7  1  0  0  0  0
  7  8  2  0  0  0  0
  7 35  1  0  0  0  0
  8  9  1  0  0  0  0
  9 13  1  0  0  0  0
  9 10  2  0  0  0  0
 10 11  1  0  0  0  0
 11 12  2  0  0  0  0
 12 13  1  0  0  0  0
 12 36  1  0  0  0  0
 13 14  1  0  0  0  0
 14 15  1  0  0  0  0
 14 37  1  0  0  0  0
 14 38  1  0  0  0  0
 15 20  1  0  0  0  0
 15 16  1  0  0  0  0
 15 17  1  0  0  0  0
 16 39  1  0  0  0  0
 17 18  1  0  0  0  0
 17 40  1  0  0  0  0
 17 41  1  0  0  0  0
 18 19  1  0  0  0  0
 18 42  1  0  0  0  0
 18 43  1  0  0  0  0
 19 20  1  0  0  0  0
 20 44  1  0  0  0  0
 20 45  1  0  0  0  0
 21 22  1  0  0  0  0
 21 46  1  0  0  0  0
 21 47  1  0  0  0  0
 22 26  1  0  0  0  0
 22 23  1  0  0  0  0
 22 28  1  0  0  0  0
 23 24  1  0  0  0  0
 23 48  1  0  0  0  0
 23 49  1  0  0  0  0
 24 25  1  0  0  0  0
 24 50  1  0  0  0  0
 24 51  1  0  0  0  0
 25 26  1  0  0  0  0
 26 27  1  0  0  0  0
 26 52  1  0  0  0  0
 27 53  1  0  0  0  0
 27 54  1  0  0  0  0
 27 55  1  0  0  0  0
M  END
> <s_m_source_file>
AV-unprocessed.smi

> <i_m_source_file_index>
281

> <i_lp_mmshare_version>
43012

> <i_f3d_flags>
0

> <s_epik_input>
W0NIM11bQ0BASF0xT1tDSDJdW0NIMl1bQ0BAXTEyW0NIMl1OKFtDSDJdW0NASF0oTzIpW0NIM10pYyhuW2NIXW4zKWMoYzM0KW5bY0hdbjRbQ0gyXVtDQEBdNShbT0hdKVtDSDJdW0NIMl1PW0NIMl01

> <s_epik_cmdline>
J2VwaWtfcHl0aG9uJywgJy1waCcsICc3LjAnLCAnLXRuJywgJzgnLCAnLW1hJywgJzIwMCcsICctbWV0YWxfYmluZGluZycsICctaW1hZScsICc8aW5maWxlLm1hZT4nLCAnLW9tYWUnLCAnPG91dGZpbGUubWFlPic=

> <r_lp_tautomer_probability>
1

> <r_epik_Ionization_Penalty>
0.00571331

> <r_epik_Ionization_Penalty_Charging>
0

> <r_epik_Ionization_Penalty_Neutral>
0.00571331

> <r_epik_State_Penalty>
0.00399586

> <r_epik_Charging_Adjusted_Penalty>
0.00399586

> <i_epik_Tot_Q>
0

> <i_epik_Tot_abs_Q>
0

> <r_epik_Metal_State_Penalty>
-0

> <b_epik_Metal_Only>
0

> <s_lp_Force_Field>
OPLS_2005

> <r_lp_Energy>
55.7735

> <b_lp_Chiralities_Consistent>
1

> <s_lp_Variant>
AV-unprocessed.smi:281-14

> <Gold.Version>
5.8.1

> <Gold.Id.Protein>
6NUR|6NUR_protein|mol2

> <Gold.PLP.Fitness>
45.2460

> <Gold.PLP.PLP>
-39.6684

> <Gold.PLP.part.hbond>
-4.1244

> <Gold.PLP.part.metal>
0.0000

> <Gold.PLP.part.buried>
-3.3322

> <Gold.PLP.part.nonpolar>
-32.5789

> <Gold.PLP.part.repulsive>
0.2202

> <Gold.PLP.ligand.clash>
0.0000

> <Gold.PLP.ligand.torsion>
0.2857

> <Gold.PLP.Chemscore.Hbond>
2.0075

> <Gold.PLP.Chemscore.CHOScore>
0.0000

> <Gold.PLP.Chemscore.Metal>
0.0000

> <Gold.Chemscore.Hbonds>
donor molecule, donor type, donor heavy atom, donor atom, acceptor molecule, acceptor atom, score
      L1  H    16    39       P1  7948  0.54
      P1  H  7997  8010       L1     6  1.00
      P1  H 10752 10764       L1    16  0.31

> <Gold.PLP.Chemscore.Internal.Correction>
0.1264

> <Gold.Rescore>
     Score         DG    S(hbond)    S(metal)    S(lipo)     H(rot)  DE(clash)    DE(int)     intcor
     17.06     -19.06       1.65        0.00     114.65       2.09       1.77       0.24       ----

> <Gold.Chemscore.Fitness>
17.0561

> <Gold.Chemscore.DG>
-19.0583

> <Gold.Chemscore.ZeroCoef>
-5.4800

> <Gold.Chemscore.Hbond>
1.6532

> <Gold.Chemscore.Metal>
0.0000

> <Gold.Chemscore.Lipo>
114.6497

> <Gold.Chemscore.Internal_Hbond>
0.0000

> <Gold.Chemscore.DEClash>
1.7651

> <Gold.Chemscore.DEInternal>
0.2371

> <Gold.Chemscore.Rot>
2.0927

> <Gold.Chemscore.Internal.Correction>
   9.000000E+99

> <Gold.Chemscore.Hbonds>
donor molecule, donor type, donor heavy atom, donor atom, acceptor molecule, acceptor atom, score
      L1  H    16    39       P1  7948  0.03
      P1  H  7997  8010       L1     6  0.47
      P1  H 10752 10764       L1    16  0.30

> <Gold.Chemscore.Hbond.Weighted>
-5.5217

> <Gold.Chemscore.Metal.Weighted>
-0.0000

> <Gold.Chemscore.Lipo.Weighted>
-13.4140

> <Gold.Chemscore.Internal_Hbond.Weighted>
0.0000

> <Gold.Chemscore.DEClash.Weighted>
1.7651

> <Gold.Chemscore.DEInternal.Weighted>
0.2371

> <Gold.Chemscore.Rot.Weighted>
5.3573

> <Gold.Chemscore.Internal.Correction.Weighted>
   9.000000E+99

> <Gold.Protein.RotatedTorsions>
[ 6907 6896 6895 6894 ] final  165.07 input  -60.11 | X-H torsion
[ 7974 7965 7964 7962 ] final -171.85 input  175.53 | X-H torsion
[ 8008 7997 7996 7995 ] final   64.69 input   59.86 | X-H torsion
[ 10167 10162 10161 10158 ] final -145.42 input  -65.29 | X-H torsion
[ 10718 10713 10712 10709 ] final  167.95 input   66.30 | X-H torsion
[ 10763 10752 10751 10750 ] final  -74.95 input  -60.55 | X-H torsion
[ 11005 11000 10999 10996 ] final   26.43 input  -57.11 | X-H torsion

> <Gold.Protein.ActiveResidues>
 VAL166  LYS551  ARG553  GLY616  TRP617  ASP618  TYR619  PRO620  LYS621  CYS622 
 ASP623  PHE694  ASN695  SER759  ASP760  ASP761  ALA762  ILE779  LEU786  VAL792 
 PHE793  MET794  SER795  GLU796  ALA797  LYS798  CYS799  TRP800  GLU811  SER814 

> <Gold.Protein.RotatedAtoms>
  151.9002  133.3536  159.3827 H   0  0  0  0  0  0  0  0  0  0  0  0  # atno 6907 bound_to 6896
  150.7082  134.4836  159.5491 H   0  0  0  0  0  0  0  0  0  0  0  0  # atno 6908 bound_to 6896
  152.2423  134.8216  160.0509 H   0  0  0  0  0  0  0  0  0  0  0  0  # atno 6909 bound_to 6896
  144.7152  140.1861  143.6353 H   0  0  0  0  0  0  0  0  0  0  0  0  # atno 7974 bound_to 7965
  155.6500  140.3497  155.4745 H   0  0  0  0  0  0  0  0  0  0  0  0  # atno 8008 bound_to 7997
  155.9856  140.1183  157.0710 H   0  0  0  0  0  0  0  0  0  0  0  0  # atno 8009 bound_to 7997
  154.4204  140.1129  156.5481 H   0  0  0  0  0  0  0  0  0  0  0  0  # atno 8010 bound_to 7997
  139.7807  143.8105  152.2638 H   0  0  0  0  0  0  0  0  0  0  0  0  # atno 10167 bound_to 10162
  157.0442  131.0295  151.2703 H   0  0  0  0  0  0  0  0  0  0  0  0  # atno 10718 bound_to 10713
  154.4801  135.5847  153.6383 H   0  0  0  0  0  0  0  0  0  0  0  0  # atno 10763 bound_to 10752
  152.9846  135.6087  154.3258 H   0  0  0  0  0  0  0  0  0  0  0  0  # atno 10764 bound_to 10752
  154.3148  135.2844  155.2528 H   0  0  0  0  0  0  0  0  0  0  0  0  # atno 10765 bound_to 10752
  140.3371  134.2374  155.7694 H   0  0  0  0  0  0  0  0  0  0  0  0  # atno 11005 bound_to 11000
  145.8812  139.2324  143.1604 LP  0  0  0  0  0  0  0  0  0  0  0  0  # atno 17320 bound_to 7965
  145.9993  140.8534  143.0027 LP  0  0  0  0  0  0  0  0  0  0  0  0  # atno 17321 bound_to 7965
  139.8167  144.7313  150.9626 LP  0  0  0  0  0  0  0  0  0  0  0  0  # atno 17342 bound_to 10162
  140.7818  143.4198  151.0859 LP  0  0  0  0  0  0  0  0  0  0  0  0  # atno 17343 bound_to 10162
  157.5081  130.7921  149.7675 LP  0  0  0  0  0  0  0  0  0  0  0  0  # atno 17370 bound_to 10713
  156.0028  130.3871  150.2541 LP  0  0  0  0  0  0  0  0  0  0  0  0  # atno 17371 bound_to 10713
  141.2048  133.7876  157.0266 LP  0  0  0  0  0  0  0  0  0  0  0  0  # atno 17394 bound_to 11000
  140.0812  134.9647  157.1627 LP  0  0  0  0  0  0  0  0  0  0  0  0  # atno 17395 bound_to 11000

$$$$
