AV-unprocessed.smi:1187|AV-procd|sdf|4976|dock10
  -GOLD-   22720 3573D 1   1.00000     0.00000
 Structure written by MMmdl.
 38 39  0  0  0  0  0  0  0  0  1 V2000
  150.9677  141.6411  158.1848 C   0  0  0  0  0  0  0  0  0  0  0  0
  151.1308  141.5134  156.7765 O   0  0  0  0  0  0  0  0  0  0  0  0
  150.3895  140.5554  156.1156 C   0  0  0  0  0  0  0  0  0  0  0  0
  149.2902  139.9754  156.7795 C   0  0  0  0  0  0  0  0  0  0  0  0
  148.5305  138.9947  156.1131 C   0  0  0  0  0  0  0  0  0  0  0  0
  148.9019  138.6182  154.8002 C   0  0  0  0  0  0  0  0  0  0  0  0
  148.2114  137.6550  154.0162 N   0  0  0  0  0  0  0  0  0  0  0  0
  147.0599  137.0189  154.2912 C   0  0  0  0  0  0  0  0  0  0  0  0
  146.3835  137.1733  155.3079 O   0  0  0  0  0  0  0  0  0  0  0  0
  146.7354  136.1622  153.3116 N   0  0  0  0  0  0  0  0  0  0  0  0
  145.5455  135.3134  153.2939 C   0  0  0  0  0  0  0  0  0  0  0  0
  145.8471  133.8427  152.9510 C   0  0  0  0  0  0  0  0  0  0  0  0
  146.4823  133.1437  153.7428 O   0  0  0  0  0  0  0  0  0  0  0  0
  145.3846  133.3563  151.7805 N   0  0  0  0  0  0  0  0  0  0  0  0
  144.6058  134.1032  150.7934 C   0  0  0  0  0  0  0  0  0  0  0  0
  144.1067  133.0642  149.7888 C   0  0  0  0  0  0  0  0  0  0  0  0
  145.1235  131.9353  149.8832 C   0  0  0  0  0  0  0  0  0  0  0  0
  145.5973  131.9800  151.3363 C   0  0  0  0  0  0  0  0  0  0  0  0
  150.0089  139.2703  154.2190 C   0  0  0  0  0  0  0  0  0  0  0  0
  150.7415  140.2100  154.8526 N   0  0  0  0  0  0  0  0  0  0  0  0
  151.6182  142.4341  158.5534 H   0  0  0  0  0  0  0  0  0  0  0  0
  151.2410  140.7216  158.7042 H   0  0  0  0  0  0  0  0  0  0  0  0
  149.9420  141.9077  158.4439 H   0  0  0  0  0  0  0  0  0  0  0  0
  149.0321  140.2799  157.7831 H   0  0  0  0  0  0  0  0  0  0  0  0
  147.6777  138.5653  156.6153 H   0  0  0  0  0  0  0  0  0  0  0  0
  148.6849  137.3672  153.1724 H   0  0  0  0  0  0  0  0  0  0  0  0
  147.3477  136.0999  152.5117 H   0  0  0  0  0  0  0  0  0  0  0  0
  145.0903  135.3551  154.2835 H   0  0  0  0  0  0  0  0  0  0  0  0
  144.8152  135.7204  152.5927 H   0  0  0  0  0  0  0  0  0  0  0  0
  143.7714  134.6427  151.2435 H   0  0  0  0  0  0  0  0  0  0  0  0
  145.2560  134.8275  150.3003 H   0  0  0  0  0  0  0  0  0  0  0  0
  143.1272  132.6981  150.0992 H   0  0  0  0  0  0  0  0  0  0  0  0
  144.0095  133.4638  148.7789 H   0  0  0  0  0  0  0  0  0  0  0  0
  144.7076  130.9669  149.6037 H   0  0  0  0  0  0  0  0  0  0  0  0
  145.9628  132.1437  149.2186 H   0  0  0  0  0  0  0  0  0  0  0  0
  146.6418  131.6762  151.4226 H   0  0  0  0  0  0  0  0  0  0  0  0
  144.9966  131.3115  151.9550 H   0  0  0  0  0  0  0  0  0  0  0  0
  150.3230  139.0276  153.2141 H   0  0  0  0  0  0  0  0  0  0  0  0
  1  2  1  0  0  0  0
  1 21  1  0  0  0  0
  1 22  1  0  0  0  0
  1 23  1  0  0  0  0
  2  3  1  0  0  0  0
  3 20  1  0  0  0  0
  3  4  2  0  0  0  0
  4  5  1  0  0  0  0
  4 24  1  0  0  0  0
  5  6  2  0  0  0  0
  5 25  1  0  0  0  0
  6  7  1  0  0  0  0
  6 19  1  0  0  0  0
  7  8  1  0  0  0  0
  7 26  1  0  0  0  0
  8  9  2  0  0  0  0
  8 10  1  0  0  0  0
 10 11  1  0  0  0  0
 10 27  1  0  0  0  0
 11 12  1  0  0  0  0
 11 28  1  0  0  0  0
 11 29  1  0  0  0  0
 12 13  2  0  0  0  0
 12 14  1  0  0  0  0
 14 18  1  0  0  0  0
 14 15  1  0  0  0  0
 15 16  1  0  0  0  0
 15 30  1  0  0  0  0
 15 31  1  0  0  0  0
 16 17  1  0  0  0  0
 16 32  1  0  0  0  0
 16 33  1  0  0  0  0
 17 18  1  0  0  0  0
 17 34  1  0  0  0  0
 17 35  1  0  0  0  0
 18 36  1  0  0  0  0
 18 37  1  0  0  0  0
 19 20  2  0  0  0  0
 19 38  1  0  0  0  0
M  END
> <s_m_source_file>
AV-unprocessed.smi

> <i_m_source_file_index>
1187

> <i_lp_mmshare_version>
43012

> <i_f3d_flags>
0

> <s_epik_input>
W0NIM11PYzFbY0hdW2NIXWMoW2NIXW4xKVtOSF1DKD1PKVtOSF1bQ0gyXUMoPU8pTjJbQ0gyXVtDSDJdW0NIMl1bQ0gyXTI=

> <s_epik_cmdline>
J2VwaWtfcHl0aG9uJywgJy1waCcsICc3LjAnLCAnLXRuJywgJzgnLCAnLW1hJywgJzIwMCcsICctbWV0YWxfYmluZGluZycsICctaW1hZScsICc8aW5maWxlLm1hZT4nLCAnLW9tYWUnLCAnPG91dGZpbGUubWFlPic=

> <r_lp_tautomer_probability>
1

> <r_epik_Ionization_Penalty>
0.000141675

> <r_epik_Ionization_Penalty_Charging>
0

> <r_epik_Ionization_Penalty_Neutral>
0.000141675

> <r_epik_State_Penalty>
-0

> <r_epik_Charging_Adjusted_Penalty>
0

> <i_epik_Tot_Q>
0

> <i_epik_Tot_abs_Q>
0

> <r_epik_Metal_State_Penalty>
-0

> <b_epik_Metal_Only>
0

> <s_lp_Force_Field>
OPLS_2005

> <r_lp_Energy>
27.0256

> <b_lp_Chiralities_Consistent>
1

> <s_lp_Variant>
AV-unprocessed.smi:1187-1

> <Gold.Version>
5.8.1

> <Gold.Id.Protein>
6NUR|6NUR_protein|mol2

> <Gold.PLP.Fitness>
38.1448

> <Gold.PLP.PLP>
-26.7905

> <Gold.PLP.part.hbond>
-3.0000

> <Gold.PLP.part.metal>
0.0000

> <Gold.PLP.part.buried>
-4.7340

> <Gold.PLP.part.nonpolar>
-19.9633

> <Gold.PLP.part.repulsive>
0.2259

> <Gold.PLP.ligand.clash>
0.0000

> <Gold.PLP.ligand.torsion>
0.3164

> <Gold.PLP.Chemscore.Hbond>
3.0000

> <Gold.PLP.Chemscore.CHOScore>
0.9940

> <Gold.PLP.Chemscore.Metal>
0.0000

> <Gold.Chemscore.Hbonds>
donor molecule, donor type, donor heavy atom, donor atom, acceptor molecule, acceptor atom, score
      L1  H     7    26       P1  7948  1.00
      L1  H    10    27       P1  7948  0.99
      P1  H  7989  7998       L1    20  1.00
      L1  C    19    38       P1  7957  0.98

> <Gold.PLP.Chemscore.Internal.Correction>
0.0050

> <Gold.Rescore>
     Score         DG    S(hbond)    S(metal)    S(lipo)     H(rot)  DE(clash)    DE(int)     intcor
     14.82     -16.45       2.44        0.00      58.75       1.58       0.17       1.47       ----

> <Gold.Chemscore.Fitness>
14.8205

> <Gold.Chemscore.DG>
-16.4516

> <Gold.Chemscore.ZeroCoef>
-5.4800

> <Gold.Chemscore.Hbond>
2.4382

> <Gold.Chemscore.Metal>
0.0000

> <Gold.Chemscore.Lipo>
58.7524

> <Gold.Chemscore.Internal_Hbond>
0.0000

> <Gold.Chemscore.DEClash>
0.1658

> <Gold.Chemscore.DEInternal>
1.4652

> <Gold.Chemscore.Rot>
1.5804

> <Gold.Chemscore.Internal.Correction>
   9.000000E+99

> <Gold.Chemscore.Hbonds>
donor molecule, donor type, donor heavy atom, donor atom, acceptor molecule, acceptor atom, score
      L1  H     7    26       P1  7948  0.97
      L1  H    10    27       P1  7948  0.94
      P1  H  7989  7998       L1    20  0.26

> <Gold.Chemscore.Hbond.Weighted>
-8.1434

> <Gold.Chemscore.Metal.Weighted>
-0.0000

> <Gold.Chemscore.Lipo.Weighted>
-6.8740

> <Gold.Chemscore.Internal_Hbond.Weighted>
0.0000

> <Gold.Chemscore.DEClash.Weighted>
0.1658

> <Gold.Chemscore.DEInternal.Weighted>
1.4652

> <Gold.Chemscore.Rot.Weighted>
4.0459

> <Gold.Chemscore.Internal.Correction.Weighted>
   9.000000E+99

> <Gold.Protein.RotatedTorsions>
[ 6907 6896 6895 6894 ] final   84.43 input  -60.11 | X-H torsion
[ 7974 7965 7964 7962 ] final  -39.35 input  175.53 | X-H torsion
[ 8008 7997 7996 7995 ] final  100.80 input   59.86 | X-H torsion
[ 10167 10162 10161 10158 ] final  124.62 input  -65.29 | X-H torsion
[ 10718 10713 10712 10709 ] final  151.67 input   66.30 | X-H torsion
[ 10763 10752 10751 10750 ] final -149.39 input  -60.55 | X-H torsion
[ 11005 11000 10999 10996 ] final  158.54 input  -57.11 | X-H torsion

> <Gold.Protein.ActiveResidues>
 VAL166  LYS551  ARG553  GLY616  TRP617  ASP618  TYR619  PRO620  LYS621  CYS622 
 ASP623  PHE694  ASN695  SER759  ASP760  ASP761  ALA762  ILE779  LEU786  VAL792 
 PHE793  MET794  SER795  GLU796  ALA797  LYS798  CYS799  TRP800  GLU811  SER814 

> <Gold.Protein.RotatedAtoms>
  152.5352  134.2743  159.8982 H   0  0  0  0  0  0  0  0  0  0  0  0  # atno 6907 bound_to 6896
  151.2699  133.4254  159.2628 H   0  0  0  0  0  0  0  0  0  0  0  0  # atno 6908 bound_to 6896
  151.0377  134.9600  159.8202 H   0  0  0  0  0  0  0  0  0  0  0  0  # atno 6909 bound_to 6896
  146.0404  140.6616  142.9090 H   0  0  0  0  0  0  0  0  0  0  0  0  # atno 7974 bound_to 7965
  156.1238  140.3207  155.8247 H   0  0  0  0  0  0  0  0  0  0  0  0  # atno 8008 bound_to 7997
  155.4457  140.0528  157.3023 H   0  0  0  0  0  0  0  0  0  0  0  0  # atno 8009 bound_to 7997
  154.4847  140.2067  155.9696 H   0  0  0  0  0  0  0  0  0  0  0  0  # atno 8010 bound_to 7997
  139.5731  144.6949  151.3725 H   0  0  0  0  0  0  0  0  0  0  0  0  # atno 10167 bound_to 10162
  157.2677  131.0811  151.1621 H   0  0  0  0  0  0  0  0  0  0  0  0  # atno 10718 bound_to 10713
  154.8180  135.3310  154.7122 H   0  0  0  0  0  0  0  0  0  0  0  0  # atno 10763 bound_to 10752
  153.7759  135.6922  153.4902 H   0  0  0  0  0  0  0  0  0  0  0  0  # atno 10764 bound_to 10752
  153.2013  135.4515  155.0217 H   0  0  0  0  0  0  0  0  0  0  0  0  # atno 10765 bound_to 10752
  140.1875  134.8431  157.2874 H   0  0  0  0  0  0  0  0  0  0  0  0  # atno 11005 bound_to 11000
  144.7072  140.3898  143.7109 LP  0  0  0  0  0  0  0  0  0  0  0  0  # atno 17320 bound_to 7965
  145.6893  139.1635  143.2656 LP  0  0  0  0  0  0  0  0  0  0  0  0  # atno 17321 bound_to 7965
  140.7015  143.7620  150.7411 LP  0  0  0  0  0  0  0  0  0  0  0  0  # atno 17342 bound_to 10162
  140.1132  143.4680  152.2358 LP  0  0  0  0  0  0  0  0  0  0  0  0  # atno 17343 bound_to 10162
  157.3105  130.6887  149.6213 LP  0  0  0  0  0  0  0  0  0  0  0  0  # atno 17370 bound_to 10713
  155.9663  130.4365  150.5135 LP  0  0  0  0  0  0  0  0  0  0  0  0  # atno 17371 bound_to 10713
  140.2197  134.4039  155.7572 LP  0  0  0  0  0  0  0  0  0  0  0  0  # atno 17394 bound_to 11000
  141.2225  133.7159  156.8470 LP  0  0  0  0  0  0  0  0  0  0  0  0  # atno 17395 bound_to 11000

$$$$
