AV-unprocessed.smi:1767|AV-procd|sdf|7141|dock1
  -GOLD-   22720 8383D 1   1.00000     0.00000
 Structure written by MMmdl.
 33 35  0  0  0  0  0  0  0  0  2 V2000
  151.1769  144.1774  156.8731 O   0  0  0  0  0  0  0  0  0  0  0  0
  151.3682  142.9198  157.4873 C   0  0  2  0  0  0  0  0  0  0  0  0
  150.0666  142.1068  157.3337 C   0  0  0  0  0  0  0  0  0  0  0  0
  150.0447  141.3078  156.0998 N   0  0  0  0  0  0  0  0  0  0  0  0
  149.3848  141.5371  154.9321 C   0  0  0  0  0  0  0  0  0  0  0  0
  149.6947  140.5233  154.0776 N   0  3  0  0  0  0  0  0  0  0  0  0
  150.5641  139.6311  154.7082 C   0  0  0  0  0  0  0  0  0  0  0  0
  151.1566  138.4593  154.2475 C   0  0  0  0  0  0  0  0  0  0  0  0
  152.0028  137.7808  155.1490 C   0  0  0  0  0  0  0  0  0  0  0  0
  152.2310  138.2698  156.4516 C   0  0  0  0  0  0  0  0  0  0  0  0
  151.6229  139.4572  156.9085 C   0  0  0  0  0  0  0  0  0  0  0  0
  150.7898  140.1251  156.0107 C   0  0  0  0  0  0  0  0  0  0  0  0
  151.8096  143.0458  158.9395 C   0  0  0  0  0  0  0  0  0  0  0  0
  151.7221  144.2934  159.5940 C   0  0  0  0  0  0  0  0  0  0  0  0
  152.1581  144.4295  160.9261 C   0  0  0  0  0  0  0  0  0  0  0  0
  152.6822  143.3179  161.6131 C   0  0  0  0  0  0  0  0  0  0  0  0
  153.1057  143.4504  162.8921 F   0  0  0  0  0  0  0  0  0  0  0  0
  152.7682  142.0695  160.9678 C   0  0  0  0  0  0  0  0  0  0  0  0
  152.3338  141.9331  159.6349 C   0  0  0  0  0  0  0  0  0  0  0  0
  150.4252  144.1219  156.3026 H   0  0  0  0  0  0  0  0  0  0  0  0
  152.1617  142.4236  156.9264 H   0  0  0  0  0  0  0  0  0  0  0  0
  149.8899  141.4619  158.1948 H   0  0  0  0  0  0  0  0  0  0  0  0
  149.2124  142.7835  157.2803 H   0  0  0  0  0  0  0  0  0  0  0  0
  148.7376  142.3760  154.7194 H   0  0  0  0  0  0  0  0  0  0  0  0
  150.9840  138.0828  153.2499 H   0  0  0  0  0  0  0  0  0  0  0  0
  152.4868  136.8673  154.8350 H   0  0  0  0  0  0  0  0  0  0  0  0
  152.8870  137.7238  157.1141 H   0  0  0  0  0  0  0  0  0  0  0  0
  151.8099  139.8220  157.9073 H   0  0  0  0  0  0  0  0  0  0  0  0
  151.3302  145.1542  159.0722 H   0  0  0  0  0  0  0  0  0  0  0  0
  152.0928  145.3878  161.4202 H   0  0  0  0  0  0  0  0  0  0  0  0
  153.1707  141.2165  161.4940 H   0  0  0  0  0  0  0  0  0  0  0  0
  152.4144  140.9737  159.1454 H   0  0  0  0  0  0  0  0  0  0  0  0
  149.3387  140.4492  153.1330 H   0  0  0  0  0  0  0  0  0  0  0  0
  1  2  1  0  0  0  0
  1 20  1  0  0  0  0
  2  3  1  0  0  0  0
  2 13  1  0  0  0  0
  2 21  1  0  0  0  0
  3  4  1  0  0  0  0
  3 22  1  0  0  0  0
  3 23  1  0  0  0  0
  4 12  1  0  0  0  0
  4  5  1  0  0  0  0
  5  6  2  0  0  0  0
  5 24  1  0  0  0  0
  6  7  1  0  0  0  0
  6 33  1  0  0  0  0
  7 12  2  0  0  0  0
  7  8  1  0  0  0  0
  8  9  2  0  0  0  0
  8 25  1  0  0  0  0
  9 10  1  0  0  0  0
  9 26  1  0  0  0  0
 10 11  2  0  0  0  0
 10 27  1  0  0  0  0
 11 12  1  0  0  0  0
 11 28  1  0  0  0  0
 13 19  1  0  0  0  0
 13 14  2  0  0  0  0
 14 15  1  0  0  0  0
 14 29  1  0  0  0  0
 15 16  2  0  0  0  0
 15 30  1  0  0  0  0
 16 17  1  0  0  0  0
 16 18  1  0  0  0  0
 18 19  2  0  0  0  0
 18 31  1  0  0  0  0
 19 32  1  0  0  0  0
M  CHG  1   6   1
M  END
> <s_m_source_file>
AV-unprocessed.smi

> <i_m_source_file_index>
1767

> <i_lp_mmshare_version>
43012

> <i_f3d_flags>
0

> <s_epik_input>
W2NIXTFbY0hdYyhGKVtjSF1bY0hdYzFbQ0BIXShbT0hdKVtDSDJdbihbY0hdbjIpYyhjMjMpW2NIXVtjSF1bY0hdW2NIXTM=

> <s_epik_cmdline>
J2VwaWtfcHl0aG9uJywgJy1waCcsICc3LjAnLCAnLXRuJywgJzgnLCAnLW1hJywgJzIwMCcsICctbWV0YWxfYmluZGluZycsICctaW1hZScsICc8aW5maWxlLm1hZT4nLCAnLW9tYWUnLCAnPG91dGZpbGUubWFlPic=

> <r_epik_Ionization_Penalty>
1.3029

> <r_epik_Ionization_Penalty_Charging>
1.3029

> <r_epik_Ionization_Penalty_Neutral>
1.79538e-06

> <r_epik_State_Penalty>
1.377

> <r_epik_Charging_Adjusted_Penalty>
2.6799

> <i_epik_Tot_Q>
1

> <i_epik_Tot_abs_Q>
1

> <r_epik_Metal_State_Penalty>
5.40879

> <b_epik_Metal_Only>
0

> <s_lp_Force_Field>
OPLS_2005

> <r_lp_Energy>
17.7516

> <b_lp_Chiralities_Consistent>
1

> <s_lp_Variant>
AV-unprocessed.smi:1767-3

> <Gold.Version>
5.8.1

> <Gold.Id.Protein>
6NUR|6NUR_protein|mol2

> <Gold.PLP.Fitness>
54.0400

> <Gold.PLP.PLP>
-46.9015

> <Gold.PLP.part.hbond>
-2.0000

> <Gold.PLP.part.metal>
0.0000

> <Gold.PLP.part.buried>
-5.7216

> <Gold.PLP.part.nonpolar>
-40.7797

> <Gold.PLP.part.repulsive>
2.0824

> <Gold.PLP.ligand.clash>
0.0000

> <Gold.PLP.ligand.torsion>
0.8993

> <Gold.PLP.Chemscore.Hbond>
1.9920

> <Gold.PLP.Chemscore.CHOScore>
0.9774

> <Gold.PLP.Chemscore.Metal>
0.0000

> <Gold.Chemscore.Hbonds>
donor molecule, donor type, donor heavy atom, donor atom, acceptor molecule, acceptor atom, score
      L1  H     1    20       P1  8028  1.00
      L1  H     6    33       P1  7957  0.99
      L1  C     5    24       P1  8028  0.97

> <Gold.PLP.Chemscore.Internal.Correction>
0.0290

> <Gold.Rescore>
     Score         DG    S(hbond)    S(metal)    S(lipo)     H(rot)  DE(clash)    DE(int)     intcor
     18.67     -21.42       1.91        0.00     124.83       1.97       1.93       0.82       ----

> <Gold.Chemscore.Fitness>
18.6650

> <Gold.Chemscore.DG>
-21.4153

> <Gold.Chemscore.ZeroCoef>
-5.4800

> <Gold.Chemscore.Hbond>
1.9064

> <Gold.Chemscore.Metal>
0.0000

> <Gold.Chemscore.Lipo>
124.8284

> <Gold.Chemscore.Internal_Hbond>
0.0000

> <Gold.Chemscore.DEClash>
1.9292

> <Gold.Chemscore.DEInternal>
0.8211

> <Gold.Chemscore.Rot>
1.9677

> <Gold.Chemscore.Internal.Correction>
   9.000000E+99

> <Gold.Chemscore.Hbonds>
donor molecule, donor type, donor heavy atom, donor atom, acceptor molecule, acceptor atom, score
      L1  H     1    20       P1  8028  0.96
      L1  H     6    33       P1  7957  0.88

> <Gold.Chemscore.Hbond.Weighted>
-6.3675

> <Gold.Chemscore.Metal.Weighted>
-0.0000

> <Gold.Chemscore.Lipo.Weighted>
-14.6049

> <Gold.Chemscore.Internal_Hbond.Weighted>
0.0000

> <Gold.Chemscore.DEClash.Weighted>
1.9292

> <Gold.Chemscore.DEInternal.Weighted>
0.8211

> <Gold.Chemscore.Rot.Weighted>
5.0372

> <Gold.Chemscore.Internal.Correction.Weighted>
   9.000000E+99

> <Gold.Protein.RotatedTorsions>
[ 6907 6896 6895 6894 ] final   45.61 input  -60.11 | X-H torsion
[ 7974 7965 7964 7962 ] final  -10.31 input  175.53 | X-H torsion
[ 8008 7997 7996 7995 ] final  174.61 input   59.86 | X-H torsion
[ 10167 10162 10161 10158 ] final  112.70 input  -65.29 | X-H torsion
[ 10718 10713 10712 10709 ] final -175.21 input   66.30 | X-H torsion
[ 10763 10752 10751 10750 ] final  -11.83 input  -60.55 | X-H torsion
[ 11005 11000 10999 10996 ] final -135.33 input  -57.11 | X-H torsion

> <Gold.Protein.ActiveResidues>
 VAL166  LYS551  ARG553  GLY616  TRP617  ASP618  TYR619  PRO620  LYS621  CYS622 
 ASP623  PHE694  ASN695  SER759  ASP760  ASP761  ALA762  ILE779  LEU786  VAL792 
 PHE793  MET794  SER795  GLU796  ALA797  LYS798  CYS799  TRP800  GLU811  SER814 

> <Gold.Protein.RotatedAtoms>
  152.2466  134.8175  160.0452 H   0  0  0  0  0  0  0  0  0  0  0  0  # atno 6907 bound_to 6896
  151.8870  133.3502  159.3793 H   0  0  0  0  0  0  0  0  0  0  0  0  # atno 6908 bound_to 6896
  150.7070  134.4888  159.5550 H   0  0  0  0  0  0  0  0  0  0  0  0  # atno 6909 bound_to 6896
  146.2225  140.2744  142.8358 H   0  0  0  0  0  0  0  0  0  0  0  0  # atno 7974 bound_to 7965
  156.0956  140.1430  156.9535 H   0  0  0  0  0  0  0  0  0  0  0  0  # atno 8008 bound_to 7997
  154.4669  140.0923  156.7091 H   0  0  0  0  0  0  0  0  0  0  0  0  # atno 8009 bound_to 7997
  155.4846  140.3446  155.4347 H   0  0  0  0  0  0  0  0  0  0  0  0  # atno 8010 bound_to 7997
  139.6516  144.7128  151.2037 H   0  0  0  0  0  0  0  0  0  0  0  0  # atno 10167 bound_to 10162
  156.7965  130.9537  151.3119 H   0  0  0  0  0  0  0  0  0  0  0  0  # atno 10718 bound_to 10713
  153.4895  135.7017  153.5892 H   0  0  0  0  0  0  0  0  0  0  0  0  # atno 10763 bound_to 10752
  153.4071  135.3858  155.2026 H   0  0  0  0  0  0  0  0  0  0  0  0  # atno 10764 bound_to 10752
  154.8717  135.3895  154.4354 H   0  0  0  0  0  0  0  0  0  0  0  0  # atno 10765 bound_to 10752
  140.8908  134.1814  157.4529 H   0  0  0  0  0  0  0  0  0  0  0  0  # atno 11005 bound_to 11000
  144.9243  140.7904  143.5728 LP  0  0  0  0  0  0  0  0  0  0  0  0  # atno 17320 bound_to 7965
  145.2683  139.1964  143.4855 LP  0  0  0  0  0  0  0  0  0  0  0  0  # atno 17321 bound_to 7965
  140.7540  143.6141  150.8577 LP  0  0  0  0  0  0  0  0  0  0  0  0  # atno 17342 bound_to 10162
  139.9789  143.5973  152.2949 LP  0  0  0  0  0  0  0  0  0  0  0  0  # atno 17343 bound_to 10162
  157.6575  130.8937  149.9759 LP  0  0  0  0  0  0  0  0  0  0  0  0  # atno 17370 bound_to 10713
  156.1127  130.3649  150.0022 LP  0  0  0  0  0  0  0  0  0  0  0  0  # atno 17371 bound_to 10713
  139.8729  134.9857  156.5295 LP  0  0  0  0  0  0  0  0  0  0  0  0  # atno 17394 bound_to 11000
  140.8349  133.8250  155.9019 LP  0  0  0  0  0  0  0  0  0  0  0  0  # atno 17395 bound_to 11000

$$$$
