#       Name:                AV-unprocessed.smi:2788
#       Creating user name   scv26
#       Creation time:       Fri Mar 27 15:19:23 2020


#       File generated by GOLD software.
#

@<TRIPOS>MOLECULE
AV-unprocessed.smi:2788
    54    55     1
SMALL
NO_CHARGES


@<TRIPOS>ATOM
      1 ****        -2.4115  -0.0612   2.8746 C.3            1 S1                 0.0000
      2 ****        -2.9041   1.1686   2.1665 C.2            1 S1                 0.0000
      3 ****        -3.3379   2.1945   2.8786 N.2            1 S1                 0.0000
      4 ****        -3.7074   3.1751   1.9532 O.3            1 S1                 0.0000
      5 ****        -3.4763   2.6962   0.7047 C.2            1 S1                 0.0000
      6 ****        -3.7980   3.6073  -0.4311 C.3            1 S1                 0.0000
      7 ****        -2.9664   1.4286   0.7663 C.2            1 S1                 0.0000
      8 ****        -2.5580   0.5272  -0.3715 C.3            1 S1                 0.0000
      9 ****        -1.0902   0.7678  -0.7242 C.2            1 S1                 0.0000
     10 ****        -0.8042   1.3092  -1.7906 O.2            1 S1                 0.0000
     11 ****        -0.1943   0.3468   0.1879 N.am           1 S1                 0.0000
     12 ****         1.2764   0.4156   0.2089 C.3            1 S1                 0.0000
     13 ****         1.8043   1.7592  -0.3643 C.3            1 S1                 0.0000
     14 ****         1.6402   0.4108   1.7204 C.3            1 S1                 0.0000
     15 ****         3.0321   0.3256   1.9537 O.3            1 S1                 0.0000
     16 ****         1.8952  -0.8244  -0.5353 C.3            1 S1                 0.0000
     17 ****         1.6458  -0.8530  -2.0666 C.3            1 S1                 0.0000
     18 ****         2.3550  -2.0342  -2.7473 C.3            1 S1                 0.0000
     19 ****         1.9166  -3.3699  -2.1347 C.3            1 S1                 0.0000
     20 ****         2.1580  -3.3758  -0.6202 C.3            1 S1                 0.0000
     21 ****         1.4604  -2.1891   0.0647 C.3            1 S1                 0.0000
     22 ****        -2.5366  -0.9515   2.2588 H              1 S1                 0.0000
     23 ****        -2.9529  -0.2287   3.8063 H              1 S1                 0.0000
     24 ****        -1.3523   0.0292   3.1164 H              1 S1                 0.0000
     25 ****        -2.9066   4.1423  -0.7583 H              1 S1                 0.0000
     26 ****        -4.5489   4.3429  -0.1423 H              1 S1                 0.0000
     27 ****        -4.1869   3.0470  -1.2813 H              1 S1                 0.0000
     28 ****        -2.6930  -0.5252  -0.1211 H              1 S1                 0.0000
     29 ****        -3.1711   0.7042  -1.2557 H              1 S1                 0.0000
     30 ****        -0.5960  -0.0839   1.0078 H              1 S1                 0.0000
     31 ****         2.8882   1.8286  -0.2693 H              1 S1                 0.0000
     32 ****         1.3789   2.6102   0.1688 H              1 S1                 0.0000
     33 ****         1.5812   1.9050  -1.4188 H              1 S1                 0.0000
     34 ****         1.2727   1.3186   2.2013 H              1 S1                 0.0000
     35 ****         1.1565  -0.4123   2.2463 H              1 S1                 0.0000
     36 ****         3.1825   0.3430   2.8866 H              1 S1                 0.0000
     37 ****         2.9771  -0.7573  -0.4138 H              1 S1                 0.0000
     38 ****         0.5795  -0.9264  -2.2763 H              1 S1                 0.0000
     39 ****         1.9938   0.0650  -2.5370 H              1 S1                 0.0000
     40 ****         2.1405  -2.0292  -3.8164 H              1 S1                 0.0000
     41 ****         3.4353  -1.9209  -2.6482 H              1 S1                 0.0000
     42 ****         0.8584  -3.5383  -2.3393 H              1 S1                 0.0000
     43 ****         2.4589  -4.1919  -2.6028 H              1 S1                 0.0000
     44 ****         1.8017  -4.3131  -0.1920 H              1 S1                 0.0000
     45 ****         3.2294  -3.3334  -0.4207 H              1 S1                 0.0000
     46 ****         1.6921  -2.2396   1.1273 H              1 S1                 0.0000
     47 ****         0.3800  -2.3099  -0.0217 H              1 S1                 0.0000
     48 ****        -3.3909   2.2564   3.8753 LP             1 S1                 0.0000
     49 ****        -3.1654   4.0021   2.1032 LP             1 S1                 0.0000
     50 ****        -4.6785   3.3894   2.0582 LP             1 S1                 0.0000
     51 ****        -1.5294   1.5886  -2.4198 LP             1 S1                 0.0000
     52 ****         0.1537   1.4701  -2.0286 LP             1 S1                 0.0000
     53 ****         3.4941   1.1011   1.5233 LP             1 S1                 0.0000
     54 ****         3.3864  -0.5277   1.5711 LP             1 S1                 0.0000
@<TRIPOS>BOND
    1    1    2 1     
    2    1   22 1     
    3    1   23 1     
    4    1   24 1     
    5    2    7 1     
    6    2    3 2     
    7    3    4 1     
    8    4    5 1     
    9    5    6 1     
   10    5    7 2     
   11    6   25 1     
   12    6   26 1     
   13    6   27 1     
   14    7    8 1     
   15    8    9 1     
   16    8   28 1     
   17    8   29 1     
   18    9   10 2     
   19    9   11 am    
   20   11   12 1     
   21   11   30 1     
   22   12   13 1     
   23   12   14 1     
   24   12   16 1     
   25   13   31 1     
   26   13   32 1     
   27   13   33 1     
   28   14   15 1     
   29   14   34 1     
   30   14   35 1     
   31   15   36 1     
   32   16   21 1     
   33   16   17 1     
   34   16   37 1     
   35   17   18 1     
   36   17   38 1     
   37   17   39 1     
   38   18   19 1     
   39   18   40 1     
   40   18   41 1     
   41   19   20 1     
   42   19   42 1     
   43   19   43 1     
   44   20   21 1     
   45   20   44 1     
   46   20   45 1     
   47   21   46 1     
   48   21   47 1     
   49    3   48 1     
   50    4   49 1     
   51    4   50 1     
   52   10   51 1     
   53   10   52 1     
   54   15   53 1     
   55   15   54 1     
@<TRIPOS>SUBSTRUCTURE
      1 S1             1
@<TRIPOS>SET
LONE_PAIRS      STATIC     ATOMS    <user>   **** ""
7 48 49 50 51 52 53 54
DONOR_HYDROGENS      STATIC     ATOMS    <user>   **** ""
2 30 36
ATOM$BLUE        STATIC     ATOMS    COLORGROUP SYSTEM
7 48 49 50 51 52 53 54
ATOM$RED        STATIC     ATOMS    COLORGROUP SYSTEM
2 30 36
