AV-unprocessed.smi:400|AV-procd|sdf|2493|dock3
  -GOLD-   2262022443D 1   1.00000     0.00000
 Structure written by MMmdl.
 40 41  0  0  0  0  0  0  0  0  1 V2000
  154.4134  134.7568  164.9813 C   0  0  0  0  0  0  0  0  0  0  0  0
  154.1749  135.9578  164.0522 C   0  0  0  0  0  0  0  0  0  0  0  0
  154.4853  135.6816  162.5641 C   0  0  1  0  0  0  0  0  0  0  0  0
  154.0281  134.2690  162.1608 C   0  0  0  0  0  0  0  0  0  0  0  0
  153.8445  136.7314  161.6425 C   0  0  0  0  0  0  0  0  0  0  0  0
  153.0122  136.3797  160.8054 O   0  0  0  0  0  0  0  0  0  0  0  0
  154.2544  138.0011  161.8253 N   0  0  0  0  0  0  0  0  0  0  0  0
  153.8093  139.1742  161.1605 C   0  0  0  0  0  0  0  0  0  0  0  0
  154.4332  140.3704  161.5733 C   0  0  0  0  0  0  0  0  0  0  0  0
  154.0511  141.5915  160.9861 C   0  0  0  0  0  0  0  0  0  0  0  0
  153.0426  141.6031  159.9932 C   0  0  0  0  0  0  0  0  0  0  0  0
  152.6031  142.7879  159.3632 N   0  0  0  0  0  0  0  0  0  0  0  0
  151.5722  142.6196  158.3418 C   0  0  0  0  0  0  0  0  0  0  0  0
  151.4181  143.9099  157.5179 C   0  0  0  0  0  0  0  0  0  0  0  0
  151.1638  145.0090  158.3864 O   0  0  0  0  0  0  0  0  0  0  0  0
  152.2376  145.2226  159.2960 C   0  0  0  0  0  0  0  0  0  0  0  0
  152.4194  143.9807  160.1853 C   0  0  0  0  0  0  0  0  0  0  0  0
  152.4846  140.3516  159.6438 C   0  0  0  0  0  0  0  0  0  0  0  0
  152.8511  139.1800  160.2036 N   0  0  0  0  0  0  0  0  0  0  0  0
  154.1125  134.9937  166.0019 H   0  0  0  0  0  0  0  0  0  0  0  0
  155.4648  134.4703  165.0098 H   0  0  0  0  0  0  0  0  0  0  0  0
  153.8371  133.8891  164.6589 H   0  0  0  0  0  0  0  0  0  0  0  0
  153.1308  136.2586  164.1451 H   0  0  0  0  0  0  0  0  0  0  0  0
  154.7606  136.8079  164.4052 H   0  0  0  0  0  0  0  0  0  0  0  0
  155.5683  135.7229  162.4338 H   0  0  0  0  0  0  0  0  0  0  0  0
  154.2323  134.0696  161.1079 H   0  0  0  0  0  0  0  0  0  0  0  0
  152.9587  134.1305  162.3254 H   0  0  0  0  0  0  0  0  0  0  0  0
  154.5511  133.5095  162.7424 H   0  0  0  0  0  0  0  0  0  0  0  0
  154.9579  138.1441  162.5350 H   0  0  0  0  0  0  0  0  0  0  0  0
  155.1972  140.3590  162.3374 H   0  0  0  0  0  0  0  0  0  0  0  0
  154.5328  142.4982  161.3196 H   0  0  0  0  0  0  0  0  0  0  0  0
  151.7997  141.7949  157.6678 H   0  0  0  0  0  0  0  0  0  0  0  0
  150.6285  142.3772  158.8322 H   0  0  0  0  0  0  0  0  0  0  0  0
  152.3131  144.1008  156.9234 H   0  0  0  0  0  0  0  0  0  0  0  0
  150.5876  143.8111  156.8189 H   0  0  0  0  0  0  0  0  0  0  0  0
  153.1539  145.4456  158.7474 H   0  0  0  0  0  0  0  0  0  0  0  0
  152.0143  146.0949  159.9104 H   0  0  0  0  0  0  0  0  0  0  0  0
  151.5442  143.8499  160.8233 H   0  0  0  0  0  0  0  0  0  0  0  0
  153.2828  144.1276  160.8353 H   0  0  0  0  0  0  0  0  0  0  0  0
  151.7279  140.2728  158.8774 H   0  0  0  0  0  0  0  0  0  0  0  0
  1  2  1  0  0  0  0
  1 20  1  0  0  0  0
  1 21  1  0  0  0  0
  1 22  1  0  0  0  0
  2  3  1  0  0  0  0
  2 23  1  0  0  0  0
  2 24  1  0  0  0  0
  3  4  1  0  0  0  0
  3  5  1  0  0  0  0
  3 25  1  0  0  0  0
  4 26  1  0  0  0  0
  4 27  1  0  0  0  0
  4 28  1  0  0  0  0
  5  6  2  0  0  0  0
  5  7  1  0  0  0  0
  7  8  1  0  0  0  0
  7 29  1  0  0  0  0
  8 19  1  0  0  0  0
  8  9  2  0  0  0  0
  9 10  1  0  0  0  0
  9 30  1  0  0  0  0
 10 11  2  0  0  0  0
 10 31  1  0  0  0  0
 11 12  1  0  0  0  0
 11 18  1  0  0  0  0
 12 17  1  0  0  0  0
 12 13  1  0  0  0  0
 13 14  1  0  0  0  0
 13 32  1  0  0  0  0
 13 33  1  0  0  0  0
 14 15  1  0  0  0  0
 14 34  1  0  0  0  0
 14 35  1  0  0  0  0
 15 16  1  0  0  0  0
 16 17  1  0  0  0  0
 16 36  1  0  0  0  0
 16 37  1  0  0  0  0
 17 38  1  0  0  0  0
 17 39  1  0  0  0  0
 18 19  2  0  0  0  0
 18 40  1  0  0  0  0
M  END
> <s_m_source_file>
AV-unprocessed.smi

> <i_m_source_file_index>
400

> <i_lp_mmshare_version>
43012

> <i_f3d_flags>
0

> <s_epik_input>
W0NIM11bQ0gyXVtDQEhdKFtDSDNdKUMoPU8pW05IXWMxW2NIXVtjSF1jKFtjSF1uMSlOMltDSDJdW0NIMl1PW0NIMl1bQ0gyXTI=

> <s_epik_cmdline>
J2VwaWtfcHl0aG9uJywgJy1waCcsICc3LjAnLCAnLXRuJywgJzgnLCAnLW1hJywgJzIwMCcsICctbWV0YWxfYmluZGluZycsICctaW1hZScsICc8aW5maWxlLm1hZT4nLCAnLW9tYWUnLCAnPG91dGZpbGUubWFlPic=

> <r_lp_tautomer_probability>
1

> <r_epik_Ionization_Penalty>
0.00393323

> <r_epik_Ionization_Penalty_Charging>
0

> <r_epik_Ionization_Penalty_Neutral>
0.00393323

> <r_epik_State_Penalty>
0.00357844

> <r_epik_Charging_Adjusted_Penalty>
0.00357844

> <i_epik_Tot_Q>
0

> <i_epik_Tot_abs_Q>
0

> <r_epik_Metal_State_Penalty>
-0

> <b_epik_Metal_Only>
0

> <s_lp_Force_Field>
OPLS_2005

> <r_lp_Energy>
25.3606

> <b_lp_Chiralities_Consistent>
1

> <s_lp_Variant>
AV-unprocessed.smi:400-2

> <Gold.Version>
5.8.1

> <Gold.Id.Protein>
6NUR|6NUR_protein|mol2

> <Gold.PLP.Fitness>
41.9305

> <Gold.PLP.PLP>
-39.4834

> <Gold.PLP.part.hbond>
-1.0000

> <Gold.PLP.part.metal>
0.0000

> <Gold.PLP.part.buried>
-5.2813

> <Gold.PLP.part.nonpolar>
-34.0047

> <Gold.PLP.part.repulsive>
0.1644

> <Gold.PLP.ligand.clash>
0.0000

> <Gold.PLP.ligand.torsion>
0.4598

> <Gold.PLP.Chemscore.Hbond>
0.9913

> <Gold.PLP.Chemscore.CHOScore>
0.0000

> <Gold.PLP.Chemscore.Metal>
0.0000

> <Gold.Chemscore.Hbonds>
donor molecule, donor type, donor heavy atom, donor atom, acceptor molecule, acceptor atom, score
      P1  H  6896  6909       L1     6  0.82

> <Gold.PLP.Chemscore.Internal.Correction>
0.3930

> <Gold.Rescore>
     Score         DG    S(hbond)    S(metal)    S(lipo)     H(rot)  DE(clash)    DE(int)     intcor
     16.66     -18.49       1.00        0.00     111.24       1.30       0.05       1.78       ----

> <Gold.Chemscore.Fitness>
16.6576

> <Gold.Chemscore.DG>
-18.4945

> <Gold.Chemscore.ZeroCoef>
-5.4800

> <Gold.Chemscore.Hbond>
0.9994

> <Gold.Chemscore.Metal>
0.0000

> <Gold.Chemscore.Lipo>
111.2386

> <Gold.Chemscore.Internal_Hbond>
0.0000

> <Gold.Chemscore.DEClash>
0.0549

> <Gold.Chemscore.DEInternal>
1.7820

> <Gold.Chemscore.Rot>
1.3041

> <Gold.Chemscore.Internal.Correction>
   9.000000E+99

> <Gold.Chemscore.Hbonds>
donor molecule, donor type, donor heavy atom, donor atom, acceptor molecule, acceptor atom, score
      P1  H  6896  6909       L1     6  0.81

> <Gold.Chemscore.Hbond.Weighted>
-3.3381

> <Gold.Chemscore.Metal.Weighted>
-0.0000

> <Gold.Chemscore.Lipo.Weighted>
-13.0149

> <Gold.Chemscore.Internal_Hbond.Weighted>
0.0000

> <Gold.Chemscore.DEClash.Weighted>
0.0549

> <Gold.Chemscore.DEInternal.Weighted>
1.7820

> <Gold.Chemscore.Rot.Weighted>
3.3385

> <Gold.Chemscore.Internal.Correction.Weighted>
   9.000000E+99

> <Gold.Protein.RotatedTorsions>
[ 6907 6896 6895 6894 ] final  177.22 input  -60.11 | X-H torsion
[ 7974 7965 7964 7962 ] final -129.66 input  175.53 | X-H torsion
[ 8008 7997 7996 7995 ] final   99.75 input   59.86 | X-H torsion
[ 10167 10162 10161 10158 ] final  -95.46 input  -65.29 | X-H torsion
[ 10718 10713 10712 10709 ] final   60.64 input   66.30 | X-H torsion
[ 10763 10752 10751 10750 ] final -121.22 input  -60.55 | X-H torsion
[ 11005 11000 10999 10996 ] final -115.34 input  -57.11 | X-H torsion

> <Gold.Protein.ActiveResidues>
 VAL166  LYS551  ARG553  GLY616  TRP617  ASP618  TYR619  PRO620  LYS621  CYS622 
 ASP623  PHE694  ASN695  SER759  ASP760  ASP761  ALA762  ILE779  LEU786  VAL792 
 PHE793  MET794  SER795  GLU796  ALA797  LYS798  CYS799  TRP800  GLU811  SER814 

> <Gold.Protein.RotatedAtoms>
  151.7076  133.3312  159.3282 H   0  0  0  0  0  0  0  0  0  0  0  0  # atno 6907 bound_to 6896
  150.7708  134.6561  159.6324 H   0  0  0  0  0  0  0  0  0  0  0  0  # atno 6908 bound_to 6896
  152.3731  134.6706  160.0221 H   0  0  0  0  0  0  0  0  0  0  0  0  # atno 6909 bound_to 6896
  144.9550  140.7386  143.4764 H   0  0  0  0  0  0  0  0  0  0  0  0  # atno 7974 bound_to 7965
  156.1136  140.3224  155.8107 H   0  0  0  0  0  0  0  0  0  0  0  0  # atno 8008 bound_to 7997
  155.4629  140.0541  157.3006 H   0  0  0  0  0  0  0  0  0  0  0  0  # atno 8009 bound_to 7997
  154.4777  140.2039  155.9852 H   0  0  0  0  0  0  0  0  0  0  0  0  # atno 8010 bound_to 7997
  140.3040  143.3145  152.0219 H   0  0  0  0  0  0  0  0  0  0  0  0  # atno 10167 bound_to 10162
  157.5768  130.8950  149.9361 H   0  0  0  0  0  0  0  0  0  0  0  0  # atno 10718 bound_to 10713
  154.8663  135.4175  154.2585 H   0  0  0  0  0  0  0  0  0  0  0  0  # atno 10763 bound_to 10752
  153.3518  135.6999  153.6788 H   0  0  0  0  0  0  0  0  0  0  0  0  # atno 10764 bound_to 10752
  153.5725  135.3588  155.2816 H   0  0  0  0  0  0  0  0  0  0  0  0  # atno 10765 bound_to 10752
  141.0494  133.9711  157.2862 H   0  0  0  0  0  0  0  0  0  0  0  0  # atno 11005 bound_to 11000
  145.2785  139.1927  143.4803 LP  0  0  0  0  0  0  0  0  0  0  0  0  # atno 17320 bound_to 7965
  146.3334  140.2743  142.8607 LP  0  0  0  0  0  0  0  0  0  0  0  0  # atno 17321 bound_to 7965
  139.4908  144.6435  151.6828 LP  0  0  0  0  0  0  0  0  0  0  0  0  # atno 17342 bound_to 10162
  140.5626  144.0242  150.6177 LP  0  0  0  0  0  0  0  0  0  0  0  0  # atno 17343 bound_to 10162
  156.0813  130.3673  150.0575 LP  0  0  0  0  0  0  0  0  0  0  0  0  # atno 17370 bound_to 10713
  156.8720  130.9527  151.3608 LP  0  0  0  0  0  0  0  0  0  0  0  0  # atno 17371 bound_to 10713
  139.9338  135.0198  156.8489 LP  0  0  0  0  0  0  0  0  0  0  0  0  # atno 17394 bound_to 11000
  140.6084  134.0106  155.7566 LP  0  0  0  0  0  0  0  0  0  0  0  0  # atno 17395 bound_to 11000

$$$$
