AV-unprocessed.smi:33|AV-procd|sdf|203|dock1
  -GOLD-   2262015483D 1   1.00000     0.00000
 Structure written by MMmdl.
 67 72  0  0  0  0  0  0  0  0  1 V2000
  152.2136  140.3292  158.7287 O   0  0  0  0  0  0  0  0  0  0  0  0
  151.8105  141.4326  158.3551 C   0  0  0  0  0  0  0  0  0  0  0  0
  151.1717  141.6361  157.1857 O   0  0  0  0  0  0  0  0  0  0  0  0
  150.7761  140.5294  156.3919 C   0  0  0  0  0  0  0  0  0  0  0  0
  149.6721  139.7534  157.1207 C   0  0  2  0  0  0  0  0  0  0  0  0
  149.3946  138.5192  156.4678 O   0  0  0  0  0  0  0  0  0  0  0  0
  148.1230  138.0702  156.8362 C   0  0  1  0  0  0  0  0  0  0  0  0
  148.3090  136.9741  157.8426 N   0  0  0  0  0  0  0  0  0  0  0  0
  149.4451  136.5963  158.5303 C   0  0  0  0  0  0  0  0  0  0  0  0
  149.3048  135.5721  159.3278 N   0  0  0  0  0  0  0  0  0  0  0  0
  147.9766  135.2037  159.1668 C   0  0  0  0  0  0  0  0  0  0  0  0
  147.1632  134.1765  159.7146 C   0  0  0  0  0  0  0  0  0  0  0  0
  147.6283  133.2731  160.6075 N   0  0  0  0  0  0  0  0  0  0  0  0
  148.2244  132.0447  160.0627 C   0  0  0  0  0  0  0  0  0  0  0  0
  148.6979  132.0510  158.9247 O   0  0  0  0  0  0  0  0  0  0  0  0
  148.2968  130.7974  160.8966 C   0  0  0  0  0  0  0  0  0  0  0  0
  149.5363  130.3661  161.4179 C   0  0  0  0  0  0  0  0  0  0  0  0
  149.6111  129.1905  162.1897 C   0  0  0  0  0  0  0  0  0  0  0  0
  148.4512  128.4287  162.4285 C   0  0  0  0  0  0  0  0  0  0  0  0
  147.2178  128.8371  161.8865 C   0  0  0  0  0  0  0  0  0  0  0  0
  147.1419  130.0128  161.1153 C   0  0  0  0  0  0  0  0  0  0  0  0
  147.4827  133.6032  162.0330 C   0  0  0  0  0  0  0  0  0  0  0  0
  148.2353  133.0798  162.8573 O   0  0  0  0  0  0  0  0  0  0  0  0
  146.4654  134.6114  162.4871 C   0  0  0  0  0  0  0  0  0  0  0  0
  145.1765  134.1857  162.8771 C   0  0  0  0  0  0  0  0  0  0  0  0
  144.2120  135.1256  163.2885 C   0  0  0  0  0  0  0  0  0  0  0  0
  144.5237  136.4986  163.2947 C   0  0  0  0  0  0  0  0  0  0  0  0
  145.7975  136.9323  162.8806 C   0  0  0  0  0  0  0  0  0  0  0  0
  146.7629  135.9930  162.4694 C   0  0  0  0  0  0  0  0  0  0  0  0
  145.8689  134.1015  159.3109 N   0  0  0  0  0  0  0  0  0  0  0  0
  145.4004  134.9838  158.4229 C   0  0  0  0  0  0  0  0  0  0  0  0
  146.0425  135.9932  157.8290 N   0  0  0  0  0  0  0  0  0  0  0  0
  147.3440  136.0700  158.2340 C   0  0  0  0  0  0  0  0  0  0  0  0
  147.3789  139.2724  157.4489 C   0  0  2  0  0  0  0  0  0  0  0  0
  146.0868  139.4736  156.9130 O   0  0  0  0  0  0  0  0  0  0  0  0
  148.3033  140.4309  157.0993 C   0  0  2  0  0  0  0  0  0  0  0  0
  148.0623  140.8733  155.8612 F   0  0  0  0  0  0  0  0  0  0  0  0
  151.9787  142.6828  159.1514 C   0  0  0  0  0  0  0  0  0  0  0  0
  152.4695  142.5997  160.4757 C   0  0  0  0  0  0  0  0  0  0  0  0
  152.6364  143.7620  161.2534 C   0  0  0  0  0  0  0  0  0  0  0  0
  152.3144  145.0221  160.7165 C   0  0  0  0  0  0  0  0  0  0  0  0
  151.8263  145.1184  159.4001 C   0  0  0  0  0  0  0  0  0  0  0  0
  151.6590  143.9572  158.6207 C   0  0  0  0  0  0  0  0  0  0  0  0
  150.3975  140.8964  155.4368 H   0  0  0  0  0  0  0  0  0  0  0  0
  151.6302  139.8836  156.1832 H   0  0  0  0  0  0  0  0  0  0  0  0
  149.9696  139.5704  158.1537 H   0  0  0  0  0  0  0  0  0  0  0  0
  147.6147  137.6174  155.9845 H   0  0  0  0  0  0  0  0  0  0  0  0
  150.3921  137.1047  158.4316 H   0  0  0  0  0  0  0  0  0  0  0  0
  150.4324  130.9434  161.2413 H   0  0  0  0  0  0  0  0  0  0  0  0
  150.5592  128.8731  162.5983 H   0  0  0  0  0  0  0  0  0  0  0  0
  148.5091  127.5279  163.0216 H   0  0  0  0  0  0  0  0  0  0  0  0
  146.3293  128.2484  162.0609 H   0  0  0  0  0  0  0  0  0  0  0  0
  146.1909  130.3145  160.6999 H   0  0  0  0  0  0  0  0  0  0  0  0
  144.9259  133.1345  162.8762 H   0  0  0  0  0  0  0  0  0  0  0  0
  143.2324  134.7926  163.5985 H   0  0  0  0  0  0  0  0  0  0  0  0
  143.7836  137.2188  163.6103 H   0  0  0  0  0  0  0  0  0  0  0  0
  146.0342  137.9859  162.8768 H   0  0  0  0  0  0  0  0  0  0  0  0
  147.7350  136.3383  162.1483 H   0  0  0  0  0  0  0  0  0  0  0  0
  144.3629  134.8634  158.1478 H   0  0  0  0  0  0  0  0  0  0  0  0
  147.3064  139.1674  158.5316 H   0  0  0  0  0  0  0  0  0  0  0  0
  145.6855  138.6290  156.7747 H   0  0  0  0  0  0  0  0  0  0  0  0
  148.2216  141.2766  157.7826 H   0  0  0  0  0  0  0  0  0  0  0  0
  152.7228  141.6434  160.9102 H   0  0  0  0  0  0  0  0  0  0  0  0
  153.0115  143.6857  162.2633 H   0  0  0  0  0  0  0  0  0  0  0  0
  152.4417  145.9130  161.3135 H   0  0  0  0  0  0  0  0  0  0  0  0
  151.5787  146.0852  158.9868 H   0  0  0  0  0  0  0  0  0  0  0  0
  151.2813  144.0665  157.6145 H   0  0  0  0  0  0  0  0  0  0  0  0
  1  2  2  0  0  0  0
  2  3  1  0  0  0  0
  2 38  1  0  0  0  0
  3  4  1  0  0  0  0
  4  5  1  0  0  0  0
  4 44  1  0  0  0  0
  4 45  1  0  0  0  0
  5 36  1  0  0  0  0
  5  6  1  0  0  0  0
  5 46  1  0  0  0  0
  6  7  1  0  0  0  0
  7  8  1  0  0  0  0
  7 34  1  0  0  0  0
  7 47  1  0  0  0  0
  8 33  1  0  0  0  0
  8  9  1  0  0  0  0
  9 10  2  0  0  0  0
  9 48  1  0  0  0  0
 10 11  1  0  0  0  0
 11 33  2  0  0  0  0
 11 12  1  0  0  0  0
 12 13  1  0  0  0  0
 12 30  2  0  0  0  0
 13 14  1  0  0  0  0
 13 22  1  0  0  0  0
 14 15  2  0  0  0  0
 14 16  1  0  0  0  0
 16 21  1  0  0  0  0
 16 17  2  0  0  0  0
 17 18  1  0  0  0  0
 17 49  1  0  0  0  0
 18 19  2  0  0  0  0
 18 50  1  0  0  0  0
 19 20  1  0  0  0  0
 19 51  1  0  0  0  0
 20 21  2  0  0  0  0
 20 52  1  0  0  0  0
 21 53  1  0  0  0  0
 22 23  2  0  0  0  0
 22 24  1  0  0  0  0
 24 29  1  0  0  0  0
 24 25  2  0  0  0  0
 25 26  1  0  0  0  0
 25 54  1  0  0  0  0
 26 27  2  0  0  0  0
 26 55  1  0  0  0  0
 27 28  1  0  0  0  0
 27 56  1  0  0  0  0
 28 29  2  0  0  0  0
 28 57  1  0  0  0  0
 29 58  1  0  0  0  0
 30 31  1  0  0  0  0
 31 32  2  0  0  0  0
 31 59  1  0  0  0  0
 32 33  1  0  0  0  0
 34 35  1  0  0  0  0
 34 36  1  0  0  0  0
 34 60  1  0  0  0  0
 35 61  1  0  0  0  0
 36 37  1  0  0  0  0
 36 62  1  0  0  0  0
 38 43  1  0  0  0  0
 38 39  2  0  0  0  0
 39 40  1  0  0  0  0
 39 63  1  0  0  0  0
 40 41  2  0  0  0  0
 40 64  1  0  0  0  0
 41 42  1  0  0  0  0
 41 65  1  0  0  0  0
 42 43  2  0  0  0  0
 42 66  1  0  0  0  0
 43 67  1  0  0  0  0
M  END
> <s_m_source_file>
AV-unprocessed.smi

> <i_m_source_file_index>
33

> <i_lp_mmshare_version>
43012

> <i_f3d_flags>
0

> <s_epik_input>
W2NIXTFbY0hdW2NIXVtjSF1bY0hdYzFDKD1PKU9bQ0gyXVtDQEBIXTJPW0NASF0oW0NAQEhdKFtPSF0pW0NAQEhdMkYpbihbY0hdbjMpYyhjMzQpbltjSF1uYzROKEMoPU8pYzVbY0hdW2NIXVtjSF1bY0hdW2NIXTUpQyg9TyljNltjSF1bY0hdW2NIXVtjSF1bY0hdNg==

> <s_epik_cmdline>
J2VwaWtfcHl0aG9uJywgJy1waCcsICc3LjAnLCAnLXRuJywgJzgnLCAnLW1hJywgJzIwMCcsICctbWV0YWxfYmluZGluZycsICctaW1hZScsICc8aW5maWxlLm1hZT4nLCAnLW9tYWUnLCAnPG91dGZpbGUubWFlPic=

> <r_lp_tautomer_probability>
1

> <r_epik_Ionization_Penalty>
0.00067664

> <r_epik_Ionization_Penalty_Charging>
0

> <r_epik_Ionization_Penalty_Neutral>
0.00067664

> <r_epik_State_Penalty>
0.000428095

> <r_epik_Charging_Adjusted_Penalty>
0.000428095

> <i_epik_Tot_Q>
0

> <i_epik_Tot_abs_Q>
0

> <r_epik_Metal_State_Penalty>
-0

> <b_epik_Metal_Only>
0

> <s_epik_Chemistry_Notes>
This compound has an ester and may undergo hydrolysis at high or low pH. This compound contains an acetal/aminal-like group ( X-CH(R)-Y where X, Y are N, S, or O) that may be acid/base labile, releasing an aldehyde.

> <s_lp_Force_Field>
OPLS_2005

> <r_lp_Energy>
70.8142

> <b_lp_Chiralities_Consistent>
1

> <s_lp_Variant>
AV-unprocessed.smi:33-5

> <Gold.Version>
5.8.1

> <Gold.Id.Protein>
6NUR|6NUR_protein|mol2

> <Gold.PLP.Fitness>
58.1745

> <Gold.PLP.PLP>
-60.8362

> <Gold.PLP.part.hbond>
-1.1626

> <Gold.PLP.part.metal>
0.0000

> <Gold.PLP.part.buried>
-6.9614

> <Gold.PLP.part.nonpolar>
-53.6756

> <Gold.PLP.part.repulsive>
0.0856

> <Gold.PLP.ligand.clash>
0.0000

> <Gold.PLP.ligand.torsion>
5.4090

> <Gold.PLP.Chemscore.Hbond>
1.0000

> <Gold.PLP.Chemscore.CHOScore>
0.0000

> <Gold.PLP.Chemscore.Metal>
0.0000

> <Gold.Chemscore.Hbonds>
donor molecule, donor type, donor heavy atom, donor atom, acceptor molecule, acceptor atom, score
      P1  H  6896  6909       L1    10  1.00

> <Gold.PLP.Chemscore.Internal.Correction>
5.1562

> <Gold.Rescore>
     Score         DG    S(hbond)    S(metal)    S(lipo)     H(rot)  DE(clash)    DE(int)     intcor
     12.89     -19.51       0.97        0.00     147.59       2.52       0.09       6.54       ----

> <Gold.Chemscore.Fitness>
12.8851

> <Gold.Chemscore.DG>
-19.5096

> <Gold.Chemscore.ZeroCoef>
-5.4800

> <Gold.Chemscore.Hbond>
0.9655

> <Gold.Chemscore.Metal>
0.0000

> <Gold.Chemscore.Lipo>
147.5914

> <Gold.Chemscore.Internal_Hbond>
0.0000

> <Gold.Chemscore.DEClash>
0.0885

> <Gold.Chemscore.DEInternal>
6.5360

> <Gold.Chemscore.Rot>
2.5247

> <Gold.Chemscore.Internal.Correction>
   9.000000E+99

> <Gold.Chemscore.Hbonds>
donor molecule, donor type, donor heavy atom, donor atom, acceptor molecule, acceptor atom, score
      P1  H  6896  6909       L1    10  0.88

> <Gold.Chemscore.Hbond.Weighted>
-3.2246

> <Gold.Chemscore.Metal.Weighted>
-0.0000

> <Gold.Chemscore.Lipo.Weighted>
-17.2682

> <Gold.Chemscore.Internal_Hbond.Weighted>
0.0000

> <Gold.Chemscore.DEClash.Weighted>
0.0885

> <Gold.Chemscore.DEInternal.Weighted>
6.5360

> <Gold.Chemscore.Rot.Weighted>
6.4633

> <Gold.Chemscore.Internal.Correction.Weighted>
   9.000000E+99

> <Gold.Protein.RotatedTorsions>
[ 6907 6896 6895 6894 ] final   63.78 input  -60.11 | X-H torsion
[ 7974 7965 7964 7962 ] final  161.49 input  175.53 | X-H torsion
[ 8008 7997 7996 7995 ] final   11.62 input   59.86 | X-H torsion
[ 10167 10162 10161 10158 ] final   54.69 input  -65.29 | X-H torsion
[ 10718 10713 10712 10709 ] final -101.54 input   66.30 | X-H torsion
[ 10763 10752 10751 10750 ] final  134.58 input  -60.55 | X-H torsion
[ 11005 11000 10999 10996 ] final  -94.00 input  -57.11 | X-H torsion

> <Gold.Protein.ActiveResidues>
 VAL166  LYS551  ARG553  GLY616  TRP617  ASP618  TYR619  PRO620  LYS621  CYS622 
 ASP623  PHE694  ASN695  SER759  ASP760  ASP761  ALA762  ILE779  LEU786  VAL792 
 PHE793  MET794  SER795  GLU796  ALA797  LYS798  CYS799  TRP800  GLU811  SER814 

> <Gold.Protein.RotatedAtoms>
  152.4280  134.5832  159.9953 H   0  0  0  0  0  0  0  0  0  0  0  0  # atno 6907 bound_to 6896
  151.5963  133.3355  159.3046 H   0  0  0  0  0  0  0  0  0  0  0  0  # atno 6908 bound_to 6896
  150.8170  134.7394  159.6804 H   0  0  0  0  0  0  0  0  0  0  0  0  # atno 6909 bound_to 6896
  144.7683  139.7906  143.6307 H   0  0  0  0  0  0  0  0  0  0  0  0  # atno 7974 bound_to 7965
  154.8094  140.2865  155.5864 H   0  0  0  0  0  0  0  0  0  0  0  0  # atno 8008 bound_to 7997
  156.2986  140.2571  156.2908 H   0  0  0  0  0  0  0  0  0  0  0  0  # atno 8009 bound_to 7997
  154.9465  140.0380  157.2112 H   0  0  0  0  0  0  0  0  0  0  0  0  # atno 8010 bound_to 7997
  140.2274  144.3724  150.6427 H   0  0  0  0  0  0  0  0  0  0  0  0  # atno 10167 bound_to 10162
  156.0198  130.5378  150.6977 H   0  0  0  0  0  0  0  0  0  0  0  0  # atno 10718 bound_to 10713
  153.8258  135.3110  155.3414 H   0  0  0  0  0  0  0  0  0  0  0  0  # atno 10763 bound_to 10752
  154.7993  135.4736  154.0241 H   0  0  0  0  0  0  0  0  0  0  0  0  # atno 10764 bound_to 10752
  153.1665  135.6870  153.8759 H   0  0  0  0  0  0  0  0  0  0  0  0  # atno 10765 bound_to 10752
  141.1482  133.7926  157.0237 H   0  0  0  0  0  0  0  0  0  0  0  0  # atno 11005 bound_to 11000
  146.1809  139.5001  142.9867 LP  0  0  0  0  0  0  0  0  0  0  0  0  # atno 17320 bound_to 7965
  145.6402  141.0286  143.1816 LP  0  0  0  0  0  0  0  0  0  0  0  0  # atno 17321 bound_to 7965
  140.6210  143.2176  151.6693 LP  0  0  0  0  0  0  0  0  0  0  0  0  # atno 17342 bound_to 10162
  139.5122  144.3483  152.0676 LP  0  0  0  0  0  0  0  0  0  0  0  0  # atno 17343 bound_to 10162
  157.4645  131.0886  151.0710 LP  0  0  0  0  0  0  0  0  0  0  0  0  # atno 17370 bound_to 10713
  157.1188  130.6053  149.5500 LP  0  0  0  0  0  0  0  0  0  0  0  0  # atno 17371 bound_to 10713
  140.0799  134.9654  157.1606 LP  0  0  0  0  0  0  0  0  0  0  0  0  # atno 17394 bound_to 11000
  140.3592  134.2513  155.7189 LP  0  0  0  0  0  0  0  0  0  0  0  0  # atno 17395 bound_to 11000

$$$$
