AV-unprocessed.smi:1619|AV-procd|sdf|6490|dock1
  -GOLD-   22720 7153D 1   1.00000     0.00000
 Structure written by MMmdl.
 45 47  0  0  0  0  0  0  0  0  3 V2000
  152.5060  143.8535  159.8387 C   0  0  0  0  0  0  0  0  0  0  0  0
  152.1558  142.7799  158.8223 C   0  0  0  0  0  0  0  0  0  0  0  0
  151.2307  143.0946  157.8014 C   0  0  0  0  0  0  0  0  0  0  0  0
  150.9278  142.0912  156.8887 C   0  0  0  0  0  0  0  0  0  0  0  0
  150.0650  142.0830  155.7907 N   0  3  0  0  0  0  0  0  0  0  0  0
  150.0969  140.8582  155.1966 C   0  0  0  0  0  0  0  0  0  0  0  0
  150.9762  140.0872  155.8935 N   0  0  0  0  0  0  0  0  0  0  0  0
  151.3757  138.6892  155.6873 C   0  0  0  0  0  0  0  0  0  0  0  0
  150.3192  137.8504  154.9389 C   0  0  1  0  0  0  0  0  0  0  0  0
  150.2963  138.2953  153.5981 O   0  0  0  0  0  0  0  0  0  0  0  0
  150.6076  136.3334  154.9546 C   0  0  0  0  0  0  0  0  0  0  0  0
  149.4826  135.5385  154.4068 N   0  3  0  0  0  0  0  0  0  0  0  0
  149.7234  134.0822  154.3891 C   0  0  0  0  0  0  0  0  0  0  0  0
  148.3343  133.4563  154.3324 C   0  0  0  0  0  0  0  0  0  0  0  0
  147.5050  134.3883  155.2107 C   0  0  0  0  0  0  0  0  0  0  0  0
  148.1666  135.7641  155.0529 C   0  0  0  0  0  0  0  0  0  0  0  0
  151.5121  140.8119  156.9634 C   0  0  0  0  0  0  0  0  0  0  0  0
  152.4247  140.4843  157.9632 C   0  0  0  0  0  0  0  0  0  0  0  0
  152.7452  141.4914  158.9020 C   0  0  0  0  0  0  0  0  0  0  0  0
  153.7356  141.1641  160.0065 C   0  0  0  0  0  0  0  0  0  0  0  0
  151.9451  144.7711  159.6591 H   0  0  0  0  0  0  0  0  0  0  0  0
  153.5675  144.0966  159.7883 H   0  0  0  0  0  0  0  0  0  0  0  0
  152.2750  143.5157  160.8492 H   0  0  0  0  0  0  0  0  0  0  0  0
  150.7762  144.0726  157.7364 H   0  0  0  0  0  0  0  0  0  0  0  0
  149.5276  140.5544  154.3297 H   0  0  0  0  0  0  0  0  0  0  0  0
  152.3299  138.6805  155.1585 H   0  0  0  0  0  0  0  0  0  0  0  0
  151.5645  138.2622  156.6735 H   0  0  0  0  0  0  0  0  0  0  0  0
  149.3391  138.0452  155.3741 H   0  0  0  0  0  0  0  0  0  0  0  0
  149.8404  137.6546  153.0727 H   0  0  0  0  0  0  0  0  0  0  0  0
  151.5042  136.1309  154.3668 H   0  0  0  0  0  0  0  0  0  0  0  0
  150.8162  135.9878  155.9679 H   0  0  0  0  0  0  0  0  0  0  0  0
  150.3524  133.7878  153.5484 H   0  0  0  0  0  0  0  0  0  0  0  0
  150.2247  133.7793  155.3103 H   0  0  0  0  0  0  0  0  0  0  0  0
  147.9582  133.4776  153.3085 H   0  0  0  0  0  0  0  0  0  0  0  0
  148.3195  132.4215  154.6766 H   0  0  0  0  0  0  0  0  0  0  0  0
  146.4506  134.3952  154.9328 H   0  0  0  0  0  0  0  0  0  0  0  0
  147.5712  134.0663  156.2510 H   0  0  0  0  0  0  0  0  0  0  0  0
  148.2643  136.2519  156.0241 H   0  0  0  0  0  0  0  0  0  0  0  0
  147.5705  136.4158  154.4136 H   0  0  0  0  0  0  0  0  0  0  0  0
  152.8696  139.5024  158.0271 H   0  0  0  0  0  0  0  0  0  0  0  0
  154.1271  140.1514  159.9057 H   0  0  0  0  0  0  0  0  0  0  0  0
  153.2566  141.2403  160.9831 H   0  0  0  0  0  0  0  0  0  0  0  0
  154.5815  141.8514  159.9807 H   0  0  0  0  0  0  0  0  0  0  0  0
  149.3723  135.8117  153.4403 H   0  0  0  0  0  0  0  0  0  0  0  0
  149.4894  142.8526  155.4732 H   0  0  0  0  0  0  0  0  0  0  0  0
  1  2  1  0  0  0  0
  1 21  1  0  0  0  0
  1 22  1  0  0  0  0
  1 23  1  0  0  0  0
  2 19  1  0  0  0  0
  2  3  2  0  0  0  0
  3  4  1  0  0  0  0
  3 24  1  0  0  0  0
  4 17  2  0  0  0  0
  4  5  1  0  0  0  0
  5  6  2  0  0  0  0
  5 45  1  0  0  0  0
  6  7  1  0  0  0  0
  6 25  1  0  0  0  0
  7  8  1  0  0  0  0
  7 17  1  0  0  0  0
  8  9  1  0  0  0  0
  8 26  1  0  0  0  0
  8 27  1  0  0  0  0
  9 10  1  0  0  0  0
  9 11  1  0  0  0  0
  9 28  1  0  0  0  0
 10 29  1  0  0  0  0
 11 12  1  0  0  0  0
 11 30  1  0  0  0  0
 11 31  1  0  0  0  0
 12 16  1  0  0  0  0
 12 13  1  0  0  0  0
 12 44  1  0  0  0  0
 13 14  1  0  0  0  0
 13 32  1  0  0  0  0
 13 33  1  0  0  0  0
 14 15  1  0  0  0  0
 14 34  1  0  0  0  0
 14 35  1  0  0  0  0
 15 16  1  0  0  0  0
 15 36  1  0  0  0  0
 15 37  1  0  0  0  0
 16 38  1  0  0  0  0
 16 39  1  0  0  0  0
 17 18  1  0  0  0  0
 18 19  2  0  0  0  0
 18 40  1  0  0  0  0
 19 20  1  0  0  0  0
 20 41  1  0  0  0  0
 20 42  1  0  0  0  0
 20 43  1  0  0  0  0
M  CHG  1   5   1
M  CHG  1  12   1
M  END
> <s_m_source_file>
AV-unprocessed.smi

> <i_m_source_file_index>
1619

> <i_lp_mmshare_version>
43012

> <i_f3d_flags>
0

> <s_epik_input>
W0NIM11jKFtjSF0xKWMoW0NIM10pW2NIXWMoYzEyKW4oW2NIXW4yKVtDSDJdW0NASF0oW09IXSlbQ0gyXU4zW0NIMl1bQ0gyXVtDSDJdW0NIMl0z

> <s_epik_cmdline>
J2VwaWtfcHl0aG9uJywgJy1waCcsICc3LjAnLCAnLXRuJywgJzgnLCAnLW1hJywgJzIwMCcsICctbWV0YWxfYmluZGluZycsICctaW1hZScsICc8aW5maWxlLm1hZT4nLCAnLW9tYWUnLCAnPG91dGZpbGUubWFlPic=

> <r_epik_Ionization_Penalty>
1.18067

> <r_epik_Ionization_Penalty_Charging>
1.18067

> <r_epik_Ionization_Penalty_Neutral>
1.08888e-06

> <r_epik_State_Penalty>
1.26407

> <r_epik_Charging_Adjusted_Penalty>
2.44473

> <i_epik_Tot_Q>
2

> <i_epik_Tot_abs_Q>
2

> <r_epik_Metal_State_Penalty>
5.27628

> <b_epik_Metal_Only>
0

> <s_lp_Force_Field>
OPLS_2005

> <r_lp_Energy>
43.2678

> <b_lp_Chiralities_Consistent>
1

> <s_lp_Variant>
AV-unprocessed.smi:1619-4

> <Gold.Version>
5.8.1

> <Gold.Id.Protein>
6NUR|6NUR_protein|mol2

> <Gold.PLP.Fitness>
54.2332

> <Gold.PLP.PLP>
-40.0957

> <Gold.PLP.part.hbond>
-4.2418

> <Gold.PLP.part.metal>
0.0000

> <Gold.PLP.part.buried>
-2.1033

> <Gold.PLP.part.nonpolar>
-32.7753

> <Gold.PLP.part.repulsive>
0.1796

> <Gold.PLP.ligand.clash>
0.0000

> <Gold.PLP.ligand.torsion>
0.4508

> <Gold.PLP.Chemscore.Hbond>
5.0000

> <Gold.PLP.Chemscore.CHOScore>
0.0000

> <Gold.PLP.Chemscore.Metal>
0.0000

> <Gold.Chemscore.Hbonds>
donor molecule, donor type, donor heavy atom, donor atom, acceptor molecule, acceptor atom, score
      L1  H     5    45       P1  8028  2.00
      L1  H    10    29       P1  7948  1.00
      L1  H    12    44       P1  7948  2.00

> <Gold.PLP.Chemscore.Internal.Correction>
0.0391

> <Gold.Rescore>
     Score         DG    S(hbond)    S(metal)    S(lipo)     H(rot)  DE(clash)    DE(int)     intcor
     21.00     -21.57       2.84        0.00     102.02       2.08       0.06       0.50       ----

> <Gold.Chemscore.Fitness>
21.0047

> <Gold.Chemscore.DG>
-21.5676

> <Gold.Chemscore.ZeroCoef>
-5.4800

> <Gold.Chemscore.Hbond>
2.8380

> <Gold.Chemscore.Metal>
0.0000

> <Gold.Chemscore.Lipo>
102.0192

> <Gold.Chemscore.Internal_Hbond>
0.0000

> <Gold.Chemscore.DEClash>
0.0645

> <Gold.Chemscore.DEInternal>
0.4985

> <Gold.Chemscore.Rot>
2.0811

> <Gold.Chemscore.Internal.Correction>
   9.000000E+99

> <Gold.Chemscore.Hbonds>
donor molecule, donor type, donor heavy atom, donor atom, acceptor molecule, acceptor atom, score
      L1  H     5    45       P1  8028  0.93
      L1  H    10    29       P1  7948  0.47
      L1  H    12    44       P1  7948  0.45

> <Gold.Chemscore.Hbond.Weighted>
-9.4789

> <Gold.Chemscore.Metal.Weighted>
-0.0000

> <Gold.Chemscore.Lipo.Weighted>
-11.9362

> <Gold.Chemscore.Internal_Hbond.Weighted>
0.0000

> <Gold.Chemscore.DEClash.Weighted>
0.0645

> <Gold.Chemscore.DEInternal.Weighted>
0.4985

> <Gold.Chemscore.Rot.Weighted>
5.3275

> <Gold.Chemscore.Internal.Correction.Weighted>
   9.000000E+99

> <Gold.Protein.RotatedTorsions>
[ 6907 6896 6895 6894 ] final  -86.43 input  -60.11 | X-H torsion
[ 7974 7965 7964 7962 ] final   16.50 input  175.53 | X-H torsion
[ 8008 7997 7996 7995 ] final   11.77 input   59.86 | X-H torsion
[ 10167 10162 10161 10158 ] final  -79.98 input  -65.29 | X-H torsion
[ 10718 10713 10712 10709 ] final -149.00 input   66.30 | X-H torsion
[ 10763 10752 10751 10750 ] final  -38.63 input  -60.55 | X-H torsion
[ 11005 11000 10999 10996 ] final -170.58 input  -57.11 | X-H torsion

> <Gold.Protein.ActiveResidues>
 VAL166  LYS551  ARG553  GLY616  TRP617  ASP618  TYR619  PRO620  LYS621  CYS622 
 ASP623  PHE694  ASN695  SER759  ASP760  ASP761  ALA762  ILE779  LEU786  VAL792 
 PHE793  MET794  SER795  GLU796  ALA797  LYS798  CYS799  TRP800  GLU811  SER814 

> <Gold.Protein.RotatedAtoms>
  150.6867  134.3052  159.4722 H   0  0  0  0  0  0  0  0  0  0  0  0  # atno 6907 bound_to 6896
  152.0944  134.9382  160.0580 H   0  0  0  0  0  0  0  0  0  0  0  0  # atno 6908 bound_to 6896
  152.0686  133.4061  159.4486 H   0  0  0  0  0  0  0  0  0  0  0  0  # atno 6909 bound_to 6896
  146.2247  139.8738  142.8583 H   0  0  0  0  0  0  0  0  0  0  0  0  # atno 7974 bound_to 7965
  154.8115  140.2869  155.5850 H   0  0  0  0  0  0  0  0  0  0  0  0  # atno 8008 bound_to 7997
  156.2988  140.2567  156.2934 H   0  0  0  0  0  0  0  0  0  0  0  0  # atno 8009 bound_to 7997
  154.9442  140.0380  157.2101 H   0  0  0  0  0  0  0  0  0  0  0  0  # atno 8010 bound_to 7997
  140.4544  143.2473  151.8441 H   0  0  0  0  0  0  0  0  0  0  0  0  # atno 10167 bound_to 10162
  156.4275  130.8059  151.2285 H   0  0  0  0  0  0  0  0  0  0  0  0  # atno 10718 bound_to 10713
  153.9161  135.6787  153.4749 H   0  0  0  0  0  0  0  0  0  0  0  0  # atno 10763 bound_to 10752
  153.1053  135.4808  154.8937 H   0  0  0  0  0  0  0  0  0  0  0  0  # atno 10764 bound_to 10752
  154.7502  135.3183  154.8527 H   0  0  0  0  0  0  0  0  0  0  0  0  # atno 10765 bound_to 10752
  140.5179  134.5738  157.5039 H   0  0  0  0  0  0  0  0  0  0  0  0  # atno 11005 bound_to 11000
  145.2581  141.0067  143.3842 LP  0  0  0  0  0  0  0  0  0  0  0  0  # atno 17320 bound_to 7965
  144.9320  139.4287  143.6490 LP  0  0  0  0  0  0  0  0  0  0  0  0  # atno 17321 bound_to 7965
  139.4799  144.5082  151.8969 LP  0  0  0  0  0  0  0  0  0  0  0  0  # atno 17342 bound_to 10162
  140.4169  144.2295  150.5887 LP  0  0  0  0  0  0  0  0  0  0  0  0  # atno 17343 bound_to 10162
  157.7508  131.0209  150.3727 LP  0  0  0  0  0  0  0  0  0  0  0  0  # atno 17370 bound_to 10713
  156.4057  130.3924  149.6927 LP  0  0  0  0  0  0  0  0  0  0  0  0  # atno 17371 bound_to 10713
  139.9622  134.7433  156.0213 LP  0  0  0  0  0  0  0  0  0  0  0  0  # atno 17394 bound_to 11000
  141.1350  133.6577  156.3569 LP  0  0  0  0  0  0  0  0  0  0  0  0  # atno 17395 bound_to 11000

$$$$
