AV-unprocessed.smi:2568|AV-procd|sdf|10089|dock8
  -GOLD-   2272014113D 1   1.00000     0.00000
 Structure written by MMmdl.
 25 26  0  0  0  0  0  0  0  0  2 V2000
  152.1550  142.5378  158.7154 C   0  0  0  0  0  0  0  0  0  0  0  0
  151.6153  141.5942  157.6946 C   0  0  0  0  0  0  0  0  0  0  0  0
  151.7805  140.2738  157.7918 N   0  0  0  0  0  0  0  0  0  0  0  0
  151.1884  139.6712  156.7390 N   0  0  0  0  0  0  0  0  0  0  0  0
  150.7106  140.7104  156.0554 C   0  0  0  0  0  0  0  0  0  0  0  0
  149.9186  140.5016  154.8023 C   0  0  1  0  0  0  0  0  0  0  0  0
  149.7723  139.0098  154.4479 C   0  0  0  0  0  0  0  0  0  0  0  0
  148.9064  138.8591  153.2626 N   0  3  0  0  0  0  0  0  0  0  0  0
  147.5998  139.5179  153.4607 C   0  0  0  0  0  0  0  0  0  0  0  0
  147.8014  140.9896  153.8648 C   0  0  0  0  0  0  0  0  0  0  0  0
  148.6268  141.0641  155.0230 O   0  0  0  0  0  0  0  0  0  0  0  0
  150.9287  141.9420  156.6117 N   0  0  0  0  0  0  0  0  0  0  0  0
  152.2580  139.7659  158.5230 H   0  0  0  0  0  0  0  0  0  0  0  0
  151.9294  143.5686  158.4400 H   0  0  0  0  0  0  0  0  0  0  0  0
  153.2369  142.4270  158.7934 H   0  0  0  0  0  0  0  0  0  0  0  0
  151.7093  142.3313  159.6886 H   0  0  0  0  0  0  0  0  0  0  0  0
  150.4081  141.0372  153.9860 H   0  0  0  0  0  0  0  0  0  0  0  0
  150.7461  138.5634  154.2440 H   0  0  0  0  0  0  0  0  0  0  0  0
  149.3335  138.4601  155.2820 H   0  0  0  0  0  0  0  0  0  0  0  0
  149.3668  139.2839  152.4699 H   0  0  0  0  0  0  0  0  0  0  0  0
  147.0165  139.4483  152.5424 H   0  0  0  0  0  0  0  0  0  0  0  0
  147.0452  138.9872  154.2355 H   0  0  0  0  0  0  0  0  0  0  0  0
  148.2500  141.5595  153.0495 H   0  0  0  0  0  0  0  0  0  0  0  0
  146.8402  141.4537  154.0850 H   0  0  0  0  0  0  0  0  0  0  0  0
  148.7632  137.8773  153.0731 H   0  0  0  0  0  0  0  0  0  0  0  0
  1 14  1  0  0  0  0
  1 15  1  0  0  0  0
  1 16  1  0  0  0  0
  1  2  1  0  0  0  0
  2 12  2  0  0  0  0
  2  3  1  0  0  0  0
  3  4  1  0  0  0  0
  3 13  1  0  0  0  0
  4  5  2  0  0  0  0
  5 12  1  0  0  0  0
  5  6  1  0  0  0  0
  6 11  1  0  0  0  0
  6  7  1  0  0  0  0
  6 17  1  0  0  0  0
  7  8  1  0  0  0  0
  7 18  1  0  0  0  0
  7 19  1  0  0  0  0
  8  9  1  0  0  0  0
  8 20  1  0  0  0  0
  8 25  1  0  0  0  0
  9 10  1  0  0  0  0
  9 21  1  0  0  0  0
  9 22  1  0  0  0  0
 10 11  1  0  0  0  0
 10 23  1  0  0  0  0
 10 24  1  0  0  0  0
M  CHG  1   8   1
M  END
> <s_m_source_file>
AV-unprocessed.smi

> <i_m_source_file_index>
2568

> <i_lp_mmshare_version>
43012

> <i_f3d_flags>
0

> <s_epik_input>
W0NIM11jMW5bbkhdYyhuMSlbQ0BASF0yW0NIMl1bTkhdW0NIMl1bQ0gyXU8y

> <s_epik_cmdline>
J2VwaWtfcHl0aG9uJywgJy1waCcsICc3LjAnLCAnLXRuJywgJzgnLCAnLW1hJywgJzIwMCcsICctbWV0YWxfYmluZGluZycsICctaW1hZScsICc8aW5maWxlLm1hZT4nLCAnLW9tYWUnLCAnPG91dGZpbGUubWFlPic=

> <r_lp_tautomer_probability>
0.948284

> <r_epik_Ionization_Penalty>
0.107151

> <r_epik_Ionization_Penalty_Charging>
0.100865

> <r_epik_Ionization_Penalty_Neutral>
0.00628602

> <r_epik_State_Penalty>
0.200426

> <r_epik_Charging_Adjusted_Penalty>
0.30129

> <i_epik_Tot_Q>
1

> <i_epik_Tot_abs_Q>
1

> <r_epik_Metal_State_Penalty>
0.501686

> <b_epik_Metal_Only>
0

> <s_lp_Force_Field>
OPLS_2005

> <r_lp_Energy>
11.0041

> <b_lp_Chiralities_Consistent>
1

> <s_lp_Variant>
AV-unprocessed.smi:2568-2

> <Gold.Version>
5.8.1

> <Gold.Id.Protein>
6NUR|6NUR_protein|mol2

> <Gold.PLP.Fitness>
28.5991

> <Gold.PLP.PLP>
-19.6312

> <Gold.PLP.part.hbond>
-1.9166

> <Gold.PLP.part.metal>
0.0000

> <Gold.PLP.part.buried>
-2.1326

> <Gold.PLP.part.nonpolar>
-16.0741

> <Gold.PLP.part.repulsive>
0.3494

> <Gold.PLP.ligand.clash>
0.0000

> <Gold.PLP.ligand.torsion>
0.0101

> <Gold.PLP.Chemscore.Hbond>
2.9913

> <Gold.PLP.Chemscore.CHOScore>
0.0000

> <Gold.PLP.Chemscore.Metal>
0.0000

> <Gold.Chemscore.Hbonds>
donor molecule, donor type, donor heavy atom, donor atom, acceptor molecule, acceptor atom, score
      L1  H     8    20       P1  7957  0.98
      L1  H     8    25       P1  7948  1.97

> <Gold.PLP.Chemscore.Internal.Correction>
0.0143

> <Gold.Rescore>
     Score         DG    S(hbond)    S(metal)    S(lipo)     H(rot)  DE(clash)    DE(int)     intcor
     13.73     -13.75       1.96        0.00      36.70       1.00       0.02       0.01       ----

> <Gold.Chemscore.Fitness>
13.7286

> <Gold.Chemscore.DG>
-13.7543

> <Gold.Chemscore.ZeroCoef>
-5.4800

> <Gold.Chemscore.Hbond>
1.9582

> <Gold.Chemscore.Metal>
0.0000

> <Gold.Chemscore.Lipo>
36.7011

> <Gold.Chemscore.Internal_Hbond>
0.0000

> <Gold.Chemscore.DEClash>
0.0178

> <Gold.Chemscore.DEInternal>
0.0079

> <Gold.Chemscore.Rot>
1.0000

> <Gold.Chemscore.Internal.Correction>
   9.000000E+99

> <Gold.Chemscore.Hbonds>
donor molecule, donor type, donor heavy atom, donor atom, acceptor molecule, acceptor atom, score
      L1  H     8    20       P1  7957  0.92
      L1  H     8    25       P1  7948  0.88

> <Gold.Chemscore.Hbond.Weighted>
-6.5402

> <Gold.Chemscore.Metal.Weighted>
-0.0000

> <Gold.Chemscore.Lipo.Weighted>
-4.2940

> <Gold.Chemscore.Internal_Hbond.Weighted>
0.0000

> <Gold.Chemscore.DEClash.Weighted>
0.0178

> <Gold.Chemscore.DEInternal.Weighted>
0.0079

> <Gold.Chemscore.Rot.Weighted>
2.5600

> <Gold.Chemscore.Internal.Correction.Weighted>
   9.000000E+99

> <Gold.Protein.RotatedTorsions>
[ 6907 6896 6895 6894 ] final  -94.88 input  -60.11 | X-H torsion
[ 7974 7965 7964 7962 ] final  135.49 input  175.53 | X-H torsion
[ 8008 7997 7996 7995 ] final -119.10 input   59.86 | X-H torsion
[ 10167 10162 10161 10158 ] final  102.09 input  -65.29 | X-H torsion
[ 10718 10713 10712 10709 ] final  -25.65 input   66.30 | X-H torsion
[ 10763 10752 10751 10750 ] final   48.03 input  -60.55 | X-H torsion
[ 11005 11000 10999 10996 ] final   46.29 input  -57.11 | X-H torsion

> <Gold.Protein.ActiveResidues>
 VAL166  LYS551  ARG553  GLY616  TRP617  ASP618  TYR619  PRO620  LYS621  CYS622 
 ASP623  PHE694  ASN695  SER759  ASP760  ASP761  ALA762  ILE779  LEU786  VAL792 
 PHE793  MET794  SER795  GLU796  ALA797  LYS798  CYS799  TRP800  GLU811  SER814 

> <Gold.Protein.RotatedAtoms>
  150.6951  134.1744  159.4224 H   0  0  0  0  0  0  0  0  0  0  0  0  # atno 6907 bound_to 6896
  151.9721  135.0069  160.0562 H   0  0  0  0  0  0  0  0  0  0  0  0  # atno 6908 bound_to 6896
  152.1832  133.4687  159.5006 H   0  0  0  0  0  0  0  0  0  0  0  0  # atno 6909 bound_to 6896
  144.9658  139.4659  143.5457 H   0  0  0  0  0  0  0  0  0  0  0  0  # atno 7974 bound_to 7965
  155.1103  140.0397  157.2722 H   0  0  0  0  0  0  0  0  0  0  0  0  # atno 8008 bound_to 7997
  154.6690  140.2608  155.7001 H   0  0  0  0  0  0  0  0  0  0  0  0  # atno 8009 bound_to 7997
  156.2650  140.2801  156.1192 H   0  0  0  0  0  0  0  0  0  0  0  0  # atno 8010 bound_to 7997
  139.7380  144.7019  151.0619 H   0  0  0  0  0  0  0  0  0  0  0  0  # atno 10167 bound_to 10162
  156.4616  130.4505  149.6925 H   0  0  0  0  0  0  0  0  0  0  0  0  # atno 10718 bound_to 10713
  152.9795  135.5957  154.3860 H   0  0  0  0  0  0  0  0  0  0  0  0  # atno 10763 bound_to 10752
  154.3520  135.2767  155.2369 H   0  0  0  0  0  0  0  0  0  0  0  0  # atno 10764 bound_to 10752
  154.4404  135.6014  153.6181 H   0  0  0  0  0  0  0  0  0  0  0  0  # atno 10765 bound_to 10752
  140.1382  134.4617  155.8469 H   0  0  0  0  0  0  0  0  0  0  0  0  # atno 11005 bound_to 11000
  146.3367  139.8838  142.8820 LP  0  0  0  0  0  0  0  0  0  0  0  0  # atno 17320 bound_to 7965
  145.2632  141.0084  143.3814 LP  0  0  0  0  0  0  0  0  0  0  0  0  # atno 17321 bound_to 7965
  140.7782  143.4960  150.9832 LP  0  0  0  0  0  0  0  0  0  0  0  0  # atno 17342 bound_to 10162
  139.8648  143.7268  152.3171 LP  0  0  0  0  0  0  0  0  0  0  0  0  # atno 17343 bound_to 10162
  156.3711  130.7531  151.2514 LP  0  0  0  0  0  0  0  0  0  0  0  0  # atno 17370 bound_to 10713
  157.7497  131.0323  150.4219 LP  0  0  0  0  0  0  0  0  0  0  0  0  # atno 17371 bound_to 10713
  141.2182  133.6822  156.7198 LP  0  0  0  0  0  0  0  0  0  0  0  0  # atno 17394 bound_to 11000
  140.2755  134.8358  157.3886 LP  0  0  0  0  0  0  0  0  0  0  0  0  # atno 17395 bound_to 11000

$$$$
