AV-unprocessed.smi:3207|AV-procd|sdf|12259|dock4
  -GOLD-   2272018 93D 1   1.00000     0.00000
 Structure written by MMmdl.
 32 33  0  0  0  0  0  0  0  0  1 V2000
  150.1975  139.5720  154.3177 C   0  0  0  0  0  0  0  0  0  0  0  0
  149.8868  140.9753  154.8587 C   0  0  1  0  0  0  0  0  0  0  0  0
  148.4894  141.0296  155.1333 O   0  0  0  0  0  0  0  0  0  0  0  0
  147.6398  140.7220  154.0349 C   0  0  0  0  0  0  0  0  0  0  0  0
  146.3164  141.4288  154.2314 C   0  0  0  0  0  0  0  0  0  0  0  0
  146.2199  142.9285  154.0665 C   0  0  0  0  0  0  0  0  0  0  0  0
  146.0878  142.3129  155.4363 C   0  0  0  0  0  0  0  0  0  0  0  0
  150.6942  141.2750  156.1324 C   0  0  0  0  0  0  0  0  0  0  0  0
  151.4484  140.4167  156.5898 O   0  0  0  0  0  0  0  0  0  0  0  0
  150.4775  142.4832  156.6852 N   0  0  0  0  0  0  0  0  0  0  0  0
  151.0489  143.0538  157.8549 C   0  0  0  0  0  0  0  0  0  0  0  0
  151.4162  142.1743  158.8942 C   0  0  0  0  0  0  0  0  0  0  0  0
  151.9719  142.7090  160.0735 C   0  0  0  0  0  0  0  0  0  0  0  0
  152.1671  144.0299  160.2683 N   0  0  0  0  0  0  0  0  0  0  0  0
  151.8043  144.8720  159.2778 C   0  0  0  0  0  0  0  0  0  0  0  0
  151.2403  144.4419  158.0599 C   0  0  0  0  0  0  0  0  0  0  0  0
  151.2590  139.4600  154.0945 H   0  0  0  0  0  0  0  0  0  0  0  0
  149.6462  139.3831  153.3963 H   0  0  0  0  0  0  0  0  0  0  0  0
  149.9202  138.7952  155.0314 H   0  0  0  0  0  0  0  0  0  0  0  0
  150.1306  141.7032  154.0820 H   0  0  0  0  0  0  0  0  0  0  0  0
  148.0791  141.0336  153.0865 H   0  0  0  0  0  0  0  0  0  0  0  0
  147.4611  139.6472  153.9846 H   0  0  0  0  0  0  0  0  0  0  0  0
  145.4571  140.8591  153.8831 H   0  0  0  0  0  0  0  0  0  0  0  0
  147.1354  143.4754  153.8489 H   0  0  0  0  0  0  0  0  0  0  0  0
  145.3183  143.3257  153.6047 H   0  0  0  0  0  0  0  0  0  0  0  0
  145.0982  142.2973  155.8888 H   0  0  0  0  0  0  0  0  0  0  0  0
  146.9152  142.4470  156.1305 H   0  0  0  0  0  0  0  0  0  0  0  0
  149.7743  143.0485  156.2324 H   0  0  0  0  0  0  0  0  0  0  0  0
  151.2803  141.1072  158.7933 H   0  0  0  0  0  0  0  0  0  0  0  0
  152.2653  142.0568  160.8827 H   0  0  0  0  0  0  0  0  0  0  0  0
  151.9623  145.9240  159.4637 H   0  0  0  0  0  0  0  0  0  0  0  0
  150.9600  145.1807  157.3258 H   0  0  0  0  0  0  0  0  0  0  0  0
  1  2  1  0  0  0  0
  1 17  1  0  0  0  0
  1 18  1  0  0  0  0
  1 19  1  0  0  0  0
  2  3  1  0  0  0  0
  2  8  1  0  0  0  0
  2 20  1  0  0  0  0
  3  4  1  0  0  0  0
  4  5  1  0  0  0  0
  4 21  1  0  0  0  0
  4 22  1  0  0  0  0
  5  7  1  0  0  0  0
  5  6  1  0  0  0  0
  5 23  1  0  0  0  0
  6  7  1  0  0  0  0
  6 24  1  0  0  0  0
  6 25  1  0  0  0  0
  7 26  1  0  0  0  0
  7 27  1  0  0  0  0
  8  9  2  0  0  0  0
  8 10  1  0  0  0  0
 10 11  1  0  0  0  0
 10 28  1  0  0  0  0
 11 16  1  0  0  0  0
 11 12  2  0  0  0  0
 12 13  1  0  0  0  0
 12 29  1  0  0  0  0
 13 14  2  0  0  0  0
 13 30  1  0  0  0  0
 14 15  1  0  0  0  0
 15 16  2  0  0  0  0
 15 31  1  0  0  0  0
 16 32  1  0  0  0  0
M  END
> <s_m_source_file>
AV-unprocessed.smi

> <i_m_source_file_index>
3207

> <i_lp_mmshare_version>
43012

> <i_f3d_flags>
0

> <s_epik_input>
W0NIMl0xW0NIMl1bQ0hdMVtDSDJdT1tDQEBIXShbQ0gzXSlDKD1PKVtOSF1jMltjSF1bY0hdbltjSF1bY0hdMg==

> <s_epik_cmdline>
J2VwaWtfcHl0aG9uJywgJy1waCcsICc3LjAnLCAnLXRuJywgJzgnLCAnLW1hJywgJzIwMCcsICctbWV0YWxfYmluZGluZycsICctaW1hZScsICc8aW5maWxlLm1hZT4nLCAnLW9tYWUnLCAnPG91dGZpbGUubWFlPic=

> <r_epik_Ionization_Penalty>
0.00446435

> <r_epik_Ionization_Penalty_Charging>
0

> <r_epik_Ionization_Penalty_Neutral>
0.00446435

> <r_epik_State_Penalty>
0.00321941

> <r_epik_Charging_Adjusted_Penalty>
0.00321941

> <i_epik_Tot_Q>
0

> <i_epik_Tot_abs_Q>
0

> <r_epik_Metal_State_Penalty>
-0

> <b_epik_Metal_Only>
0

> <s_lp_Force_Field>
OPLS_2005

> <r_lp_Energy>
19.7696

> <b_lp_Chiralities_Consistent>
1

> <s_lp_Variant>
AV-unprocessed.smi:3207-2

> <Gold.Version>
5.8.1

> <Gold.Id.Protein>
6NUR|6NUR_protein|mol2

> <Gold.PLP.Fitness>
39.7741

> <Gold.PLP.PLP>
-37.7248

> <Gold.PLP.part.hbond>
-1.0000

> <Gold.PLP.part.metal>
0.0000

> <Gold.PLP.part.buried>
-3.8263

> <Gold.PLP.part.nonpolar>
-33.5727

> <Gold.PLP.part.repulsive>
0.2034

> <Gold.PLP.ligand.clash>
0.0000

> <Gold.PLP.ligand.torsion>
0.7594

> <Gold.PLP.Chemscore.Hbond>
1.0000

> <Gold.PLP.Chemscore.CHOScore>
0.0000

> <Gold.PLP.Chemscore.Metal>
0.0000

> <Gold.Chemscore.Hbonds>
donor molecule, donor type, donor heavy atom, donor atom, acceptor molecule, acceptor atom, score
      L1  H    10    28       P1  8028  1.00

> <Gold.PLP.Chemscore.Internal.Correction>
0.5682

> <Gold.Rescore>
     Score         DG    S(hbond)    S(metal)    S(lipo)     H(rot)  DE(clash)    DE(int)     intcor
     13.63     -16.02       0.91        0.00      96.37       1.48       0.43       1.96       ----

> <Gold.Chemscore.Fitness>
13.6291

> <Gold.Chemscore.DG>
-16.0160

> <Gold.Chemscore.ZeroCoef>
-5.4800

> <Gold.Chemscore.Hbond>
0.9134

> <Gold.Chemscore.Metal>
0.0000

> <Gold.Chemscore.Lipo>
96.3737

> <Gold.Chemscore.Internal_Hbond>
0.0000

> <Gold.Chemscore.DEClash>
0.4310

> <Gold.Chemscore.DEInternal>
1.9559

> <Gold.Chemscore.Rot>
1.4807

> <Gold.Chemscore.Internal.Correction>
   9.000000E+99

> <Gold.Chemscore.Hbonds>
donor molecule, donor type, donor heavy atom, donor atom, acceptor molecule, acceptor atom, score
      L1  H    10    28       P1  8028  0.96

> <Gold.Chemscore.Hbond.Weighted>
-3.0507

> <Gold.Chemscore.Metal.Weighted>
-0.0000

> <Gold.Chemscore.Lipo.Weighted>
-11.2757

> <Gold.Chemscore.Internal_Hbond.Weighted>
0.0000

> <Gold.Chemscore.DEClash.Weighted>
0.4310

> <Gold.Chemscore.DEInternal.Weighted>
1.9559

> <Gold.Chemscore.Rot.Weighted>
3.7905

> <Gold.Chemscore.Internal.Correction.Weighted>
   9.000000E+99

> <Gold.Protein.RotatedTorsions>
[ 6907 6896 6895 6894 ] final  -38.73 input  -60.11 | X-H torsion
[ 7974 7965 7964 7962 ] final   -5.96 input  175.53 | X-H torsion
[ 8008 7997 7996 7995 ] final   24.22 input   59.86 | X-H torsion
[ 10167 10162 10161 10158 ] final -106.31 input  -65.29 | X-H torsion
[ 10718 10713 10712 10709 ] final  -43.09 input   66.30 | X-H torsion
[ 10763 10752 10751 10750 ] final  -88.27 input  -60.55 | X-H torsion
[ 11005 11000 10999 10996 ] final  158.96 input  -57.11 | X-H torsion

> <Gold.Protein.ActiveResidues>
 VAL166  LYS551  ARG553  GLY616  TRP617  ASP618  TYR619  PRO620  LYS621  CYS622 
 ASP623  PHE694  ASN695  SER759  ASP760  ASP761  ALA762  ILE779  LEU786  VAL792 
 PHE793  MET794  SER795  GLU796  ALA797  LYS798  CYS799  TRP800  GLU811  SER814 

> <Gold.Protein.RotatedAtoms>
  150.9989  134.9306  159.7942 H   0  0  0  0  0  0  0  0  0  0  0  0  # atno 6907 bound_to 6896
  152.5272  134.3181  159.9148 H   0  0  0  0  0  0  0  0  0  0  0  0  # atno 6908 bound_to 6896
  151.3187  133.4008  159.2687 H   0  0  0  0  0  0  0  0  0  0  0  0  # atno 6909 bound_to 6896
  146.2341  140.2099  142.8335 H   0  0  0  0  0  0  0  0  0  0  0  0  # atno 7974 bound_to 7965
  154.9929  140.3116  155.4899 H   0  0  0  0  0  0  0  0  0  0  0  0  # atno 8008 bound_to 7997
  156.2937  140.2246  156.4975 H   0  0  0  0  0  0  0  0  0  0  0  0  # atno 8009 bound_to 7997
  154.7687  140.0454  157.1022 H   0  0  0  0  0  0  0  0  0  0  0  0  # atno 8010 bound_to 7997
  140.1892  143.3905  152.1220 H   0  0  0  0  0  0  0  0  0  0  0  0  # atno 10167 bound_to 10162
  156.2527  130.4189  149.8631 H   0  0  0  0  0  0  0  0  0  0  0  0  # atno 10718 bound_to 10713
  154.6428  135.5383  153.7809 H   0  0  0  0  0  0  0  0  0  0  0  0  # atno 10763 bound_to 10752
  153.0343  135.6463  154.1134 H   0  0  0  0  0  0  0  0  0  0  0  0  # atno 10764 bound_to 10752
  154.1058  135.2930  155.3221 H   0  0  0  0  0  0  0  0  0  0  0  0  # atno 10765 bound_to 10752
  140.1915  134.8403  157.2917 H   0  0  0  0  0  0  0  0  0  0  0  0  # atno 11005 bound_to 11000
  144.9715  140.8373  143.5452 LP  0  0  0  0  0  0  0  0  0  0  0  0  # atno 17320 bound_to 7965
  145.2081  139.2218  143.5157 LP  0  0  0  0  0  0  0  0  0  0  0  0  # atno 17321 bound_to 7965
  139.5263  144.7106  151.5217 LP  0  0  0  0  0  0  0  0  0  0  0  0  # atno 17342 bound_to 10162
  140.6467  143.8779  150.6745 LP  0  0  0  0  0  0  0  0  0  0  0  0  # atno 17343 bound_to 10162
  156.6174  130.8612  151.3468 LP  0  0  0  0  0  0  0  0  0  0  0  0  # atno 17370 bound_to 10713
  157.7220  130.9572  150.1479 LP  0  0  0  0  0  0  0  0  0  0  0  0  # atno 17371 bound_to 10713
  140.2154  134.4088  155.7592 LP  0  0  0  0  0  0  0  0  0  0  0  0  # atno 17394 bound_to 11000
  141.2226  133.7139  156.8405 LP  0  0  0  0  0  0  0  0  0  0  0  0  # atno 17395 bound_to 11000

$$$$
