AV-unprocessed.smi:3113|AV-procd|sdf|11852|dock2
  -GOLD-   2272017233D 1   1.00000     0.00000
 Structure written by MMmdl.
 35 36  0  0  0  0  0  0  0  0  2 V2000
  152.1263  138.4954  155.0391 C   0  0  0  0  0  0  0  0  0  0  0  0
  151.0415  138.0905  154.2118 C   0  0  0  0  0  0  0  0  0  0  0  0
  150.0519  138.9692  154.2021 N   0  0  0  0  0  0  0  0  0  0  0  0
  150.4724  139.9619  155.0156 N   0  0  0  0  0  0  0  0  0  0  0  0
  149.6198  141.1122  155.2463 C   0  0  0  0  0  0  0  0  0  0  0  0
  149.2601  141.2684  156.7313 C   0  0  0  0  0  0  0  0  0  0  0  0
  149.8848  142.4761  157.3038 N   0  3  0  0  0  0  0  0  0  0  0  0
  151.3440  142.5546  157.0935 C   0  0  0  0  0  0  0  0  0  0  0  0
  152.0238  143.3413  158.2235 C   0  0  2  0  0  0  0  0  0  0  0  0
  152.0228  142.5572  159.5505 C   0  0  0  0  0  0  0  0  0  0  0  0
  152.6141  143.4068  160.6813 C   0  0  0  0  0  0  0  0  0  0  0  0
  151.8873  144.7537  160.7489 C   0  0  0  0  0  0  0  0  0  0  0  0
  151.8881  145.4291  159.3687 C   0  0  0  0  0  0  0  0  0  0  0  0
  151.3038  144.5598  158.4028 O   0  0  0  0  0  0  0  0  0  0  0  0
  151.7213  139.6997  155.5393 C   0  0  0  0  0  0  0  0  0  0  0  0
  153.0553  137.9808  155.2356 H   0  0  0  0  0  0  0  0  0  0  0  0
  150.9444  137.1901  153.6232 H   0  0  0  0  0  0  0  0  0  0  0  0
  150.1340  142.0022  154.8809 H   0  0  0  0  0  0  0  0  0  0  0  0
  148.7158  140.9989  154.6463 H   0  0  0  0  0  0  0  0  0  0  0  0
  148.1774  141.3361  156.8473 H   0  0  0  0  0  0  0  0  0  0  0  0
  149.5915  140.3943  157.2935 H   0  0  0  0  0  0  0  0  0  0  0  0
  149.4557  143.2906  156.8882 H   0  0  0  0  0  0  0  0  0  0  0  0
  151.7634  141.5495  157.0288 H   0  0  0  0  0  0  0  0  0  0  0  0
  151.5296  143.0434  156.1362 H   0  0  0  0  0  0  0  0  0  0  0  0
  153.0532  143.5647  157.9361 H   0  0  0  0  0  0  0  0  0  0  0  0
  151.0025  142.2688  159.8077 H   0  0  0  0  0  0  0  0  0  0  0  0
  152.5918  141.6328  159.4448 H   0  0  0  0  0  0  0  0  0  0  0  0
  152.5343  142.8827  161.6342 H   0  0  0  0  0  0  0  0  0  0  0  0
  153.6772  143.5714  160.5010 H   0  0  0  0  0  0  0  0  0  0  0  0
  150.8591  144.6001  161.0788 H   0  0  0  0  0  0  0  0  0  0  0  0
  152.3599  145.4020  161.4875 H   0  0  0  0  0  0  0  0  0  0  0  0
  151.3117  146.3537  159.4042 H   0  0  0  0  0  0  0  0  0  0  0  0
  152.9016  145.6976  159.0667 H   0  0  0  0  0  0  0  0  0  0  0  0
  152.2136  140.3832  156.2156 H   0  0  0  0  0  0  0  0  0  0  0  0
  149.7065  142.4884  158.2981 H   0  0  0  0  0  0  0  0  0  0  0  0
  1 15  2  0  0  0  0
  1  2  1  0  0  0  0
  1 16  1  0  0  0  0
  2  3  2  0  0  0  0
  2 17  1  0  0  0  0
  3  4  1  0  0  0  0
  4  5  1  0  0  0  0
  4 15  1  0  0  0  0
  5  6  1  0  0  0  0
  5 18  1  0  0  0  0
  5 19  1  0  0  0  0
  6  7  1  0  0  0  0
  6 20  1  0  0  0  0
  6 21  1  0  0  0  0
  7  8  1  0  0  0  0
  7 22  1  0  0  0  0
  7 35  1  0  0  0  0
  8  9  1  0  0  0  0
  8 23  1  0  0  0  0
  8 24  1  0  0  0  0
  9 14  1  0  0  0  0
  9 10  1  0  0  0  0
  9 25  1  0  0  0  0
 10 11  1  0  0  0  0
 10 26  1  0  0  0  0
 10 27  1  0  0  0  0
 11 12  1  0  0  0  0
 11 28  1  0  0  0  0
 11 29  1  0  0  0  0
 12 13  1  0  0  0  0
 12 30  1  0  0  0  0
 12 31  1  0  0  0  0
 13 14  1  0  0  0  0
 13 32  1  0  0  0  0
 13 33  1  0  0  0  0
 15 34  1  0  0  0  0
M  CHG  1   7   1
M  END
> <s_m_source_file>
AV-unprocessed.smi

> <i_m_source_file_index>
3113

> <i_lp_mmshare_version>
43012

> <i_f3d_flags>
0

> <s_epik_input>
W2NIXTFbY0hdW2NIXW5uMVtDSDJdW0NIMl1bTkhdW0NIMl1bQ0BASF0yW0NIMl1bQ0gyXVtDSDJdW0NIMl1PMg==

> <s_epik_cmdline>
J2VwaWtfcHl0aG9uJywgJy1waCcsICc3LjAnLCAnLXRuJywgJzgnLCAnLW1hJywgJzIwMCcsICctbWV0YWxfYmluZGluZycsICctaW1hZScsICc8aW5maWxlLm1hZT4nLCAnLW9tYWUnLCAnPG91dGZpbGUubWFlPic=

> <r_lp_tautomer_probability>
1

> <r_epik_Ionization_Penalty>
0.00849054

> <r_epik_Ionization_Penalty_Charging>
0.00848754

> <r_epik_Ionization_Penalty_Neutral>
3.00382e-06

> <r_epik_State_Penalty>
0.00639836

> <r_epik_Charging_Adjusted_Penalty>
0.0148859

> <i_epik_Tot_Q>
1

> <i_epik_Tot_abs_Q>
1

> <r_epik_Metal_State_Penalty>
0.00641155

> <b_epik_Metal_Only>
0

> <s_lp_Force_Field>
OPLS_2005

> <r_lp_Energy>
10.9258

> <b_lp_Chiralities_Consistent>
1

> <s_lp_Variant>
AV-unprocessed.smi:3113-1

> <Gold.Version>
5.8.1

> <Gold.Id.Protein>
6NUR|6NUR_protein|mol2

> <Gold.PLP.Fitness>
46.1240

> <Gold.PLP.PLP>
-37.9639

> <Gold.PLP.part.hbond>
-1.0000

> <Gold.PLP.part.metal>
0.0000

> <Gold.PLP.part.buried>
-4.6526

> <Gold.PLP.part.nonpolar>
-33.0532

> <Gold.PLP.part.repulsive>
0.3578

> <Gold.PLP.ligand.clash>
0.0000

> <Gold.PLP.ligand.torsion>
0.6078

> <Gold.PLP.Chemscore.Hbond>
2.0000

> <Gold.PLP.Chemscore.CHOScore>
1.1219

> <Gold.PLP.Chemscore.Metal>
0.0000

> <Gold.Chemscore.Hbonds>
donor molecule, donor type, donor heavy atom, donor atom, acceptor molecule, acceptor atom, score
      L1  H     7    22       P1  8028  2.00
      L1  C     2    17       P1  7948  0.12
      L1  C     2    17       P1  7949  1.00

> <Gold.PLP.Chemscore.Internal.Correction>
0.0099

> <Gold.Rescore>
     Score         DG    S(hbond)    S(metal)    S(lipo)     H(rot)  DE(clash)    DE(int)     intcor
     15.91     -16.54       0.99        0.00     103.36       1.70       0.03       0.60       ----

> <Gold.Chemscore.Fitness>
15.9069

> <Gold.Chemscore.DG>
-16.5367

> <Gold.Chemscore.ZeroCoef>
-5.4800

> <Gold.Chemscore.Hbond>
0.9916

> <Gold.Chemscore.Metal>
0.0000

> <Gold.Chemscore.Lipo>
103.3596

> <Gold.Chemscore.Internal_Hbond>
0.0000

> <Gold.Chemscore.DEClash>
0.0272

> <Gold.Chemscore.DEInternal>
0.6026

> <Gold.Chemscore.Rot>
1.6985

> <Gold.Chemscore.Internal.Correction>
   9.000000E+99

> <Gold.Chemscore.Hbonds>
donor molecule, donor type, donor heavy atom, donor atom, acceptor molecule, acceptor atom, score
      L1  H     7    22       P1  8028  0.97

> <Gold.Chemscore.Hbond.Weighted>
-3.3118

> <Gold.Chemscore.Metal.Weighted>
-0.0000

> <Gold.Chemscore.Lipo.Weighted>
-12.0931

> <Gold.Chemscore.Internal_Hbond.Weighted>
0.0000

> <Gold.Chemscore.DEClash.Weighted>
0.0272

> <Gold.Chemscore.DEInternal.Weighted>
0.6026

> <Gold.Chemscore.Rot.Weighted>
4.3482

> <Gold.Chemscore.Internal.Correction.Weighted>
   9.000000E+99

> <Gold.Protein.RotatedTorsions>
[ 6907 6896 6895 6894 ] final  104.83 input  -60.11 | X-H torsion
[ 7974 7965 7964 7962 ] final -179.94 input  175.53 | X-H torsion
[ 8008 7997 7996 7995 ] final  -57.30 input   59.86 | X-H torsion
[ 10167 10162 10161 10158 ] final  -94.30 input  -65.29 | X-H torsion
[ 10718 10713 10712 10709 ] final   27.54 input   66.30 | X-H torsion
[ 10763 10752 10751 10750 ] final  124.82 input  -60.55 | X-H torsion
[ 11005 11000 10999 10996 ] final    8.60 input  -57.11 | X-H torsion

> <Gold.Protein.ActiveResidues>
 VAL166  LYS551  ARG553  GLY616  TRP617  ASP618  TYR619  PRO620  LYS621  CYS622 
 ASP623  PHE694  ASN695  SER759  ASP760  ASP761  ALA762  ILE779  LEU786  VAL792 
 PHE793  MET794  SER795  GLU796  ALA797  LYS798  CYS799  TRP800  GLU811  SER814 

> <Gold.Protein.RotatedAtoms>
  152.5251  133.9618  159.7720 H   0  0  0  0  0  0  0  0  0  0  0  0  # atno 6907 bound_to 6896
  150.9907  133.6144  159.2716 H   0  0  0  0  0  0  0  0  0  0  0  0  # atno 6908 bound_to 6896
  151.3288  135.0843  159.9384 H   0  0  0  0  0  0  0  0  0  0  0  0  # atno 6909 bound_to 6896
  144.7140  140.0641  143.6431 H   0  0  0  0  0  0  0  0  0  0  0  0  # atno 7974 bound_to 7965
  154.4263  140.1110  156.5776 H   0  0  0  0  0  0  0  0  0  0  0  0  # atno 8008 bound_to 7997
  155.6147  140.3494  155.4614 H   0  0  0  0  0  0  0  0  0  0  0  0  # atno 8009 bound_to 7997
  156.0072  140.1211  157.0479 H   0  0  0  0  0  0  0  0  0  0  0  0  # atno 8010 bound_to 7997
  140.3158  143.3078  152.0099 H   0  0  0  0  0  0  0  0  0  0  0  0  # atno 10167 bound_to 10162
  157.2215  130.6981  149.6272 H   0  0  0  0  0  0  0  0  0  0  0  0  # atno 10718 bound_to 10713
  153.6675  135.3336  155.3144 H   0  0  0  0  0  0  0  0  0  0  0  0  # atno 10763 bound_to 10752
  154.8499  135.4378  154.1740 H   0  0  0  0  0  0  0  0  0  0  0  0  # atno 10764 bound_to 10752
  153.2723  135.7001  153.7544 H   0  0  0  0  0  0  0  0  0  0  0  0  # atno 10765 bound_to 10752
  140.5351  134.0428  155.7886 H   0  0  0  0  0  0  0  0  0  0  0  0  # atno 11005 bound_to 11000
  145.9839  139.2962  143.1025 LP  0  0  0  0  0  0  0  0  0  0  0  0  # atno 17320 bound_to 7965
  145.8980  140.9261  143.0518 LP  0  0  0  0  0  0  0  0  0  0  0  0  # atno 17321 bound_to 7965
  139.4884  144.6349  151.6995 LP  0  0  0  0  0  0  0  0  0  0  0  0  # atno 17342 bound_to 10162
  140.5527  144.0398  150.6134 LP  0  0  0  0  0  0  0  0  0  0  0  0  # atno 17343 bound_to 10162
  155.9682  130.4518  150.5750 LP  0  0  0  0  0  0  0  0  0  0  0  0  # atno 17370 bound_to 10713
  157.3571  131.0743  151.1667 LP  0  0  0  0  0  0  0  0  0  0  0  0  # atno 17371 bound_to 10713
  141.1259  133.9384  157.2636 LP  0  0  0  0  0  0  0  0  0  0  0  0  # atno 17394 bound_to 11000
  139.9533  135.0171  156.9057 LP  0  0  0  0  0  0  0  0  0  0  0  0  # atno 17395 bound_to 11000

$$$$
