AV-unprocessed.smi:1774|AV-procd|sdf|7168|dock1
  -GOLD-   22720 8403D 1   1.00000     0.00000
 Structure written by MMmdl.
 46 47  0  0  0  0  0  0  0  0  2 V2000
  147.3641  132.7144  152.6548 C   0  0  0  0  0  0  0  0  0  0  0  0
  146.1869  132.9614  151.7252 C   0  0  0  0  0  0  0  0  0  0  0  0
  145.5059  131.8593  151.1659 C   0  0  0  0  0  0  0  0  0  0  0  0
  144.4184  132.0894  150.3060 C   0  0  0  0  0  0  0  0  0  0  0  0
  144.0560  133.4208  150.0394 C   0  0  0  0  0  0  0  0  0  0  0  0
  144.7006  134.4801  150.5698 N   0  0  0  0  0  0  0  0  0  0  0  0
  145.7518  134.2751  151.4029 C   0  0  0  0  0  0  0  0  0  0  0  0
  146.4790  135.3447  151.9981 N   0  0  0  0  0  0  0  0  0  0  0  0
  146.1731  136.0523  153.0999 C   0  0  0  0  0  0  0  0  0  0  0  0
  145.1755  135.8869  153.8025 O   0  0  0  0  0  0  0  0  0  0  0  0
  147.1034  136.9842  153.3537 N   0  0  0  0  0  0  0  0  0  0  0  0
  147.0684  137.9055  154.4835 C   0  0  0  0  0  0  0  0  0  0  0  0
  147.9883  137.4351  155.6261 C   0  0  0  0  0  0  0  0  0  0  0  0
  149.2523  138.2097  155.6836 N   0  3  1  0  0  0  0  0  0  0  0  0
  150.1190  137.9678  154.5059 C   0  0  0  0  0  0  0  0  0  0  0  0
  151.4500  138.7365  154.6260 C   0  0  2  0  0  0  0  0  0  0  0  0
  152.4215  138.1283  155.6536 C   0  0  0  0  0  0  0  0  0  0  0  0
  151.1996  140.1199  154.8734 O   0  0  0  0  0  0  0  0  0  0  0  0
  150.3948  140.3880  156.0189 C   0  0  1  0  0  0  0  0  0  0  0  0
  150.2252  141.9073  156.1298 C   0  0  0  0  0  0  0  0  0  0  0  0
  149.0434  139.6649  155.8765 C   0  0  0  0  0  0  0  0  0  0  0  0
  147.5219  131.6482  152.8209 H   0  0  0  0  0  0  0  0  0  0  0  0
  147.1909  133.1810  153.6248 H   0  0  0  0  0  0  0  0  0  0  0  0
  148.2791  133.1274  152.2289 H   0  0  0  0  0  0  0  0  0  0  0  0
  145.8104  130.8476  151.3909 H   0  0  0  0  0  0  0  0  0  0  0  0
  143.8764  131.2671  149.8626 H   0  0  0  0  0  0  0  0  0  0  0  0
  143.2268  133.6418  149.3837 H   0  0  0  0  0  0  0  0  0  0  0  0
  147.3378  135.5933  151.5303 H   0  0  0  0  0  0  0  0  0  0  0  0
  147.8935  137.0540  152.7288 H   0  0  0  0  0  0  0  0  0  0  0  0
  147.3374  138.9040  154.1381 H   0  0  0  0  0  0  0  0  0  0  0  0
  146.0391  137.9675  154.8379 H   0  0  0  0  0  0  0  0  0  0  0  0
  147.4471  137.5593  156.5654 H   0  0  0  0  0  0  0  0  0  0  0  0
  148.2151  136.3711  155.5407 H   0  0  0  0  0  0  0  0  0  0  0  0
  150.3163  136.9007  154.3943 H   0  0  0  0  0  0  0  0  0  0  0  0
  149.5902  138.2865  153.6060 H   0  0  0  0  0  0  0  0  0  0  0  0
  151.9482  138.6896  153.6572 H   0  0  0  0  0  0  0  0  0  0  0  0
  152.7099  137.1180  155.3617 H   0  0  0  0  0  0  0  0  0  0  0  0
  151.9849  138.0642  156.6499 H   0  0  0  0  0  0  0  0  0  0  0  0
  153.3330  138.7220  155.7253 H   0  0  0  0  0  0  0  0  0  0  0  0
  150.9042  140.0399  156.9178 H   0  0  0  0  0  0  0  0  0  0  0  0
  149.6247  142.1736  157.0001 H   0  0  0  0  0  0  0  0  0  0  0  0
  149.7338  142.3162  155.2464 H   0  0  0  0  0  0  0  0  0  0  0  0
  151.1923  142.4008  156.2304 H   0  0  0  0  0  0  0  0  0  0  0  0
  148.4866  140.0686  155.0291 H   0  0  0  0  0  0  0  0  0  0  0  0
  148.4426  139.8483  156.7668 H   0  0  0  0  0  0  0  0  0  0  0  0
  149.7631  137.8712  156.4866 H   0  0  0  0  0  0  0  0  0  0  0  0
  1  2  1  0  0  0  0
  1 22  1  0  0  0  0
  1 23  1  0  0  0  0
  1 24  1  0  0  0  0
  2  7  1  0  0  0  0
  2  3  2  0  0  0  0
  3  4  1  0  0  0  0
  3 25  1  0  0  0  0
  4  5  2  0  0  0  0
  4 26  1  0  0  0  0
  5  6  1  0  0  0  0
  5 27  1  0  0  0  0
  6  7  2  0  0  0  0
  7  8  1  0  0  0  0
  8  9  1  0  0  0  0
  8 28  1  0  0  0  0
  9 10  2  0  0  0  0
  9 11  1  0  0  0  0
 11 12  1  0  0  0  0
 11 29  1  0  0  0  0
 12 13  1  0  0  0  0
 12 30  1  0  0  0  0
 12 31  1  0  0  0  0
 13 14  1  0  0  0  0
 13 32  1  0  0  0  0
 13 33  1  0  0  0  0
 14 21  1  0  0  0  0
 14 15  1  0  0  0  0
 14 46  1  0  0  0  0
 15 16  1  0  0  0  0
 15 34  1  0  0  0  0
 15 35  1  0  0  0  0
 16 17  1  0  0  0  0
 16 18  1  0  0  0  0
 16 36  1  0  0  0  0
 17 37  1  0  0  0  0
 17 38  1  0  0  0  0
 17 39  1  0  0  0  0
 18 19  1  0  0  0  0
 19 20  1  0  0  0  0
 19 21  1  0  0  0  0
 19 40  1  0  0  0  0
 20 41  1  0  0  0  0
 20 42  1  0  0  0  0
 20 43  1  0  0  0  0
 21 44  1  0  0  0  0
 21 45  1  0  0  0  0
M  CHG  1  14   1
M  END
> <s_m_source_file>
AV-unprocessed.smi

> <i_m_source_file_index>
1774

> <i_lp_mmshare_version>
43012

> <i_f3d_flags>
0

> <s_epik_input>
W0NIM11jMVtjSF1bY0hdW2NIXW5jMVtOSF1DKD1PKVtOSF1bQ0gyXVtDSDJdTjJbQ0gyXVtDQEBIXShbQ0gzXSlPW0NAQEhdKFtDSDNdKVtDSDJdMg==

> <s_epik_cmdline>
J2VwaWtfcHl0aG9uJywgJy1waCcsICc3LjAnLCAnLXRuJywgJzgnLCAnLW1hJywgJzIwMCcsICctbWV0YWxfYmluZGluZycsICctaW1hZScsICc8aW5maWxlLm1hZT4nLCAnLW9tYWUnLCAnPG91dGZpbGUubWFlPic=

> <r_epik_Ionization_Penalty>
0.602573

> <r_epik_Ionization_Penalty_Charging>
0.602531

> <r_epik_Ionization_Penalty_Neutral>
4.21996e-05

> <r_epik_State_Penalty>
0.617039

> <r_epik_Charging_Adjusted_Penalty>
1.21957

> <i_epik_Tot_Q>
1

> <i_epik_Tot_abs_Q>
1

> <r_epik_Metal_State_Penalty>
0.617042

> <b_epik_Metal_Only>
0

> <s_lp_Force_Field>
OPLS_2005

> <r_lp_Energy>
18.8628

> <b_lp_Chiralities_Consistent>
1

> <s_lp_Variant>
AV-unprocessed.smi:1774-5

> <Gold.Version>
5.8.1

> <Gold.Id.Protein>
6NUR|6NUR_protein|mol2

> <Gold.PLP.Fitness>
40.4469

> <Gold.PLP.PLP>
-31.4641

> <Gold.PLP.part.hbond>
-2.6841

> <Gold.PLP.part.metal>
0.0000

> <Gold.PLP.part.buried>
-4.6678

> <Gold.PLP.part.nonpolar>
-26.0043

> <Gold.PLP.part.repulsive>
0.3569

> <Gold.PLP.ligand.clash>
0.0000

> <Gold.PLP.ligand.torsion>
1.1985

> <Gold.PLP.Chemscore.Hbond>
2.7760

> <Gold.PLP.Chemscore.CHOScore>
1.0000

> <Gold.PLP.Chemscore.Metal>
0.0000

> <Gold.Chemscore.Hbonds>
donor molecule, donor type, donor heavy atom, donor atom, acceptor molecule, acceptor atom, score
      L1  H     8    28       P1  7948  0.86
      L1  H    11    29       P1  7948  0.91
      P1  H  7989  7998       L1    18  1.00
      L1  C     5    27       P1 10186  1.00

> <Gold.PLP.Chemscore.Internal.Correction>
0.0518

> <Gold.Rescore>
     Score         DG    S(hbond)    S(metal)    S(lipo)     H(rot)  DE(clash)    DE(int)     intcor
     18.64     -19.95       2.71        0.00      79.11       1.49       0.08       1.23       ----

> <Gold.Chemscore.Fitness>
18.6351

> <Gold.Chemscore.DG>
-19.9458

> <Gold.Chemscore.ZeroCoef>
-5.4800

> <Gold.Chemscore.Hbond>
2.7055

> <Gold.Chemscore.Metal>
0.0000

> <Gold.Chemscore.Lipo>
79.1059

> <Gold.Chemscore.Internal_Hbond>
0.0000

> <Gold.Chemscore.DEClash>
0.0814

> <Gold.Chemscore.DEInternal>
1.2294

> <Gold.Chemscore.Rot>
1.4946

> <Gold.Chemscore.Internal.Correction>
   9.000000E+99

> <Gold.Chemscore.Hbonds>
donor molecule, donor type, donor heavy atom, donor atom, acceptor molecule, acceptor atom, score
      L1  H     8    28       P1  7948  0.84
      L1  H    11    29       P1  7948  0.88
      P1  H  7989  7998       L1    18  0.49

> <Gold.Chemscore.Hbond.Weighted>
-9.0365

> <Gold.Chemscore.Metal.Weighted>
-0.0000

> <Gold.Chemscore.Lipo.Weighted>
-9.2554

> <Gold.Chemscore.Internal_Hbond.Weighted>
0.0000

> <Gold.Chemscore.DEClash.Weighted>
0.0814

> <Gold.Chemscore.DEInternal.Weighted>
1.2294

> <Gold.Chemscore.Rot.Weighted>
3.8261

> <Gold.Chemscore.Internal.Correction.Weighted>
   9.000000E+99

> <Gold.Protein.RotatedTorsions>
[ 6907 6896 6895 6894 ] final   -2.61 input  -60.11 | X-H torsion
[ 7974 7965 7964 7962 ] final -109.63 input  175.53 | X-H torsion
[ 8008 7997 7996 7995 ] final  170.61 input   59.86 | X-H torsion
[ 10167 10162 10161 10158 ] final   -0.21 input  -65.29 | X-H torsion
[ 10718 10713 10712 10709 ] final  179.41 input   66.30 | X-H torsion
[ 10763 10752 10751 10750 ] final  -55.06 input  -60.55 | X-H torsion
[ 11005 11000 10999 10996 ] final  124.89 input  -57.11 | X-H torsion

> <Gold.Protein.ActiveResidues>
 VAL166  LYS551  ARG553  GLY616  TRP617  ASP618  TYR619  PRO620  LYS621  CYS622 
 ASP623  PHE694  ASN695  SER759  ASP760  ASP761  ALA762  ILE779  LEU786  VAL792 
 PHE793  MET794  SER795  GLU796  ALA797  LYS798  CYS799  TRP800  GLU811  SER814 

> <Gold.Protein.RotatedAtoms>
  151.5272  135.1068  159.9893 H   0  0  0  0  0  0  0  0  0  0  0  0  # atno 6907 bound_to 6896
  152.4594  133.7787  159.6849 H   0  0  0  0  0  0  0  0  0  0  0  0  # atno 6908 bound_to 6896
  150.8551  133.7663  159.3037 H   0  0  0  0  0  0  0  0  0  0  0  0  # atno 6909 bound_to 6896
  145.1782  140.8958  143.3495 H   0  0  0  0  0  0  0  0  0  0  0  0  # atno 7974 bound_to 7965
  156.1350  140.1533  156.9009 H   0  0  0  0  0  0  0  0  0  0  0  0  # atno 8008 bound_to 7997
  154.4939  140.0843  156.7694 H   0  0  0  0  0  0  0  0  0  0  0  0  # atno 8009 bound_to 7997
  155.4186  140.3422  155.4271 H   0  0  0  0  0  0  0  0  0  0  0  0  # atno 8010 bound_to 7997
  140.6757  143.6922  150.8019 H   0  0  0  0  0  0  0  0  0  0  0  0  # atno 10167 bound_to 10162
  156.8762  130.9800  151.3067 H   0  0  0  0  0  0  0  0  0  0  0  0  # atno 10718 bound_to 10713
  154.1848  135.6437  153.5044 H   0  0  0  0  0  0  0  0  0  0  0  0  # atno 10763 bound_to 10752
  153.0050  135.5414  154.6477 H   0  0  0  0  0  0  0  0  0  0  0  0  # atno 10764 bound_to 10752
  154.5850  135.2929  155.0666 H   0  0  0  0  0  0  0  0  0  0  0  0  # atno 10765 bound_to 10752
  139.9380  134.9638  156.8476 H   0  0  0  0  0  0  0  0  0  0  0  0  # atno 11005 bound_to 11000
  145.0163  139.3464  143.6094 LP  0  0  0  0  0  0  0  0  0  0  0  0  # atno 17320 bound_to 7965
  146.3457  139.9446  142.8736 LP  0  0  0  0  0  0  0  0  0  0  0  0  # atno 17321 bound_to 7965
  140.0614  143.5151  152.2625 LP  0  0  0  0  0  0  0  0  0  0  0  0  # atno 17342 bound_to 10162
  139.6049  144.7593  151.3086 LP  0  0  0  0  0  0  0  0  0  0  0  0  # atno 17343 bound_to 10162
  157.6167  130.8624  149.9040 LP  0  0  0  0  0  0  0  0  0  0  0  0  # atno 17370 bound_to 10713
  156.0701  130.3686  150.0794 LP  0  0  0  0  0  0  0  0  0  0  0  0  # atno 17371 bound_to 10713
  140.6025  134.0158  155.7543 LP  0  0  0  0  0  0  0  0  0  0  0  0  # atno 17394 bound_to 11000
  141.1002  133.9779  157.3091 LP  0  0  0  0  0  0  0  0  0  0  0  0  # atno 17395 bound_to 11000

$$$$
