AV-unprocessed.smi:861|AV-procd|sdf|3972|dock2
  -GOLD-   22720 1443D 1   1.00000     0.00000
 Structure written by MMmdl.
 45 46  0  0  0  0  0  0  0  0  3 V2000
  144.0162  134.0834  150.8154 C   0  0  0  0  0  0  0  0  0  0  0  0
  145.3507  134.5671  151.4090 C   0  0  0  0  0  0  0  0  0  0  0  0
  146.2577  133.3671  151.7243 C   0  0  0  0  0  0  0  0  0  0  0  0
  145.1587  135.4493  152.6604 C   0  0  0  0  0  0  0  0  0  0  0  0
  144.3959  136.7622  152.3915 C   0  0  0  0  0  0  0  0  0  0  0  0
  144.9628  137.9168  153.1349 N   0  3  1  0  0  0  0  0  0  0  0  0
  144.9707  137.7295  154.6070 C   0  0  0  0  0  0  0  0  0  0  0  0
  145.5480  138.9708  155.3048 C   0  0  0  0  0  0  0  0  0  0  0  0
  146.8540  139.2316  154.8073 O   0  0  0  0  0  0  0  0  0  0  0  0
  146.8584  139.5154  153.4133 C   0  0  1  0  0  0  0  0  0  0  0  0
  148.3082  139.8661  153.0287 C   0  0  0  0  0  0  0  0  0  0  0  0
  149.1936  138.7089  153.0208 N   0  0  0  0  0  0  0  0  0  0  0  0
  150.3737  138.6712  153.7777 C   0  0  0  0  0  0  0  0  0  0  0  0
  150.8247  139.7204  154.6130 C   0  0  0  0  0  0  0  0  0  0  0  0
  152.0293  139.5430  155.3149 C   0  0  0  0  0  0  0  0  0  0  0  0
  152.7120  138.3261  155.1413 C   0  0  0  0  0  0  0  0  0  0  0  0
  152.2641  137.3349  154.3391 N   0  0  0  0  0  0  0  0  0  0  0  0
  151.1085  137.5348  153.6814 N   0  3  0  0  0  0  0  0  0  0  0  0
  146.3185  138.2829  152.6558 C   0  0  0  0  0  0  0  0  0  0  0  0
  143.4424  133.5103  151.5446 H   0  0  0  0  0  0  0  0  0  0  0  0
  144.1844  133.4407  149.9506 H   0  0  0  0  0  0  0  0  0  0  0  0
  143.3960  134.9132  150.4784 H   0  0  0  0  0  0  0  0  0  0  0  0
  145.8593  135.1626  150.6496 H   0  0  0  0  0  0  0  0  0  0  0  0
  145.8148  132.7247  152.4864 H   0  0  0  0  0  0  0  0  0  0  0  0
  147.2323  133.6933  152.0887 H   0  0  0  0  0  0  0  0  0  0  0  0
  146.4301  132.7590  150.8356 H   0  0  0  0  0  0  0  0  0  0  0  0
  144.6479  134.8773  153.4363 H   0  0  0  0  0  0  0  0  0  0  0  0
  146.1447  135.6848  153.0595 H   0  0  0  0  0  0  0  0  0  0  0  0
  144.3729  136.9849  151.3238 H   0  0  0  0  0  0  0  0  0  0  0  0
  143.3592  136.6320  152.7019 H   0  0  0  0  0  0  0  0  0  0  0  0
  143.9627  137.5521  154.9794 H   0  0  0  0  0  0  0  0  0  0  0  0
  145.5652  136.8508  154.8613 H   0  0  0  0  0  0  0  0  0  0  0  0
  144.9058  139.8401  155.1537 H   0  0  0  0  0  0  0  0  0  0  0  0
  145.6072  138.8020  156.3802 H   0  0  0  0  0  0  0  0  0  0  0  0
  146.2136  140.3765  153.2288 H   0  0  0  0  0  0  0  0  0  0  0  0
  148.3355  140.3510  152.0526 H   0  0  0  0  0  0  0  0  0  0  0  0
  148.7080  140.5956  153.7335 H   0  0  0  0  0  0  0  0  0  0  0  0
  148.9132  137.8926  152.4956 H   0  0  0  0  0  0  0  0  0  0  0  0
  150.2758  140.6433  154.7237 H   0  0  0  0  0  0  0  0  0  0  0  0
  152.4185  140.3122  155.9659 H   0  0  0  0  0  0  0  0  0  0  0  0
  153.6418  138.1411  155.6588 H   0  0  0  0  0  0  0  0  0  0  0  0
  146.9908  137.4333  152.7889 H   0  0  0  0  0  0  0  0  0  0  0  0
  146.2794  138.4956  151.5867 H   0  0  0  0  0  0  0  0  0  0  0  0
  144.3666  138.7084  152.9387 H   0  0  0  0  0  0  0  0  0  0  0  0
  150.7637  136.7883  153.0773 H   0  0  0  0  0  0  0  0  0  0  0  0
  1  2  1  0  0  0  0
  1 20  1  0  0  0  0
  1 21  1  0  0  0  0
  1 22  1  0  0  0  0
  2  3  1  0  0  0  0
  2  4  1  0  0  0  0
  2 23  1  0  0  0  0
  3 24  1  0  0  0  0
  3 25  1  0  0  0  0
  3 26  1  0  0  0  0
  4  5  1  0  0  0  0
  4 27  1  0  0  0  0
  4 28  1  0  0  0  0
  5  6  1  0  0  0  0
  5 29  1  0  0  0  0
  5 30  1  0  0  0  0
  6 19  1  0  0  0  0
  6  7  1  0  0  0  0
  6 44  1  0  0  0  0
  7  8  1  0  0  0  0
  7 31  1  0  0  0  0
  7 32  1  0  0  0  0
  8  9  1  0  0  0  0
  8 33  1  0  0  0  0
  8 34  1  0  0  0  0
  9 10  1  0  0  0  0
 10 11  1  0  0  0  0
 10 19  1  0  0  0  0
 10 35  1  0  0  0  0
 11 12  1  0  0  0  0
 11 36  1  0  0  0  0
 11 37  1  0  0  0  0
 12 13  1  0  0  0  0
 12 38  1  0  0  0  0
 13 18  1  0  0  0  0
 13 14  2  0  0  0  0
 14 15  1  0  0  0  0
 14 39  1  0  0  0  0
 15 16  2  0  0  0  0
 15 40  1  0  0  0  0
 16 17  1  0  0  0  0
 16 41  1  0  0  0  0
 17 18  2  0  0  0  0
 18 45  1  0  0  0  0
 19 42  1  0  0  0  0
 19 43  1  0  0  0  0
M  CHG  1   6   1
M  CHG  1  18   1
M  END
> <s_m_source_file>
AV-unprocessed.smi

> <i_m_source_file_index>
861

> <i_lp_mmshare_version>
43012

> <i_f3d_flags>
0

> <s_epik_input>
W0NIM11bQ0hdKFtDSDNdKVtDSDJdW0NIMl1OMVtDSDJdW0NIMl1PW0NASF0oW0NIMl0xKVtDSDJdW05IXWMyW2NIXVtjSF1bY0hdbm4y

> <s_epik_cmdline>
J2VwaWtfcHl0aG9uJywgJy1waCcsICc3LjAnLCAnLXRuJywgJzgnLCAnLW1hJywgJzIwMCcsICctbWV0YWxfYmluZGluZycsICctaW1hZScsICc8aW5maWxlLm1hZT4nLCAnLW9tYWUnLCAnPG91dGZpbGUubWFlPic=

> <r_lp_tautomer_probability>
0.966961

> <r_epik_Ionization_Penalty>
2.478

> <r_epik_Ionization_Penalty_Charging>
2.47799

> <r_epik_Ionization_Penalty_Neutral>
3.15286e-06

> <r_epik_State_Penalty>
2.10794

> <r_epik_Charging_Adjusted_Penalty>
4.58594

> <i_epik_Tot_Q>
2

> <i_epik_Tot_abs_Q>
2

> <r_epik_Metal_State_Penalty>
2.11378

> <b_epik_Metal_Only>
0

> <s_lp_Force_Field>
OPLS_2005

> <r_lp_Energy>
34.6119

> <b_lp_Chiralities_Consistent>
1

> <s_lp_Variant>
AV-unprocessed.smi:861-7

> <Gold.Version>
5.8.1

> <Gold.Id.Protein>
6NUR|6NUR_protein|mol2

> <Gold.PLP.Fitness>
49.6957

> <Gold.PLP.PLP>
-31.1345

> <Gold.PLP.part.hbond>
-4.8804

> <Gold.PLP.part.metal>
0.0000

> <Gold.PLP.part.buried>
2.9773

> <Gold.PLP.part.nonpolar>
-28.1878

> <Gold.PLP.part.repulsive>
0.3934

> <Gold.PLP.ligand.clash>
0.0000

> <Gold.PLP.ligand.torsion>
0.3978

> <Gold.PLP.Chemscore.Hbond>
6.4200

> <Gold.PLP.Chemscore.CHOScore>
0.0000

> <Gold.PLP.Chemscore.Metal>
0.0000

> <Gold.Chemscore.Hbonds>
donor molecule, donor type, donor heavy atom, donor atom, acceptor molecule, acceptor atom, score
      L1  H     6    44       P1 10175  2.00
      L1  H    12    38       P1  7948  2.00
      L1  H    18    45       P1  7949  1.04
      P1  H 10752 10764       L1    17  0.78

> <Gold.PLP.Chemscore.Internal.Correction>
0.0969

> <Gold.Rescore>
     Score         DG    S(hbond)    S(metal)    S(lipo)     H(rot)  DE(clash)    DE(int)     intcor
     16.00     -18.73       2.87        0.00      70.28       1.78       2.22       0.51       ----

> <Gold.Chemscore.Fitness>
15.9997

> <Gold.Chemscore.DG>
-18.7266

> <Gold.Chemscore.ZeroCoef>
-5.4800

> <Gold.Chemscore.Hbond>
2.8653

> <Gold.Chemscore.Metal>
0.0000

> <Gold.Chemscore.Lipo>
70.2787

> <Gold.Chemscore.Internal_Hbond>
0.0000

> <Gold.Chemscore.DEClash>
2.2218

> <Gold.Chemscore.DEInternal>
0.5051

> <Gold.Chemscore.Rot>
1.7759

> <Gold.Chemscore.Internal.Correction>
   9.000000E+99

> <Gold.Chemscore.Hbonds>
donor molecule, donor type, donor heavy atom, donor atom, acceptor molecule, acceptor atom, score
      L1  H     6    44       P1 10175  0.99
      L1  H    12    38       P1  7948  0.99
      L1  H    18    45       P1  7949  0.04
      P1  H 10752 10764       L1    17  0.74

> <Gold.Chemscore.Hbond.Weighted>
-9.5702

> <Gold.Chemscore.Metal.Weighted>
-0.0000

> <Gold.Chemscore.Lipo.Weighted>
-8.2226

> <Gold.Chemscore.Internal_Hbond.Weighted>
0.0000

> <Gold.Chemscore.DEClash.Weighted>
2.2218

> <Gold.Chemscore.DEInternal.Weighted>
0.5051

> <Gold.Chemscore.Rot.Weighted>
4.5462

> <Gold.Chemscore.Internal.Correction.Weighted>
   9.000000E+99

> <Gold.Protein.RotatedTorsions>
[ 6907 6896 6895 6894 ] final  -70.80 input  -60.11 | X-H torsion
[ 7974 7965 7964 7962 ] final   56.97 input  175.53 | X-H torsion
[ 8008 7997 7996 7995 ] final  -55.20 input   59.86 | X-H torsion
[ 10167 10162 10161 10158 ] final  -50.29 input  -65.29 | X-H torsion
[ 10718 10713 10712 10709 ] final    3.14 input   66.30 | X-H torsion
[ 10763 10752 10751 10750 ] final  -84.15 input  -60.55 | X-H torsion
[ 11005 11000 10999 10996 ] final  136.99 input  -57.11 | X-H torsion

> <Gold.Protein.ActiveResidues>
 VAL166  LYS551  ARG553  GLY616  TRP617  ASP618  TYR619  PRO620  LYS621  CYS622 
 ASP623  PHE694  ASN695  SER759  ASP760  ASP761  ALA762  ILE779  LEU786  VAL792 
 PHE793  MET794  SER795  GLU796  ALA797  LYS798  CYS799  TRP800  GLU811  SER814 

> <Gold.Protein.RotatedAtoms>
  150.7241  134.5401  159.5742 H   0  0  0  0  0  0  0  0  0  0  0  0  # atno 6907 bound_to 6896
  152.2913  134.7715  160.0386 H   0  0  0  0  0  0  0  0  0  0  0  0  # atno 6908 bound_to 6896
  151.8327  133.3375  159.3655 H   0  0  0  0  0  0  0  0  0  0  0  0  # atno 6909 bound_to 6896
  145.9340  139.3832  143.0403 H   0  0  0  0  0  0  0  0  0  0  0  0  # atno 7974 bound_to 7965
  154.4187  140.1158  156.5438 H   0  0  0  0  0  0  0  0  0  0  0  0  # atno 8008 bound_to 7997
  155.6480  140.3496  155.4719 H   0  0  0  0  0  0  0  0  0  0  0  0  # atno 8009 bound_to 7997
  155.9816  140.1161  157.0711 H   0  0  0  0  0  0  0  0  0  0  0  0  # atno 8010 bound_to 7997
  140.6644  143.2663  151.4338 H   0  0  0  0  0  0  0  0  0  0  0  0  # atno 10167 bound_to 10162
  156.8734  130.5628  149.5656 H   0  0  0  0  0  0  0  0  0  0  0  0  # atno 10718 bound_to 10713
  154.5961  135.5531  153.7327 H   0  0  0  0  0  0  0  0  0  0  0  0  # atno 10763 bound_to 10752
  153.0136  135.6355  154.1781 H   0  0  0  0  0  0  0  0  0  0  0  0  # atno 10764 bound_to 10752
  154.1721  135.2891  155.3058 H   0  0  0  0  0  0  0  0  0  0  0  0  # atno 10765 bound_to 10752
  140.0083  134.9450  157.0223 H   0  0  0  0  0  0  0  0  0  0  0  0  # atno 11005 bound_to 11000
  145.8388  140.9592  143.0810 LP  0  0  0  0  0  0  0  0  0  0  0  0  # atno 17320 bound_to 7965
  144.6769  140.0257  143.7483 LP  0  0  0  0  0  0  0  0  0  0  0  0  # atno 17321 bound_to 7965
  139.5888  144.1544  152.2063 LP  0  0  0  0  0  0  0  0  0  0  0  0  # atno 17342 bound_to 10162
  140.0892  144.5635  150.7066 LP  0  0  0  0  0  0  0  0  0  0  0  0  # atno 17343 bound_to 10162
  156.0714  130.5746  150.9391 LP  0  0  0  0  0  0  0  0  0  0  0  0  # atno 17370 bound_to 10713
  157.6182  131.0931  150.8671 LP  0  0  0  0  0  0  0  0  0  0  0  0  # atno 17371 bound_to 10713
  140.4600  134.1494  155.7190 LP  0  0  0  0  0  0  0  0  0  0  0  0  # atno 17394 bound_to 11000
  141.1693  133.8641  157.1620 LP  0  0  0  0  0  0  0  0  0  0  0  0  # atno 17395 bound_to 11000

$$$$
