AV-unprocessed.smi:794|AV-procd|sdf|3761|dock8
  -GOLD-   22720 1193D 1   1.00000     0.00000
 Structure written by MMmdl.
 41 43  0  0  0  0  0  0  0  0  1 V2000
  150.8641  130.3805  155.8286 C   0  0  0  0  0  0  0  0  0  0  0  0
  150.0219  131.3072  155.0065 C   0  0  0  0  0  0  0  0  0  0  0  0
  150.2310  132.6867  155.0908 N   0  0  0  0  0  0  0  0  0  0  0  0
  149.4008  133.3744  154.3005 C   0  0  0  0  0  0  0  0  0  0  0  0
  149.3877  134.7896  154.1901 N   0  0  0  0  0  0  0  0  0  0  0  0
  149.6085  135.7001  155.1546 C   0  0  0  0  0  0  0  0  0  0  0  0
  149.8841  135.4435  156.3271 O   0  0  0  0  0  0  0  0  0  0  0  0
  149.4900  136.9481  154.6805 N   0  0  0  0  0  0  0  0  0  0  0  0
  149.6591  138.1610  155.4780 C   0  0  1  0  0  0  0  0  0  0  0  0
  150.7629  138.0387  156.5581 C   0  0  1  0  0  0  0  0  0  0  0  0
  152.0954  137.5447  155.9541 C   0  0  0  0  0  0  0  0  0  0  0  0
  152.5526  138.7523  155.1146 C   0  0  0  0  0  0  0  0  0  0  0  0
  151.4369  139.7849  155.3668 C   0  0  2  0  0  0  0  0  0  0  0  0
  151.0875  139.5029  156.8240 C   0  0  0  0  0  0  0  0  0  0  0  0
  150.1566  139.3487  154.6138 C   0  0  2  0  0  0  0  0  0  0  0  0
  149.1039  140.4665  154.4808 C   0  0  0  0  0  0  0  0  0  0  0  0
  149.2303  141.1175  153.2340 O   0  0  0  0  0  0  0  0  0  0  0  0
  148.2964  132.3603  153.3881 S   0  0  0  0  0  0  0  0  0  0  0  0
  149.0142  130.9559  154.1380 C   0  0  0  0  0  0  0  0  0  0  0  0
  148.5293  129.5817  153.8148 C   0  0  0  0  0  0  0  0  0  0  0  0
  151.2426  129.5538  155.2274 H   0  0  0  0  0  0  0  0  0  0  0  0
  150.2883  129.9558  156.6512 H   0  0  0  0  0  0  0  0  0  0  0  0
  151.7256  130.8927  156.2586 H   0  0  0  0  0  0  0  0  0  0  0  0
  149.1723  135.1504  153.2725 H   0  0  0  0  0  0  0  0  0  0  0  0
  149.2669  137.0711  153.7038 H   0  0  0  0  0  0  0  0  0  0  0  0
  148.7117  138.4185  155.9565 H   0  0  0  0  0  0  0  0  0  0  0  0
  150.4500  137.4754  157.4379 H   0  0  0  0  0  0  0  0  0  0  0  0
  152.8187  137.3399  156.7444 H   0  0  0  0  0  0  0  0  0  0  0  0
  151.9956  136.6345  155.3625 H   0  0  0  0  0  0  0  0  0  0  0  0
  153.5136  139.1245  155.4721 H   0  0  0  0  0  0  0  0  0  0  0  0
  152.6629  138.5083  154.0574 H   0  0  0  0  0  0  0  0  0  0  0  0
  151.7478  140.8093  155.1598 H   0  0  0  0  0  0  0  0  0  0  0  0
  150.2343  140.0756  157.1904 H   0  0  0  0  0  0  0  0  0  0  0  0
  151.9276  139.6445  157.5064 H   0  0  0  0  0  0  0  0  0  0  0  0
  150.4189  139.0123  153.6088 H   0  0  0  0  0  0  0  0  0  0  0  0
  148.1000  140.0457  154.5455 H   0  0  0  0  0  0  0  0  0  0  0  0
  149.1964  141.2008  155.2810 H   0  0  0  0  0  0  0  0  0  0  0  0
  149.1205  140.4769  152.5478 H   0  0  0  0  0  0  0  0  0  0  0  0
  148.3143  129.0228  154.7258 H   0  0  0  0  0  0  0  0  0  0  0  0
  149.2812  129.0305  153.2501 H   0  0  0  0  0  0  0  0  0  0  0  0
  147.6166  129.6135  153.2194 H   0  0  0  0  0  0  0  0  0  0  0  0
  1  2  1  0  0  0  0
  1 21  1  0  0  0  0
  1 22  1  0  0  0  0
  1 23  1  0  0  0  0
  2 19  2  0  0  0  0
  2  3  1  0  0  0  0
  3  4  2  0  0  0  0
  4  5  1  0  0  0  0
  4 18  1  0  0  0  0
  5  6  1  0  0  0  0
  5 24  1  0  0  0  0
  6  7  2  0  0  0  0
  6  8  1  0  0  0  0
  8  9  1  0  0  0  0
  8 25  1  0  0  0  0
  9 15  1  0  0  0  0
  9 10  1  0  0  0  0
  9 26  1  0  0  0  0
 10 14  1  0  0  0  0
 10 11  1  0  0  0  0
 10 27  1  0  0  0  0
 11 12  1  0  0  0  0
 11 28  1  0  0  0  0
 11 29  1  0  0  0  0
 12 13  1  0  0  0  0
 12 30  1  0  0  0  0
 12 31  1  0  0  0  0
 13 14  1  0  0  0  0
 13 15  1  0  0  0  0
 13 32  1  0  0  0  0
 14 33  1  0  0  0  0
 14 34  1  0  0  0  0
 15 16  1  0  0  0  0
 15 35  1  0  0  0  0
 16 17  1  0  0  0  0
 16 36  1  0  0  0  0
 16 37  1  0  0  0  0
 17 38  1  0  0  0  0
 18 19  1  0  0  0  0
 19 20  1  0  0  0  0
 20 39  1  0  0  0  0
 20 40  1  0  0  0  0
 20 41  1  0  0  0  0
M  END
> <s_m_source_file>
AV-unprocessed.smi

> <i_m_source_file_index>
794

> <i_lp_mmshare_version>
43012

> <i_f3d_flags>
0

> <s_epik_input>
W0NIM11jMW5jKHNjMVtDSDNdKVtOSF1DKD1PKVtOSF1bQ0BIXShbQ0BASF0yMylbQ0BIXShbQ0gyXVtPSF0pW0NAQEhdKFtDSDJdMylbQ0gyXVtDSDJdMg==

> <s_epik_cmdline>
J2VwaWtfcHl0aG9uJywgJy1waCcsICc3LjAnLCAnLXRuJywgJzgnLCAnLW1hJywgJzIwMCcsICctbWV0YWxfYmluZGluZycsICctaW1hZScsICc8aW5maWxlLm1hZT4nLCAnLW9tYWUnLCAnPG91dGZpbGUubWFlPic=

> <r_lp_tautomer_probability>
0.999

> <r_epik_Ionization_Penalty>
0.000713029

> <r_epik_Ionization_Penalty_Charging>
0

> <r_epik_Ionization_Penalty_Neutral>
0.000713029

> <r_epik_State_Penalty>
0.000177984

> <r_epik_Charging_Adjusted_Penalty>
0.000177984

> <i_epik_Tot_Q>
0

> <i_epik_Tot_abs_Q>
0

> <r_epik_Metal_State_Penalty>
-0

> <b_epik_Metal_Only>
0

> <s_lp_Force_Field>
OPLS_2005

> <r_lp_Energy>
47.7468

> <b_lp_Chiralities_Consistent>
1

> <s_lp_Variant>
AV-unprocessed.smi:794-6

> <Gold.Version>
5.8.1

> <Gold.Id.Protein>
6NUR|6NUR_protein|mol2

> <Gold.PLP.Fitness>
43.5453

> <Gold.PLP.PLP>
-34.3604

> <Gold.PLP.part.hbond>
-4.4311

> <Gold.PLP.part.metal>
0.0000

> <Gold.PLP.part.buried>
-3.5158

> <Gold.PLP.part.nonpolar>
-27.8253

> <Gold.PLP.part.repulsive>
0.0593

> <Gold.PLP.ligand.clash>
0.0113

> <Gold.PLP.ligand.torsion>
1.0527

> <Gold.PLP.Chemscore.Hbond>
3.7616

> <Gold.PLP.Chemscore.CHOScore>
0.0000

> <Gold.PLP.Chemscore.Metal>
0.0000

> <Gold.Chemscore.Hbonds>
donor molecule, donor type, donor heavy atom, donor atom, acceptor molecule, acceptor atom, score
      L1  H     5    24       P1  7948  0.85
      L1  H     8    25       P1  7948  0.98
      L1  H    17    38       P1  7957  0.88
      P1  H  7989  7998       L1    17  0.01
      P1  H  8011  8017       L1    17  1.00

> <Gold.PLP.Chemscore.Internal.Correction>
0.0169

> <Gold.Rescore>
     Score         DG    S(hbond)    S(metal)    S(lipo)     H(rot)  DE(clash)    DE(int)     intcor
     14.99     -17.70       2.52        0.00      71.40       1.78       0.01       2.70       ----

> <Gold.Chemscore.Fitness>
14.9876

> <Gold.Chemscore.DG>
-17.6999

> <Gold.Chemscore.ZeroCoef>
-5.4800

> <Gold.Chemscore.Hbond>
2.5217

> <Gold.Chemscore.Metal>
0.0000

> <Gold.Chemscore.Lipo>
71.3980

> <Gold.Chemscore.Internal_Hbond>
0.0000

> <Gold.Chemscore.DEClash>
0.0127

> <Gold.Chemscore.DEInternal>
2.6996

> <Gold.Chemscore.Rot>
1.7798

> <Gold.Chemscore.Internal.Correction>
   9.000000E+99

> <Gold.Chemscore.Hbonds>
donor molecule, donor type, donor heavy atom, donor atom, acceptor molecule, acceptor atom, score
      L1  H     5    24       P1  7948  0.15
      L1  H     8    25       P1  7948  0.86
      L1  H    17    38       P1  7957  0.81
      P1  H  8011  8017       L1    17  0.25

> <Gold.Chemscore.Hbond.Weighted>
-8.4225

> <Gold.Chemscore.Metal.Weighted>
-0.0000

> <Gold.Chemscore.Lipo.Weighted>
-8.3536

> <Gold.Chemscore.Internal_Hbond.Weighted>
0.0000

> <Gold.Chemscore.DEClash.Weighted>
0.0127

> <Gold.Chemscore.DEInternal.Weighted>
2.6996

> <Gold.Chemscore.Rot.Weighted>
4.5562

> <Gold.Chemscore.Internal.Correction.Weighted>
   9.000000E+99

> <Gold.Protein.RotatedTorsions>
[ 6907 6896 6895 6894 ] final -163.36 input  -60.11 | X-H torsion
[ 7974 7965 7964 7962 ] final  -39.55 input  175.53 | X-H torsion
[ 8008 7997 7996 7995 ] final  -48.61 input   59.86 | X-H torsion
[ 10167 10162 10161 10158 ] final   35.19 input  -65.29 | X-H torsion
[ 10718 10713 10712 10709 ] final  -99.10 input   66.30 | X-H torsion
[ 10763 10752 10751 10750 ] final -158.95 input  -60.55 | X-H torsion
[ 11005 11000 10999 10996 ] final  126.53 input  -57.11 | X-H torsion

> <Gold.Protein.ActiveResidues>
 VAL166  LYS551  ARG553  GLY616  TRP617  ASP618  TYR619  PRO620  LYS621  CYS622 
 ASP623  PHE694  ASN695  SER759  ASP760  ASP761  ALA762  ILE779  LEU786  VAL792 
 PHE793  MET794  SER795  GLU796  ALA797  LYS798  CYS799  TRP800  GLU811  SER814 

> <Gold.Protein.RotatedAtoms>
  151.3948  133.3777  159.2724 H   0  0  0  0  0  0  0  0  0  0  0  0  # atno 6907 bound_to 6896
  150.9478  134.8882  159.7663 H   0  0  0  0  0  0  0  0  0  0  0  0  # atno 6908 bound_to 6896
  152.5099  134.3902  159.9433 H   0  0  0  0  0  0  0  0  0  0  0  0  # atno 6909 bound_to 6896
  146.0386  140.6638  142.9098 H   0  0  0  0  0  0  0  0  0  0  0  0  # atno 7974 bound_to 7965
  154.4031  140.1317  156.4368 H   0  0  0  0  0  0  0  0  0  0  0  0  # atno 8008 bound_to 7997
  155.7498  140.3488  155.5124 H   0  0  0  0  0  0  0  0  0  0  0  0  # atno 8009 bound_to 7997
  155.8961  140.1011  157.1374 H   0  0  0  0  0  0  0  0  0  0  0  0  # atno 8010 bound_to 7997
  140.4245  144.1413  150.6151 H   0  0  0  0  0  0  0  0  0  0  0  0  # atno 10167 bound_to 10162
  156.0125  130.5267  150.6620 H   0  0  0  0  0  0  0  0  0  0  0  0  # atno 10718 bound_to 10713
  154.7514  135.3093  154.8549 H   0  0  0  0  0  0  0  0  0  0  0  0  # atno 10763 bound_to 10752
  153.9335  135.6782  153.4749 H   0  0  0  0  0  0  0  0  0  0  0  0  # atno 10764 bound_to 10752
  153.1111  135.4866  154.8964 H   0  0  0  0  0  0  0  0  0  0  0  0  # atno 10765 bound_to 10752
  139.9461  134.9629  156.8720 H   0  0  0  0  0  0  0  0  0  0  0  0  # atno 11005 bound_to 11000
  144.7064  140.3867  143.7115 LP  0  0  0  0  0  0  0  0  0  0  0  0  # atno 17320 bound_to 7965
  145.6922  139.1641  143.2640 LP  0  0  0  0  0  0  0  0  0  0  0  0  # atno 17321 bound_to 7965
  140.4497  143.2492  151.9364 LP  0  0  0  0  0  0  0  0  0  0  0  0  # atno 17342 bound_to 10162
  139.4783  144.5574  151.8292 LP  0  0  0  0  0  0  0  0  0  0  0  0  # atno 17343 bound_to 10162
  157.4361  131.0855  151.0991 LP  0  0  0  0  0  0  0  0  0  0  0  0  # atno 17370 bound_to 10713
  157.1549  130.6200  149.5593 LP  0  0  0  0  0  0  0  0  0  0  0  0  # atno 17371 bound_to 10713
  140.5832  134.0332  155.7472 LP  0  0  0  0  0  0  0  0  0  0  0  0  # atno 17394 bound_to 11000
  141.1111  133.9615  157.2908 LP  0  0  0  0  0  0  0  0  0  0  0  0  # atno 17395 bound_to 11000

$$$$
