AV-unprocessed.smi:991|AV-procd|sdf|4328|dock1
  -GOLD-   22720 2233D 1   1.00000     0.00000
 Structure written by MMmdl.
 32 33  0  0  0  0  0  0  0  0  1 V2000
  153.7051  139.1630  158.0163 O   0  0  0  0  0  0  0  0  0  0  0  0
  152.6261  139.4918  158.5085 C   0  0  0  0  0  0  0  0  0  0  0  0
  151.3307  138.8530  158.0061 C   0  0  0  0  0  0  0  0  0  0  0  0
  151.3097  138.7756  156.5565 N   0  0  0  0  0  0  0  0  0  0  0  0
  151.3731  139.7384  155.6348 C   0  0  0  0  0  0  0  0  0  0  0  0
  151.3208  139.2901  154.3881 N   0  0  0  0  0  0  0  0  0  0  0  0
  151.2206  137.9491  154.6316 C   0  0  0  0  0  0  0  0  0  0  0  0
  151.2095  137.5873  155.9146 N   0  0  0  0  0  0  0  0  0  0  0  0
  152.5069  140.3983  159.4923 N   0  0  0  0  0  0  0  0  0  0  0  0
  153.6180  141.1069  160.1240 C   0  0  0  0  0  0  0  0  0  0  0  0
  153.1701  142.3236  160.9551 C   0  0  0  0  0  0  0  0  0  0  0  0
  153.3057  142.3142  162.1801 O   0  0  0  0  0  0  0  0  0  0  0  0
  152.6229  143.3716  160.3053 N   0  0  0  0  0  0  0  0  0  0  0  0
  152.1545  144.6115  160.9239 C   0  0  0  0  0  0  0  0  0  0  0  0
  151.8366  145.5580  159.7655 C   0  0  0  0  0  0  0  0  0  0  0  0
  151.5392  144.6297  158.5961 C   0  0  0  0  0  0  0  0  0  0  0  0
  152.4178  143.4067  158.8588 C   0  0  0  0  0  0  0  0  0  0  0  0
  151.2289  137.8451  158.4110 H   0  0  0  0  0  0  0  0  0  0  0  0
  150.4721  139.4288  158.3557 H   0  0  0  0  0  0  0  0  0  0  0  0
  151.4558  140.7871  155.8811 H   0  0  0  0  0  0  0  0  0  0  0  0
  151.1537  137.2177  153.8396 H   0  0  0  0  0  0  0  0  0  0  0  0
  151.5801  140.6036  159.8372 H   0  0  0  0  0  0  0  0  0  0  0  0
  154.1856  140.4118  160.7446 H   0  0  0  0  0  0  0  0  0  0  0  0
  154.2910  141.4498  159.3379 H   0  0  0  0  0  0  0  0  0  0  0  0
  151.2530  144.4038  161.5020 H   0  0  0  0  0  0  0  0  0  0  0  0
  152.8981  145.0466  161.5931 H   0  0  0  0  0  0  0  0  0  0  0  0
  151.0125  146.2368  159.9877 H   0  0  0  0  0  0  0  0  0  0  0  0
  152.7147  146.1628  159.5352 H   0  0  0  0  0  0  0  0  0  0  0  0
  150.4884  144.3369  158.6210 H   0  0  0  0  0  0  0  0  0  0  0  0
  151.7343  145.0908  157.6274 H   0  0  0  0  0  0  0  0  0  0  0  0
  153.3852  143.5162  158.3662 H   0  0  0  0  0  0  0  0  0  0  0  0
  151.9490  142.4941  158.4866 H   0  0  0  0  0  0  0  0  0  0  0  0
  1  2  2  0  0  0  0
  2  3  1  0  0  0  0
  2  9  1  0  0  0  0
  3  4  1  0  0  0  0
  3 18  1  0  0  0  0
  3 19  1  0  0  0  0
  4  8  1  0  0  0  0
  4  5  1  0  0  0  0
  5  6  2  0  0  0  0
  5 20  1  0  0  0  0
  6  7  1  0  0  0  0
  7  8  2  0  0  0  0
  7 21  1  0  0  0  0
  9 10  1  0  0  0  0
  9 22  1  0  0  0  0
 10 11  1  0  0  0  0
 10 23  1  0  0  0  0
 10 24  1  0  0  0  0
 11 12  2  0  0  0  0
 11 13  1  0  0  0  0
 13 17  1  0  0  0  0
 13 14  1  0  0  0  0
 14 15  1  0  0  0  0
 14 25  1  0  0  0  0
 14 26  1  0  0  0  0
 15 16  1  0  0  0  0
 15 27  1  0  0  0  0
 15 28  1  0  0  0  0
 16 17  1  0  0  0  0
 16 29  1  0  0  0  0
 16 30  1  0  0  0  0
 17 31  1  0  0  0  0
 17 32  1  0  0  0  0
M  END
> <s_m_source_file>
AV-unprocessed.smi

> <i_m_source_file_index>
991

> <i_lp_mmshare_version>
43012

> <i_f3d_flags>
0

> <s_epik_input>
bjFbY0hdbltjSF1uMVtDSDJdQyg9TylbTkhdW0NIMl1DKD1PKU4yW0NIMl1bQ0gyXVtDSDJdW0NIMl0y

> <s_epik_cmdline>
J2VwaWtfcHl0aG9uJywgJy1waCcsICc3LjAnLCAnLXRuJywgJzgnLCAnLW1hJywgJzIwMCcsICctbWV0YWxfYmluZGluZycsICctaW1hZScsICc8aW5maWxlLm1hZT4nLCAnLW9tYWUnLCAnPG91dGZpbGUubWFlPic=

> <r_lp_tautomer_probability>
1

> <r_epik_Ionization_Penalty>
7.3183e-06

> <r_epik_Ionization_Penalty_Charging>
0

> <r_epik_Ionization_Penalty_Neutral>
7.3183e-06

> <r_epik_State_Penalty>
-0

> <r_epik_Charging_Adjusted_Penalty>
0

> <i_epik_Tot_Q>
0

> <i_epik_Tot_abs_Q>
0

> <r_epik_Metal_State_Penalty>
-0

> <b_epik_Metal_Only>
0

> <s_lp_Force_Field>
OPLS_2005

> <r_lp_Energy>
26.0119

> <b_lp_Chiralities_Consistent>
1

> <s_lp_Variant>
AV-unprocessed.smi:991-1

> <Gold.Version>
5.8.1

> <Gold.Id.Protein>
6NUR|6NUR_protein|mol2

> <Gold.PLP.Fitness>
48.0001

> <Gold.PLP.PLP>
-40.4172

> <Gold.PLP.part.hbond>
-2.0000

> <Gold.PLP.part.metal>
0.0000

> <Gold.PLP.part.buried>
-4.2949

> <Gold.PLP.part.nonpolar>
-34.1422

> <Gold.PLP.part.repulsive>
0.3427

> <Gold.PLP.ligand.clash>
0.0000

> <Gold.PLP.ligand.torsion>
0.3451

> <Gold.PLP.Chemscore.Hbond>
2.0000

> <Gold.PLP.Chemscore.CHOScore>
0.7512

> <Gold.PLP.Chemscore.Metal>
0.0000

> <Gold.Chemscore.Hbonds>
donor molecule, donor type, donor heavy atom, donor atom, acceptor molecule, acceptor atom, score
      P1  H  7989  7998       L1     6  1.00
      P1  H  7997  8010       L1     1  0.98
      L1  C     7    21       P1  7949  0.70

> <Gold.PLP.Chemscore.Internal.Correction>
0.0196

> <Gold.Rescore>
     Score         DG    S(hbond)    S(metal)    S(lipo)     H(rot)  DE(clash)    DE(int)     intcor
     12.75     -13.22       1.99        0.00      64.67       2.54       0.09       0.37       ----

> <Gold.Chemscore.Fitness>
12.7508

> <Gold.Chemscore.DG>
-13.2152

> <Gold.Chemscore.ZeroCoef>
-5.4800

> <Gold.Chemscore.Hbond>
1.9948

> <Gold.Chemscore.Metal>
0.0000

> <Gold.Chemscore.Lipo>
64.6692

> <Gold.Chemscore.Internal_Hbond>
0.0000

> <Gold.Chemscore.DEClash>
0.0930

> <Gold.Chemscore.DEInternal>
0.3714

> <Gold.Chemscore.Rot>
2.5366

> <Gold.Chemscore.Internal.Correction>
   9.000000E+99

> <Gold.Chemscore.Hbonds>
donor molecule, donor type, donor heavy atom, donor atom, acceptor molecule, acceptor atom, score
      P1  H  7989  7998       L1     6  0.26
      P1  H  7997  8010       L1     1  0.93

> <Gold.Chemscore.Hbond.Weighted>
-6.6626

> <Gold.Chemscore.Metal.Weighted>
-0.0000

> <Gold.Chemscore.Lipo.Weighted>
-7.5663

> <Gold.Chemscore.Internal_Hbond.Weighted>
0.0000

> <Gold.Chemscore.DEClash.Weighted>
0.0930

> <Gold.Chemscore.DEInternal.Weighted>
0.3714

> <Gold.Chemscore.Rot.Weighted>
6.4937

> <Gold.Chemscore.Internal.Correction.Weighted>
   9.000000E+99

> <Gold.Protein.RotatedTorsions>
[ 6907 6896 6895 6894 ] final  -58.64 input  -60.11 | X-H torsion
[ 7974 7965 7964 7962 ] final -162.20 input  175.53 | X-H torsion
[ 8008 7997 7996 7995 ] final    8.75 input   59.86 | X-H torsion
[ 10167 10162 10161 10158 ] final   19.41 input  -65.29 | X-H torsion
[ 10718 10713 10712 10709 ] final  101.98 input   66.30 | X-H torsion
[ 10763 10752 10751 10750 ] final   59.48 input  -60.55 | X-H torsion
[ 11005 11000 10999 10996 ] final  163.12 input  -57.11 | X-H torsion

> <Gold.Protein.ActiveResidues>
 VAL166  LYS551  ARG553  GLY616  TRP617  ASP618  TYR619  PRO620  LYS621  CYS622 
 ASP623  PHE694  ASN695  SER759  ASP760  ASP761  ALA762  ILE779  LEU786  VAL792 
 PHE793  MET794  SER795  GLU796  ALA797  LYS798  CYS799  TRP800  GLU811  SER814 

> <Gold.Protein.RotatedAtoms>
  150.7991  134.7072  159.6583 H   0  0  0  0  0  0  0  0  0  0  0  0  # atno 6907 bound_to 6896
  152.4106  134.6127  160.0039 H   0  0  0  0  0  0  0  0  0  0  0  0  # atno 6908 bound_to 6896
  151.6371  133.3291  159.3158 H   0  0  0  0  0  0  0  0  0  0  0  0  # atno 6909 bound_to 6896
  144.7365  140.3288  143.6157 H   0  0  0  0  0  0  0  0  0  0  0  0  # atno 7974 bound_to 7965
  154.7710  140.2802  155.6138 H   0  0  0  0  0  0  0  0  0  0  0  0  # atno 8008 bound_to 7997
  156.2933  140.2641  156.2440 H   0  0  0  0  0  0  0  0  0  0  0  0  # atno 8009 bound_to 7997
  154.9900  140.0374  157.2305 H   0  0  0  0  0  0  0  0  0  0  0  0  # atno 8010 bound_to 7997
  140.5581  143.9387  150.6623 H   0  0  0  0  0  0  0  0  0  0  0  0  # atno 10167 bound_to 10162
  157.6815  131.0741  150.5335 H   0  0  0  0  0  0  0  0  0  0  0  0  # atno 10718 bound_to 10713
  152.9896  135.5570  154.5720 H   0  0  0  0  0  0  0  0  0  0  0  0  # atno 10763 bound_to 10752
  154.5119  135.2803  155.1338 H   0  0  0  0  0  0  0  0  0  0  0  0  # atno 10764 bound_to 10752
  154.2726  135.6360  153.5369 H   0  0  0  0  0  0  0  0  0  0  0  0  # atno 10765 bound_to 10752
  140.2326  134.8112  157.3332 H   0  0  0  0  0  0  0  0  0  0  0  0  # atno 11005 bound_to 11000
  145.7493  139.1789  143.2330 LP  0  0  0  0  0  0  0  0  0  0  0  0  # atno 17320 bound_to 7965
  146.1073  140.7471  142.9520 LP  0  0  0  0  0  0  0  0  0  0  0  0  # atno 17321 bound_to 7965
  140.2830  143.3376  152.1133 LP  0  0  0  0  0  0  0  0  0  0  0  0  # atno 17342 bound_to 10162
  139.5057  144.6800  151.6031 LP  0  0  0  0  0  0  0  0  0  0  0  0  # atno 17343 bound_to 10162
  156.5644  130.4263  149.6048 LP  0  0  0  0  0  0  0  0  0  0  0  0  # atno 17370 bound_to 10713
  156.2794  130.7062  151.1882 LP  0  0  0  0  0  0  0  0  0  0  0  0  # atno 17371 bound_to 10713
  140.1735  134.4579  155.7816 LP  0  0  0  0  0  0  0  0  0  0  0  0  # atno 17394 bound_to 11000
  141.2216  133.6952  156.7748 LP  0  0  0  0  0  0  0  0  0  0  0  0  # atno 17395 bound_to 11000

$$$$
