#       Name:                AV-unprocessed.smi:2252
#       Creating user name   scv26
#       Creation time:       Fri Mar 27 12:31:15 2020


#       File generated by GOLD software.
#

@<TRIPOS>MOLECULE
AV-unprocessed.smi:2252
    48    50     1
SMALL
NO_CHARGES


@<TRIPOS>ATOM
      1 ****        -1.9347   3.0730   0.0566 C.3            1 S1                 0.0000
      2 ****        -2.2383   2.5651   1.3952 N.pl3          1 S1                 0.0000
      3 ****        -1.9759   3.1999   2.5822 C.2            1 S1                 0.0000
      4 ****        -2.4397   2.3809   3.5775 C.2            1 S1                 0.0000
      5 ****        -2.9662   1.2811   2.9578 N.pl3          1 S1                 1.0000
      6 ****        -2.8376   1.3832   1.6269 C.2            1 S1                 0.0000
      7 ****        -3.3019   0.3652   0.6173 C.3            1 S1                 0.0000
      8 ****        -2.4596  -0.9282   0.5524 C.3            1 S1                 0.0000
      9 ****        -1.0845  -0.6523   0.1357 N.pl3          1 S1                -1.0000
     10 ****        -0.6809  -0.5951  -1.1665 C.2            1 S1                 0.0000
     11 ****        -1.3477  -0.5972  -2.2056 O.2            1 S1                 0.0000
     12 ****         0.8555  -0.5323  -1.2906 C.3            1 S1                 0.0000
     13 ****         1.3693   0.8630  -0.8662 C.3            1 S1                 0.0000
     14 ****         1.1048   2.0807  -1.7261 C.3            1 S1                 0.0000
     15 ****         2.5045   1.5388  -1.6063 C.3            1 S1                 0.0000
     16 ****         1.5324  -1.6292  -0.5383 N.4            1 S1                 1.0000
     17 ****         1.1697  -3.0023  -0.9485 C.3            1 S1                 0.0000
     18 ****         2.2421  -3.8879  -0.3234 C.3            1 S1                 0.0000
     19 ****         3.5053  -3.0277  -0.3625 C.3            1 S1                 0.0000
     20 ****         3.0129  -1.5831  -0.5335 C.3            1 S1                 0.0000
     21 ****        -1.2896   3.9484   0.1346 H              1 S1                 0.0000
     22 ****        -2.8647   3.3486  -0.4413 H              1 S1                 0.0000
     23 ****        -1.4252   2.3012  -0.5181 H              1 S1                 0.0000
     24 ****        -1.4934   4.1654   2.6296 H              1 S1                 0.0000
     25 ****        -2.4369   2.4955   4.6516 H              1 S1                 0.0000
     26 ****        -4.3283   0.1194   0.8908 H              1 S1                 0.0000
     27 ****        -3.3529   0.8466  -0.3592 H              1 S1                 0.0000
     28 ****        -2.4785  -1.4057   1.5323 H              1 S1                 0.0000
     29 ****        -2.9515  -1.6342  -0.1176 H              1 S1                 0.0000
     30 ****         1.0977  -0.6731  -2.3458 H              1 S1                 0.0000
     31 ****         1.3308   1.0365   0.2081 H              1 S1                 0.0000
     32 ****         0.5865   1.9304  -2.6713 H              1 S1                 0.0000
     33 ****         0.8879   3.0187  -1.2195 H              1 S1                 0.0000
     34 ****         3.2171   2.1107  -1.0156 H              1 S1                 0.0000
     35 ****         2.9191   1.0371  -2.4785 H              1 S1                 0.0000
     36 ****         0.1682  -3.2825  -0.6206 H              1 S1                 0.0000
     37 ****         1.2064  -3.0835  -2.0361 H              1 S1                 0.0000
     38 ****         1.9784  -4.1046   0.7128 H              1 S1                 0.0000
     39 ****         2.3596  -4.8389  -0.8435 H              1 S1                 0.0000
     40 ****         4.0980  -3.1519   0.5444 H              1 S1                 0.0000
     41 ****         4.1337  -3.3100  -1.2081 H              1 S1                 0.0000
     42 ****         3.3814  -1.1931  -1.4830 H              1 S1                 0.0000
     43 ****         3.3744  -0.9298   0.2611 H              1 S1                 0.0000
     44 ****         1.2363  -1.5404   0.4236 H              1 S1                 0.0000
     45 ****        -3.3857   0.4922   3.4334 H              1 S1                 0.0000
     46 ****        -0.3997  -0.4963   0.8476 LP             1 S1                 0.0000
     47 ****        -2.3454  -0.6467  -2.1593 LP             1 S1                 0.0000
     48 ****        -0.8900  -0.5494  -3.0934 LP             1 S1                 0.0000
@<TRIPOS>BOND
    1    1    2 1     
    2    1   21 1     
    3    1   22 1     
    4    1   23 1     
    5    2    6 1     
    6    2    3 1     
    7    3    4 2     
    8    3   24 1     
    9    4    5 1     
   10    4   25 1     
   11    5    6 2     
   12    5   45 1     
   13    6    7 1     
   14    7    8 1     
   15    7   26 1     
   16    7   27 1     
   17    8    9 1     
   18    8   28 1     
   19    8   29 1     
   20    9   10 1     
   21   10   11 2     
   22   10   12 1     
   23   12   13 1     
   24   12   16 1     
   25   12   30 1     
   26   13   15 1     
   27   13   14 1     
   28   13   31 1     
   29   14   15 1     
   30   14   32 1     
   31   14   33 1     
   32   15   34 1     
   33   15   35 1     
   34   16   20 1     
   35   16   17 1     
   36   16   44 1     
   37   17   18 1     
   38   17   36 1     
   39   17   37 1     
   40   18   19 1     
   41   18   38 1     
   42   18   39 1     
   43   19   20 1     
   44   19   40 1     
   45   19   41 1     
   46   20   42 1     
   47   20   43 1     
   48    9   46 1     
   49   11   47 1     
   50   11   48 1     
@<TRIPOS>SUBSTRUCTURE
      1 S1             1
@<TRIPOS>SET
LONE_PAIRS      STATIC     ATOMS    <user>   **** ""
3 46 47 48
DONOR_HYDROGENS      STATIC     ATOMS    <user>   **** ""
2 45 44
ATOM$BLUE        STATIC     ATOMS    COLORGROUP SYSTEM
3 46 47 48
ATOM$RED        STATIC     ATOMS    COLORGROUP SYSTEM
2 45 44
