AV-unprocessed.smi:1553|AV-procd|sdf|6238|dock1
  -GOLD-   22720 6423D 1   1.00000     0.00000
 Structure written by MMmdl.
 37 38  0  0  0  0  0  0  0  0  1 V2000
  146.3228  138.9236  152.6130 C   0  0  0  0  0  0  0  0  0  0  0  0
  146.9542  139.9687  153.4665 C   0  0  0  0  0  0  0  0  0  0  0  0
  148.1983  139.8810  153.9435 N   0  0  0  0  0  0  0  0  0  0  0  0
  148.5506  140.9806  154.7317 C   0  0  0  0  0  0  0  0  0  0  0  0
  149.8918  141.0212  155.4065 C   0  0  0  0  0  0  0  0  0  0  0  0
  149.8048  141.0845  156.9452 C   0  0  0  0  0  0  0  0  0  0  0  0
  150.6594  142.1346  157.4969 N   0  0  0  0  0  0  0  0  0  0  0  0
  151.8556  141.9478  158.0856 C   0  0  0  0  0  0  0  0  0  0  0  0
  152.3938  140.8415  158.1042 O   0  0  0  0  0  0  0  0  0  0  0  0
  152.3328  143.0446  158.7369 N   0  0  0  0  0  0  0  0  0  0  0  0
  151.7810  144.4020  158.5838 C   0  0  0  0  0  0  0  0  0  0  0  0
  151.0817  144.7839  159.8981 C   0  0  0  0  0  0  0  0  0  0  0  0
  152.0344  144.7534  160.9565 O   0  0  0  0  0  0  0  0  0  0  0  0
  152.6688  143.4854  161.1074 C   0  0  0  0  0  0  0  0  0  0  0  0
  153.3716  143.0753  159.7941 C   0  0  1  0  0  0  0  0  0  0  0  0
  154.2043  141.7947  160.0122 C   0  0  0  0  0  0  0  0  0  0  0  0
  147.5549  141.9216  154.8240 C   0  0  0  0  0  0  0  0  0  0  0  0
  146.1268  141.4438  153.9497 S   0  0  0  0  0  0  0  0  0  0  0  0
  146.9434  138.0275  152.5804 H   0  0  0  0  0  0  0  0  0  0  0  0
  146.1953  139.2993  151.5978 H   0  0  0  0  0  0  0  0  0  0  0  0
  145.3452  138.6560  153.0142 H   0  0  0  0  0  0  0  0  0  0  0  0
  150.4811  140.1505  155.1173 H   0  0  0  0  0  0  0  0  0  0  0  0
  150.4526  141.8857  155.0496 H   0  0  0  0  0  0  0  0  0  0  0  0
  148.7681  141.2304  157.2527 H   0  0  0  0  0  0  0  0  0  0  0  0
  150.1133  140.1294  157.3701 H   0  0  0  0  0  0  0  0  0  0  0  0
  150.2675  143.0645  157.5249 H   0  0  0  0  0  0  0  0  0  0  0  0
  152.5888  145.1051  158.3757 H   0  0  0  0  0  0  0  0  0  0  0  0
  151.0936  144.5117  157.7446 H   0  0  0  0  0  0  0  0  0  0  0  0
  150.6637  145.7881  159.8282 H   0  0  0  0  0  0  0  0  0  0  0  0
  150.2558  144.1044  160.1151 H   0  0  0  0  0  0  0  0  0  0  0  0
  153.3919  143.5605  161.9199 H   0  0  0  0  0  0  0  0  0  0  0  0
  151.9324  142.7374  161.4056 H   0  0  0  0  0  0  0  0  0  0  0  0
  154.0873  143.8562  159.5320 H   0  0  0  0  0  0  0  0  0  0  0  0
  154.9630  141.9578  160.7779 H   0  0  0  0  0  0  0  0  0  0  0  0
  154.7298  141.4989  159.1038 H   0  0  0  0  0  0  0  0  0  0  0  0
  153.5880  140.9594  160.3470 H   0  0  0  0  0  0  0  0  0  0  0  0
  147.5663  142.8521  155.3716 H   0  0  0  0  0  0  0  0  0  0  0  0
  1  2  1  0  0  0  0
  1 19  1  0  0  0  0
  1 20  1  0  0  0  0
  1 21  1  0  0  0  0
  2 18  1  0  0  0  0
  2  3  2  0  0  0  0
  3  4  1  0  0  0  0
  4  5  1  0  0  0  0
  4 17  2  0  0  0  0
  5  6  1  0  0  0  0
  5 22  1  0  0  0  0
  5 23  1  0  0  0  0
  6  7  1  0  0  0  0
  6 24  1  0  0  0  0
  6 25  1  0  0  0  0
  7  8  1  0  0  0  0
  7 26  1  0  0  0  0
  8  9  2  0  0  0  0
  8 10  1  0  0  0  0
 10 15  1  0  0  0  0
 10 11  1  0  0  0  0
 11 12  1  0  0  0  0
 11 27  1  0  0  0  0
 11 28  1  0  0  0  0
 12 13  1  0  0  0  0
 12 29  1  0  0  0  0
 12 30  1  0  0  0  0
 13 14  1  0  0  0  0
 14 15  1  0  0  0  0
 14 31  1  0  0  0  0
 14 32  1  0  0  0  0
 15 16  1  0  0  0  0
 15 33  1  0  0  0  0
 16 34  1  0  0  0  0
 16 35  1  0  0  0  0
 16 36  1  0  0  0  0
 17 18  1  0  0  0  0
 17 37  1  0  0  0  0
M  END
> <s_m_source_file>
AV-unprocessed.smi

> <i_m_source_file_index>
1553

> <i_lp_mmshare_version>
43012

> <i_f3d_flags>
0

> <s_epik_input>
W0NIM11jMW5jKFtjSF1zMSlbQ0gyXVtDSDJdW05IXUMoPU8pTjJbQ0gyXVtDSDJdT1tDSDJdW0NASF0yW0NIM10=

> <s_epik_cmdline>
J2VwaWtfcHl0aG9uJywgJy1waCcsICc3LjAnLCAnLXRuJywgJzgnLCAnLW1hJywgJzIwMCcsICctbWV0YWxfYmluZGluZycsICctaW1hZScsICc8aW5maWxlLm1hZT4nLCAnLW9tYWUnLCAnPG91dGZpbGUubWFlPic=

> <r_epik_Ionization_Penalty>
0.0020768

> <r_epik_Ionization_Penalty_Charging>
0

> <r_epik_Ionization_Penalty_Neutral>
0.0020768

> <r_epik_State_Penalty>
0.00139904

> <r_epik_Charging_Adjusted_Penalty>
0.00139904

> <i_epik_Tot_Q>
0

> <i_epik_Tot_abs_Q>
0

> <r_epik_Metal_State_Penalty>
-0

> <b_epik_Metal_Only>
0

> <s_lp_Force_Field>
OPLS_2005

> <r_lp_Energy>
28.2448

> <b_lp_Chiralities_Consistent>
1

> <s_lp_Variant>
AV-unprocessed.smi:1553-1

> <Gold.Version>
5.8.1

> <Gold.Id.Protein>
6NUR|6NUR_protein|mol2

> <Gold.PLP.Fitness>
44.1942

> <Gold.PLP.PLP>
-42.1445

> <Gold.PLP.part.hbond>
0.0000

> <Gold.PLP.part.metal>
0.0000

> <Gold.PLP.part.buried>
-4.3582

> <Gold.PLP.part.nonpolar>
-39.8792

> <Gold.PLP.part.repulsive>
1.5279

> <Gold.PLP.ligand.clash>
0.0000

> <Gold.PLP.ligand.torsion>
0.5555

> <Gold.PLP.Chemscore.Hbond>
0.0000

> <Gold.PLP.Chemscore.CHOScore>
1.0000

> <Gold.PLP.Chemscore.Metal>
0.0000

> <Gold.Chemscore.Hbonds>
donor molecule, donor type, donor heavy atom, donor atom, acceptor molecule, acceptor atom, score
      L1  C    17    37       P1  8028  1.00

> <Gold.PLP.Chemscore.Internal.Correction>
0.1607

> <Gold.Rescore>
     Score         DG    S(hbond)    S(metal)    S(lipo)     H(rot)  DE(clash)    DE(int)     intcor
     12.46     -14.66       0.00        0.00     107.62       1.33       0.32       1.88       ----

> <Gold.Chemscore.Fitness>
12.4575

> <Gold.Chemscore.DG>
-14.6606

> <Gold.Chemscore.ZeroCoef>
-5.4800

> <Gold.Chemscore.Hbond>
0.0000

> <Gold.Chemscore.Metal>
0.0000

> <Gold.Chemscore.Lipo>
107.6210

> <Gold.Chemscore.Internal_Hbond>
0.0000

> <Gold.Chemscore.DEClash>
0.3194

> <Gold.Chemscore.DEInternal>
1.8837

> <Gold.Chemscore.Rot>
1.3325

> <Gold.Chemscore.Internal.Correction>
   9.000000E+99

> <Gold.Chemscore.Hbond.Weighted>
-0.0000

> <Gold.Chemscore.Metal.Weighted>
-0.0000

> <Gold.Chemscore.Lipo.Weighted>
-12.5917

> <Gold.Chemscore.Internal_Hbond.Weighted>
0.0000

> <Gold.Chemscore.DEClash.Weighted>
0.3194

> <Gold.Chemscore.DEInternal.Weighted>
1.8837

> <Gold.Chemscore.Rot.Weighted>
3.4111

> <Gold.Chemscore.Internal.Correction.Weighted>
   9.000000E+99

> <Gold.Protein.RotatedTorsions>
[ 6907 6896 6895 6894 ] final  -57.36 input  -60.11 | X-H torsion
[ 7974 7965 7964 7962 ] final -108.85 input  175.53 | X-H torsion
[ 8008 7997 7996 7995 ] final -171.26 input   59.86 | X-H torsion
[ 10167 10162 10161 10158 ] final   87.02 input  -65.29 | X-H torsion
[ 10718 10713 10712 10709 ] final  -30.32 input   66.30 | X-H torsion
[ 10763 10752 10751 10750 ] final   53.37 input  -60.55 | X-H torsion
[ 11005 11000 10999 10996 ] final  175.05 input  -57.11 | X-H torsion

> <Gold.Protein.ActiveResidues>
 VAL166  LYS551  ARG553  GLY616  TRP617  ASP618  TYR619  PRO620  LYS621  CYS622 
 ASP623  PHE694  ASN695  SER759  ASP760  ASP761  ALA762  ILE779  LEU786  VAL792 
 PHE793  MET794  SER795  GLU796  ALA797  LYS798  CYS799  TRP800  GLU811  SER814 

> <Gold.Protein.RotatedAtoms>
  150.8092  134.7236  159.6671 H   0  0  0  0  0  0  0  0  0  0  0  0  # atno 6907 bound_to 6896
  152.4212  134.5949  159.9994 H   0  0  0  0  0  0  0  0  0  0  0  0  # atno 6908 bound_to 6896
  151.6163  133.3305  159.3114 H   0  0  0  0  0  0  0  0  0  0  0  0  # atno 6909 bound_to 6896
  145.1878  140.9001  143.3442 H   0  0  0  0  0  0  0  0  0  0  0  0  # atno 7974 bound_to 7965
  155.9292  140.1088  157.1145 H   0  0  0  0  0  0  0  0  0  0  0  0  # atno 8008 bound_to 7997
  154.4068  140.1241  156.4846 H   0  0  0  0  0  0  0  0  0  0  0  0  # atno 8009 bound_to 7997
  155.7100  140.3471  155.4972 H   0  0  0  0  0  0  0  0  0  0  0  0  # atno 8010 bound_to 7997
  139.8816  144.6437  150.8837 H   0  0  0  0  0  0  0  0  0  0  0  0  # atno 10167 bound_to 10162
  156.4013  130.4391  149.7320 H   0  0  0  0  0  0  0  0  0  0  0  0  # atno 10718 bound_to 10713
  152.9795  135.5781  154.4730 H   0  0  0  0  0  0  0  0  0  0  0  0  # atno 10763 bound_to 10752
  154.4290  135.2773  155.1927 H   0  0  0  0  0  0  0  0  0  0  0  0  # atno 10764 bound_to 10752
  154.3644  135.6181  153.5761 H   0  0  0  0  0  0  0  0  0  0  0  0  # atno 10765 bound_to 10752
  140.3579  134.7138  157.4312 H   0  0  0  0  0  0  0  0  0  0  0  0  # atno 11005 bound_to 11000
  145.0071  139.3544  143.6138 LP  0  0  0  0  0  0  0  0  0  0  0  0  # atno 17320 bound_to 7965
  146.3442  139.9319  142.8752 LP  0  0  0  0  0  0  0  0  0  0  0  0  # atno 17321 bound_to 7965
  140.7743  143.3581  151.1881 LP  0  0  0  0  0  0  0  0  0  0  0  0  # atno 17342 bound_to 10162
  139.7191  143.9252  152.2978 LP  0  0  0  0  0  0  0  0  0  0  0  0  # atno 17343 bound_to 10162
  156.4335  130.7826  151.2847 LP  0  0  0  0  0  0  0  0  0  0  0  0  # atno 17370 bound_to 10713
  157.7504  131.0147  150.3473 LP  0  0  0  0  0  0  0  0  0  0  0  0  # atno 17371 bound_to 10713
  140.0650  134.5942  155.8706 LP  0  0  0  0  0  0  0  0  0  0  0  0  # atno 17394 bound_to 11000
  141.1993  133.6606  156.5835 LP  0  0  0  0  0  0  0  0  0  0  0  0  # atno 17395 bound_to 11000

$$$$
