AV-unprocessed.smi:3322|AV-procd|sdf|12773|dock9
  -GOLD-   2272019113D 1   1.00000     0.00000
 Structure written by MMmdl.
 39 40  0  0  0  0  0  0  0  0  2 V2000
  147.9632  136.1051  156.6511 C   0  0  0  0  0  0  0  0  0  0  0  0
  148.5915  136.3041  155.2614 C   0  0  2  0  0  0  0  0  0  0  0  0
  148.3794  135.0790  154.4537 N   0  3  0  0  0  0  0  0  0  0  0  0
  147.0941  134.3867  154.6872 C   0  0  0  0  0  0  0  0  0  0  0  0
  147.0089  133.0940  153.8638 C   0  0  0  0  0  0  0  0  0  0  0  0
  146.1235  133.2414  152.7251 N   0  0  0  0  0  0  0  0  0  0  0  0
  146.1599  134.1912  151.7258 C   0  0  0  0  0  0  0  0  0  0  0  0
  145.1271  133.9231  150.8737 C   0  0  0  0  0  0  0  0  0  0  0  0
  144.5097  132.7735  151.4413 C   0  0  0  0  0  0  0  0  0  0  0  0
  145.1094  132.3672  152.5491 N   0  0  0  0  0  0  0  0  0  0  0  0
  150.0907  136.6513  155.3968 C   0  0  0  0  0  0  0  0  0  0  0  0
  150.8214  135.8409  155.9701 O   0  0  0  0  0  0  0  0  0  0  0  0
  150.5700  137.8202  154.9012 N   0  0  0  0  0  0  0  0  0  0  0  0
  149.7916  138.9010  154.2840 C   0  0  0  0  0  0  0  0  0  0  0  0
  149.9402  140.1684  155.1461 C   0  0  0  0  0  0  0  0  0  0  0  0
  151.3175  140.5109  155.2700 O   0  0  0  0  0  0  0  0  0  0  0  0
  152.0975  139.4720  155.8542 C   0  0  0  0  0  0  0  0  0  0  0  0
  151.9841  138.2014  154.9942 C   0  0  0  0  0  0  0  0  0  0  0  0
  148.0621  136.9948  157.2730 H   0  0  0  0  0  0  0  0  0  0  0  0
  148.4305  135.2765  157.1853 H   0  0  0  0  0  0  0  0  0  0  0  0
  146.8983  135.8859  156.5697 H   0  0  0  0  0  0  0  0  0  0  0  0
  148.0635  137.1039  154.7432 H   0  0  0  0  0  0  0  0  0  0  0  0
  148.4488  135.3266  153.4767 H   0  0  0  0  0  0  0  0  0  0  0  0
  146.9991  134.1609  155.7503 H   0  0  0  0  0  0  0  0  0  0  0  0
  146.2658  135.0450  154.4226 H   0  0  0  0  0  0  0  0  0  0  0  0
  147.9974  132.8101  153.4999 H   0  0  0  0  0  0  0  0  0  0  0  0
  146.6476  132.2685  154.4791 H   0  0  0  0  0  0  0  0  0  0  0  0
  146.9073  134.9707  151.7037 H   0  0  0  0  0  0  0  0  0  0  0  0
  144.8547  134.4647  149.9800 H   0  0  0  0  0  0  0  0  0  0  0  0
  143.6501  132.2259  151.0840 H   0  0  0  0  0  0  0  0  0  0  0  0
  150.1719  139.0862  153.2783 H   0  0  0  0  0  0  0  0  0  0  0  0
  148.7336  138.6810  154.1658 H   0  0  0  0  0  0  0  0  0  0  0  0
  149.4105  141.0022  154.6851 H   0  0  0  0  0  0  0  0  0  0  0  0
  149.5037  140.0202  156.1349 H   0  0  0  0  0  0  0  0  0  0  0  0
  153.1361  139.7991  155.9101 H   0  0  0  0  0  0  0  0  0  0  0  0
  151.7651  139.2834  156.8764 H   0  0  0  0  0  0  0  0  0  0  0  0
  152.6140  137.4178  155.4167 H   0  0  0  0  0  0  0  0  0  0  0  0
  152.3732  138.3912  153.9926 H   0  0  0  0  0  0  0  0  0  0  0  0
  149.1190  134.4278  154.6746 H   0  0  0  0  0  0  0  0  0  0  0  0
  1  2  1  0  0  0  0
  1 19  1  0  0  0  0
  1 20  1  0  0  0  0
  1 21  1  0  0  0  0
  2  3  1  0  0  0  0
  2 11  1  0  0  0  0
  2 22  1  0  0  0  0
  3  4  1  0  0  0  0
  3 23  1  0  0  0  0
  3 39  1  0  0  0  0
  4  5  1  0  0  0  0
  4 24  1  0  0  0  0
  4 25  1  0  0  0  0
  5  6  1  0  0  0  0
  5 26  1  0  0  0  0
  5 27  1  0  0  0  0
  6 10  1  0  0  0  0
  6  7  1  0  0  0  0
  7  8  2  0  0  0  0
  7 28  1  0  0  0  0
  8  9  1  0  0  0  0
  8 29  1  0  0  0  0
  9 10  2  0  0  0  0
  9 30  1  0  0  0  0
 11 12  2  0  0  0  0
 11 13  1  0  0  0  0
 13 18  1  0  0  0  0
 13 14  1  0  0  0  0
 14 15  1  0  0  0  0
 14 31  1  0  0  0  0
 14 32  1  0  0  0  0
 15 16  1  0  0  0  0
 15 33  1  0  0  0  0
 15 34  1  0  0  0  0
 16 17  1  0  0  0  0
 17 18  1  0  0  0  0
 17 35  1  0  0  0  0
 17 36  1  0  0  0  0
 18 37  1  0  0  0  0
 18 38  1  0  0  0  0
M  CHG  1   3   1
M  END
> <s_m_source_file>
AV-unprocessed.smi

> <i_m_source_file_index>
3322

> <i_lp_mmshare_version>
43012

> <i_f3d_flags>
0

> <s_epik_input>
W0NIMl0xW0NIMl1PW0NIMl1bQ0gyXU4xQyg9TylbQ0BIXShbQ0gzXSlbTkhdW0NIMl1bQ0gyXW4yW2NIXVtjSF1bY0hdbjI=

> <s_epik_cmdline>
J2VwaWtfcHl0aG9uJywgJy1waCcsICc3LjAnLCAnLXRuJywgJzgnLCAnLW1hJywgJzIwMCcsICctbWV0YWxfYmluZGluZycsICctaW1hZScsICc8aW5maWxlLm1hZT4nLCAnLW9tYWUnLCAnPG91dGZpbGUubWFlPic=

> <r_lp_tautomer_probability>
1

> <r_epik_Ionization_Penalty>
0.3254

> <r_epik_Ionization_Penalty_Charging>
0.325398

> <r_epik_Ionization_Penalty_Neutral>
2.29478e-06

> <r_epik_State_Penalty>
0.320187

> <r_epik_Charging_Adjusted_Penalty>
0.645585

> <i_epik_Tot_Q>
1

> <i_epik_Tot_abs_Q>
1

> <r_epik_Metal_State_Penalty>
0.320558

> <b_epik_Metal_Only>
0

> <s_lp_Force_Field>
OPLS_2005

> <r_lp_Energy>
25.684

> <b_lp_Chiralities_Consistent>
1

> <s_lp_Variant>
AV-unprocessed.smi:3322-1

> <Gold.Version>
5.8.1

> <Gold.Id.Protein>
6NUR|6NUR_protein|mol2

> <Gold.PLP.Fitness>
46.3771

> <Gold.PLP.PLP>
-32.5921

> <Gold.PLP.part.hbond>
-3.0000

> <Gold.PLP.part.metal>
0.0000

> <Gold.PLP.part.buried>
-3.2731

> <Gold.PLP.part.nonpolar>
-26.2500

> <Gold.PLP.part.repulsive>
0.2802

> <Gold.PLP.ligand.clash>
0.0000

> <Gold.PLP.ligand.torsion>
0.6185

> <Gold.PLP.Chemscore.Hbond>
3.9920

> <Gold.PLP.Chemscore.CHOScore>
1.0000

> <Gold.PLP.Chemscore.Metal>
0.0000

> <Gold.Chemscore.Hbonds>
donor molecule, donor type, donor heavy atom, donor atom, acceptor molecule, acceptor atom, score
      L1  H     3    23       P1  7948  2.00
      P1  H  7989  7998       L1    16  0.81
      L1  C     7    28       P1  7948  1.00

> <Gold.PLP.Chemscore.Internal.Correction>
0.0459

> <Gold.Rescore>
     Score         DG    S(hbond)    S(metal)    S(lipo)     H(rot)  DE(clash)    DE(int)     intcor
     13.67     -14.31       1.92        0.00      62.37       1.91       0.05       0.60       ----

> <Gold.Chemscore.Fitness>
13.6684

> <Gold.Chemscore.DG>
-14.3119

> <Gold.Chemscore.ZeroCoef>
-5.4800

> <Gold.Chemscore.Hbond>
1.9230

> <Gold.Chemscore.Metal>
0.0000

> <Gold.Chemscore.Lipo>
62.3701

> <Gold.Chemscore.Internal_Hbond>
0.0000

> <Gold.Chemscore.DEClash>
0.0480

> <Gold.Chemscore.DEInternal>
0.5955

> <Gold.Chemscore.Rot>
1.9095

> <Gold.Chemscore.Internal.Correction>
   9.000000E+99

> <Gold.Chemscore.Hbonds>
donor molecule, donor type, donor heavy atom, donor atom, acceptor molecule, acceptor atom, score
      L1  H     3    23       P1  7948  0.96
      P1  H  7989  7998       L1    16  0.15
      P1  H 10752 10765       L1    12  0.02

> <Gold.Chemscore.Hbond.Weighted>
-6.4229

> <Gold.Chemscore.Metal.Weighted>
-0.0000

> <Gold.Chemscore.Lipo.Weighted>
-7.2973

> <Gold.Chemscore.Internal_Hbond.Weighted>
0.0000

> <Gold.Chemscore.DEClash.Weighted>
0.0480

> <Gold.Chemscore.DEInternal.Weighted>
0.5955

> <Gold.Chemscore.Rot.Weighted>
4.8884

> <Gold.Chemscore.Internal.Correction.Weighted>
   9.000000E+99

> <Gold.Protein.RotatedTorsions>
[ 6907 6896 6895 6894 ] final -138.09 input  -60.11 | X-H torsion
[ 7974 7965 7964 7962 ] final  107.05 input  175.53 | X-H torsion
[ 8008 7997 7996 7995 ] final  171.81 input   59.86 | X-H torsion
[ 10167 10162 10161 10158 ] final -143.44 input  -65.29 | X-H torsion
[ 10718 10713 10712 10709 ] final  176.98 input   66.30 | X-H torsion
[ 10763 10752 10751 10750 ] final -161.66 input  -60.55 | X-H torsion
[ 11005 11000 10999 10996 ] final -108.20 input  -57.11 | X-H torsion

> <Gold.Protein.ActiveResidues>
 VAL166  LYS551  ARG553  GLY616  TRP617  ASP618  TYR619  PRO620  LYS621  CYS622 
 ASP623  PHE694  ASN695  SER759  ASP760  ASP761  ALA762  ILE779  LEU786  VAL792 
 PHE793  MET794  SER795  GLU796  ALA797  LYS798  CYS799  TRP800  GLU811  SER814 

> <Gold.Protein.RotatedAtoms>
  151.0307  133.5793  159.2660 H   0  0  0  0  0  0  0  0  0  0  0  0  # atno 6907 bound_to 6896
  151.2876  135.0731  159.9202 H   0  0  0  0  0  0  0  0  0  0  0  0  # atno 6908 bound_to 6896
  152.5344  134.0010  159.7949 H   0  0  0  0  0  0  0  0  0  0  0  0  # atno 6909 bound_to 6896
  145.2987  139.2576  143.3826 H   0  0  0  0  0  0  0  0  0  0  0  0  # atno 7974 bound_to 7965
  156.1235  140.1502  156.9170 H   0  0  0  0  0  0  0  0  0  0  0  0  # atno 8008 bound_to 7997
  154.4854  140.0867  156.7514 H   0  0  0  0  0  0  0  0  0  0  0  0  # atno 8009 bound_to 7997
  155.4386  140.3430  155.4289 H   0  0  0  0  0  0  0  0  0  0  0  0  # atno 8010 bound_to 7997
  139.7993  143.7855  152.2657 H   0  0  0  0  0  0  0  0  0  0  0  0  # atno 10167 bound_to 10162
  156.9122  130.9913  151.3019 H   0  0  0  0  0  0  0  0  0  0  0  0  # atno 10718 bound_to 10713
  154.7283  135.3041  154.8933 H   0  0  0  0  0  0  0  0  0  0  0  0  # atno 10763 bound_to 10752
  153.9784  135.6733  153.4753 H   0  0  0  0  0  0  0  0  0  0  0  0  # atno 10764 bound_to 10752
  153.0895  135.4966  154.8583 H   0  0  0  0  0  0  0  0  0  0  0  0  # atno 10765 bound_to 10752
  141.0914  133.9048  157.2066 H   0  0  0  0  0  0  0  0  0  0  0  0  # atno 11005 bound_to 11000
  146.3160  140.3496  142.8655 LP  0  0  0  0  0  0  0  0  0  0  0  0  # atno 17320 bound_to 7965
  144.9112  140.7759  143.5806 LP  0  0  0  0  0  0  0  0  0  0  0  0  # atno 17321 bound_to 7965
  139.7971  144.7388  150.9876 LP  0  0  0  0  0  0  0  0  0  0  0  0  # atno 17342 bound_to 10162
  140.7820  143.4383  151.0590 LP  0  0  0  0  0  0  0  0  0  0  0  0  # atno 17343 bound_to 10162
  157.5960  130.8478  149.8730 LP  0  0  0  0  0  0  0  0  0  0  0  0  # atno 17370 bound_to 10713
  156.0531  130.3714  150.1155 LP  0  0  0  0  0  0  0  0  0  0  0  0  # atno 17371 bound_to 10713
  139.9741  135.0119  156.9586 LP  0  0  0  0  0  0  0  0  0  0  0  0  # atno 17394 bound_to 11000
  140.5243  134.0876  155.7300 LP  0  0  0  0  0  0  0  0  0  0  0  0  # atno 17395 bound_to 11000

$$$$
