#       Name:                AV-unprocessed.smi:99
#       Creating user name   scv26
#       Creation time:       Thu Mar 26 17:36:30 2020


#       File generated by GOLD software.
#

@<TRIPOS>MOLECULE
AV-unprocessed.smi:99
    65    68     1
SMALL
NO_CHARGES


@<TRIPOS>ATOM
      1 ****        -5.0089   0.1579   0.2221 O.2            1 S1                 0.0000
      2 ****        -4.1637   1.0503   0.3160 C.2            1 S1                 0.0000
      3 ****        -2.8365   0.8265   0.2868 O.3            1 S1                 0.0000
      4 ****        -2.3411  -0.4926   0.1301 C.3            1 S1                 0.0000
      5 ****        -0.8092  -0.4442   0.0476 C.3            1 S1                 0.0000
      6 ****        -0.4431   0.0794  -1.2244 O.3            1 S1                 0.0000
      7 ****        -0.1177  -0.9444  -2.1179 C.3            1 S1                 0.0000
      8 ****         1.2618  -0.6810  -2.6783 N.am           1 S1                 0.0000
      9 ****         2.1921   0.0561  -1.9643 C.2            1 S1                 0.0000
     10 ****         3.4329   0.2752  -2.4452 C.2            1 S1                 0.0000
     11 ****         3.8052  -0.2770  -3.7445 C.2            1 S1                 0.0000
     12 ****         4.9333  -0.0602  -4.1824 O.2            1 S1                 0.0000
     13 ****         2.8777  -1.0170  -4.4182 N.pl3          1 S1                -1.0000
     14 ****         1.6248  -1.2493  -3.9289 C.2            1 S1                 0.0000
     15 ****         0.7895  -1.9391  -4.5146 O.2            1 S1                 0.0000
     16 ****        -0.1226  -2.2765  -1.3530 C.3            1 S1                 0.0000
     17 ****        -1.2373  -3.0779  -1.6856 O.3            1 S1                 0.0000
     18 ****        -0.1796  -1.8412   0.1017 C.3            1 S1                 0.0000
     19 ****         1.1494  -1.7741   0.6056 O.3            1 S1                 0.0000
     20 ****         1.3990  -1.8025   1.9302 C.2            1 S1                 0.0000
     21 ****         0.5210  -1.8929   2.7907 O.2            1 S1                 0.0000
     22 ****         2.8539  -1.7022   2.2419 C.ar           1 S1                 0.0000
     23 ****         3.2773  -1.7143   3.5913 C.ar           1 S1                 0.0000
     24 ****         4.6449  -1.6180   3.9145 C.ar           1 S1                 0.0000
     25 ****         5.6056  -1.5079   2.8923 C.ar           1 S1                 0.0000
     26 ****         5.1972  -1.4954   1.5458 C.ar           1 S1                 0.0000
     27 ****         3.8304  -1.5920   1.2206 C.ar           1 S1                 0.0000
     28 ****        -4.5036   2.4935   0.4777 C.ar           1 S1                 0.0000
     29 ****        -5.8612   2.8809   0.5649 C.ar           1 S1                 0.0000
     30 ****        -6.2118   4.2363   0.7191 C.ar           1 S1                 0.0000
     31 ****        -5.2091   5.2210   0.7867 C.ar           1 S1                 0.0000
     32 ****        -3.8550   4.8487   0.7002 C.ar           1 S1                 0.0000
     33 ****        -3.5024   3.4938   0.5465 C.ar           1 S1                 0.0000
     34 ****        -2.6485  -1.0883   0.9906 H              1 S1                 0.0000
     35 ****        -2.7630  -0.9582  -0.7615 H              1 S1                 0.0000
     36 ****        -0.4271   0.1952   0.8444 H              1 S1                 0.0000
     37 ****        -0.8040  -0.9088  -2.9657 H              1 S1                 0.0000
     38 ****         1.9363   0.4615  -0.9969 H              1 S1                 0.0000
     39 ****         4.1471   0.8488  -1.8729 H              1 S1                 0.0000
     40 ****         0.7743  -2.8594  -1.5708 H              1 S1                 0.0000
     41 ****        -1.1827  -3.2916  -2.6051 H              1 S1                 0.0000
     42 ****        -0.7659  -2.5383   0.7030 H              1 S1                 0.0000
     43 ****         2.5580  -1.7975   4.3935 H              1 S1                 0.0000
     44 ****         4.9566  -1.6286   4.9487 H              1 S1                 0.0000
     45 ****         6.6542  -1.4337   3.1404 H              1 S1                 0.0000
     46 ****         5.9327  -1.4117   0.7592 H              1 S1                 0.0000
     47 ****         3.5528  -1.5797   0.1766 H              1 S1                 0.0000
     48 ****        -6.6485   2.1425   0.5156 H              1 S1                 0.0000
     49 ****        -7.2518   4.5200   0.7859 H              1 S1                 0.0000
     50 ****        -5.4778   6.2604   0.9043 H              1 S1                 0.0000
     51 ****        -3.0841   5.6035   0.7518 H              1 S1                 0.0000
     52 ****        -2.4537   3.2427   0.4820 H              1 S1                 0.0000
     53 ****        -4.7213  -0.7941   0.1176 LP             1 S1                 0.0000
     54 ****        -5.9821   0.3860   0.2505 LP             1 S1                 0.0000
     55 ****         0.3488   0.6801  -1.1142 LP             1 S1                 0.0000
     56 ****        -1.2101   0.6036  -1.5943 LP             1 S1                 0.0000
     57 ****         5.5796   0.4869  -3.6503 LP             1 S1                 0.0000
     58 ****         5.2047  -0.4309  -5.0706 LP             1 S1                 0.0000
     59 ****         3.1258  -1.4047  -5.3059 LP             1 S1                 0.0000
     60 ****        -0.1124  -2.0847  -4.1080 LP             1 S1                 0.0000
     61 ****         1.0132  -2.3536  -5.3967 LP             1 S1                 0.0000
     62 ****        -2.0823  -2.5748  -1.5043 LP             1 S1                 0.0000
     63 ****        -1.2256  -3.9169  -1.1415 LP             1 S1                 0.0000
     64 ****        -0.4400  -1.9500   2.5204 LP             1 S1                 0.0000
     65 ****         0.7698  -1.9091   3.7592 LP             1 S1                 0.0000
@<TRIPOS>BOND
    1    1    2 2     
    2    2    3 1     
    3    2   28 1     
    4    3    4 1     
    5    4    5 1     
    6    4   34 1     
    7    4   35 1     
    8    5   18 1     
    9    5    6 1     
   10    5   36 1     
   11    6    7 1     
   12    7    8 1     
   13    7   16 1     
   14    7   37 1     
   15    8   14 am    
   16    8    9 1     
   17    9   10 2     
   18    9   38 1     
   19   10   11 1     
   20   10   39 1     
   21   11   12 2     
   22   11   13 1     
   23   13   14 1     
   24   14   15 2     
   25   16   17 1     
   26   16   18 1     
   27   16   40 1     
   28   17   41 1     
   29   18   19 1     
   30   18   42 1     
   31   19   20 1     
   32   20   21 2     
   33   20   22 1     
   34   22   27 ar    
   35   22   23 ar    
   36   23   24 ar    
   37   23   43 1     
   38   24   25 ar    
   39   24   44 1     
   40   25   26 ar    
   41   25   45 1     
   42   26   27 ar    
   43   26   46 1     
   44   27   47 1     
   45   28   33 ar    
   46   28   29 ar    
   47   29   30 ar    
   48   29   48 1     
   49   30   31 ar    
   50   30   49 1     
   51   31   32 ar    
   52   31   50 1     
   53   32   33 ar    
   54   32   51 1     
   55   33   52 1     
   56    1   53 1     
   57    1   54 1     
   58    6   55 1     
   59    6   56 1     
   60   12   57 1     
   61   12   58 1     
   62   13   59 1     
   63   15   60 1     
   64   15   61 1     
   65   17   62 1     
   66   17   63 1     
   67   21   64 1     
   68   21   65 1     
@<TRIPOS>SUBSTRUCTURE
      1 S1             1
@<TRIPOS>SET
LONE_PAIRS      STATIC     ATOMS    <user>   **** ""
13 53 54 55 56 57 58 59 60 61 62 63 64 65
DONOR_HYDROGENS      STATIC     ATOMS    <user>   **** ""
1 41
ATOM$BLUE        STATIC     ATOMS    COLORGROUP SYSTEM
13 53 54 55 56 57 58 59 60 61 62 63 64 65
ATOM$RED        STATIC     ATOMS    COLORGROUP SYSTEM
1 41
