AV-unprocessed.smi:290|AV-procd|sdf|2224|dock6
  -GOLD-   2262022 73D 1   1.00000     0.00000
 Structure written by MMmdl.
 59 62  0  0  0  0  0  0  0  0  2 V2000
  151.2286  144.6099  158.0071 C   0  0  0  0  0  0  0  0  0  0  0  0
  152.2388  144.4236  159.1496 C   0  0  1  0  0  0  0  0  0  0  0  0
  151.9987  145.3489  160.2088 O   0  0  0  0  0  0  0  0  0  0  0  0
  152.0523  144.6889  161.4681 C   0  0  0  0  0  0  0  0  0  0  0  0
  152.7664  143.3681  161.2011 C   0  0  0  0  0  0  0  0  0  0  0  0
  152.3010  143.0195  159.7941 C   0  0  1  0  0  0  0  0  0  0  0  0
  151.0020  142.4568  159.8783 O   0  0  0  0  0  0  0  0  0  0  0  0
  153.1750  141.9738  159.0534 C   0  0  0  0  0  0  0  0  0  0  0  0
  153.5697  140.8240  159.8524 N   0  0  0  0  0  0  0  0  0  0  0  0
  154.4959  140.8018  160.8723 C   0  0  0  0  0  0  0  0  0  0  0  0
  154.6711  139.6406  161.4431 N   0  0  0  0  0  0  0  0  0  0  0  0
  153.7858  138.8043  160.7764 C   0  0  0  0  0  0  0  0  0  0  0  0
  153.4562  137.4292  160.8888 C   0  0  0  0  0  0  0  0  0  0  0  0
  154.0613  136.6289  161.7943 N   0  0  0  0  0  0  0  0  0  0  0  0
  153.8037  136.9925  163.1791 C   0  0  0  0  0  0  0  0  0  0  0  0
  154.8429  136.2337  164.0141 C   0  0  0  0  0  0  0  0  0  0  0  0
  155.9379  135.8154  163.0088 C   0  0  1  0  0  0  0  0  0  0  0  0
  156.1770  134.3410  162.9135 N   0  3  2  0  0  0  0  0  0  0  0  0
  154.9647  133.5029  162.7252 C   0  0  0  0  0  0  0  0  0  0  0  0
  157.0600  133.8120  163.9841 C   0  0  0  0  0  0  0  0  0  0  0  0
  156.2853  133.5086  165.2777 C   0  0  0  0  0  0  0  0  0  0  0  0
  157.0869  133.8097  166.4003 O   0  0  0  0  0  0  0  0  0  0  0  0
  155.5052  136.4724  161.6826 C   0  0  1  0  0  0  0  0  0  0  0  0
  155.9718  135.7914  160.3801 C   0  0  0  0  0  0  0  0  0  0  0  0
  152.5073  136.9304  160.0532 N   0  0  0  0  0  0  0  0  0  0  0  0
  151.9171  137.7327  159.1614 C   0  0  0  0  0  0  0  0  0  0  0  0
  152.1233  139.0336  158.9437 N   0  0  0  0  0  0  0  0  0  0  0  0
  153.0777  139.5323  159.7811 C   0  0  0  0  0  0  0  0  0  0  0  0
  156.8775  136.2864  163.2968 H   0  0  0  0  0  0  0  0  0  0  0  0
  155.9365  137.4753  161.6847 H   0  0  0  0  0  0  0  0  0  0  0  0
  151.4126  143.8977  157.2025 H   0  0  0  0  0  0  0  0  0  0  0  0
  151.3049  145.6122  157.5856 H   0  0  0  0  0  0  0  0  0  0  0  0
  150.2022  144.4764  158.3493 H   0  0  0  0  0  0  0  0  0  0  0  0
  153.2253  144.6933  158.7755 H   0  0  0  0  0  0  0  0  0  0  0  0
  152.5609  145.2971  162.2165 H   0  0  0  0  0  0  0  0  0  0  0  0
  151.0334  144.5096  161.8131 H   0  0  0  0  0  0  0  0  0  0  0  0
  153.8409  143.5457  161.2241 H   0  0  0  0  0  0  0  0  0  0  0  0
  152.5389  142.6010  161.9421 H   0  0  0  0  0  0  0  0  0  0  0  0
  151.0844  141.5200  159.9709 H   0  0  0  0  0  0  0  0  0  0  0  0
  152.6471  141.6045  158.1730 H   0  0  0  0  0  0  0  0  0  0  0  0
  154.0837  142.4494  158.6809 H   0  0  0  0  0  0  0  0  0  0  0  0
  155.0454  141.6804  161.1785 H   0  0  0  0  0  0  0  0  0  0  0  0
  153.9211  138.0681  163.3209 H   0  0  0  0  0  0  0  0  0  0  0  0
  152.7868  136.7251  163.4687 H   0  0  0  0  0  0  0  0  0  0  0  0
  155.2491  136.8812  164.7916 H   0  0  0  0  0  0  0  0  0  0  0  0
  154.3846  135.3901  164.5267 H   0  0  0  0  0  0  0  0  0  0  0  0
  154.4100  133.3723  163.6541 H   0  0  0  0  0  0  0  0  0  0  0  0
  155.2550  132.5107  162.3787 H   0  0  0  0  0  0  0  0  0  0  0  0
  154.2876  133.9177  161.9800 H   0  0  0  0  0  0  0  0  0  0  0  0
  157.5720  132.9175  163.6269 H   0  0  0  0  0  0  0  0  0  0  0  0
  157.8439  134.5351  164.2164 H   0  0  0  0  0  0  0  0  0  0  0  0
  155.3492  134.0627  165.3380 H   0  0  0  0  0  0  0  0  0  0  0  0
  156.0292  132.4495  165.3153 H   0  0  0  0  0  0  0  0  0  0  0  0
  157.6995  133.1016  166.5329 H   0  0  0  0  0  0  0  0  0  0  0  0
  157.0538  135.6584  160.3778 H   0  0  0  0  0  0  0  0  0  0  0  0
  155.7179  136.3976  159.5101 H   0  0  0  0  0  0  0  0  0  0  0  0
  155.5137  134.8136  160.2360 H   0  0  0  0  0  0  0  0  0  0  0  0
  151.1754  137.2659  158.5301 H   0  0  0  0  0  0  0  0  0  0  0  0
  156.7088  134.2168  162.0632 H   0  0  0  0  0  0  0  0  0  0  0  0
  1  2  1  0  0  0  0
  1 31  1  0  0  0  0
  1 32  1  0  0  0  0
  1 33  1  0  0  0  0
  2  6  1  0  0  0  0
  2  3  1  0  0  0  0
  2 34  1  0  0  0  0
  3  4  1  0  0  0  0
  4  5  1  0  0  0  0
  4 35  1  0  0  0  0
  4 36  1  0  0  0  0
  5  6  1  0  0  0  0
  5 37  1  0  0  0  0
  5 38  1  0  0  0  0
  6  7  1  0  0  0  0
  6  8  1  0  0  0  0
  7 39  1  0  0  0  0
  8  9  1  0  0  0  0
  8 40  1  0  0  0  0
  8 41  1  0  0  0  0
  9 28  1  0  0  0  0
  9 10  1  0  0  0  0
 10 11  2  0  0  0  0
 10 42  1  0  0  0  0
 11 12  1  0  0  0  0
 12 28  2  0  0  0  0
 12 13  1  0  0  0  0
 13 14  1  0  0  0  0
 13 25  2  0  0  0  0
 14 23  1  0  0  0  0
 14 15  1  0  0  0  0
 15 16  1  0  0  0  0
 15 43  1  0  0  0  0
 15 44  1  0  0  0  0
 16 17  1  0  0  0  0
 16 45  1  0  0  0  0
 16 46  1  0  0  0  0
 17 29  1  0  0  0  0
 17 18  1  0  0  0  0
 17 23  1  0  0  0  0
 18 19  1  0  0  0  0
 18 20  1  0  0  0  0
 18 59  1  0  0  0  0
 19 47  1  0  0  0  0
 19 48  1  0  0  0  0
 19 49  1  0  0  0  0
 20 21  1  0  0  0  0
 20 50  1  0  0  0  0
 20 51  1  0  0  0  0
 21 22  1  0  0  0  0
 21 52  1  0  0  0  0
 21 53  1  0  0  0  0
 22 54  1  0  0  0  0
 23 30  1  0  0  0  0
 23 24  1  0  0  0  0
 24 55  1  0  0  0  0
 24 56  1  0  0  0  0
 24 57  1  0  0  0  0
 25 26  1  0  0  0  0
 26 27  2  0  0  0  0
 26 58  1  0  0  0  0
 27 28  1  0  0  0  0
M  CHG  1  18   1
M  END
> <s_m_source_file>
AV-unprocessed.smi

> <i_m_source_file_index>
290

> <i_lp_mmshare_version>
43012

> <i_f3d_flags>
0

> <s_epik_input>
W0NIMl0xW0NIMl1PW0NAQEhdKFtDSDNdKVtDQEBdMShbT0hdKVtDSDJdbihbY0hdbjIpYyhjMjMpbltjSF1uYzNONFtDSDJdW0NIMl1bQ0BIXShbQ0BIXTRbQ0gzXSlOKFtDSDNdKVtDSDJdW0NIMl1bT0hd

> <s_epik_cmdline>
J2VwaWtfcHl0aG9uJywgJy1waCcsICc3LjAnLCAnLXRuJywgJzgnLCAnLW1hJywgJzIwMCcsICctbWV0YWxfYmluZGluZycsICctaW1hZScsICc8aW5maWxlLm1hZT4nLCAnLW9tYWUnLCAnPG91dGZpbGUubWFlPic=

> <r_lp_tautomer_probability>
1

> <r_epik_Ionization_Penalty>
0.0036983

> <r_epik_Ionization_Penalty_Charging>
0.0032725

> <r_epik_Ionization_Penalty_Neutral>
0.000425798

> <r_epik_State_Penalty>
-0

> <r_epik_Charging_Adjusted_Penalty>
0.0032725

> <i_epik_Tot_Q>
1

> <i_epik_Tot_abs_Q>
1

> <r_epik_Metal_State_Penalty>
-0

> <b_epik_Metal_Only>
0

> <s_lp_Force_Field>
OPLS_2005

> <r_lp_Energy>
72.0744

> <b_lp_Chiralities_Consistent>
1

> <s_lp_Variant>
AV-unprocessed.smi:290-10

> <Gold.Version>
5.8.1

> <Gold.Id.Protein>
6NUR|6NUR_protein|mol2

> <Gold.PLP.Fitness>
50.4981

> <Gold.PLP.PLP>
-49.4043

> <Gold.PLP.part.hbond>
-3.0000

> <Gold.PLP.part.metal>
0.0000

> <Gold.PLP.part.buried>
-4.9248

> <Gold.PLP.part.nonpolar>
-41.6065

> <Gold.PLP.part.repulsive>
0.1456

> <Gold.PLP.ligand.clash>
0.0000

> <Gold.PLP.ligand.torsion>
1.0454

> <Gold.PLP.Chemscore.Hbond>
1.0000

> <Gold.PLP.Chemscore.CHOScore>
0.0000

> <Gold.PLP.Chemscore.Metal>
0.0000

> <Gold.Chemscore.Hbonds>
donor molecule, donor type, donor heavy atom, donor atom, acceptor molecule, acceptor atom, score
      P1  H  6896  6907       L1    25  1.00

> <Gold.PLP.Chemscore.Internal.Correction>
0.1846

> <Gold.Rescore>
     Score         DG    S(hbond)    S(metal)    S(lipo)     H(rot)  DE(clash)    DE(int)     intcor
     11.45     -12.84       0.89        0.00     117.72       3.67       0.59       0.80       ----

> <Gold.Chemscore.Fitness>
11.4512

> <Gold.Chemscore.DG>
-12.8355

> <Gold.Chemscore.ZeroCoef>
-5.4800

> <Gold.Chemscore.Hbond>
0.8881

> <Gold.Chemscore.Metal>
0.0000

> <Gold.Chemscore.Lipo>
117.7239

> <Gold.Chemscore.Internal_Hbond>
0.0000

> <Gold.Chemscore.DEClash>
0.5887

> <Gold.Chemscore.DEInternal>
0.7956

> <Gold.Chemscore.Rot>
3.6658

> <Gold.Chemscore.Internal.Correction>
   9.000000E+99

> <Gold.Chemscore.Hbonds>
donor molecule, donor type, donor heavy atom, donor atom, acceptor molecule, acceptor atom, score
      P1  H  6896  6907       L1    25  0.90

> <Gold.Chemscore.Hbond.Weighted>
-2.9662

> <Gold.Chemscore.Metal.Weighted>
-0.0000

> <Gold.Chemscore.Lipo.Weighted>
-13.7737

> <Gold.Chemscore.Internal_Hbond.Weighted>
0.0000

> <Gold.Chemscore.DEClash.Weighted>
0.5887

> <Gold.Chemscore.DEInternal.Weighted>
0.7956

> <Gold.Chemscore.Rot.Weighted>
9.3844

> <Gold.Chemscore.Internal.Correction.Weighted>
   9.000000E+99

> <Gold.Protein.RotatedTorsions>
[ 6907 6896 6895 6894 ] final   17.29 input  -60.11 | X-H torsion
[ 7974 7965 7964 7962 ] final  -76.64 input  175.53 | X-H torsion
[ 8008 7997 7996 7995 ] final  -38.75 input   59.86 | X-H torsion
[ 10167 10162 10161 10158 ] final -161.54 input  -65.29 | X-H torsion
[ 10718 10713 10712 10709 ] final  -40.93 input   66.30 | X-H torsion
[ 10763 10752 10751 10750 ] final -150.87 input  -60.55 | X-H torsion
[ 11005 11000 10999 10996 ] final   96.62 input  -57.11 | X-H torsion

> <Gold.Protein.ActiveResidues>
 VAL166  LYS551  ARG553  GLY616  TRP617  ASP618  TYR619  PRO620  LYS621  CYS622 
 ASP623  PHE694  ASN695  SER759  ASP760  ASP761  ALA762  ILE779  LEU786  VAL792 
 PHE793  MET794  SER795  GLU796  ALA797  LYS798  CYS799  TRP800  GLU811  SER814 

> <Gold.Protein.RotatedAtoms>
  151.8473  135.0570  160.0454 H   0  0  0  0  0  0  0  0  0  0  0  0  # atno 6907 bound_to 6896
  152.2763  133.5424  159.5478 H   0  0  0  0  0  0  0  0  0  0  0  0  # atno 6908 bound_to 6896
  150.7171  134.0543  159.3851 H   0  0  0  0  0  0  0  0  0  0  0  0  # atno 6909 bound_to 6896
  145.6102  140.9388  143.1194 H   0  0  0  0  0  0  0  0  0  0  0  0  # atno 7974 bound_to 7965
  154.4032  140.1569  156.2751 H   0  0  0  0  0  0  0  0  0  0  0  0  # atno 8008 bound_to 7997
  155.8919  140.3438  155.5940 H   0  0  0  0  0  0  0  0  0  0  0  0  # atno 8009 bound_to 7997
  155.7549  140.0810  157.2174 H   0  0  0  0  0  0  0  0  0  0  0  0  # atno 8010 bound_to 7997
  139.6457  144.0176  152.2125 H   0  0  0  0  0  0  0  0  0  0  0  0  # atno 10167 bound_to 10162
  156.2759  130.4212  149.8388 H   0  0  0  0  0  0  0  0  0  0  0  0  # atno 10718 bound_to 10713
  154.8093  135.3274  154.7349 H   0  0  0  0  0  0  0  0  0  0  0  0  # atno 10763 bound_to 10752
  153.8001  135.6904  153.4861 H   0  0  0  0  0  0  0  0  0  0  0  0  # atno 10764 bound_to 10752
  153.1860  135.4569  155.0034 H   0  0  0  0  0  0  0  0  0  0  0  0  # atno 10765 bound_to 10752
  139.8780  134.8960  156.4186 H   0  0  0  0  0  0  0  0  0  0  0  0  # atno 11005 bound_to 11000
  144.7273  139.7835  143.7360 LP  0  0  0  0  0  0  0  0  0  0  0  0  # atno 17320 bound_to 7965
  146.1510  139.4593  143.0048 LP  0  0  0  0  0  0  0  0  0  0  0  0  # atno 17321 bound_to 7965
  139.9877  144.6383  150.7842 LP  0  0  0  0  0  0  0  0  0  0  0  0  # atno 17342 bound_to 10162
  140.7513  143.2971  151.3177 LP  0  0  0  0  0  0  0  0  0  0  0  0  # atno 17343 bound_to 10162
  156.5853  130.8483  151.3394 LP  0  0  0  0  0  0  0  0  0  0  0  0  # atno 17370 bound_to 10713
  157.7299  130.9678  150.1808 LP  0  0  0  0  0  0  0  0  0  0  0  0  # atno 17371 bound_to 10713
  140.9149  133.7685  155.9836 LP  0  0  0  0  0  0  0  0  0  0  0  0  # atno 17394 bound_to 11000
  140.8504  134.2960  157.5277 LP  0  0  0  0  0  0  0  0  0  0  0  0  # atno 17395 bound_to 11000

$$$$
