AV-unprocessed.smi:1225|AV-procd|sdf|5139|dock9
  -GOLD-   22720 4203D 1   1.00000     0.00000
 Structure written by MMmdl.
 49 51  0  0  0  0  0  0  0  0  2 V2000
  145.0781  149.1960  156.9727 C   0  0  0  0  0  0  0  0  0  0  0  0
  144.4891  147.8553  156.6957 C   0  0  0  0  0  0  0  0  0  0  0  0
  143.9642  147.5073  155.5187 N   0  0  0  0  0  0  0  0  0  0  0  0
  143.4789  146.1976  155.5178 C   0  0  0  0  0  0  0  0  0  0  0  0
  143.6434  145.5434  156.7138 C   0  0  0  0  0  0  0  0  0  0  0  0
  143.2361  144.1435  157.0484 C   0  0  0  0  0  0  0  0  0  0  0  0
  144.3313  143.1747  156.9787 N   0  0  0  0  0  0  0  0  0  0  0  0
  145.3083  143.4122  158.0408 C   0  0  0  0  0  0  0  0  0  0  0  0
  144.9541  143.2038  155.6509 C   0  0  0  0  0  0  0  0  0  0  0  0
  145.5220  141.8704  155.1142 C   0  0  1  0  0  0  0  0  0  0  0  0
  144.4813  140.9523  154.8426 O   0  0  0  0  0  0  0  0  0  0  0  0
  146.4696  142.0234  153.9050 C   0  0  0  0  0  0  0  0  0  0  0  0
  147.2688  140.8170  153.6537 N   0  0  0  0  0  0  0  0  0  0  0  0
  147.0394  139.7758  152.8083 C   0  0  0  0  0  0  0  0  0  0  0  0
  148.0753  138.9021  152.9441 N   0  3  0  0  0  0  0  0  0  0  0  0
  148.9804  139.3950  153.8869 C   0  0  0  0  0  0  0  0  0  0  0  0
  150.1760  138.8709  154.3639 C   0  0  0  0  0  0  0  0  0  0  0  0
  150.8703  139.6279  155.3348 C   0  0  0  0  0  0  0  0  0  0  0  0
  152.1784  139.0812  155.8808 C   0  0  0  0  0  0  0  0  0  0  0  0
  150.3601  140.8699  155.7947 C   0  0  0  0  0  0  0  0  0  0  0  0
  151.1155  141.6759  156.8380 C   0  0  0  0  0  0  0  0  0  0  0  0
  149.1421  141.3858  155.2970 C   0  0  0  0  0  0  0  0  0  0  0  0
  148.4703  140.6258  154.3431 C   0  0  0  0  0  0  0  0  0  0  0  0
  144.4138  146.5714  157.8959 S   0  0  0  0  0  0  0  0  0  0  0  0
  145.1595  149.7776  156.0539 H   0  0  0  0  0  0  0  0  0  0  0  0
  146.0730  149.0841  157.4040 H   0  0  0  0  0  0  0  0  0  0  0  0
  144.4490  149.7402  157.6770 H   0  0  0  0  0  0  0  0  0  0  0  0
  143.0308  145.8068  154.6162 H   0  0  0  0  0  0  0  0  0  0  0  0
  142.8214  144.1509  158.0572 H   0  0  0  0  0  0  0  0  0  0  0  0
  142.4224  143.8295  156.3930 H   0  0  0  0  0  0  0  0  0  0  0  0
  146.0795  142.6436  158.0490 H   0  0  0  0  0  0  0  0  0  0  0  0
  144.8382  143.3892  159.0240 H   0  0  0  0  0  0  0  0  0  0  0  0
  145.7929  144.3819  157.9207 H   0  0  0  0  0  0  0  0  0  0  0  0
  144.1943  143.5152  154.9328 H   0  0  0  0  0  0  0  0  0  0  0  0
  145.7209  143.9790  155.6116 H   0  0  0  0  0  0  0  0  0  0  0  0
  146.0856  141.4209  155.9321 H   0  0  0  0  0  0  0  0  0  0  0  0
  144.2194  141.0557  153.9408 H   0  0  0  0  0  0  0  0  0  0  0  0
  145.9043  142.2285  152.9953 H   0  0  0  0  0  0  0  0  0  0  0  0
  147.1481  142.8659  154.0444 H   0  0  0  0  0  0  0  0  0  0  0  0
  146.1880  139.6617  152.1523 H   0  0  0  0  0  0  0  0  0  0  0  0
  150.5582  137.9249  154.0091 H   0  0  0  0  0  0  0  0  0  0  0  0
  152.1020  138.9100  156.9549 H   0  0  0  0  0  0  0  0  0  0  0  0
  152.9940  139.7814  155.6981 H   0  0  0  0  0  0  0  0  0  0  0  0
  152.4422  138.1334  155.4101 H   0  0  0  0  0  0  0  0  0  0  0  0
  150.5845  142.5930  157.0953 H   0  0  0  0  0  0  0  0  0  0  0  0
  152.1013  141.9555  156.4655 H   0  0  0  0  0  0  0  0  0  0  0  0
  151.2413  141.0967  157.7529 H   0  0  0  0  0  0  0  0  0  0  0  0
  148.7524  142.3303  155.6469 H   0  0  0  0  0  0  0  0  0  0  0  0
  148.1562  138.0347  152.4292 H   0  0  0  0  0  0  0  0  0  0  0  0
  1  2  1  0  0  0  0
  1 25  1  0  0  0  0
  1 26  1  0  0  0  0
  1 27  1  0  0  0  0
  2 24  1  0  0  0  0
  2  3  2  0  0  0  0
  3  4  1  0  0  0  0
  4  5  2  0  0  0  0
  4 28  1  0  0  0  0
  5  6  1  0  0  0  0
  5 24  1  0  0  0  0
  6  7  1  0  0  0  0
  6 29  1  0  0  0  0
  6 30  1  0  0  0  0
  7  8  1  0  0  0  0
  7  9  1  0  0  0  0
  8 31  1  0  0  0  0
  8 32  1  0  0  0  0
  8 33  1  0  0  0  0
  9 10  1  0  0  0  0
  9 34  1  0  0  0  0
  9 35  1  0  0  0  0
 10 11  1  0  0  0  0
 10 12  1  0  0  0  0
 10 36  1  0  0  0  0
 11 37  1  0  0  0  0
 12 13  1  0  0  0  0
 12 38  1  0  0  0  0
 12 39  1  0  0  0  0
 13 23  1  0  0  0  0
 13 14  1  0  0  0  0
 14 15  2  0  0  0  0
 14 40  1  0  0  0  0
 15 16  1  0  0  0  0
 15 49  1  0  0  0  0
 16 23  2  0  0  0  0
 16 17  1  0  0  0  0
 17 18  2  0  0  0  0
 17 41  1  0  0  0  0
 18 19  1  0  0  0  0
 18 20  1  0  0  0  0
 19 42  1  0  0  0  0
 19 43  1  0  0  0  0
 19 44  1  0  0  0  0
 20 21  1  0  0  0  0
 20 22  2  0  0  0  0
 21 45  1  0  0  0  0
 21 46  1  0  0  0  0
 21 47  1  0  0  0  0
 22 23  1  0  0  0  0
 22 48  1  0  0  0  0
M  CHG  1  15   1
M  END
> <s_m_source_file>
AV-unprocessed.smi

> <i_m_source_file_index>
1225

> <i_lp_mmshare_version>
43012

> <i_f3d_flags>
0

> <s_epik_input>
W0NIM11jMW5bY0hdYyhzMSlbQ0gyXU4oW0NIM10pW0NIMl1bQ0BIXShbT0hdKVtDSDJdbihbY0hdbjIpYyhjMjMpW2NIXWMoW0NIM10pYyhbY0hdMylbQ0gzXQ==

> <s_epik_cmdline>
J2VwaWtfcHl0aG9uJywgJy1waCcsICc3LjAnLCAnLXRuJywgJzgnLCAnLW1hJywgJzIwMCcsICctbWV0YWxfYmluZGluZycsICctaW1hZScsICc8aW5maWxlLm1hZT4nLCAnLW9tYWUnLCAnPG91dGZpbGUubWFlPic=

> <r_epik_Ionization_Penalty>
1.25968

> <r_epik_Ionization_Penalty_Charging>
1.21782

> <r_epik_Ionization_Penalty_Neutral>
0.0418565

> <r_epik_State_Penalty>
1.29962

> <r_epik_Charging_Adjusted_Penalty>
2.51745

> <i_epik_Tot_Q>
1

> <i_epik_Tot_abs_Q>
1

> <r_epik_Metal_State_Penalty>
1.36802

> <b_epik_Metal_Only>
0

> <s_lp_Force_Field>
OPLS_2005

> <r_lp_Energy>
27.2567

> <b_lp_Chiralities_Consistent>
1

> <s_lp_Variant>
AV-unprocessed.smi:1225-4

> <Gold.Version>
5.8.1

> <Gold.Id.Protein>
6NUR|6NUR_protein|mol2

> <Gold.PLP.Fitness>
60.3448

> <Gold.PLP.PLP>
-50.7076

> <Gold.PLP.part.hbond>
-4.0000

> <Gold.PLP.part.metal>
0.0000

> <Gold.PLP.part.buried>
-3.0080

> <Gold.PLP.part.nonpolar>
-45.1419

> <Gold.PLP.part.repulsive>
0.1549

> <Gold.PLP.ligand.clash>
0.0000

> <Gold.PLP.ligand.torsion>
1.2096

> <Gold.PLP.Chemscore.Hbond>
2.9825

> <Gold.PLP.Chemscore.CHOScore>
0.9835

> <Gold.PLP.Chemscore.Metal>
0.0000

> <Gold.Chemscore.Hbonds>
donor molecule, donor type, donor heavy atom, donor atom, acceptor molecule, acceptor atom, score
      L1  H    11    37       P1 10175  1.00
      L1  H    15    49       P1  7948  2.00
      L1  C    14    40       P1 10175  0.72

> <Gold.PLP.Chemscore.Internal.Correction>
0.1587

> <Gold.Rescore>
     Score         DG    S(hbond)    S(metal)    S(lipo)     H(rot)  DE(clash)    DE(int)     intcor
     15.47     -18.25       1.99        0.00     104.18       2.36       1.62       1.15       ----

> <Gold.Chemscore.Fitness>
15.4694

> <Gold.Chemscore.DG>
-18.2457

> <Gold.Chemscore.ZeroCoef>
-5.4800

> <Gold.Chemscore.Hbond>
1.9852

> <Gold.Chemscore.Metal>
0.0000

> <Gold.Chemscore.Lipo>
104.1810

> <Gold.Chemscore.Internal_Hbond>
0.0000

> <Gold.Chemscore.DEClash>
1.6222

> <Gold.Chemscore.DEInternal>
1.1541

> <Gold.Chemscore.Rot>
2.3649

> <Gold.Chemscore.Internal.Correction>
   9.000000E+99

> <Gold.Chemscore.Hbonds>
donor molecule, donor type, donor heavy atom, donor atom, acceptor molecule, acceptor atom, score
      L1  H    11    37       P1 10175  0.72
      L1  H    15    49       P1  7948  0.93

> <Gold.Chemscore.Hbond.Weighted>
-6.6306

> <Gold.Chemscore.Metal.Weighted>
-0.0000

> <Gold.Chemscore.Lipo.Weighted>
-12.1892

> <Gold.Chemscore.Internal_Hbond.Weighted>
0.0000

> <Gold.Chemscore.DEClash.Weighted>
1.6222

> <Gold.Chemscore.DEInternal.Weighted>
1.1541

> <Gold.Chemscore.Rot.Weighted>
6.0540

> <Gold.Chemscore.Internal.Correction.Weighted>
   9.000000E+99

> <Gold.Protein.RotatedTorsions>
[ 6907 6896 6895 6894 ] final -104.59 input  -60.11 | X-H torsion
[ 7974 7965 7964 7962 ] final -113.62 input  175.53 | X-H torsion
[ 8008 7997 7996 7995 ] final -104.40 input   59.86 | X-H torsion
[ 10167 10162 10161 10158 ] final   62.31 input  -65.29 | X-H torsion
[ 10718 10713 10712 10709 ] final   61.36 input   66.30 | X-H torsion
[ 10763 10752 10751 10750 ] final   53.12 input  -60.55 | X-H torsion
[ 11005 11000 10999 10996 ] final  -76.09 input  -57.11 | X-H torsion

> <Gold.Protein.ActiveResidues>
 VAL166  LYS551  ARG553  GLY616  TRP617  ASP618  TYR619  PRO620  LYS621  CYS622 
 ASP623  PHE694  ASN695  SER759  ASP760  ASP761  ALA762  ILE779  LEU786  VAL792 
 PHE793  MET794  SER795  GLU796  ALA797  LYS798  CYS799  TRP800  GLU811  SER814 

> <Gold.Protein.RotatedAtoms>
  150.7294  134.0255  159.3715 H   0  0  0  0  0  0  0  0  0  0  0  0  # atno 6907 bound_to 6896
  151.8222  135.0646  160.0436 H   0  0  0  0  0  0  0  0  0  0  0  0  # atno 6908 bound_to 6896
  152.2995  133.5605  159.5646 H   0  0  0  0  0  0  0  0  0  0  0  0  # atno 6909 bound_to 6896
  145.1298  140.8718  143.3764 H   0  0  0  0  0  0  0  0  0  0  0  0  # atno 7974 bound_to 7965
  154.8848  140.0418  157.1804 H   0  0  0  0  0  0  0  0  0  0  0  0  # atno 8008 bound_to 7997
  154.8601  140.2942  155.5523 H   0  0  0  0  0  0  0  0  0  0  0  0  # atno 8009 bound_to 7997
  156.2998  140.2448  156.3574 H   0  0  0  0  0  0  0  0  0  0  0  0  # atno 8010 bound_to 7997
  140.1453  144.4515  150.6789 H   0  0  0  0  0  0  0  0  0  0  0  0  # atno 10167 bound_to 10162
  157.5822  130.8990  149.9452 H   0  0  0  0  0  0  0  0  0  0  0  0  # atno 10718 bound_to 10713
  152.9793  135.5789  154.4689 H   0  0  0  0  0  0  0  0  0  0  0  0  # atno 10763 bound_to 10752
  154.4255  135.2772  155.1949 H   0  0  0  0  0  0  0  0  0  0  0  0  # atno 10764 bound_to 10752
  154.3680  135.6174  153.5779 H   0  0  0  0  0  0  0  0  0  0  0  0  # atno 10765 bound_to 10752
  141.1651  133.6970  156.7616 H   0  0  0  0  0  0  0  0  0  0  0  0  # atno 11005 bound_to 11000
  145.0647  139.3077  143.5862 LP  0  0  0  0  0  0  0  0  0  0  0  0  # atno 17320 bound_to 7965
  146.3515  140.0102  142.8668 LP  0  0  0  0  0  0  0  0  0  0  0  0  # atno 17321 bound_to 7965
  140.6736  143.2295  151.5564 LP  0  0  0  0  0  0  0  0  0  0  0  0  # atno 17342 bound_to 10162
  139.5452  144.2540  152.1428 LP  0  0  0  0  0  0  0  0  0  0  0  0  # atno 17343 bound_to 10162
  156.0869  130.3667  150.0470 LP  0  0  0  0  0  0  0  0  0  0  0  0  # atno 17370 bound_to 10713
  156.8608  130.9491  151.3618 LP  0  0  0  0  0  0  0  0  0  0  0  0  # atno 17371 bound_to 10713
  140.2530  134.8526  157.3685 LP  0  0  0  0  0  0  0  0  0  0  0  0  # atno 17394 bound_to 11000
  140.1684  134.4639  155.7847 LP  0  0  0  0  0  0  0  0  0  0  0  0  # atno 17395 bound_to 11000

$$$$
