AV-unprocessed.smi:1784|AV-procd|sdf|7199|dock1
  -GOLD-   22720 8443D 1   1.00000     0.00000
 Structure written by MMmdl.
 44 46  0  0  0  0  0  0  0  0  2 V2000
  151.1538  135.1224  155.6117 O   0  0  0  0  0  0  0  0  0  0  0  0
  150.3948  135.4775  154.7101 C   0  0  0  0  0  0  0  0  0  0  0  0
  150.3668  136.7190  154.2062 N   0  0  0  0  0  0  0  0  0  0  0  0
  151.2464  137.8085  154.6149 C   0  0  0  0  0  0  0  0  0  0  0  0
  150.5454  139.1715  154.4895 C   0  0  1  0  0  0  0  0  0  0  0  0
  149.2201  139.2506  155.2466 C   0  0  0  0  0  0  0  0  0  0  0  0
  149.0989  140.7358  155.4992 C   0  0  0  0  0  0  0  0  0  0  0  0
  150.5452  141.1127  155.8020 C   0  0  0  0  0  0  0  0  0  0  0  0
  151.3478  140.2150  155.0402 O   0  0  0  0  0  0  0  0  0  0  0  0
  149.5096  134.6804  154.0891 N   0  0  0  0  0  0  0  0  0  0  0  0
  149.2908  133.2898  154.2996 C   0  0  0  0  0  0  0  0  0  0  0  0
  150.2062  132.5090  155.0512 C   0  0  0  0  0  0  0  0  0  0  0  0
  149.9773  131.1313  155.2258 C   0  0  0  0  0  0  0  0  0  0  0  0
  148.8333  130.5541  154.6491 C   0  0  0  0  0  0  0  0  0  0  0  0
  147.9709  131.3270  153.9569 N   0  3  0  0  0  0  0  0  0  0  0  0
  148.1276  132.6612  153.7672 C   0  0  0  0  0  0  0  0  0  0  0  0
  147.1325  133.3434  153.0303 N   0  0  0  0  0  0  0  0  0  0  0  0
  147.0911  133.2450  151.5758 C   0  0  0  0  0  0  0  0  0  0  0  0
  145.7229  133.7942  151.1814 C   0  0  0  0  0  0  0  0  0  0  0  0
  144.8399  133.3323  152.3367 C   0  0  0  0  0  0  0  0  0  0  0  0
  145.7707  133.3934  153.5524 C   0  0  0  0  0  0  0  0  0  0  0  0
  149.7096  136.9209  153.4672 H   0  0  0  0  0  0  0  0  0  0  0  0
  151.5239  137.6356  155.6550 H   0  0  0  0  0  0  0  0  0  0  0  0
  152.1758  137.7979  154.0426 H   0  0  0  0  0  0  0  0  0  0  0  0
  150.3664  139.4080  153.4393 H   0  0  0  0  0  0  0  0  0  0  0  0
  148.3818  138.8425  154.6814 H   0  0  0  0  0  0  0  0  0  0  0  0
  149.2849  138.7172  156.1962 H   0  0  0  0  0  0  0  0  0  0  0  0
  148.7573  141.2437  154.5964 H   0  0  0  0  0  0  0  0  0  0  0  0
  148.4143  140.9806  156.3116 H   0  0  0  0  0  0  0  0  0  0  0  0
  150.7652  142.1519  155.5569 H   0  0  0  0  0  0  0  0  0  0  0  0
  150.7650  140.9597  156.8592 H   0  0  0  0  0  0  0  0  0  0  0  0
  149.0263  135.0849  153.3009 H   0  0  0  0  0  0  0  0  0  0  0  0
  151.0826  132.9491  155.5024 H   0  0  0  0  0  0  0  0  0  0  0  0
  150.6715  130.5275  155.7919 H   0  0  0  0  0  0  0  0  0  0  0  0
  148.5779  129.5071  154.7265 H   0  0  0  0  0  0  0  0  0  0  0  0
  147.9020  133.8090  151.1140 H   0  0  0  0  0  0  0  0  0  0  0  0
  147.1715  132.2039  151.2604 H   0  0  0  0  0  0  0  0  0  0  0  0
  145.7526  134.8845  151.1478 H   0  0  0  0  0  0  0  0  0  0  0  0
  145.3829  133.4332  150.2102 H   0  0  0  0  0  0  0  0  0  0  0  0
  143.9434  133.9407  152.4583 H   0  0  0  0  0  0  0  0  0  0  0  0
  144.5258  132.3016  152.1668 H   0  0  0  0  0  0  0  0  0  0  0  0
  145.5663  132.5796  154.2496 H   0  0  0  0  0  0  0  0  0  0  0  0
  145.6318  134.3377  154.0792 H   0  0  0  0  0  0  0  0  0  0  0  0
  147.1450  130.8804  153.5585 H   0  0  0  0  0  0  0  0  0  0  0  0
  1  2  2  0  0  0  0
  2  3  1  0  0  0  0
  2 10  1  0  0  0  0
  3  4  1  0  0  0  0
  3 22  1  0  0  0  0
  4  5  1  0  0  0  0
  4 23  1  0  0  0  0
  4 24  1  0  0  0  0
  5  9  1  0  0  0  0
  5  6  1  0  0  0  0
  5 25  1  0  0  0  0
  6  7  1  0  0  0  0
  6 26  1  0  0  0  0
  6 27  1  0  0  0  0
  7  8  1  0  0  0  0
  7 28  1  0  0  0  0
  7 29  1  0  0  0  0
  8  9  1  0  0  0  0
  8 30  1  0  0  0  0
  8 31  1  0  0  0  0
 10 11  1  0  0  0  0
 10 32  1  0  0  0  0
 11 16  1  0  0  0  0
 11 12  2  0  0  0  0
 12 13  1  0  0  0  0
 12 33  1  0  0  0  0
 13 14  2  0  0  0  0
 13 34  1  0  0  0  0
 14 15  1  0  0  0  0
 14 35  1  0  0  0  0
 15 16  2  0  0  0  0
 15 44  1  0  0  0  0
 16 17  1  0  0  0  0
 17 21  1  0  0  0  0
 17 18  1  0  0  0  0
 18 19  1  0  0  0  0
 18 36  1  0  0  0  0
 18 37  1  0  0  0  0
 19 20  1  0  0  0  0
 19 38  1  0  0  0  0
 19 39  1  0  0  0  0
 20 21  1  0  0  0  0
 20 40  1  0  0  0  0
 20 41  1  0  0  0  0
 21 42  1  0  0  0  0
 21 43  1  0  0  0  0
M  CHG  1  15   1
M  END
> <s_m_source_file>
AV-unprocessed.smi

> <i_m_source_file_index>
1784

> <i_lp_mmshare_version>
43012

> <i_f3d_flags>
0

> <s_epik_input>
TzFbQ0gyXVtDSDJdW0NIMl1bQ0BIXTFbQ0gyXVtOSF1DKD1PKVtOSF1jMltjSF1bY0hdW2NIXW5jMk4zW0NIMl1bQ0gyXVtDSDJdW0NIMl0z

> <s_epik_cmdline>
J2VwaWtfcHl0aG9uJywgJy1waCcsICc3LjAnLCAnLXRuJywgJzgnLCAnLW1hJywgJzIwMCcsICctbWV0YWxfYmluZGluZycsICctaW1hZScsICc8aW5maWxlLm1hZT4nLCAnLW9tYWUnLCAnPG91dGZpbGUubWFlPic=

> <r_lp_tautomer_probability>
0.999994

> <r_epik_Ionization_Penalty>
1.11624

> <r_epik_Ionization_Penalty_Charging>
1.11622

> <r_epik_Ionization_Penalty_Neutral>
1.90191e-05

> <r_epik_State_Penalty>
1.17466

> <r_epik_Charging_Adjusted_Penalty>
2.29088

> <i_epik_Tot_Q>
1

> <i_epik_Tot_abs_Q>
1

> <r_epik_Metal_State_Penalty>
1.25978

> <b_epik_Metal_Only>
0

> <s_lp_Force_Field>
OPLS_2005

> <r_lp_Energy>
50.8632

> <b_lp_Chiralities_Consistent>
1

> <s_lp_Variant>
AV-unprocessed.smi:1784-4

> <Gold.Version>
5.8.1

> <Gold.Id.Protein>
6NUR|6NUR_protein|mol2

> <Gold.PLP.Fitness>
44.6537

> <Gold.PLP.PLP>
-34.7076

> <Gold.PLP.part.hbond>
-5.1065

> <Gold.PLP.part.metal>
0.0000

> <Gold.PLP.part.buried>
-0.8453

> <Gold.PLP.part.nonpolar>
-28.0648

> <Gold.PLP.part.repulsive>
0.3426

> <Gold.PLP.ligand.clash>
0.0000

> <Gold.PLP.ligand.torsion>
0.4962

> <Gold.PLP.Chemscore.Hbond>
3.5133

> <Gold.PLP.Chemscore.CHOScore>
0.0000

> <Gold.PLP.Chemscore.Metal>
0.0000

> <Gold.Chemscore.Hbonds>
donor molecule, donor type, donor heavy atom, donor atom, acceptor molecule, acceptor atom, score
      L1  H     3    22       P1  7948  0.85
      L1  H    10    32       P1  7948  1.00
      P1  H  7989  7998       L1     9  0.60
      P1  H 10752 10765       L1     1  0.95

> <Gold.PLP.Chemscore.Internal.Correction>
0.3985

> <Gold.Rescore>
     Score         DG    S(hbond)    S(metal)    S(lipo)     H(rot)  DE(clash)    DE(int)     intcor
     15.51     -17.68       2.24        0.00      71.03       1.40       0.36       1.81       ----

> <Gold.Chemscore.Fitness>
15.5119

> <Gold.Chemscore.DG>
-17.6785

> <Gold.Chemscore.ZeroCoef>
-5.4800

> <Gold.Chemscore.Hbond>
2.2388

> <Gold.Chemscore.Metal>
0.0000

> <Gold.Chemscore.Lipo>
71.0320

> <Gold.Chemscore.Internal_Hbond>
0.0000

> <Gold.Chemscore.DEClash>
0.3574

> <Gold.Chemscore.DEInternal>
1.8091

> <Gold.Chemscore.Rot>
1.4023

> <Gold.Chemscore.Internal.Correction>
   9.000000E+99

> <Gold.Chemscore.Hbonds>
donor molecule, donor type, donor heavy atom, donor atom, acceptor molecule, acceptor atom, score
      L1  H     3    22       P1  7948  0.51
      L1  H    10    32       P1  7948  0.24
      P1  H  7989  7998       L1     9  0.03
      P1  H 10752 10765       L1     1  0.30

> <Gold.Chemscore.Hbond.Weighted>
-7.4776

> <Gold.Chemscore.Metal.Weighted>
-0.0000

> <Gold.Chemscore.Lipo.Weighted>
-8.3107

> <Gold.Chemscore.Internal_Hbond.Weighted>
0.0000

> <Gold.Chemscore.DEClash.Weighted>
0.3574

> <Gold.Chemscore.DEInternal.Weighted>
1.8091

> <Gold.Chemscore.Rot.Weighted>
3.5898

> <Gold.Chemscore.Internal.Correction.Weighted>
   9.000000E+99

> <Gold.Protein.RotatedTorsions>
[ 6907 6896 6895 6894 ] final  -21.68 input  -60.11 | X-H torsion
[ 7974 7965 7964 7962 ] final -165.36 input  175.53 | X-H torsion
[ 8008 7997 7996 7995 ] final   -9.98 input   59.86 | X-H torsion
[ 10167 10162 10161 10158 ] final   94.87 input  -65.29 | X-H torsion
[ 10718 10713 10712 10709 ] final  137.36 input   66.30 | X-H torsion
[ 10763 10752 10751 10750 ] final -166.98 input  -60.55 | X-H torsion
[ 11005 11000 10999 10996 ] final   46.73 input  -57.11 | X-H torsion

> <Gold.Protein.ActiveResidues>
 VAL166  LYS551  ARG553  GLY616  TRP617  ASP618  TYR619  PRO620  LYS621  CYS622 
 ASP623  PHE694  ASN695  SER759  ASP760  ASP761  ALA762  ILE779  LEU786  VAL792 
 PHE793  MET794  SER795  GLU796  ALA797  LYS798  CYS799  TRP800  GLU811  SER814 

> <Gold.Protein.RotatedAtoms>
  151.2298  135.0550  159.8982 H   0  0  0  0  0  0  0  0  0  0  0  0  # atno 6907 bound_to 6896
  152.5406  134.0549  159.8136 H   0  0  0  0  0  0  0  0  0  0  0  0  # atno 6908 bound_to 6896
  151.0727  133.5404  159.2657 H   0  0  0  0  0  0  0  0  0  0  0  0  # atno 6909 bound_to 6896
  144.7272  140.2825  143.6233 H   0  0  0  0  0  0  0  0  0  0  0  0  # atno 7974 bound_to 7965
  154.5596  140.2341  155.8356 H   0  0  0  0  0  0  0  0  0  0  0  0  # atno 8008 bound_to 7997
  156.2018  140.3050  155.9502 H   0  0  0  0  0  0  0  0  0  0  0  0  # atno 8009 bound_to 7997
  155.2914  140.0427  157.3014 H   0  0  0  0  0  0  0  0  0  0  0  0  # atno 8010 bound_to 7997
  139.8042  144.6801  150.9724 H   0  0  0  0  0  0  0  0  0  0  0  0  # atno 10167 bound_to 10162
  157.4369  131.1054  151.0188 H   0  0  0  0  0  0  0  0  0  0  0  0  # atno 10718 bound_to 10713
  154.6778  135.2949  154.9654 H   0  0  0  0  0  0  0  0  0  0  0  0  # atno 10763 bound_to 10752
  154.0659  135.6625  153.4822 H   0  0  0  0  0  0  0  0  0  0  0  0  # atno 10764 bound_to 10752
  153.0528  135.5163  154.7806 H   0  0  0  0  0  0  0  0  0  0  0  0  # atno 10765 bound_to 10752
  140.1343  134.4665  155.8497 H   0  0  0  0  0  0  0  0  0  0  0  0  # atno 11005 bound_to 11000
  145.7935  139.1936  143.2089 LP  0  0  0  0  0  0  0  0  0  0  0  0  # atno 17320 bound_to 7965
  146.0736  140.7842  142.9676 LP  0  0  0  0  0  0  0  0  0  0  0  0  # atno 17321 bound_to 7965
  140.7819  143.4250  151.0782 LP  0  0  0  0  0  0  0  0  0  0  0  0  # atno 17342 bound_to 10162
  139.7920  143.8204  152.3153 LP  0  0  0  0  0  0  0  0  0  0  0  0  # atno 17343 bound_to 10162
  157.1065  130.6003  149.5472 LP  0  0  0  0  0  0  0  0  0  0  0  0  # atno 17370 bound_to 10713
  155.9934  130.4994  150.7377 LP  0  0  0  0  0  0  0  0  0  0  0  0  # atno 17371 bound_to 10713
  141.2175  133.6808  156.7127 LP  0  0  0  0  0  0  0  0  0  0  0  0  # atno 17394 bound_to 11000
  140.2803  134.8322  157.3927 LP  0  0  0  0  0  0  0  0  0  0  0  0  # atno 17395 bound_to 11000

$$$$
