AV-unprocessed.smi:2355|AV-procd|sdf|9389|dock3
  -GOLD-   2272013 23D 1   1.00000     0.00000
 Structure written by MMmdl.
 49 50  0  0  0  0  0  0  0  0  2 V2000
  153.7584  141.2083  159.9677 C   0  0  0  0  0  0  0  0  0  0  0  0
  152.8470  142.3168  159.4852 C   0  0  0  0  0  0  0  0  0  0  0  0
  152.8473  143.5761  160.1150 C   0  0  0  0  0  0  0  0  0  0  0  0
  151.9807  144.5686  159.6171 C   0  0  0  0  0  0  0  0  0  0  0  0
  151.9295  145.9449  160.2462 C   0  0  0  0  0  0  0  0  0  0  0  0
  151.1568  144.3673  158.5665 N   0  0  0  0  0  0  0  0  0  0  0  0
  151.1465  143.1576  157.9534 C   0  0  0  0  0  0  0  0  0  0  0  0
  150.3195  142.8469  156.8413 N   0  0  0  0  0  0  0  0  0  0  0  0
  149.9071  141.6350  156.4312 C   0  0  0  0  0  0  0  0  0  0  0  0
  150.2255  140.5628  156.9466 O   0  0  0  0  0  0  0  0  0  0  0  0
  149.0748  141.7292  155.3827 N   0  0  0  0  0  0  0  0  0  0  0  0
  148.4260  140.6068  154.7007 C   0  0  2  0  0  0  0  0  0  0  0  0
  149.4998  139.7160  154.0541 C   0  0  0  0  0  0  0  0  0  0  0  0
  147.3303  141.0860  153.7000 C   0  0  2  0  0  0  0  0  0  0  0  0
  146.5995  142.3493  154.2196 C   0  0  0  0  0  0  0  0  0  0  0  0
  146.4100  139.9525  153.3542 N   0  3  0  0  0  0  0  0  0  0  0  0
  146.9159  138.9407  152.3885 C   0  0  0  0  0  0  0  0  0  0  0  0
  145.8188  137.9126  152.0615 C   0  0  0  0  0  0  0  0  0  0  0  0
  145.3605  137.2964  153.2569 O   0  0  0  0  0  0  0  0  0  0  0  0
  144.7909  138.2428  154.1504 C   0  0  0  0  0  0  0  0  0  0  0  0
  145.8609  139.2696  154.5545 C   0  0  0  0  0  0  0  0  0  0  0  0
  151.9846  142.1074  158.3900 C   0  0  0  0  0  0  0  0  0  0  0  0
  154.1325  141.4152  160.9708 H   0  0  0  0  0  0  0  0  0  0  0  0
  154.6120  141.1054  159.2976 H   0  0  0  0  0  0  0  0  0  0  0  0
  153.2245  140.2579  159.9943 H   0  0  0  0  0  0  0  0  0  0  0  0
  153.4946  143.7757  160.9567 H   0  0  0  0  0  0  0  0  0  0  0  0
  152.5110  145.9797  161.1679 H   0  0  0  0  0  0  0  0  0  0  0  0
  150.9009  146.2176  160.4840 H   0  0  0  0  0  0  0  0  0  0  0  0
  152.3328  146.6894  159.5591 H   0  0  0  0  0  0  0  0  0  0  0  0
  149.9886  143.6400  156.3119 H   0  0  0  0  0  0  0  0  0  0  0  0
  148.8709  142.6513  155.0250 H   0  0  0  0  0  0  0  0  0  0  0  0
  147.9579  139.9770  155.4573 H   0  0  0  0  0  0  0  0  0  0  0  0
  149.0477  138.8832  153.5150 H   0  0  0  0  0  0  0  0  0  0  0  0
  150.1589  139.2927  154.8131 H   0  0  0  0  0  0  0  0  0  0  0  0
  150.1283  140.2676  153.3554 H   0  0  0  0  0  0  0  0  0  0  0  0
  147.8262  141.3869  152.7756 H   0  0  0  0  0  0  0  0  0  0  0  0
  147.2988  143.1545  154.4403 H   0  0  0  0  0  0  0  0  0  0  0  0
  146.0351  142.1487  155.1306 H   0  0  0  0  0  0  0  0  0  0  0  0
  145.9121  142.7543  153.4771 H   0  0  0  0  0  0  0  0  0  0  0  0
  147.2150  139.4110  151.4523 H   0  0  0  0  0  0  0  0  0  0  0  0
  147.7917  138.4390  152.8027 H   0  0  0  0  0  0  0  0  0  0  0  0
  144.9851  138.3877  151.5413 H   0  0  0  0  0  0  0  0  0  0  0  0
  146.2113  137.1436  151.3957 H   0  0  0  0  0  0  0  0  0  0  0  0
  143.9324  138.7331  153.6882 H   0  0  0  0  0  0  0  0  0  0  0  0
  144.4221  137.7182  155.0320 H   0  0  0  0  0  0  0  0  0  0  0  0
  146.6684  138.7718  155.0936 H   0  0  0  0  0  0  0  0  0  0  0  0
  145.4185  139.9886  155.2424 H   0  0  0  0  0  0  0  0  0  0  0  0
  151.9694  141.1490  157.8907 H   0  0  0  0  0  0  0  0  0  0  0  0
  145.6213  140.3844  152.8926 H   0  0  0  0  0  0  0  0  0  0  0  0
  1  2  1  0  0  0  0
  1 23  1  0  0  0  0
  1 24  1  0  0  0  0
  1 25  1  0  0  0  0
  2 22  1  0  0  0  0
  2  3  2  0  0  0  0
  3  4  1  0  0  0  0
  3 26  1  0  0  0  0
  4  5  1  0  0  0  0
  4  6  2  0  0  0  0
  5 27  1  0  0  0  0
  5 28  1  0  0  0  0
  5 29  1  0  0  0  0
  6  7  1  0  0  0  0
  7  8  1  0  0  0  0
  7 22  2  0  0  0  0
  8  9  1  0  0  0  0
  8 30  1  0  0  0  0
  9 10  2  0  0  0  0
  9 11  1  0  0  0  0
 11 12  1  0  0  0  0
 11 31  1  0  0  0  0
 12 13  1  0  0  0  0
 12 14  1  0  0  0  0
 12 32  1  0  0  0  0
 13 33  1  0  0  0  0
 13 34  1  0  0  0  0
 13 35  1  0  0  0  0
 14 15  1  0  0  0  0
 14 16  1  0  0  0  0
 14 36  1  0  0  0  0
 15 37  1  0  0  0  0
 15 38  1  0  0  0  0
 15 39  1  0  0  0  0
 16 21  1  0  0  0  0
 16 17  1  0  0  0  0
 16 49  1  0  0  0  0
 17 18  1  0  0  0  0
 17 40  1  0  0  0  0
 17 41  1  0  0  0  0
 18 19  1  0  0  0  0
 18 42  1  0  0  0  0
 18 43  1  0  0  0  0
 19 20  1  0  0  0  0
 20 21  1  0  0  0  0
 20 44  1  0  0  0  0
 20 45  1  0  0  0  0
 21 46  1  0  0  0  0
 21 47  1  0  0  0  0
 22 48  1  0  0  0  0
M  CHG  1  16   1
M  END
> <s_m_source_file>
AV-unprocessed.smi

> <i_m_source_file_index>
2355

> <i_lp_mmshare_version>
43012

> <i_f3d_flags>
0

> <s_epik_input>
W0NIM11jMVtjSF1jKFtDSDNdKW5jKFtjSF0xKVtOSF1DKD1PKVtOSF1bQ0BIXShbQ0gzXSlbQ0BIXShbQ0gzXSlOMltDSDJdW0NIMl1PW0NIMl1bQ0gyXTI=

> <s_epik_cmdline>
J2VwaWtfcHl0aG9uJywgJy1waCcsICc3LjAnLCAnLXRuJywgJzgnLCAnLW1hJywgJzIwMCcsICctbWV0YWxfYmluZGluZycsICctaW1hZScsICc8aW5maWxlLm1hZT4nLCAnLW9tYWUnLCAnPG91dGZpbGUubWFlPic=

> <r_epik_Ionization_Penalty>
0.602711

> <r_epik_Ionization_Penalty_Charging>
0.602531

> <r_epik_Ionization_Penalty_Neutral>
0.000180055

> <r_epik_State_Penalty>
0.617039

> <r_epik_Charging_Adjusted_Penalty>
1.21957

> <i_epik_Tot_Q>
1

> <i_epik_Tot_abs_Q>
1

> <r_epik_Metal_State_Penalty>
0.617075

> <b_epik_Metal_Only>
0

> <s_lp_Force_Field>
OPLS_2005

> <r_lp_Energy>
30.3544

> <b_lp_Chiralities_Consistent>
1

> <s_lp_Variant>
AV-unprocessed.smi:2355-5

> <Gold.Version>
5.8.1

> <Gold.Id.Protein>
6NUR|6NUR_protein|mol2

> <Gold.PLP.Fitness>
52.2386

> <Gold.PLP.PLP>
-42.8333

> <Gold.PLP.part.hbond>
-3.0000

> <Gold.PLP.part.metal>
0.0000

> <Gold.PLP.part.buried>
0.1106

> <Gold.PLP.part.nonpolar>
-41.3464

> <Gold.PLP.part.repulsive>
0.5113

> <Gold.PLP.ligand.clash>
0.0000

> <Gold.PLP.ligand.torsion>
0.7969

> <Gold.PLP.Chemscore.Hbond>
3.6063

> <Gold.PLP.Chemscore.CHOScore>
0.0000

> <Gold.PLP.Chemscore.Metal>
0.0000

> <Gold.Chemscore.Hbonds>
donor molecule, donor type, donor heavy atom, donor atom, acceptor molecule, acceptor atom, score
      L1  H     8    30       P1  8028  1.00
      L1  H    11    31       P1  8028  0.57
      L1  H    16    49       P1 10175  2.00

> <Gold.PLP.Chemscore.Internal.Correction>
0.1801

> <Gold.Rescore>
     Score         DG    S(hbond)    S(metal)    S(lipo)     H(rot)  DE(clash)    DE(int)     intcor
     21.22     -24.07       2.78        0.00     111.25       1.45       0.51       2.33       ----

> <Gold.Chemscore.Fitness>
21.2217

> <Gold.Chemscore.DG>
-24.0682

> <Gold.Chemscore.ZeroCoef>
-5.4800

> <Gold.Chemscore.Hbond>
2.7767

> <Gold.Chemscore.Metal>
0.0000

> <Gold.Chemscore.Lipo>
111.2514

> <Gold.Chemscore.Internal_Hbond>
0.0000

> <Gold.Chemscore.DEClash>
0.5139

> <Gold.Chemscore.DEInternal>
2.3326

> <Gold.Chemscore.Rot>
1.4462

> <Gold.Chemscore.Internal.Correction>
   9.000000E+99

> <Gold.Chemscore.Hbonds>
donor molecule, donor type, donor heavy atom, donor atom, acceptor molecule, acceptor atom, score
      L1  H     8    30       P1  8028  0.99
      L1  H    11    31       P1  8028  0.56
      L1  H    16    49       P1 10175  0.83

> <Gold.Chemscore.Hbond.Weighted>
-9.2740

> <Gold.Chemscore.Metal.Weighted>
-0.0000

> <Gold.Chemscore.Lipo.Weighted>
-13.0164

> <Gold.Chemscore.Internal_Hbond.Weighted>
0.0000

> <Gold.Chemscore.DEClash.Weighted>
0.5139

> <Gold.Chemscore.DEInternal.Weighted>
2.3326

> <Gold.Chemscore.Rot.Weighted>
3.7023

> <Gold.Chemscore.Internal.Correction.Weighted>
   9.000000E+99

> <Gold.Protein.RotatedTorsions>
[ 6907 6896 6895 6894 ] final  -22.02 input  -60.11 | X-H torsion
[ 7974 7965 7964 7962 ] final  -78.99 input  175.53 | X-H torsion
[ 8008 7997 7996 7995 ] final -133.18 input   59.86 | X-H torsion
[ 10167 10162 10161 10158 ] final   91.13 input  -65.29 | X-H torsion
[ 10718 10713 10712 10709 ] final  -97.16 input   66.30 | X-H torsion
[ 10763 10752 10751 10750 ] final  -75.27 input  -60.55 | X-H torsion
[ 11005 11000 10999 10996 ] final  -72.83 input  -57.11 | X-H torsion

> <Gold.Protein.ActiveResidues>
 VAL166  LYS551  ARG553  GLY616  TRP617  ASP618  TYR619  PRO620  LYS621  CYS622 
 ASP623  PHE694  ASN695  SER759  ASP760  ASP761  ALA762  ILE779  LEU786  VAL792 
 PHE793  MET794  SER795  GLU796  ALA797  LYS798  CYS799  TRP800  GLU811  SER814 

> <Gold.Protein.RotatedAtoms>
  151.2248  135.0532  159.8963 H   0  0  0  0  0  0  0  0  0  0  0  0  # atno 6907 bound_to 6896
  152.5411  134.0601  159.8158 H   0  0  0  0  0  0  0  0  0  0  0  0  # atno 6908 bound_to 6896
  151.0773  133.5370  159.2654 H   0  0  0  0  0  0  0  0  0  0  0  0  # atno 6909 bound_to 6896
  145.5791  140.9452  143.1353 H   0  0  0  0  0  0  0  0  0  0  0  0  # atno 7974 bound_to 7965
  155.3412  140.0472  157.3045 H   0  0  0  0  0  0  0  0  0  0  0  0  # atno 8008 bound_to 7997
  154.5276  140.2246  155.8826 H   0  0  0  0  0  0  0  0  0  0  0  0  # atno 8009 bound_to 7997
  156.1756  140.3086  155.9059 H   0  0  0  0  0  0  0  0  0  0  0  0  # atno 8010 bound_to 7997
  139.8405  144.6643  150.9289 H   0  0  0  0  0  0  0  0  0  0  0  0  # atno 10167 bound_to 10162
  156.0077  130.5182  150.6333 H   0  0  0  0  0  0  0  0  0  0  0  0  # atno 10718 bound_to 10713
  154.4843  135.5837  153.6412 H   0  0  0  0  0  0  0  0  0  0  0  0  # atno 10763 bound_to 10752
  152.9852  135.6097  154.3206 H   0  0  0  0  0  0  0  0  0  0  0  0  # atno 10764 bound_to 10752
  154.3100  135.2845  155.2550 H   0  0  0  0  0  0  0  0  0  0  0  0  # atno 10765 bound_to 10752
  141.1614  133.6859  156.7118 H   0  0  0  0  0  0  0  0  0  0  0  0  # atno 11005 bound_to 11000
  144.7402  139.7471  143.7314 LP  0  0  0  0  0  0  0  0  0  0  0  0  # atno 17320 bound_to 7965
  146.1729  139.4887  142.9916 LP  0  0  0  0  0  0  0  0  0  0  0  0  # atno 17321 bound_to 7965
  140.7798  143.3917  151.1299 LP  0  0  0  0  0  0  0  0  0  0  0  0  # atno 17342 bound_to 10162
  139.7564  143.8702  152.3089 LP  0  0  0  0  0  0  0  0  0  0  0  0  # atno 17343 bound_to 10162
  157.4127  131.0826  151.1206 LP  0  0  0  0  0  0  0  0  0  0  0  0  # atno 17370 bound_to 10713
  157.1832  130.6319  149.5679 LP  0  0  0  0  0  0  0  0  0  0  0  0  # atno 17371 bound_to 10713
  140.2881  134.8263  157.3993 LP  0  0  0  0  0  0  0  0  0  0  0  0  # atno 17394 bound_to 11000
  140.1372  134.5019  155.8059 LP  0  0  0  0  0  0  0  0  0  0  0  0  # atno 17395 bound_to 11000

$$$$
