AV-unprocessed.smi:57|AV-procd|sdf|581|dock1
  -GOLD-   2262016483D 1   1.00000     0.00000
 Structure written by MMmdl.
 27 28  0  0  0  0  0  0  0  0  1 V2000
  148.0216  139.5569  153.2738 N   0  0  0  0  0  0  0  0  0  0  0  0
  149.0604  139.4303  154.1099 C   0  0  0  0  0  0  0  0  0  0  0  0
  149.8913  138.3287  153.9175 N   0  0  0  0  0  0  0  0  0  0  0  0
  151.0190  138.0474  154.7000 C   0  0  0  0  0  0  0  0  0  0  0  0
  151.6934  137.0493  154.4552 O   0  0  0  0  0  0  0  0  0  0  0  0
  151.2231  139.0294  155.7273 C   0  0  0  0  0  0  0  0  0  0  0  0
  152.2153  139.1208  156.7000 N   0  0  0  0  0  0  0  0  0  0  0  0
  151.9209  140.2090  157.3563 C   0  0  0  0  0  0  0  0  0  0  0  0
  150.7978  140.8494  156.8952 N   0  0  0  0  0  0  0  0  0  0  0  0
  150.1845  142.0730  157.3716 C   0  0  0  0  0  0  0  0  0  0  0  0
  151.0087  142.5932  158.3607 O   0  0  0  0  0  0  0  0  0  0  0  0
  150.5591  143.8376  158.8698 C   0  0  0  0  0  0  0  0  0  0  0  0
  151.6725  144.4410  159.7314 C   0  0  0  0  0  0  0  0  0  0  0  0
  151.1831  145.5621  160.4344 O   0  0  0  0  0  0  0  0  0  0  0  0
  150.3442  140.0887  155.8404 C   0  0  0  0  0  0  0  0  0  0  0  0
  149.2485  140.3327  155.0566 N   0  0  0  0  0  0  0  0  0  0  0  0
  147.8670  138.8755  152.5450 H   0  0  0  0  0  0  0  0  0  0  0  0
  147.3917  140.3401  153.3742 H   0  0  0  0  0  0  0  0  0  0  0  0
  149.6823  137.6828  153.1703 H   0  0  0  0  0  0  0  0  0  0  0  0
  152.5118  140.5705  158.1852 H   0  0  0  0  0  0  0  0  0  0  0  0
  149.1965  141.8478  157.7763 H   0  0  0  0  0  0  0  0  0  0  0  0
  150.0835  142.7603  156.5294 H   0  0  0  0  0  0  0  0  0  0  0  0
  150.3134  144.5133  158.0485 H   0  0  0  0  0  0  0  0  0  0  0  0
  149.6553  143.6939  159.4646 H   0  0  0  0  0  0  0  0  0  0  0  0
  152.0454  143.7064  160.4456 H   0  0  0  0  0  0  0  0  0  0  0  0
  152.5130  144.7483  159.1084 H   0  0  0  0  0  0  0  0  0  0  0  0
  151.8498  146.2321  160.4308 H   0  0  0  0  0  0  0  0  0  0  0  0
  1  2  1  0  0  0  0
  1 18  1  0  0  0  0
  1 17  1  0  0  0  0
  2 16  2  0  0  0  0
  2  3  1  0  0  0  0
  3 19  1  0  0  0  0
  3  4  1  0  0  0  0
  4  5  2  0  0  0  0
  4  6  1  0  0  0  0
  6 15  2  0  0  0  0
  6  7  1  0  0  0  0
  7  8  2  0  0  0  0
  8 20  1  0  0  0  0
  8  9  1  0  0  0  0
  9 10  1  0  0  0  0
  9 15  1  0  0  0  0
 10 11  1  0  0  0  0
 10 21  1  0  0  0  0
 10 22  1  0  0  0  0
 11 12  1  0  0  0  0
 12 13  1  0  0  0  0
 12 23  1  0  0  0  0
 12 24  1  0  0  0  0
 13 14  1  0  0  0  0
 13 25  1  0  0  0  0
 13 26  1  0  0  0  0
 14 27  1  0  0  0  0
 15 16  1  0  0  0  0
M  END
> <s_m_source_file>
AV-unprocessed.smi

> <i_m_source_file_index>
57

> <i_lp_mmshare_version>
43012

> <i_f3d_flags>
0

> <s_epik_input>
Tz1jMW5jKFtOSDJdKVtuSF1jKGMxMiluKFtjSF1uMilbQ0gyXU9bQ0gyXVtDSDJdW09IXQ==

> <s_epik_cmdline>
J2VwaWtfcHl0aG9uJywgJy1waCcsICc3LjAnLCAnLXRuJywgJzgnLCAnLW1hJywgJzIwMCcsICctbWV0YWxfYmluZGluZycsICctaW1hZScsICc8aW5maWxlLm1hZT4nLCAnLW9tYWUnLCAnPG91dGZpbGUubWFlPic=

> <r_lp_tautomer_probability>
1

> <r_epik_Ionization_Penalty>
0.00151458

> <r_epik_Ionization_Penalty_Charging>
0.0014384

> <r_epik_Ionization_Penalty_Neutral>
7.61793e-05

> <r_epik_State_Penalty>
-0

> <r_epik_Charging_Adjusted_Penalty>
0.0014384

> <i_epik_Tot_Q>
0

> <i_epik_Tot_abs_Q>
0

> <r_epik_Metal_State_Penalty>
0.317918

> <b_epik_Metal_Only>
0

> <s_epik_Chemistry_Notes>
This compound contains an acetal/aminal-like group ( X-CH(R)-Y where X, Y are N, S, or O) that may be acid/base labile, releasing an aldehyde.

> <s_lp_Force_Field>
OPLS_2005

> <r_lp_Energy>
2.65481

> <b_lp_Chiralities_Consistent>
1

> <s_lp_Variant>
AV-unprocessed.smi:57-1

> <Gold.Version>
5.8.1

> <Gold.Id.Protein>
6NUR|6NUR_protein|mol2

> <Gold.PLP.Fitness>
36.2068

> <Gold.PLP.PLP>
-30.3938

> <Gold.PLP.part.hbond>
-5.3312

> <Gold.PLP.part.metal>
0.0000

> <Gold.PLP.part.buried>
-3.0713

> <Gold.PLP.part.nonpolar>
-23.1794

> <Gold.PLP.part.repulsive>
0.5058

> <Gold.PLP.ligand.clash>
0.0000

> <Gold.PLP.ligand.torsion>
0.0840

> <Gold.PLP.Chemscore.Hbond>
1.9913

> <Gold.PLP.Chemscore.CHOScore>
0.0000

> <Gold.PLP.Chemscore.Metal>
0.0000

> <Gold.Chemscore.Hbonds>
donor molecule, donor type, donor heavy atom, donor atom, acceptor molecule, acceptor atom, score
      L1  H     3    19       P1  7948  0.96
      P1  H 10752 10764       L1     5  1.00

> <Gold.PLP.Chemscore.Internal.Correction>
0.0072

> <Gold.Rescore>
     Score         DG    S(hbond)    S(metal)    S(lipo)     H(rot)  DE(clash)    DE(int)     intcor
      5.66      -5.85       1.89        0.00      31.05       3.74       0.16       0.03       ----

> <Gold.Chemscore.Fitness>
5.6610

> <Gold.Chemscore.DG>
-5.8494

> <Gold.Chemscore.ZeroCoef>
-5.4800

> <Gold.Chemscore.Hbond>
1.8884

> <Gold.Chemscore.Metal>
0.0000

> <Gold.Chemscore.Lipo>
31.0516

> <Gold.Chemscore.Internal_Hbond>
0.0000

> <Gold.Chemscore.DEClash>
0.1603

> <Gold.Chemscore.DEInternal>
0.0281

> <Gold.Chemscore.Rot>
3.7387

> <Gold.Chemscore.Internal.Correction>
   9.000000E+99

> <Gold.Chemscore.Hbonds>
donor molecule, donor type, donor heavy atom, donor atom, acceptor molecule, acceptor atom, score
      L1  H     3    19       P1  7948  0.68
      P1  H 10752 10764       L1     5  0.98

> <Gold.Chemscore.Hbond.Weighted>
-6.3073

> <Gold.Chemscore.Metal.Weighted>
-0.0000

> <Gold.Chemscore.Lipo.Weighted>
-3.6330

> <Gold.Chemscore.Internal_Hbond.Weighted>
0.0000

> <Gold.Chemscore.DEClash.Weighted>
0.1603

> <Gold.Chemscore.DEInternal.Weighted>
0.0281

> <Gold.Chemscore.Rot.Weighted>
9.5710

> <Gold.Chemscore.Internal.Correction.Weighted>
   9.000000E+99

> <Gold.Protein.RotatedTorsions>
[ 6907 6896 6895 6894 ] final -116.17 input  -60.11 | X-H torsion
[ 7974 7965 7964 7962 ] final -166.34 input  175.53 | X-H torsion
[ 8008 7997 7996 7995 ] final   27.33 input   59.86 | X-H torsion
[ 10167 10162 10161 10158 ] final   23.35 input  -65.29 | X-H torsion
[ 10718 10713 10712 10709 ] final   70.45 input   66.30 | X-H torsion
[ 10763 10752 10751 10750 ] final  -81.74 input  -60.55 | X-H torsion
[ 11005 11000 10999 10996 ] final  -40.90 input  -57.11 | X-H torsion

> <Gold.Protein.ActiveResidues>
 VAL166  LYS551  ARG553  GLY616  TRP617  ASP618  TYR619  PRO620  LYS621  CYS622 
 ASP623  PHE694  ASN695  SER759  ASP760  ASP761  ALA762  ILE779  LEU786  VAL792 
 PHE793  MET794  SER795  GLU796  ALA797  LYS798  CYS799  TRP800  GLU811  SER814 

> <Gold.Protein.RotatedAtoms>
  150.8035  133.8555  159.3217 H   0  0  0  0  0  0  0  0  0  0  0  0  # atno 6907 bound_to 6896
  151.6361  135.1016  160.0141 H   0  0  0  0  0  0  0  0  0  0  0  0  # atno 6908 bound_to 6896
  152.4124  133.6944  159.6444 H   0  0  0  0  0  0  0  0  0  0  0  0  # atno 6909 bound_to 6896
  144.7247  140.2680  143.6255 H   0  0  0  0  0  0  0  0  0  0  0  0  # atno 7974 bound_to 7965
  155.0412  140.3169  155.4724 H   0  0  0  0  0  0  0  0  0  0  0  0  # atno 8008 bound_to 7997
  156.2854  140.2163  156.5479 H   0  0  0  0  0  0  0  0  0  0  0  0  # atno 8009 bound_to 7997
  154.7288  140.0483  157.0695 H   0  0  0  0  0  0  0  0  0  0  0  0  # atno 8010 bound_to 7997
  140.5276  143.9896  150.6448 H   0  0  0  0  0  0  0  0  0  0  0  0  # atno 10167 bound_to 10162
  157.6401  130.9478  150.0653 H   0  0  0  0  0  0  0  0  0  0  0  0  # atno 10718 bound_to 10713
  154.5672  135.5616  153.7062 H   0  0  0  0  0  0  0  0  0  0  0  0  # atno 10763 bound_to 10752
  153.0037  135.6288  154.2163 H   0  0  0  0  0  0  0  0  0  0  0  0  # atno 10764 bound_to 10752
  154.2102  135.2874  155.2940 H   0  0  0  0  0  0  0  0  0  0  0  0  # atno 10765 bound_to 10752
  141.0208  133.6864  156.2384 H   0  0  0  0  0  0  0  0  0  0  0  0  # atno 11005 bound_to 11000
  145.8070  139.1987  143.2015 LP  0  0  0  0  0  0  0  0  0  0  0  0  # atno 17320 bound_to 7965
  146.0628  140.7953  142.9726 LP  0  0  0  0  0  0  0  0  0  0  0  0  # atno 17321 bound_to 7965
  140.3262  143.3106  152.0733 LP  0  0  0  0  0  0  0  0  0  0  0  0  # atno 17342 bound_to 10162
  139.4943  144.6540  151.6613 LP  0  0  0  0  0  0  0  0  0  0  0  0  # atno 17343 bound_to 10162
  156.1673  130.3645  149.9214 LP  0  0  0  0  0  0  0  0  0  0  0  0  # atno 17370 bound_to 10713
  156.7198  130.9002  151.3617 LP  0  0  0  0  0  0  0  0  0  0  0  0  # atno 17371 bound_to 10713
  140.6577  134.5001  157.5581 LP  0  0  0  0  0  0  0  0  0  0  0  0  # atno 17394 bound_to 11000
  139.9145  134.8276  156.1414 LP  0  0  0  0  0  0  0  0  0  0  0  0  # atno 17395 bound_to 11000

$$$$
