#       Name:                AV-unprocessed.smi:579
#       Creating user name   scv26
#       Creation time:       Thu Mar 26 23:49:27 2020


#       File generated by GOLD software.
#

@<TRIPOS>MOLECULE
AV-unprocessed.smi:579
    30    31     1
SMALL
NO_CHARGES


@<TRIPOS>ATOM
      1 ****        -4.6016  -0.3229   0.0038 N.pl3          1 S1                 0.0000
      2 ****        -3.2100  -0.2515   0.0050 C.ar           1 S1                 0.0000
      3 ****        -2.5550   0.9981   0.0045 C.ar           1 S1                 0.0000
      4 ****        -1.1451   1.0388   0.0054 C.ar           1 S1                 0.0000
      5 ****        -0.4167  -0.1741   0.0068 C.ar           1 S1                 0.0000
      6 ****         0.9830  -0.2349   0.0058 N.3            1 S1                 0.0000
      7 ****         1.5778   0.2898  -1.2168 C.3            1 S1                 0.0000
      8 ****         3.1030   0.0908  -1.1875 C.3            1 S1                 0.0000
      9 ****         3.6394   0.6994  -0.0164 O.3            1 S1                 0.0000
     10 ****         3.1099   0.1267   1.1756 C.3            1 S1                 0.0000
     11 ****         1.5851   0.3276   1.2079 C.3            1 S1                 0.0000
     12 ****        -1.0873  -1.3477   0.0072 N.pl3          1 S1                 1.0000
     13 ****        -2.4357  -1.4296   0.0066 C.ar           1 S1                 0.0000
     14 ****        -5.0876  -1.2086   0.0040 H              1 S1                 0.0000
     15 ****        -5.1736   0.5099  -0.0027 H              1 S1                 0.0000
     16 ****        -3.1229   1.9171   0.0030 H              1 S1                 0.0000
     17 ****        -0.6348   1.9907   0.0041 H              1 S1                 0.0000
     18 ****         1.1511  -0.2174  -2.0833 H              1 S1                 0.0000
     19 ****         1.3458   1.3511  -1.3160 H              1 S1                 0.0000
     20 ****         3.3585  -0.9699  -1.2089 H              1 S1                 0.0000
     21 ****         3.5593   0.5465  -2.0662 H              1 S1                 0.0000
     22 ****         3.3651  -0.9330   1.2276 H              1 S1                 0.0000
     23 ****         3.5718   0.6085   2.0374 H              1 S1                 0.0000
     24 ****         1.3549   1.3918   1.2755 H              1 S1                 0.0000
     25 ****         1.1633  -0.1520   2.0922 H              1 S1                 0.0000
     26 ****        -2.8480  -2.4284   0.0070 H              1 S1                 0.0000
     27 ****        -0.5491  -2.2145   0.0081 H              1 S1                 0.0000
     28 ****         1.2026  -1.2103   0.0223 LP             1 S1                 0.0000
     29 ****         3.4199   1.6749  -0.0306 LP             1 S1                 0.0000
     30 ****         4.6324   0.5811  -0.0175 LP             1 S1                 0.0000
@<TRIPOS>BOND
    1    1    2 1     
    2    1   14 1     
    3    1   15 1     
    4    2   13 ar    
    5    2    3 ar    
    6    3    4 ar    
    7    3   16 1     
    8    4    5 ar    
    9    4   17 1     
   10    5    6 1     
   11    5   12 ar    
   12    6   11 1     
   13    6    7 1     
   14    7    8 1     
   15    7   18 1     
   16    7   19 1     
   17    8    9 1     
   18    8   20 1     
   19    8   21 1     
   20    9   10 1     
   21   10   11 1     
   22   10   22 1     
   23   10   23 1     
   24   11   24 1     
   25   11   25 1     
   26   12   13 ar    
   27   12   27 1     
   28   13   26 1     
   29    6   28 1     
   30    9   29 1     
   31    9   30 1     
@<TRIPOS>SUBSTRUCTURE
      1 S1             1
@<TRIPOS>SET
LONE_PAIRS      STATIC     ATOMS    <user>   **** ""
3 28 29 30
DONOR_HYDROGENS      STATIC     ATOMS    <user>   **** ""
3 14 15 27
ATOM$BLUE        STATIC     ATOMS    COLORGROUP SYSTEM
3 28 29 30
ATOM$RED        STATIC     ATOMS    COLORGROUP SYSTEM
3 14 15 27
