AV-unprocessed.smi:3342|AV-procd|sdf|12888|dock7
  -GOLD-   2272019293D 1   1.00000     0.00000
 Structure written by MMmdl.
 42 43  0  0  0  0  0  0  0  0  2 V2000
  146.0886  132.6546  153.6247 C   0  0  0  0  0  0  0  0  0  0  0  0
  147.1545  133.1276  152.6272 C   0  0  1  0  0  0  0  0  0  0  0  0
  146.5824  134.1837  151.6566 C   0  0  0  0  0  0  0  0  0  0  0  0
  145.5713  133.6391  150.7444 N   0  0  0  0  0  0  0  0  0  0  0  0
  145.7180  132.5962  149.8658 C   0  0  0  0  0  0  0  0  0  0  0  0
  144.5081  132.4401  149.2399 C   0  0  0  0  0  0  0  0  0  0  0  0
  143.6772  133.3973  149.7578 N   0  3  0  0  0  0  0  0  0  0  0  0
  144.3269  134.1283  150.6691 C   0  0  0  0  0  0  0  0  0  0  0  0
  148.2939  133.6602  153.3732 N   0  0  0  0  0  0  0  0  0  0  0  0
  148.8856  133.0839  154.4345 C   0  0  0  0  0  0  0  0  0  0  0  0
  148.5226  131.9911  154.8730 O   0  0  0  0  0  0  0  0  0  0  0  0
  149.9343  133.7775  154.9444 N   0  0  0  0  0  0  0  0  0  0  0  0
  150.2893  135.1724  154.6327 C   0  0  0  0  0  0  0  0  0  0  0  0
  149.8840  136.0628  155.8215 C   0  0  0  0  0  0  0  0  0  0  0  0
  150.5562  135.5848  157.1307 C   0  0  0  0  0  0  0  0  0  0  0  0
  150.0473  136.3860  158.3366 C   0  0  0  0  0  0  0  0  0  0  0  0
  150.1575  137.7153  158.2750 N   0  0  0  0  0  0  0  0  0  0  0  0
  149.5608  135.8156  159.3112 O   0  0  0  0  0  0  0  0  0  0  0  0
  150.3378  134.0676  157.3397 C   0  0  0  0  0  0  0  0  0  0  0  0
  150.7200  133.2735  156.0773 C   0  0  0  0  0  0  0  0  0  0  0  0
  145.2326  132.2197  153.1077 H   0  0  0  0  0  0  0  0  0  0  0  0
  145.7228  133.4789  154.2379 H   0  0  0  0  0  0  0  0  0  0  0  0
  146.4880  131.8927  154.2953 H   0  0  0  0  0  0  0  0  0  0  0  0
  147.4671  132.2524  152.0548 H   0  0  0  0  0  0  0  0  0  0  0  0
  146.1127  134.9962  152.2128 H   0  0  0  0  0  0  0  0  0  0  0  0
  147.3770  134.6302  151.0567 H   0  0  0  0  0  0  0  0  0  0  0  0
  146.6454  132.0523  149.7594 H   0  0  0  0  0  0  0  0  0  0  0  0
  144.1843  131.7379  148.4854 H   0  0  0  0  0  0  0  0  0  0  0  0
  143.9224  134.9451  151.2400 H   0  0  0  0  0  0  0  0  0  0  0  0
  148.6566  134.5515  153.0668 H   0  0  0  0  0  0  0  0  0  0  0  0
  151.3658  135.2397  154.4687 H   0  0  0  0  0  0  0  0  0  0  0  0
  149.8360  135.5524  153.7172 H   0  0  0  0  0  0  0  0  0  0  0  0
  150.1609  137.0975  155.6159 H   0  0  0  0  0  0  0  0  0  0  0  0
  148.7972  136.0486  155.9234 H   0  0  0  0  0  0  0  0  0  0  0  0
  151.6303  135.7537  157.0317 H   0  0  0  0  0  0  0  0  0  0  0  0
  149.8346  138.2852  159.0432 H   0  0  0  0  0  0  0  0  0  0  0  0
  150.5628  138.1462  157.4567 H   0  0  0  0  0  0  0  0  0  0  0  0
  150.9293  133.7174  158.1866 H   0  0  0  0  0  0  0  0  0  0  0  0
  149.2944  133.8637  157.5872 H   0  0  0  0  0  0  0  0  0  0  0  0
  150.5759  132.2059  156.2486 H   0  0  0  0  0  0  0  0  0  0  0  0
  151.7829  133.3954  155.8645 H   0  0  0  0  0  0  0  0  0  0  0  0
  142.7093  133.5324  149.4933 H   0  0  0  0  0  0  0  0  0  0  0  0
  1  2  1  0  0  0  0
  1 21  1  0  0  0  0
  1 22  1  0  0  0  0
  1 23  1  0  0  0  0
  2  3  1  0  0  0  0
  2  9  1  0  0  0  0
  2 24  1  0  0  0  0
  3  4  1  0  0  0  0
  3 25  1  0  0  0  0
  3 26  1  0  0  0  0
  4  8  1  0  0  0  0
  4  5  1  0  0  0  0
  5  6  2  0  0  0  0
  5 27  1  0  0  0  0
  6  7  1  0  0  0  0
  6 28  1  0  0  0  0
  7  8  2  0  0  0  0
  7 42  1  0  0  0  0
  8 29  1  0  0  0  0
  9 10  1  0  0  0  0
  9 30  1  0  0  0  0
 10 11  2  0  0  0  0
 10 12  1  0  0  0  0
 12 20  1  0  0  0  0
 12 13  1  0  0  0  0
 13 14  1  0  0  0  0
 13 31  1  0  0  0  0
 13 32  1  0  0  0  0
 14 15  1  0  0  0  0
 14 33  1  0  0  0  0
 14 34  1  0  0  0  0
 15 16  1  0  0  0  0
 15 19  1  0  0  0  0
 15 35  1  0  0  0  0
 16 17  1  0  0  0  0
 16 18  2  0  0  0  0
 17 36  1  0  0  0  0
 17 37  1  0  0  0  0
 19 20  1  0  0  0  0
 19 38  1  0  0  0  0
 19 39  1  0  0  0  0
 20 40  1  0  0  0  0
 20 41  1  0  0  0  0
M  CHG  1   7   1
M  END
> <s_m_source_file>
AV-unprocessed.smi

> <i_m_source_file_index>
3342

> <i_lp_mmshare_version>
43012

> <i_f3d_flags>
0

> <s_epik_input>
W2NIXTFuW2NIXVtjSF1uMVtDSDJdW0NAQEhdKFtDSDNdKVtOSF1DKD1PKU4yW0NIMl1bQ0gyXVtDSF0oQyg9TylbTkgyXSlbQ0gyXVtDSDJdMg==

> <s_epik_cmdline>
J2VwaWtfcHl0aG9uJywgJy1waCcsICc3LjAnLCAnLXRuJywgJzgnLCAnLW1hJywgJzIwMCcsICctbWV0YWxfYmluZGluZycsICctaW1hZScsICc8aW5maWxlLm1hZT4nLCAnLW9tYWUnLCAnPG91dGZpbGUubWFlPic=

> <r_lp_tautomer_probability>
1

> <r_epik_Ionization_Penalty>
0.254015

> <r_epik_Ionization_Penalty_Charging>
0

> <r_epik_Ionization_Penalty_Neutral>
0.254015

> <r_epik_State_Penalty>
0.245417

> <r_epik_Charging_Adjusted_Penalty>
0.245417

> <i_epik_Tot_Q>
1

> <i_epik_Tot_abs_Q>
1

> <r_epik_Metal_State_Penalty>
0.535589

> <b_epik_Metal_Only>
0

> <s_lp_Force_Field>
OPLS_2005

> <r_lp_Energy>
31.4878

> <b_lp_Chiralities_Consistent>
1

> <s_lp_Variant>
AV-unprocessed.smi:3342-2

> <Gold.Version>
5.8.1

> <Gold.Id.Protein>
6NUR|6NUR_protein|mol2

> <Gold.PLP.Fitness>
41.7059

> <Gold.PLP.PLP>
-27.0940

> <Gold.PLP.part.hbond>
-3.0000

> <Gold.PLP.part.metal>
0.0000

> <Gold.PLP.part.buried>
0.2283

> <Gold.PLP.part.nonpolar>
-24.2836

> <Gold.PLP.part.repulsive>
0.1571

> <Gold.PLP.ligand.clash>
0.0000

> <Gold.PLP.ligand.torsion>
0.2328

> <Gold.PLP.Chemscore.Hbond>
4.0000

> <Gold.PLP.Chemscore.CHOScore>
1.0000

> <Gold.PLP.Chemscore.Metal>
0.0000

> <Gold.Chemscore.Hbonds>
donor molecule, donor type, donor heavy atom, donor atom, acceptor molecule, acceptor atom, score
      L1  H     7    42       P1 10186  2.00
      L1  H     9    30       P1  7948  0.86
      P1  H  6896  6908       L1    18  1.00
      L1  C     5    27       P1 10747  0.69

> <Gold.PLP.Chemscore.Internal.Correction>
0.0775

> <Gold.Rescore>
     Score         DG    S(hbond)    S(metal)    S(lipo)     H(rot)  DE(clash)    DE(int)     intcor
     11.60     -14.20       2.52        0.00      53.75       2.34       1.15       1.46       ----

> <Gold.Chemscore.Fitness>
11.5968

> <Gold.Chemscore.DG>
-14.2013

> <Gold.Chemscore.ZeroCoef>
-5.4800

> <Gold.Chemscore.Hbond>
2.5219

> <Gold.Chemscore.Metal>
0.0000

> <Gold.Chemscore.Lipo>
53.7486

> <Gold.Chemscore.Internal_Hbond>
0.0000

> <Gold.Chemscore.DEClash>
1.1462

> <Gold.Chemscore.DEInternal>
1.4583

> <Gold.Chemscore.Rot>
2.3400

> <Gold.Chemscore.Internal.Correction>
   9.000000E+99

> <Gold.Chemscore.Hbonds>
donor molecule, donor type, donor heavy atom, donor atom, acceptor molecule, acceptor atom, score
      L1  H     7    42       P1 10186  0.98
      L1  H     9    30       P1  7948  0.16
      P1  H  6896  6908       L1    18  0.30

> <Gold.Chemscore.Hbond.Weighted>
-8.4231

> <Gold.Chemscore.Metal.Weighted>
-0.0000

> <Gold.Chemscore.Lipo.Weighted>
-6.2886

> <Gold.Chemscore.Internal_Hbond.Weighted>
0.0000

> <Gold.Chemscore.DEClash.Weighted>
1.1462

> <Gold.Chemscore.DEInternal.Weighted>
1.4583

> <Gold.Chemscore.Rot.Weighted>
5.9904

> <Gold.Chemscore.Internal.Correction.Weighted>
   9.000000E+99

> <Gold.Protein.RotatedTorsions>
[ 6907 6896 6895 6894 ] final  173.70 input  -60.11 | X-H torsion
[ 7974 7965 7964 7962 ] final   36.44 input  175.53 | X-H torsion
[ 8008 7997 7996 7995 ] final -100.00 input   59.86 | X-H torsion
[ 10167 10162 10161 10158 ] final   -6.99 input  -65.29 | X-H torsion
[ 10718 10713 10712 10709 ] final   90.11 input   66.30 | X-H torsion
[ 10763 10752 10751 10750 ] final  -81.75 input  -60.55 | X-H torsion
[ 11005 11000 10999 10996 ] final   60.49 input  -57.11 | X-H torsion

> <Gold.Protein.ActiveResidues>
 VAL166  LYS551  ARG553  GLY616  TRP617  ASP618  TYR619  PRO620  LYS621  CYS622 
 ASP623  PHE694  ASN695  SER759  ASP760  ASP761  ALA762  ILE779  LEU786  VAL792 
 PHE793  MET794  SER795  GLU796  ALA797  LYS798  CYS799  TRP800  GLU811  SER814 

> <Gold.Protein.RotatedAtoms>
  151.7642  133.3336  159.3425 H   0  0  0  0  0  0  0  0  0  0  0  0  # atno 6907 bound_to 6896
  150.7486  134.6078  159.6079 H   0  0  0  0  0  0  0  0  0  0  0  0  # atno 6908 bound_to 6896
  152.3385  134.7168  160.0322 H   0  0  0  0  0  0  0  0  0  0  0  0  # atno 6909 bound_to 6896
  146.1211  139.6017  142.9289 H   0  0  0  0  0  0  0  0  0  0  0  0  # atno 7974 bound_to 7965
  154.8226  140.0444  157.1421 H   0  0  0  0  0  0  0  0  0  0  0  0  # atno 8008 bound_to 7997
  154.9242  140.3031  155.5180 H   0  0  0  0  0  0  0  0  0  0  0  0  # atno 8009 bound_to 7997
  156.2981  140.2335  156.4296 H   0  0  0  0  0  0  0  0  0  0  0  0  # atno 8010 bound_to 7997
  140.7015  143.6131  150.8685 H   0  0  0  0  0  0  0  0  0  0  0  0  # atno 10167 bound_to 10162
  157.6958  131.0358  150.3528 H   0  0  0  0  0  0  0  0  0  0  0  0  # atno 10718 bound_to 10713
  154.5674  135.5615  153.7063 H   0  0  0  0  0  0  0  0  0  0  0  0  # atno 10763 bound_to 10752
  153.0037  135.6288  154.2162 H   0  0  0  0  0  0  0  0  0  0  0  0  # atno 10764 bound_to 10752
  154.2101  135.2874  155.2941 H   0  0  0  0  0  0  0  0  0  0  0  0  # atno 10765 bound_to 10752
  140.0228  134.6127  155.9615 H   0  0  0  0  0  0  0  0  0  0  0  0  # atno 11005 bound_to 11000
  145.5464  141.0417  143.2302 LP  0  0  0  0  0  0  0  0  0  0  0  0  # atno 17320 bound_to 7965
  144.7598  139.6984  143.7239 LP  0  0  0  0  0  0  0  0  0  0  0  0  # atno 17321 bound_to 7965
  139.9853  143.5906  152.2929 LP  0  0  0  0  0  0  0  0  0  0  0  0  # atno 17342 bound_to 10162
  139.6542  144.7661  151.2089 LP  0  0  0  0  0  0  0  0  0  0  0  0  # atno 17343 bound_to 10162
  156.3974  130.3909  149.6985 LP  0  0  0  0  0  0  0  0  0  0  0  0  # atno 17370 bound_to 10713
  156.4314  130.7817  151.2836 LP  0  0  0  0  0  0  0  0  0  0  0  0  # atno 17371 bound_to 10713
  141.1784  133.6543  156.4921 LP  0  0  0  0  0  0  0  0  0  0  0  0  # atno 17394 bound_to 11000
  140.4358  134.7061  157.4966 LP  0  0  0  0  0  0  0  0  0  0  0  0  # atno 17395 bound_to 11000

$$$$
