AV-unprocessed.smi:895|AV-procd|sdf|4075|dock5
  -GOLD-   22720 1563D 1   1.00000     0.00000
 Structure written by MMmdl.
 44 45  0  0  0  0  0  0  0  0  1 V2000
  147.2146  133.2931  151.4742 C   0  0  0  0  0  0  0  0  0  0  0  0
  145.7144  133.6181  151.6068 C   0  0  0  0  0  0  0  0  0  0  0  0
  144.8800  132.6255  150.7800 C   0  0  0  0  0  0  0  0  0  0  0  0
  145.3366  133.4233  152.9556 O   0  0  0  0  0  0  0  0  0  0  0  0
  145.3496  135.0704  151.2140 C   0  0  0  0  0  0  0  0  0  0  0  0
  146.2497  136.0688  151.7886 N   0  0  0  0  0  0  0  0  0  0  0  0
  145.8756  137.1236  152.5259 C   0  0  0  0  0  0  0  0  0  0  0  0
  144.7075  137.3947  152.8047 O   0  0  0  0  0  0  0  0  0  0  0  0
  146.9301  137.8465  152.9269 N   0  0  0  0  0  0  0  0  0  0  0  0
  146.8643  139.0416  153.7663 C   0  0  2  0  0  0  0  0  0  0  0  0
  147.1780  140.2933  152.9223 C   0  0  0  0  0  0  0  0  0  0  0  0
  147.1164  141.5703  153.7743 C   0  0  0  0  0  0  0  0  0  0  0  0
  148.0626  141.4886  154.9815 C   0  0  0  0  0  0  0  0  0  0  0  0
  147.7792  140.2391  155.8362 C   0  0  0  0  0  0  0  0  0  0  0  0
  147.7652  138.9195  155.0291 C   0  0  2  0  0  0  0  0  0  0  0  0
  149.1098  138.4087  154.7540 N   0  0  0  0  0  0  0  0  0  0  0  0
  150.1047  139.0274  154.0229 C   0  0  0  0  0  0  0  0  0  0  0  0
  151.1971  138.2089  154.0314 C   0  0  0  0  0  0  0  0  0  0  0  0
  150.7743  137.0937  154.8053 C   0  0  0  0  0  0  0  0  0  0  0  0
  149.5306  137.2171  155.2361 N   0  0  0  0  0  0  0  0  0  0  0  0
  147.5644  133.4683  150.4563 H   0  0  0  0  0  0  0  0  0  0  0  0
  147.4157  132.2488  151.7155 H   0  0  0  0  0  0  0  0  0  0  0  0
  147.8256  133.8994  152.1436 H   0  0  0  0  0  0  0  0  0  0  0  0
  145.1127  132.7053  149.7176 H   0  0  0  0  0  0  0  0  0  0  0  0
  143.8110  132.8090  150.8969 H   0  0  0  0  0  0  0  0  0  0  0  0
  145.0712  131.5946  151.0810 H   0  0  0  0  0  0  0  0  0  0  0  0
  144.3960  133.3413  152.9934 H   0  0  0  0  0  0  0  0  0  0  0  0
  145.3400  135.1637  150.1264 H   0  0  0  0  0  0  0  0  0  0  0  0
  144.3339  135.3038  151.5357 H   0  0  0  0  0  0  0  0  0  0  0  0
  147.2362  135.9356  151.6209 H   0  0  0  0  0  0  0  0  0  0  0  0
  147.8509  137.5396  152.6489 H   0  0  0  0  0  0  0  0  0  0  0  0
  145.8329  139.1493  154.1083 H   0  0  0  0  0  0  0  0  0  0  0  0
  148.1592  140.2096  152.4554 H   0  0  0  0  0  0  0  0  0  0  0  0
  146.4628  140.3730  152.1028 H   0  0  0  0  0  0  0  0  0  0  0  0
  147.3691  142.4369  153.1627 H   0  0  0  0  0  0  0  0  0  0  0  0
  146.0947  141.7261  154.1226 H   0  0  0  0  0  0  0  0  0  0  0  0
  149.0970  141.4917  154.6399 H   0  0  0  0  0  0  0  0  0  0  0  0
  147.9499  142.3828  155.5953 H   0  0  0  0  0  0  0  0  0  0  0  0
  148.4986  140.1734  156.6532 H   0  0  0  0  0  0  0  0  0  0  0  0
  146.8038  140.3638  156.3082 H   0  0  0  0  0  0  0  0  0  0  0  0
  147.3005  138.1754  155.6781 H   0  0  0  0  0  0  0  0  0  0  0  0
  149.9550  139.9933  153.5626 H   0  0  0  0  0  0  0  0  0  0  0  0
  152.1523  138.3814  153.5582 H   0  0  0  0  0  0  0  0  0  0  0  0
  151.3303  136.2054  155.0667 H   0  0  0  0  0  0  0  0  0  0  0  0
  1  2  1  0  0  0  0
  1 21  1  0  0  0  0
  1 22  1  0  0  0  0
  1 23  1  0  0  0  0
  2  3  1  0  0  0  0
  2  4  1  0  0  0  0
  2  5  1  0  0  0  0
  3 24  1  0  0  0  0
  3 25  1  0  0  0  0
  3 26  1  0  0  0  0
  4 27  1  0  0  0  0
  5  6  1  0  0  0  0
  5 28  1  0  0  0  0
  5 29  1  0  0  0  0
  6  7  1  0  0  0  0
  6 30  1  0  0  0  0
  7  8  2  0  0  0  0
  7  9  1  0  0  0  0
  9 10  1  0  0  0  0
  9 31  1  0  0  0  0
 10 15  1  0  0  0  0
 10 11  1  0  0  0  0
 10 32  1  0  0  0  0
 11 12  1  0  0  0  0
 11 33  1  0  0  0  0
 11 34  1  0  0  0  0
 12 13  1  0  0  0  0
 12 35  1  0  0  0  0
 12 36  1  0  0  0  0
 13 14  1  0  0  0  0
 13 37  1  0  0  0  0
 13 38  1  0  0  0  0
 14 15  1  0  0  0  0
 14 39  1  0  0  0  0
 14 40  1  0  0  0  0
 15 16  1  0  0  0  0
 15 41  1  0  0  0  0
 16 20  1  0  0  0  0
 16 17  1  0  0  0  0
 17 18  2  0  0  0  0
 17 42  1  0  0  0  0
 18 19  1  0  0  0  0
 18 43  1  0  0  0  0
 19 20  2  0  0  0  0
 19 44  1  0  0  0  0
M  END
> <s_m_source_file>
AV-unprocessed.smi

> <i_m_source_file_index>
895

> <i_lp_mmshare_version>
43012

> <i_f3d_flags>
0

> <s_epik_input>
W0NIM11DKFtDSDNdKShbT0hdKVtDSDJdW05IXUMoPU8pW05IXVtDQEBIXTFbQ0gyXVtDSDJdW0NIMl1bQ0gyXVtDQEhdMW4yW2NIXVtjSF1bY0hdbjI=

> <s_epik_cmdline>
J2VwaWtfcHl0aG9uJywgJy1waCcsICc3LjAnLCAnLXRuJywgJzgnLCAnLW1hJywgJzIwMCcsICctbWV0YWxfYmluZGluZycsICctaW1hZScsICc8aW5maWxlLm1hZT4nLCAnLW9tYWUnLCAnPG91dGZpbGUubWFlPic=

> <r_lp_tautomer_probability>
1

> <r_epik_Ionization_Penalty>
0.000440451

> <r_epik_Ionization_Penalty_Charging>
0

> <r_epik_Ionization_Penalty_Neutral>
0.000440451

> <r_epik_State_Penalty>
-0

> <r_epik_Charging_Adjusted_Penalty>
0

> <i_epik_Tot_Q>
0

> <i_epik_Tot_abs_Q>
0

> <r_epik_Metal_State_Penalty>
-0

> <b_epik_Metal_Only>
0

> <s_lp_Force_Field>
OPLS_2005

> <r_lp_Energy>
14.0773

> <b_lp_Chiralities_Consistent>
1

> <s_lp_Variant>
AV-unprocessed.smi:895-3

> <Gold.Version>
5.8.1

> <Gold.Id.Protein>
6NUR|6NUR_protein|mol2

> <Gold.PLP.Fitness>
40.0893

> <Gold.PLP.PLP>
-32.2014

> <Gold.PLP.part.hbond>
-2.0000

> <Gold.PLP.part.metal>
0.0000

> <Gold.PLP.part.buried>
-4.1942

> <Gold.PLP.part.nonpolar>
-26.0398

> <Gold.PLP.part.repulsive>
0.5223

> <Gold.PLP.ligand.clash>
0.0000

> <Gold.PLP.ligand.torsion>
0.2553

> <Gold.PLP.Chemscore.Hbond>
2.0000

> <Gold.PLP.Chemscore.CHOScore>
0.7668

> <Gold.PLP.Chemscore.Metal>
0.0000

> <Gold.Chemscore.Hbonds>
donor molecule, donor type, donor heavy atom, donor atom, acceptor molecule, acceptor atom, score
      L1  H     6    30       P1  7948  1.00
      L1  H     9    31       P1  7948  0.99
      L1  C    17    42       P1  7957  0.74

> <Gold.PLP.Chemscore.Internal.Correction>
0.0981

> <Gold.Rescore>
     Score         DG    S(hbond)    S(metal)    S(lipo)     H(rot)  DE(clash)    DE(int)     intcor
     14.91     -15.17       1.93        0.00      75.80       2.19       0.09       0.18       ----

> <Gold.Chemscore.Fitness>
14.9061

> <Gold.Chemscore.DG>
-15.1686

> <Gold.Chemscore.ZeroCoef>
-5.4800

> <Gold.Chemscore.Hbond>
1.9257

> <Gold.Chemscore.Metal>
0.0000

> <Gold.Chemscore.Lipo>
75.7960

> <Gold.Chemscore.Internal_Hbond>
0.0000

> <Gold.Chemscore.DEClash>
0.0868

> <Gold.Chemscore.DEInternal>
0.1758

> <Gold.Chemscore.Rot>
2.1919

> <Gold.Chemscore.Internal.Correction>
   9.000000E+99

> <Gold.Chemscore.Hbonds>
donor molecule, donor type, donor heavy atom, donor atom, acceptor molecule, acceptor atom, score
      L1  H     6    30       P1  7948  0.99
      L1  H     9    31       P1  7948  0.94

> <Gold.Chemscore.Hbond.Weighted>
-6.4318

> <Gold.Chemscore.Metal.Weighted>
-0.0000

> <Gold.Chemscore.Lipo.Weighted>
-8.8681

> <Gold.Chemscore.Internal_Hbond.Weighted>
0.0000

> <Gold.Chemscore.DEClash.Weighted>
0.0868

> <Gold.Chemscore.DEInternal.Weighted>
0.1758

> <Gold.Chemscore.Rot.Weighted>
5.6113

> <Gold.Chemscore.Internal.Correction.Weighted>
   9.000000E+99

> <Gold.Protein.RotatedTorsions>
[ 6907 6896 6895 6894 ] final   12.24 input  -60.11 | X-H torsion
[ 7974 7965 7964 7962 ] final   21.66 input  175.53 | X-H torsion
[ 8008 7997 7996 7995 ] final   53.11 input   59.86 | X-H torsion
[ 10167 10162 10161 10158 ] final   -9.74 input  -65.29 | X-H torsion
[ 10718 10713 10712 10709 ] final   28.50 input   66.30 | X-H torsion
[ 10763 10752 10751 10750 ] final  124.08 input  -60.55 | X-H torsion
[ 11005 11000 10999 10996 ] final  -97.54 input  -57.11 | X-H torsion

> <Gold.Protein.ActiveResidues>
 VAL166  LYS551  ARG553  GLY616  TRP617  ASP618  TYR619  PRO620  LYS621  CYS622 
 ASP623  PHE694  ASN695  SER759  ASP760  ASP761  ALA762  ILE779  LEU786  VAL792 
 PHE793  MET794  SER795  GLU796  ALA797  LYS798  CYS799  TRP800  GLU811  SER814 

> <Gold.Protein.RotatedAtoms>
  151.7671  135.0795  160.0354 H   0  0  0  0  0  0  0  0  0  0  0  0  # atno 6907 bound_to 6896
  152.3313  133.5958  159.5820 H   0  0  0  0  0  0  0  0  0  0  0  0  # atno 6908 bound_to 6896
  150.7424  133.9779  159.3608 H   0  0  0  0  0  0  0  0  0  0  0  0  # atno 6909 bound_to 6896
  146.2062  139.7996  142.8724 H   0  0  0  0  0  0  0  0  0  0  0  0  # atno 7974 bound_to 7965
  155.4629  140.3462  155.4315 H   0  0  0  0  0  0  0  0  0  0  0  0  # atno 8008 bound_to 7997
  156.1149  140.1471  156.9316 H   0  0  0  0  0  0  0  0  0  0  0  0  # atno 8009 bound_to 7997
  154.4782  140.0878  156.7292 H   0  0  0  0  0  0  0  0  0  0  0  0  # atno 8010 bound_to 7997
  140.7095  143.5824  150.8978 H   0  0  0  0  0  0  0  0  0  0  0  0  # atno 10167 bound_to 10162
  157.2343  130.7038  149.6328 H   0  0  0  0  0  0  0  0  0  0  0  0  # atno 10718 bound_to 10713
  153.6557  135.3355  155.3113 H   0  0  0  0  0  0  0  0  0  0  0  0  # atno 10763 bound_to 10752
  154.8527  135.4351  154.1857 H   0  0  0  0  0  0  0  0  0  0  0  0  # atno 10764 bound_to 10752
  153.2811  135.7009  153.7460 H   0  0  0  0  0  0  0  0  0  0  0  0  # atno 10765 bound_to 10752
  141.1375  133.8179  157.0720 H   0  0  0  0  0  0  0  0  0  0  0  0  # atno 11005 bound_to 11000
  145.3310  141.0266  143.3446 LP  0  0  0  0  0  0  0  0  0  0  0  0  # atno 17320 bound_to 7965
  144.8798  139.4919  143.6728 LP  0  0  0  0  0  0  0  0  0  0  0  0  # atno 17321 bound_to 7965
  139.9550  143.6228  152.3018 LP  0  0  0  0  0  0  0  0  0  0  0  0  # atno 17342 bound_to 10162
  139.6760  144.7658  151.1694 LP  0  0  0  0  0  0  0  0  0  0  0  0  # atno 17343 bound_to 10162
  155.9673  130.4479  150.5597 LP  0  0  0  0  0  0  0  0  0  0  0  0  # atno 17370 bound_to 10713
  157.3446  131.0723  151.1761 LP  0  0  0  0  0  0  0  0  0  0  0  0  # atno 17371 bound_to 10713
  140.0505  134.9808  157.1128 LP  0  0  0  0  0  0  0  0  0  0  0  0  # atno 17394 bound_to 11000
  140.3997  134.2096  155.7164 LP  0  0  0  0  0  0  0  0  0  0  0  0  # atno 17395 bound_to 11000

$$$$
