AV-unprocessed.smi:74|AV-procd|sdf|763|dock8
  -GOLD-   2262017103D 1   1.00000     0.00000
 Structure written by MMmdl.
 58 62  0  0  0  0  0  0  0  0  1 V2000
  146.8772  132.5481  150.3120 O   0  0  0  0  0  0  0  0  0  0  0  0
  145.6060  132.3064  149.7441 C   0  0  0  0  0  0  0  0  0  0  0  0
  144.6126  133.4216  150.1093 C   0  0  0  0  0  0  0  0  0  0  0  0
  143.3627  133.2999  149.2139 C   0  0  0  0  0  0  0  0  0  0  0  0
  143.4947  134.0677  148.0348 O   0  0  0  0  0  0  0  0  0  0  0  0
  144.3280  133.5912  151.6189 C   0  0  0  0  0  0  0  0  0  0  0  0
  144.3790  135.1111  151.4511 C   0  0  0  0  0  0  0  0  0  0  0  0
  144.8635  135.9551  152.5035 N   0  0  0  0  0  0  0  0  0  0  0  0
  144.6788  135.7750  153.8556 C   0  0  0  0  0  0  0  0  0  0  0  0
  145.2607  136.6589  154.6192 N   0  0  0  0  0  0  0  0  0  0  0  0
  145.9241  137.4948  153.7284 C   0  0  0  0  0  0  0  0  0  0  0  0
  146.7572  138.6403  153.8756 C   0  0  0  0  0  0  0  0  0  0  0  0
  147.0475  139.1867  155.0841 N   0  0  0  0  0  0  0  0  0  0  0  0
  146.4836  138.5547  156.2747 C   0  0  0  0  0  0  0  0  0  0  0  0
  146.6860  139.4598  157.5006 C   0  0  0  0  0  0  0  0  0  0  0  0
  148.0694  139.7616  157.6511 O   0  0  0  0  0  0  0  0  0  0  0  0
  148.5986  140.4501  156.5206 C   0  0  1  0  0  0  0  0  0  0  0  0
  150.0572  140.8308  156.8098 C   0  0  0  0  0  0  0  0  0  0  0  0
  150.1005  141.9021  157.7387 O   0  0  0  0  0  0  0  0  0  0  0  0
  151.4222  142.2964  158.0607 C   0  0  0  0  0  0  0  0  0  0  0  0
  151.3657  143.4267  159.0657 C   0  0  0  0  0  0  0  0  0  0  0  0
  152.2974  144.6117  158.9492 C   0  0  0  0  0  0  0  0  0  0  0  0
  152.4849  143.6151  160.0645 C   0  0  0  0  0  0  0  0  0  0  0  0
  148.4413  139.5845  155.2546 C   0  0  0  0  0  0  0  0  0  0  0  0
  147.2716  139.1868  152.7408 N   0  0  0  0  0  0  0  0  0  0  0  0
  146.9862  138.6608  151.5464 C   0  0  0  0  0  0  0  0  0  0  0  0
  146.2194  137.6070  151.2612 N   0  0  0  0  0  0  0  0  0  0  0  0
  145.7027  137.0502  152.3938 C   0  0  0  0  0  0  0  0  0  0  0  0
  145.2196  134.8390  150.2012 C   0  0  0  0  0  0  0  0  0  0  0  0
  147.3012  131.7171  150.4624 H   0  0  0  0  0  0  0  0  0  0  0  0
  145.7140  132.2007  148.6644 H   0  0  0  0  0  0  0  0  0  0  0  0
  145.2566  131.3407  150.1106 H   0  0  0  0  0  0  0  0  0  0  0  0
  143.1890  132.2653  148.9176 H   0  0  0  0  0  0  0  0  0  0  0  0
  142.4623  133.6178  149.7401 H   0  0  0  0  0  0  0  0  0  0  0  0
  144.3786  134.3986  147.9891 H   0  0  0  0  0  0  0  0  0  0  0  0
  143.3636  133.2092  151.9553 H   0  0  0  0  0  0  0  0  0  0  0  0
  145.1352  133.2164  152.2513 H   0  0  0  0  0  0  0  0  0  0  0  0
  143.3970  135.5021  151.1797 H   0  0  0  0  0  0  0  0  0  0  0  0
  144.0904  134.9652  154.2624 H   0  0  0  0  0  0  0  0  0  0  0  0
  145.4190  138.3653  156.1317 H   0  0  0  0  0  0  0  0  0  0  0  0
  146.9681  137.5914  156.4409 H   0  0  0  0  0  0  0  0  0  0  0  0
  146.1099  140.3813  157.4030 H   0  0  0  0  0  0  0  0  0  0  0  0
  146.3321  138.9573  158.4008 H   0  0  0  0  0  0  0  0  0  0  0  0
  148.0334  141.3749  156.3914 H   0  0  0  0  0  0  0  0  0  0  0  0
  150.5852  139.9690  157.2214 H   0  0  0  0  0  0  0  0  0  0  0  0
  150.5620  141.1102  155.8837 H   0  0  0  0  0  0  0  0  0  0  0  0
  151.9717  141.4616  158.4980 H   0  0  0  0  0  0  0  0  0  0  0  0
  151.9568  142.6206  157.1664 H   0  0  0  0  0  0  0  0  0  0  0  0
  150.3641  143.6352  159.4372 H   0  0  0  0  0  0  0  0  0  0  0  0
  153.0277  144.6060  158.1424 H   0  0  0  0  0  0  0  0  0  0  0  0
  151.8982  145.5900  159.2088 H   0  0  0  0  0  0  0  0  0  0  0  0
  152.2127  143.9287  161.0702 H   0  0  0  0  0  0  0  0  0  0  0  0
  153.3409  142.9462  160.0004 H   0  0  0  0  0  0  0  0  0  0  0  0
  149.0511  138.6833  155.3325 H   0  0  0  0  0  0  0  0  0  0  0  0
  148.8071  140.1384  154.3909 H   0  0  0  0  0  0  0  0  0  0  0  0
  147.4350  139.1568  150.6984 H   0  0  0  0  0  0  0  0  0  0  0  0
  146.2909  134.8278  150.4120 H   0  0  0  0  0  0  0  0  0  0  0  0
  144.9952  135.4897  149.3555 H   0  0  0  0  0  0  0  0  0  0  0  0
  1  2  1  0  0  0  0
  1 30  1  0  0  0  0
  2  3  1  0  0  0  0
  2 31  1  0  0  0  0
  2 32  1  0  0  0  0
  3 29  1  0  0  0  0
  3  4  1  0  0  0  0
  3  6  1  0  0  0  0
  4  5  1  0  0  0  0
  4 33  1  0  0  0  0
  4 34  1  0  0  0  0
  5 35  1  0  0  0  0
  6  7  1  0  0  0  0
  6 36  1  0  0  0  0
  6 37  1  0  0  0  0
  7  8  1  0  0  0  0
  7 29  1  0  0  0  0
  7 38  1  0  0  0  0
  8 28  1  0  0  0  0
  8  9  1  0  0  0  0
  9 10  2  0  0  0  0
  9 39  1  0  0  0  0
 10 11  1  0  0  0  0
 11 28  2  0  0  0  0
 11 12  1  0  0  0  0
 12 13  1  0  0  0  0
 12 25  2  0  0  0  0
 13 24  1  0  0  0  0
 13 14  1  0  0  0  0
 14 15  1  0  0  0  0
 14 40  1  0  0  0  0
 14 41  1  0  0  0  0
 15 16  1  0  0  0  0
 15 42  1  0  0  0  0
 15 43  1  0  0  0  0
 16 17  1  0  0  0  0
 17 18  1  0  0  0  0
 17 24  1  0  0  0  0
 17 44  1  0  0  0  0
 18 19  1  0  0  0  0
 18 45  1  0  0  0  0
 18 46  1  0  0  0  0
 19 20  1  0  0  0  0
 20 21  1  0  0  0  0
 20 47  1  0  0  0  0
 20 48  1  0  0  0  0
 21 23  1  0  0  0  0
 21 22  1  0  0  0  0
 21 49  1  0  0  0  0
 22 23  1  0  0  0  0
 22 50  1  0  0  0  0
 22 51  1  0  0  0  0
 23 52  1  0  0  0  0
 23 53  1  0  0  0  0
 24 54  1  0  0  0  0
 24 55  1  0  0  0  0
 25 26  1  0  0  0  0
 26 27  2  0  0  0  0
 26 56  1  0  0  0  0
 27 28  1  0  0  0  0
 29 57  1  0  0  0  0
 29 58  1  0  0  0  0
M  END
> <s_m_source_file>
AV-unprocessed.smi

> <i_m_source_file_index>
74

> <i_lp_mmshare_version>
43012

> <i_f3d_flags>
0

> <s_epik_input>
W09IXVtDSDJdQzEoW0NIMl1bT0hdKVtDSDJdW0NIXShbQ0gyXTEpbihbY0hdbjIpYyhjMjMpbltjSF1uYzNONFtDSDJdW0NIMl1PW0NASF0oW0NIMl00KVtDSDJdT1tDSDJdW0NIXTVbQ0gyXVtDSDJdNQ==

> <s_epik_cmdline>
J2VwaWtfcHl0aG9uJywgJy1waCcsICc3LjAnLCAnLXRuJywgJzgnLCAnLW1hJywgJzIwMCcsICctbWV0YWxfYmluZGluZycsICctaW1hZScsICc8aW5maWxlLm1hZT4nLCAnLW9tYWUnLCAnPG91dGZpbGUubWFlPic=

> <r_lp_tautomer_probability>
1

> <r_epik_Ionization_Penalty>
5.89322e-05

> <r_epik_Ionization_Penalty_Charging>
0

> <r_epik_Ionization_Penalty_Neutral>
5.89322e-05

> <r_epik_State_Penalty>
-0

> <r_epik_Charging_Adjusted_Penalty>
0

> <i_epik_Tot_Q>
0

> <i_epik_Tot_abs_Q>
0

> <r_epik_Metal_State_Penalty>
-0

> <b_epik_Metal_Only>
0

> <s_lp_Force_Field>
OPLS_2005

> <r_lp_Energy>
49.0423

> <b_lp_Chiralities_Consistent>
1

> <s_lp_Variant>
AV-unprocessed.smi:74-1

> <Gold.Version>
5.8.1

> <Gold.Id.Protein>
6NUR|6NUR_protein|mol2

> <Gold.PLP.Fitness>
48.6289

> <Gold.PLP.PLP>
-40.8253

> <Gold.PLP.part.hbond>
-4.9485

> <Gold.PLP.part.metal>
0.0000

> <Gold.PLP.part.buried>
-0.1780

> <Gold.PLP.part.nonpolar>
-39.2317

> <Gold.PLP.part.repulsive>
4.2055

> <Gold.PLP.ligand.clash>
0.0000

> <Gold.PLP.ligand.torsion>
2.2207

> <Gold.PLP.Chemscore.Hbond>
2.9913

> <Gold.PLP.Chemscore.CHOScore>
0.5497

> <Gold.PLP.Chemscore.Metal>
0.0000

> <Gold.Chemscore.Hbonds>
donor molecule, donor type, donor heavy atom, donor atom, acceptor molecule, acceptor atom, score
      L1  H     1    30       P1 10747  0.82
      L1  H     5    35       P1  7921  1.00
      P1  H 10192 10197       L1     5  0.98
      L1  C    26    56       P1  7957  0.70

> <Gold.PLP.Chemscore.Internal.Correction>
1.6221

> <Gold.Rescore>
     Score         DG    S(hbond)    S(metal)    S(lipo)     H(rot)  DE(clash)    DE(int)     intcor
      8.97     -17.84       2.89        0.00     109.97       3.97       5.46       3.41       ----

> <Gold.Chemscore.Fitness>
8.9744

> <Gold.Chemscore.DG>
-17.8444

> <Gold.Chemscore.ZeroCoef>
-5.4800

> <Gold.Chemscore.Hbond>
2.8896

> <Gold.Chemscore.Metal>
0.0000

> <Gold.Chemscore.Lipo>
109.9673

> <Gold.Chemscore.Internal_Hbond>
0.0000

> <Gold.Chemscore.DEClash>
5.4635

> <Gold.Chemscore.DEInternal>
3.4065

> <Gold.Chemscore.Rot>
3.9660

> <Gold.Chemscore.Internal.Correction>
   9.000000E+99

> <Gold.Chemscore.Hbonds>
donor molecule, donor type, donor heavy atom, donor atom, acceptor molecule, acceptor atom, score
      L1  H     1    30       P1 10747  0.81
      L1  H     5    35       P1  7921  1.00
      P1  H 10192 10197       L1     5  0.88

> <Gold.Chemscore.Hbond.Weighted>
-9.6511

> <Gold.Chemscore.Metal.Weighted>
-0.0000

> <Gold.Chemscore.Lipo.Weighted>
-12.8662

> <Gold.Chemscore.Internal_Hbond.Weighted>
0.0000

> <Gold.Chemscore.DEClash.Weighted>
5.4635

> <Gold.Chemscore.DEInternal.Weighted>
3.4065

> <Gold.Chemscore.Rot.Weighted>
10.1529

> <Gold.Chemscore.Internal.Correction.Weighted>
   9.000000E+99

> <Gold.Protein.RotatedTorsions>
[ 6907 6896 6895 6894 ] final  -99.58 input  -60.11 | X-H torsion
[ 7974 7965 7964 7962 ] final -113.56 input  175.53 | X-H torsion
[ 8008 7997 7996 7995 ] final  166.73 input   59.86 | X-H torsion
[ 10167 10162 10161 10158 ] final -108.57 input  -65.29 | X-H torsion
[ 10718 10713 10712 10709 ] final   95.54 input   66.30 | X-H torsion
[ 10763 10752 10751 10750 ] final  -16.86 input  -60.55 | X-H torsion
[ 11005 11000 10999 10996 ] final -103.13 input  -57.11 | X-H torsion

> <Gold.Protein.ActiveResidues>
 VAL166  LYS551  ARG553  GLY616  TRP617  ASP618  TYR619  PRO620  LYS621  CYS622 
 ASP623  PHE694  ASN695  SER759  ASP760  ASP761  ALA762  ILE779  LEU786  VAL792 
 PHE793  MET794  SER795  GLU796  ALA797  LYS798  CYS799  TRP800  GLU811  SER814 

> <Gold.Protein.RotatedAtoms>
  150.7085  134.1019  159.3968 H   0  0  0  0  0  0  0  0  0  0  0  0  # atno 6907 bound_to 6896
  151.9006  135.0378  160.0515 H   0  0  0  0  0  0  0  0  0  0  0  0  # atno 6908 bound_to 6896
  152.2418  133.5106  159.5311 H   0  0  0  0  0  0  0  0  0  0  0  0  # atno 6909 bound_to 6896
  145.1306  140.8722  143.3760 H   0  0  0  0  0  0  0  0  0  0  0  0  # atno 7974 bound_to 7965
  156.1694  140.1635  156.8474 H   0  0  0  0  0  0  0  0  0  0  0  0  # atno 8008 bound_to 7997
  154.5241  140.0771  156.8260 H   0  0  0  0  0  0  0  0  0  0  0  0  # atno 8009 bound_to 7997
  155.3544  140.3392  155.4242 H   0  0  0  0  0  0  0  0  0  0  0  0  # atno 8010 bound_to 7997
  140.1647  143.4091  152.1399 H   0  0  0  0  0  0  0  0  0  0  0  0  # atno 10167 bound_to 10162
  157.6937  131.0549  150.4354 H   0  0  0  0  0  0  0  0  0  0  0  0  # atno 10718 bound_to 10713
  153.5651  135.7009  153.5530 H   0  0  0  0  0  0  0  0  0  0  0  0  # atno 10763 bound_to 10752
  153.3395  135.4025  155.1560 H   0  0  0  0  0  0  0  0  0  0  0  0  # atno 10764 bound_to 10752
  154.8642  135.3738  154.5170 H   0  0  0  0  0  0  0  0  0  0  0  0  # atno 10765 bound_to 10752
  141.1159  133.8615  157.1447 H   0  0  0  0  0  0  0  0  0  0  0  0  # atno 11005 bound_to 11000
  145.0640  139.3083  143.5866 LP  0  0  0  0  0  0  0  0  0  0  0  0  # atno 17320 bound_to 7965
  146.3514  140.0092  142.8669 LP  0  0  0  0  0  0  0  0  0  0  0  0  # atno 17321 bound_to 7965
  139.5365  144.7214  151.4877 LP  0  0  0  0  0  0  0  0  0  0  0  0  # atno 17342 bound_to 10162
  140.6620  143.8478  150.6899 LP  0  0  0  0  0  0  0  0  0  0  0  0  # atno 17343 bound_to 10162
  156.4717  130.4054  149.6514 LP  0  0  0  0  0  0  0  0  0  0  0  0  # atno 17370 bound_to 10713
  156.3592  130.7472  151.2442 LP  0  0  0  0  0  0  0  0  0  0  0  0  # atno 17371 bound_to 10713
  140.0081  135.0000  157.0337 LP  0  0  0  0  0  0  0  0  0  0  0  0  # atno 17394 bound_to 11000
  140.4646  134.1448  155.7195 LP  0  0  0  0  0  0  0  0  0  0  0  0  # atno 17395 bound_to 11000

$$$$
