AV-unprocessed.smi:283|AV-procd|sdf|2151|dock3
  -GOLD-   2262021493D 1   1.00000     0.00000
 Structure written by MMmdl.
 48 51  0  0  0  0  0  0  0  0  1 V2000
  149.5960  141.5409  156.8880 C   0  0  0  0  0  0  0  0  0  0  0  0
  151.1251  141.6981  156.8007 C   0  0  2  0  0  0  0  0  0  0  0  0
  151.7981  140.4017  156.8765 N   0  0  0  0  0  0  0  0  0  0  0  0
  151.4885  139.3860  156.0401 C   0  0  0  0  0  0  0  0  0  0  0  0
  151.0300  139.6185  154.7829 N   0  0  0  0  0  0  0  0  0  0  0  0
  150.7335  138.5932  153.9797 C   0  0  0  0  0  0  0  0  0  0  0  0
  150.8261  137.2853  154.2287 N   0  0  0  0  0  0  0  0  0  0  0  0
  151.2940  137.0428  155.4874 C   0  0  0  0  0  0  0  0  0  0  0  0
  151.6445  138.0352  156.4456 C   0  0  0  0  0  0  0  0  0  0  0  0
  152.0800  137.4281  157.6153 N   0  0  0  0  0  0  0  0  0  0  0  0
  151.9898  136.1511  157.3593 C   0  0  0  0  0  0  0  0  0  0  0  0
  151.5313  135.8272  156.1010 N   0  0  0  0  0  0  0  0  0  0  0  0
  151.3139  134.4509  155.5513 C   0  0  1  0  0  0  0  0  0  0  0  0
  151.7384  133.5275  156.5110 O   0  0  0  0  0  0  0  0  0  0  0  0
  150.6497  132.7141  156.9406 C   0  0  2  0  0  0  0  0  0  0  0  0
  151.1480  131.3337  157.4049 C   0  0  0  0  0  0  0  0  0  0  0  0
  152.1680  131.4783  158.3705 O   0  0  0  0  0  0  0  0  0  0  0  0
  149.6687  132.7456  155.7607 C   0  0  2  0  0  0  0  0  0  0  0  0
  150.0270  131.7794  154.7843 O   0  0  0  0  0  0  0  0  0  0  0  0
  149.8307  134.1762  155.2550 C   0  0  2  0  0  0  0  0  0  0  0  0
  149.5006  134.2830  153.8834 O   0  0  0  0  0  0  0  0  0  0  0  0
  151.6088  142.6729  157.8731 C   0  0  0  0  0  0  0  0  0  0  0  0
  151.3307  144.0548  157.7485 C   0  0  0  0  0  0  0  0  0  0  0  0
  151.7761  144.9685  158.7220 C   0  0  0  0  0  0  0  0  0  0  0  0
  152.5115  144.5118  159.8302 C   0  0  0  0  0  0  0  0  0  0  0  0
  152.8051  143.1420  159.9589 C   0  0  0  0  0  0  0  0  0  0  0  0
  152.3624  142.2222  158.9869 C   0  0  0  0  0  0  0  0  0  0  0  0
  152.7698  140.5538  159.1903 Cl  0  0  0  0  0  0  0  0  0  0  0  0
  151.9564  134.3848  154.6722 H   0  0  0  0  0  0  0  0  0  0  0  0
  150.1829  133.2142  157.7888 H   0  0  0  0  0  0  0  0  0  0  0  0
  148.6452  132.5448  156.0800 H   0  0  0  0  0  0  0  0  0  0  0  0
  149.2002  134.8476  155.8381 H   0  0  0  0  0  0  0  0  0  0  0  0
  149.0991  142.5054  156.7798 H   0  0  0  0  0  0  0  0  0  0  0  0
  149.2960  141.1201  157.8482 H   0  0  0  0  0  0  0  0  0  0  0  0
  149.2075  140.8894  156.1057 H   0  0  0  0  0  0  0  0  0  0  0  0
  151.3770  142.1258  155.8310 H   0  0  0  0  0  0  0  0  0  0  0  0
  152.4790  140.3090  157.6164 H   0  0  0  0  0  0  0  0  0  0  0  0
  150.3715  138.8584  152.9974 H   0  0  0  0  0  0  0  0  0  0  0  0
  152.2594  135.4021  158.0900 H   0  0  0  0  0  0  0  0  0  0  0  0
  150.3375  130.7290  157.8121 H   0  0  0  0  0  0  0  0  0  0  0  0
  151.5546  130.7835  156.5561 H   0  0  0  0  0  0  0  0  0  0  0  0
  152.9450  131.0417  158.0552 H   0  0  0  0  0  0  0  0  0  0  0  0
  150.9400  131.8979  154.5699 H   0  0  0  0  0  0  0  0  0  0  0  0
  149.4175  135.2004  153.6708 H   0  0  0  0  0  0  0  0  0  0  0  0
  150.7759  144.4284  156.9003 H   0  0  0  0  0  0  0  0  0  0  0  0
  151.5553  146.0205  158.6165 H   0  0  0  0  0  0  0  0  0  0  0  0
  152.8546  145.2118  160.5776 H   0  0  0  0  0  0  0  0  0  0  0  0
  153.3769  142.7960  160.8072 H   0  0  0  0  0  0  0  0  0  0  0  0
  1  2  1  0  0  0  0
  1 33  1  0  0  0  0
  1 34  1  0  0  0  0
  1 35  1  0  0  0  0
  2  3  1  0  0  0  0
  2 22  1  0  0  0  0
  2 36  1  0  0  0  0
  3  4  1  0  0  0  0
  3 37  1  0  0  0  0
  4  9  1  0  0  0  0
  4  5  2  0  0  0  0
  5  6  1  0  0  0  0
  6  7  2  0  0  0  0
  6 38  1  0  0  0  0
  7  8  1  0  0  0  0
  8 12  1  0  0  0  0
  8  9  2  0  0  0  0
  9 10  1  0  0  0  0
 10 11  2  0  0  0  0
 11 12  1  0  0  0  0
 11 39  1  0  0  0  0
 12 13  1  0  0  0  0
 13 29  1  0  0  0  0
 13 20  1  0  0  0  0
 13 14  1  0  0  0  0
 14 15  1  0  0  0  0
 15 30  1  0  0  0  0
 15 16  1  0  0  0  0
 15 18  1  0  0  0  0
 16 17  1  0  0  0  0
 16 40  1  0  0  0  0
 16 41  1  0  0  0  0
 17 42  1  0  0  0  0
 18 31  1  0  0  0  0
 18 19  1  0  0  0  0
 18 20  1  0  0  0  0
 19 43  1  0  0  0  0
 20 32  1  0  0  0  0
 20 21  1  0  0  0  0
 21 44  1  0  0  0  0
 22 27  1  0  0  0  0
 22 23  2  0  0  0  0
 23 24  1  0  0  0  0
 23 45  1  0  0  0  0
 24 25  2  0  0  0  0
 24 46  1  0  0  0  0
 25 26  1  0  0  0  0
 25 47  1  0  0  0  0
 26 27  2  0  0  0  0
 26 48  1  0  0  0  0
 27 28  1  0  0  0  0
M  END
> <s_m_source_file>
AV-unprocessed.smi

> <i_m_source_file_index>
283

> <i_lp_mmshare_version>
43012

> <i_f3d_flags>
0

> <s_epik_input>
Q2xjMVtjSF1bY0hdW2NIXVtjSF1jMVtDQEhdKFtDSDNdKVtOSF1jKG5bY0hdbjIpYyhjMjMpbltjSF1uM1tDQEBIXTRPW0NASF0oW0NIMl1bT0hdKVtDQEBIXShbT0hdKVtDQEhdNFtPSF0=

> <s_epik_cmdline>
J2VwaWtfcHl0aG9uJywgJy1waCcsICc3LjAnLCAnLXRuJywgJzgnLCAnLW1hJywgJzIwMCcsICctbWV0YWxfYmluZGluZycsICctaW1hZScsICc8aW5maWxlLm1hZT4nLCAnLW9tYWUnLCAnPG91dGZpbGUubWFlPic=

> <r_lp_tautomer_probability>
1

> <r_epik_Ionization_Penalty>
0.000266407

> <r_epik_Ionization_Penalty_Charging>
0

> <r_epik_Ionization_Penalty_Neutral>
0.000266407

> <r_epik_State_Penalty>
-0

> <r_epik_Charging_Adjusted_Penalty>
0

> <i_epik_Tot_Q>
0

> <i_epik_Tot_abs_Q>
0

> <r_epik_Metal_State_Penalty>
-0

> <b_epik_Metal_Only>
0

> <s_epik_Chemistry_Notes>
This compound contains an acetal/aminal-like group ( X-CH(R)-Y where X, Y are N, S, or O) that may be acid/base labile, releasing an aldehyde.

> <s_lp_Force_Field>
OPLS_2005

> <r_lp_Energy>
49.1948

> <b_lp_Chiralities_Consistent>
1

> <s_lp_Variant>
AV-unprocessed.smi:283-27

> <Gold.Version>
5.8.1

> <Gold.Id.Protein>
6NUR|6NUR_protein|mol2

> <Gold.PLP.Fitness>
52.1345

> <Gold.PLP.PLP>
-42.1959

> <Gold.PLP.part.hbond>
-3.1294

> <Gold.PLP.part.metal>
0.0000

> <Gold.PLP.part.buried>
-5.8604

> <Gold.PLP.part.nonpolar>
-34.3578

> <Gold.PLP.part.repulsive>
0.8005

> <Gold.PLP.ligand.clash>
0.0000

> <Gold.PLP.ligand.torsion>
0.5557

> <Gold.PLP.Chemscore.Hbond>
2.6240

> <Gold.PLP.Chemscore.CHOScore>
1.0000

> <Gold.PLP.Chemscore.Metal>
0.0000

> <Gold.Chemscore.Hbonds>
donor molecule, donor type, donor heavy atom, donor atom, acceptor molecule, acceptor atom, score
      L1  H    21    44       P1  7948  0.46
      P1  H  6896  6909       L1    17  0.84
      P1  H  7989  7998       L1     5  1.00
      L1  C     6    38       P1  7957  1.00

> <Gold.PLP.Chemscore.Internal.Correction>
0.1781

> <Gold.Rescore>
     Score         DG    S(hbond)    S(metal)    S(lipo)     H(rot)  DE(clash)    DE(int)     intcor
     10.91     -14.96       2.03        0.00     112.77       4.10       1.76       2.29       ----

> <Gold.Chemscore.Fitness>
10.9138

> <Gold.Chemscore.DG>
-14.9599

> <Gold.Chemscore.ZeroCoef>
-5.4800

> <Gold.Chemscore.Hbond>
2.0281

> <Gold.Chemscore.Metal>
0.0000

> <Gold.Chemscore.Lipo>
112.7703

> <Gold.Chemscore.Internal_Hbond>
0.0000

> <Gold.Chemscore.DEClash>
1.7576

> <Gold.Chemscore.DEInternal>
2.2885

> <Gold.Chemscore.Rot>
4.0968

> <Gold.Chemscore.Internal.Correction>
   9.000000E+99

> <Gold.Chemscore.Hbonds>
donor molecule, donor type, donor heavy atom, donor atom, acceptor molecule, acceptor atom, score
      L1  H    21    44       P1  7948  0.08
      P1  H  6896  6909       L1    17  0.21
      P1  H  7989  7998       L1     5  0.26

> <Gold.Chemscore.Hbond.Weighted>
-6.7737

> <Gold.Chemscore.Metal.Weighted>
-0.0000

> <Gold.Chemscore.Lipo.Weighted>
-13.1941

> <Gold.Chemscore.Internal_Hbond.Weighted>
0.0000

> <Gold.Chemscore.DEClash.Weighted>
1.7576

> <Gold.Chemscore.DEInternal.Weighted>
2.2885

> <Gold.Chemscore.Rot.Weighted>
10.4879

> <Gold.Chemscore.Internal.Correction.Weighted>
   9.000000E+99

> <Gold.Protein.RotatedTorsions>
[ 6907 6896 6895 6894 ] final  -54.19 input  -60.11 | X-H torsion
[ 7974 7965 7964 7962 ] final   43.76 input  175.53 | X-H torsion
[ 8008 7997 7996 7995 ] final   40.09 input   59.86 | X-H torsion
[ 10167 10162 10161 10158 ] final  -34.00 input  -65.29 | X-H torsion
[ 10718 10713 10712 10709 ] final   68.92 input   66.30 | X-H torsion
[ 10763 10752 10751 10750 ] final   93.86 input  -60.55 | X-H torsion
[ 11005 11000 10999 10996 ] final -160.33 input  -57.11 | X-H torsion

> <Gold.Protein.ActiveResidues>
 VAL166  LYS551  ARG553  GLY616  TRP617  ASP618  TYR619  PRO620  LYS621  CYS622 
 ASP623  PHE694  ASN695  SER759  ASP760  ASP761  ALA762  ILE779  LEU786  VAL792 
 PHE793  MET794  SER795  GLU796  ALA797  LYS798  CYS799  TRP800  GLU811  SER814 

> <Gold.Protein.RotatedAtoms>
  150.8360  134.7633  159.6892 H   0  0  0  0  0  0  0  0  0  0  0  0  # atno 6907 bound_to 6896
  152.4456  134.5497  159.9873 H   0  0  0  0  0  0  0  0  0  0  0  0  # atno 6908 bound_to 6896
  151.5648  133.3360  159.3014 H   0  0  0  0  0  0  0  0  0  0  0  0  # atno 6909 bound_to 6896
  146.0627  139.5150  142.9648 H   0  0  0  0  0  0  0  0  0  0  0  0  # atno 7974 bound_to 7965
  155.2474  140.3350  155.4286 H   0  0  0  0  0  0  0  0  0  0  0  0  # atno 8008 bound_to 7997
  156.2230  140.1817  156.7475 H   0  0  0  0  0  0  0  0  0  0  0  0  # atno 8009 bound_to 7997
  154.5855  140.0646  156.9150 H   0  0  0  0  0  0  0  0  0  0  0  0  # atno 8010 bound_to 7997
  140.7194  143.3580  151.2021 H   0  0  0  0  0  0  0  0  0  0  0  0  # atno 10167 bound_to 10162
  157.6316  130.9398  150.0442 H   0  0  0  0  0  0  0  0  0  0  0  0  # atno 10718 bound_to 10713
  153.2350  135.4310  155.0637 H   0  0  0  0  0  0  0  0  0  0  0  0  # atno 10763 bound_to 10752
  154.8314  135.3389  154.6732 H   0  0  0  0  0  0  0  0  0  0  0  0  # atno 10764 bound_to 10752
  153.7157  135.7020  153.5082 H   0  0  0  0  0  0  0  0  0  0  0  0  # atno 10765 bound_to 10752
  140.6327  134.4634  157.5230 H   0  0  0  0  0  0  0  0  0  0  0  0  # atno 11005 bound_to 11000
  145.6531  141.0258  143.1749 LP  0  0  0  0  0  0  0  0  0  0  0  0  # atno 17320 bound_to 7965
  144.7184  139.8114  143.7390 LP  0  0  0  0  0  0  0  0  0  0  0  0  # atno 17321 bound_to 7965
  139.7125  143.9353  152.2953 LP  0  0  0  0  0  0  0  0  0  0  0  0  # atno 17342 bound_to 10162
  139.9083  144.6871  150.8590 LP  0  0  0  0  0  0  0  0  0  0  0  0  # atno 17343 bound_to 10162
  156.1524  130.3642  149.9418 LP  0  0  0  0  0  0  0  0  0  0  0  0  # atno 17370 bound_to 10713
  156.7435  130.9088  151.3633 LP  0  0  0  0  0  0  0  0  0  0  0  0  # atno 17371 bound_to 10713
  139.9110  134.8345  156.1530 LP  0  0  0  0  0  0  0  0  0  0  0  0  # atno 17394 bound_to 11000
  141.0664  133.6817  156.2052 LP  0  0  0  0  0  0  0  0  0  0  0  0  # atno 17395 bound_to 11000

$$$$
