AV-unprocessed.smi:2097|AV-procd|sdf|8563|dock5
  -GOLD-   2272011293D 1   1.00000     0.00000
 Structure written by MMmdl.
 41 42  0  0  0  0  0  0  0  0  1 V2000
  154.9860  133.5183  160.9348 C   0  0  0  0  0  0  0  0  0  0  0  0
  155.1070  134.8500  161.6905 C   0  0  2  0  0  0  0  0  0  0  0  0
  154.4884  134.6775  162.9635 O   0  0  0  0  0  0  0  0  0  0  0  0
  155.0682  133.6811  163.8000 C   0  0  0  0  0  0  0  0  0  0  0  0
  154.2965  133.6174  165.1235 C   0  0  0  0  0  0  0  0  0  0  0  0
  153.2766  132.7693  164.9964 F   0  0  0  0  0  0  0  0  0  0  0  0
  155.0928  133.1855  166.1009 F   0  0  0  0  0  0  0  0  0  0  0  0
  153.8158  134.8207  165.4353 F   0  0  0  0  0  0  0  0  0  0  0  0
  154.4340  135.9960  160.9171 C   0  0  0  0  0  0  0  0  0  0  0  0
  153.8354  135.7548  159.8691 O   0  0  0  0  0  0  0  0  0  0  0  0
  154.5216  137.2136  161.4843 N   0  0  0  0  0  0  0  0  0  0  0  0
  153.9851  138.4459  161.0235 C   0  0  0  0  0  0  0  0  0  0  0  0
  154.5155  139.6382  161.5527 C   0  0  0  0  0  0  0  0  0  0  0  0
  154.0103  140.8743  161.1078 C   0  0  0  0  0  0  0  0  0  0  0  0
  152.9857  140.8902  160.1323 C   0  0  0  0  0  0  0  0  0  0  0  0
  152.4562  142.1180  159.6782 N   0  0  0  0  0  0  0  0  0  0  0  0
  152.1267  142.1755  158.2559 C   0  0  0  0  0  0  0  0  0  0  0  0
  151.2902  143.4295  157.9487 C   0  0  0  0  0  0  0  0  0  0  0  0
  151.9760  144.5909  158.4045 O   0  0  0  0  0  0  0  0  0  0  0  0
  152.1843  144.5633  159.8125 C   0  0  0  0  0  0  0  0  0  0  0  0
  153.0562  143.3518  160.1833 C   0  0  0  0  0  0  0  0  0  0  0  0
  152.4940  139.7424  159.6044 N   0  0  0  0  0  0  0  0  0  0  0  0
  152.9789  138.5587  160.0353 C   0  0  0  0  0  0  0  0  0  0  0  0
  155.4316  133.5838  159.9415 H   0  0  0  0  0  0  0  0  0  0  0  0
  153.9446  133.2159  160.8166 H   0  0  0  0  0  0  0  0  0  0  0  0
  155.4994  132.7215  161.4732 H   0  0  0  0  0  0  0  0  0  0  0  0
  156.1676  135.0679  161.8310 H   0  0  0  0  0  0  0  0  0  0  0  0
  155.0297  132.7102  163.3042 H   0  0  0  0  0  0  0  0  0  0  0  0
  156.1166  133.9026  164.0027 H   0  0  0  0  0  0  0  0  0  0  0  0
  154.9714  137.2475  162.3876 H   0  0  0  0  0  0  0  0  0  0  0  0
  155.2993  139.6103  162.2956 H   0  0  0  0  0  0  0  0  0  0  0  0
  154.4211  141.7891  161.5075 H   0  0  0  0  0  0  0  0  0  0  0  0
  153.0538  142.1964  157.6816 H   0  0  0  0  0  0  0  0  0  0  0  0
  151.5743  141.2945  157.9325 H   0  0  0  0  0  0  0  0  0  0  0  0
  151.1233  143.5145  156.8750 H   0  0  0  0  0  0  0  0  0  0  0  0
  150.3076  143.3661  158.4191 H   0  0  0  0  0  0  0  0  0  0  0  0
  152.6765  145.4867  160.1174 H   0  0  0  0  0  0  0  0  0  0  0  0
  151.2256  144.5265  160.3325 H   0  0  0  0  0  0  0  0  0  0  0  0
  153.1636  143.3037  161.2676 H   0  0  0  0  0  0  0  0  0  0  0  0
  154.0551  143.4678  159.7602 H   0  0  0  0  0  0  0  0  0  0  0  0
  152.5523  137.6941  159.5514 H   0  0  0  0  0  0  0  0  0  0  0  0
  1  2  1  0  0  0  0
  1 24  1  0  0  0  0
  1 25  1  0  0  0  0
  1 26  1  0  0  0  0
  2  3  1  0  0  0  0
  2  9  1  0  0  0  0
  2 27  1  0  0  0  0
  3  4  1  0  0  0  0
  4  5  1  0  0  0  0
  4 28  1  0  0  0  0
  4 29  1  0  0  0  0
  5  6  1  0  0  0  0
  5  7  1  0  0  0  0
  5  8  1  0  0  0  0
  9 10  2  0  0  0  0
  9 11  1  0  0  0  0
 11 12  1  0  0  0  0
 11 30  1  0  0  0  0
 12 23  1  0  0  0  0
 12 13  2  0  0  0  0
 13 14  1  0  0  0  0
 13 31  1  0  0  0  0
 14 15  2  0  0  0  0
 14 32  1  0  0  0  0
 15 16  1  0  0  0  0
 15 22  1  0  0  0  0
 16 21  1  0  0  0  0
 16 17  1  0  0  0  0
 17 18  1  0  0  0  0
 17 33  1  0  0  0  0
 17 34  1  0  0  0  0
 18 19  1  0  0  0  0
 18 35  1  0  0  0  0
 18 36  1  0  0  0  0
 19 20  1  0  0  0  0
 20 21  1  0  0  0  0
 20 37  1  0  0  0  0
 20 38  1  0  0  0  0
 21 39  1  0  0  0  0
 21 40  1  0  0  0  0
 22 23  2  0  0  0  0
 23 41  1  0  0  0  0
M  END
> <s_m_source_file>
AV-unprocessed.smi

> <i_m_source_file_index>
2097

> <i_lp_mmshare_version>
43012

> <i_f3d_flags>
0

> <s_epik_input>
RkMoRikoRilbQ0gyXU9bQ0BASF0oW0NIM10pQyg9TylbTkhdYzFbY0hdW2NIXWMobltjSF0xKU4yW0NIMl1bQ0gyXU9bQ0gyXVtDSDJdMg==

> <s_epik_cmdline>
J2VwaWtfcHl0aG9uJywgJy1waCcsICc3LjAnLCAnLXRuJywgJzgnLCAnLW1hJywgJzIwMCcsICctbWV0YWxfYmluZGluZycsICctaW1hZScsICc8aW5maWxlLm1hZT4nLCAnLW9tYWUnLCAnPG91dGZpbGUubWFlPic=

> <r_lp_tautomer_probability>
1

> <r_epik_Ionization_Penalty>
0.000443452

> <r_epik_Ionization_Penalty_Charging>
0

> <r_epik_Ionization_Penalty_Neutral>
0.000443452

> <r_epik_State_Penalty>
0.00027288

> <r_epik_Charging_Adjusted_Penalty>
0.00027288

> <i_epik_Tot_Q>
0

> <i_epik_Tot_abs_Q>
0

> <r_epik_Metal_State_Penalty>
-0

> <b_epik_Metal_Only>
0

> <s_lp_Force_Field>
OPLS_2005

> <r_lp_Energy>
25.2007

> <b_lp_Chiralities_Consistent>
1

> <s_lp_Variant>
AV-unprocessed.smi:2097-1

> <Gold.Version>
5.8.1

> <Gold.Id.Protein>
6NUR|6NUR_protein|mol2

> <Gold.PLP.Fitness>
39.9205

> <Gold.PLP.PLP>
-38.4015

> <Gold.PLP.part.hbond>
-1.0000

> <Gold.PLP.part.metal>
0.0000

> <Gold.PLP.part.buried>
-3.8348

> <Gold.PLP.part.nonpolar>
-32.9206

> <Gold.PLP.part.repulsive>
0.0960

> <Gold.PLP.ligand.clash>
0.0000

> <Gold.PLP.ligand.torsion>
0.9292

> <Gold.PLP.Chemscore.Hbond>
1.0000

> <Gold.PLP.Chemscore.CHOScore>
0.0000

> <Gold.PLP.Chemscore.Metal>
0.0000

> <Gold.Chemscore.Hbonds>
donor molecule, donor type, donor heavy atom, donor atom, acceptor molecule, acceptor atom, score
      P1  H  6896  6908       L1    10  1.00

> <Gold.PLP.Chemscore.Internal.Correction>
0.3775

> <Gold.Rescore>
     Score         DG    S(hbond)    S(metal)    S(lipo)     H(rot)  DE(clash)    DE(int)     intcor
     11.77     -14.88       0.98        0.00      94.96       1.95       0.96       2.15       ----

> <Gold.Chemscore.Fitness>
11.7723

> <Gold.Chemscore.DG>
-14.8801

> <Gold.Chemscore.ZeroCoef>
-5.4800

> <Gold.Chemscore.Hbond>
0.9819

> <Gold.Chemscore.Metal>
0.0000

> <Gold.Chemscore.Lipo>
94.9611

> <Gold.Chemscore.Internal_Hbond>
0.0000

> <Gold.Chemscore.DEClash>
0.9583

> <Gold.Chemscore.DEInternal>
2.1495

> <Gold.Chemscore.Rot>
1.9491

> <Gold.Chemscore.Internal.Correction>
   9.000000E+99

> <Gold.Chemscore.Hbonds>
donor molecule, donor type, donor heavy atom, donor atom, acceptor molecule, acceptor atom, score
      P1  H  6896  6908       L1    10  0.93

> <Gold.Chemscore.Hbond.Weighted>
-3.2794

> <Gold.Chemscore.Metal.Weighted>
-0.0000

> <Gold.Chemscore.Lipo.Weighted>
-11.1104

> <Gold.Chemscore.Internal_Hbond.Weighted>
0.0000

> <Gold.Chemscore.DEClash.Weighted>
0.9583

> <Gold.Chemscore.DEInternal.Weighted>
2.1495

> <Gold.Chemscore.Rot.Weighted>
4.9897

> <Gold.Chemscore.Internal.Correction.Weighted>
   9.000000E+99

> <Gold.Protein.RotatedTorsions>
[ 6907 6896 6895 6894 ] final  -56.87 input  -60.11 | X-H torsion
[ 7974 7965 7964 7962 ] final  154.26 input  175.53 | X-H torsion
[ 8008 7997 7996 7995 ] final  130.69 input   59.86 | X-H torsion
[ 10167 10162 10161 10158 ] final   -3.66 input  -65.29 | X-H torsion
[ 10718 10713 10712 10709 ] final  -22.55 input   66.30 | X-H torsion
[ 10763 10752 10751 10750 ] final  -94.70 input  -60.55 | X-H torsion
[ 11005 11000 10999 10996 ] final -128.45 input  -57.11 | X-H torsion

> <Gold.Protein.ActiveResidues>
 VAL166  LYS551  ARG553  GLY616  TRP617  ASP618  TYR619  PRO620  LYS621  CYS622 
 ASP623  PHE694  ASN695  SER759  ASP760  ASP761  ALA762  ILE779  LEU786  VAL792 
 PHE793  MET794  SER795  GLU796  ALA797  LYS798  CYS799  TRP800  GLU811  SER814 

> <Gold.Protein.RotatedAtoms>
  150.8132  134.7298  159.6706 H   0  0  0  0  0  0  0  0  0  0  0  0  # atno 6907 bound_to 6896
  152.4251  134.5880  159.9976 H   0  0  0  0  0  0  0  0  0  0  0  0  # atno 6908 bound_to 6896
  151.6084  133.3312  159.3098 H   0  0  0  0  0  0  0  0  0  0  0  0  # atno 6909 bound_to 6896
  144.8100  139.6910  143.6145 H   0  0  0  0  0  0  0  0  0  0  0  0  # atno 7974 bound_to 7965
  156.2958  140.2590  156.2803 H   0  0  0  0  0  0  0  0  0  0  0  0  # atno 8008 bound_to 7997
  154.9609  140.0392  157.2208 H   0  0  0  0  0  0  0  0  0  0  0  0  # atno 8009 bound_to 7997
  154.7948  140.2818  155.5969 H   0  0  0  0  0  0  0  0  0  0  0  0  # atno 8010 bound_to 7997
  140.6898  143.6514  150.8347 H   0  0  0  0  0  0  0  0  0  0  0  0  # atno 10167 bound_to 10162
  156.5030  130.4592  149.6690 H   0  0  0  0  0  0  0  0  0  0  0  0  # atno 10718 bound_to 10713
  154.7080  135.5148  153.8624 H   0  0  0  0  0  0  0  0  0  0  0  0  # atno 10763 bound_to 10752
  153.0757  135.6615  154.0160 H   0  0  0  0  0  0  0  0  0  0  0  0  # atno 10764 bound_to 10752
  154.0007  135.3011  155.3382 H   0  0  0  0  0  0  0  0  0  0  0  0  # atno 10765 bound_to 10752
  140.9515  134.1059  157.4057 H   0  0  0  0  0  0  0  0  0  0  0  0  # atno 11005 bound_to 11000
  146.2397  139.5977  142.9499 LP  0  0  0  0  0  0  0  0  0  0  0  0  # atno 17320 bound_to 7965
  145.5346  141.0425  143.2364 LP  0  0  0  0  0  0  0  0  0  0  0  0  # atno 17321 bound_to 7965
  140.0225  143.5527  152.2794 LP  0  0  0  0  0  0  0  0  0  0  0  0  # atno 17342 bound_to 10162
  139.6291  144.7641  151.2575 LP  0  0  0  0  0  0  0  0  0  0  0  0  # atno 17343 bound_to 10162
  156.3314  130.7333  151.2263 LP  0  0  0  0  0  0  0  0  0  0  0  0  # atno 17370 bound_to 10713
  157.7460  131.0429  150.4716 LP  0  0  0  0  0  0  0  0  0  0  0  0  # atno 17371 bound_to 10713
  139.8849  135.0067  156.6399 LP  0  0  0  0  0  0  0  0  0  0  0  0  # atno 17394 bound_to 11000
  140.7595  133.8829  155.8407 LP  0  0  0  0  0  0  0  0  0  0  0  0  # atno 17395 bound_to 11000

$$$$
