AV-unprocessed.smi:1388|AV-procd|sdf|5643|dock3
  -GOLD-   22720 5263D 1   1.00000     0.00000
 Structure written by MMmdl.
 46 47  0  0  0  0  0  0  0  0  2 V2000
  141.8120  138.6708  154.7512 C   0  0  0  0  0  0  0  0  0  0  0  0
  142.6157  139.8836  154.7774 N   0  0  0  0  0  0  0  0  0  0  0  0
  143.0838  140.4533  155.8966 C   0  0  0  0  0  0  0  0  0  0  0  0
  142.8705  140.0032  157.0229 O   0  0  0  0  0  0  0  0  0  0  0  0
  143.9017  141.7358  155.7122 C   0  0  0  0  0  0  0  0  0  0  0  0
  145.1297  141.5326  154.9008 N   0  3  2  0  0  0  0  0  0  0  0  0
  146.1119  140.6454  155.5744 C   0  0  0  0  0  0  0  0  0  0  0  0
  147.3074  140.3351  154.6548 C   0  0  0  0  0  0  0  0  0  0  0  0
  147.9894  141.6140  154.1393 C   0  0  2  0  0  0  0  0  0  0  0  0
  148.7218  142.2751  155.2190 N   0  0  0  0  0  0  0  0  0  0  0  0
  149.6762  141.7048  155.9692 C   0  0  0  0  0  0  0  0  0  0  0  0
  150.0480  140.5406  155.8208 O   0  0  0  0  0  0  0  0  0  0  0  0
  150.1626  142.5702  156.8764 N   0  0  0  0  0  0  0  0  0  0  0  0
  151.1654  142.3484  157.8622 C   0  0  0  0  0  0  0  0  0  0  0  0
  151.6821  141.1200  158.1164 N   0  0  0  0  0  0  0  0  0  0  0  0
  152.6263  140.9794  159.0691 C   0  0  0  0  0  0  0  0  0  0  0  0
  153.1160  142.0554  159.8288 C   0  0  0  0  0  0  0  0  0  0  0  0
  152.5919  143.3350  159.5778 C   0  0  0  0  0  0  0  0  0  0  0  0
  151.6029  143.4917  158.5835 C   0  0  0  0  0  0  0  0  0  0  0  0
  151.0356  144.8754  158.3108 C   0  0  0  0  0  0  0  0  0  0  0  0
  146.9362  142.5461  153.5082 C   0  0  0  0  0  0  0  0  0  0  0  0
  145.7556  142.8079  154.4598 C   0  0  0  0  0  0  0  0  0  0  0  0
  141.5804  138.4003  153.7212 H   0  0  0  0  0  0  0  0  0  0  0  0
  140.8718  138.8163  155.2850 H   0  0  0  0  0  0  0  0  0  0  0  0
  142.3476  137.8385  155.2092 H   0  0  0  0  0  0  0  0  0  0  0  0
  142.8245  140.3163  153.8889 H   0  0  0  0  0  0  0  0  0  0  0  0
  143.2875  142.5226  155.2711 H   0  0  0  0  0  0  0  0  0  0  0  0
  144.1743  142.0749  156.7124 H   0  0  0  0  0  0  0  0  0  0  0  0
  146.4531  141.1140  156.4988 H   0  0  0  0  0  0  0  0  0  0  0  0
  145.6290  139.7086  155.8551 H   0  0  0  0  0  0  0  0  0  0  0  0
  148.0287  139.7051  155.1770 H   0  0  0  0  0  0  0  0  0  0  0  0
  146.9564  139.7505  153.8033 H   0  0  0  0  0  0  0  0  0  0  0  0
  148.7093  141.3250  153.3713 H   0  0  0  0  0  0  0  0  0  0  0  0
  148.4763  143.2342  155.4163 H   0  0  0  0  0  0  0  0  0  0  0  0
  149.7714  143.5002  156.8636 H   0  0  0  0  0  0  0  0  0  0  0  0
  153.0019  139.9797  159.2295 H   0  0  0  0  0  0  0  0  0  0  0  0
  153.8730  141.9028  160.5835 H   0  0  0  0  0  0  0  0  0  0  0  0
  152.9469  144.1837  160.1439 H   0  0  0  0  0  0  0  0  0  0  0  0
  151.5080  145.6294  158.9409 H   0  0  0  0  0  0  0  0  0  0  0  0
  149.9642  144.8944  158.5112 H   0  0  0  0  0  0  0  0  0  0  0  0
  151.2001  145.1579  157.2709 H   0  0  0  0  0  0  0  0  0  0  0  0
  147.3895  143.4906  153.2052 H   0  0  0  0  0  0  0  0  0  0  0  0
  146.5583  142.0886  152.5929 H   0  0  0  0  0  0  0  0  0  0  0  0
  145.0205  143.4304  153.9490 H   0  0  0  0  0  0  0  0  0  0  0  0
  146.0910  143.3728  155.3310 H   0  0  0  0  0  0  0  0  0  0  0  0
  144.8346  141.0466  154.0654 H   0  0  0  0  0  0  0  0  0  0  0  0
  1  2  1  0  0  0  0
  1 23  1  0  0  0  0
  1 24  1  0  0  0  0
  1 25  1  0  0  0  0
  2  3  1  0  0  0  0
  2 26  1  0  0  0  0
  3  4  2  0  0  0  0
  3  5  1  0  0  0  0
  5  6  1  0  0  0  0
  5 27  1  0  0  0  0
  5 28  1  0  0  0  0
  6 22  1  0  0  0  0
  6  7  1  0  0  0  0
  6 46  1  0  0  0  0
  7  8  1  0  0  0  0
  7 29  1  0  0  0  0
  7 30  1  0  0  0  0
  8  9  1  0  0  0  0
  8 31  1  0  0  0  0
  8 32  1  0  0  0  0
  9 10  1  0  0  0  0
  9 21  1  0  0  0  0
  9 33  1  0  0  0  0
 10 11  1  0  0  0  0
 10 34  1  0  0  0  0
 11 12  2  0  0  0  0
 11 13  1  0  0  0  0
 13 14  1  0  0  0  0
 13 35  1  0  0  0  0
 14 19  1  0  0  0  0
 14 15  2  0  0  0  0
 15 16  1  0  0  0  0
 16 17  2  0  0  0  0
 16 36  1  0  0  0  0
 17 18  1  0  0  0  0
 17 37  1  0  0  0  0
 18 19  2  0  0  0  0
 18 38  1  0  0  0  0
 19 20  1  0  0  0  0
 20 39  1  0  0  0  0
 20 40  1  0  0  0  0
 20 41  1  0  0  0  0
 21 22  1  0  0  0  0
 21 42  1  0  0  0  0
 21 43  1  0  0  0  0
 22 44  1  0  0  0  0
 22 45  1  0  0  0  0
M  CHG  1   6   1
M  END
> <s_m_source_file>
AV-unprocessed.smi

> <i_m_source_file_index>
1388

> <i_lp_mmshare_version>
43012

> <i_f3d_flags>
0

> <s_epik_input>
W0NIM11bTkhdQyg9TylbQ0gyXU4xW0NIMl1bQ0gyXVtDSF0oW0NIMl1bQ0gyXTEpW05IXUMoPU8pW05IXWMybltjSF1bY0hdW2NIXWMyW0NIM10=

> <s_epik_cmdline>
J2VwaWtfcHl0aG9uJywgJy1waCcsICc3LjAnLCAnLXRuJywgJzgnLCAnLW1hJywgJzIwMCcsICctbWV0YWxfYmluZGluZycsICctaW1hZScsICc8aW5maWxlLm1hZT4nLCAnLW9tYWUnLCAnPG91dGZpbGUubWFlPic=

> <r_epik_Ionization_Penalty>
0.83891

> <r_epik_Ionization_Penalty_Charging>
0.838844

> <r_epik_Ionization_Penalty_Neutral>
6.58477e-05

> <r_epik_State_Penalty>
0.8734

> <r_epik_Charging_Adjusted_Penalty>
1.71224

> <i_epik_Tot_Q>
1

> <i_epik_Tot_abs_Q>
1

> <r_epik_Metal_State_Penalty>
0.877924

> <b_epik_Metal_Only>
0

> <s_lp_Force_Field>
OPLS_2005

> <r_lp_Energy>
16.2558

> <b_lp_Chiralities_Consistent>
1

> <s_lp_Variant>
AV-unprocessed.smi:1388-3

> <Gold.Version>
5.8.1

> <Gold.Id.Protein>
6NUR|6NUR_protein|mol2

> <Gold.PLP.Fitness>
50.8228

> <Gold.PLP.PLP>
-36.4510

> <Gold.PLP.part.hbond>
-3.8468

> <Gold.PLP.part.metal>
0.0000

> <Gold.PLP.part.buried>
-6.4588

> <Gold.PLP.part.nonpolar>
-26.6411

> <Gold.PLP.part.repulsive>
0.2631

> <Gold.PLP.ligand.clash>
0.0000

> <Gold.PLP.ligand.torsion>
0.0738

> <Gold.PLP.Chemscore.Hbond>
4.8320

> <Gold.PLP.Chemscore.CHOScore>
0.0000

> <Gold.PLP.Chemscore.Metal>
0.0000

> <Gold.Chemscore.Hbonds>
donor molecule, donor type, donor heavy atom, donor atom, acceptor molecule, acceptor atom, score
      L1  H     2    26       P1 10175  1.00
      L1  H     6    46       P1 10175  2.00
      L1  H    10    34       P1  8028  1.00
      L1  H    13    35       P1  8028  0.82

> <Gold.PLP.Chemscore.Internal.Correction>
0.0234

> <Gold.Rescore>
     Score         DG    S(hbond)    S(metal)    S(lipo)     H(rot)  DE(clash)    DE(int)     intcor
     20.60     -23.13       3.57        0.00      85.76       1.69       1.17       1.36       ----

> <Gold.Chemscore.Fitness>
20.5996

> <Gold.Chemscore.DG>
-23.1250

> <Gold.Chemscore.ZeroCoef>
-5.4800

> <Gold.Chemscore.Hbond>
3.5704

> <Gold.Chemscore.Metal>
0.0000

> <Gold.Chemscore.Lipo>
85.7623

> <Gold.Chemscore.Internal_Hbond>
0.0000

> <Gold.Chemscore.DEClash>
1.1669

> <Gold.Chemscore.DEInternal>
1.3585

> <Gold.Chemscore.Rot>
1.6853

> <Gold.Chemscore.Internal.Correction>
   9.000000E+99

> <Gold.Chemscore.Hbonds>
donor molecule, donor type, donor heavy atom, donor atom, acceptor molecule, acceptor atom, score
      L1  H     2    26       P1 10175  0.93
      L1  H     6    46       P1 10175  0.79
      L1  H    10    34       P1  8028  0.90
      L1  H    13    35       P1  8028  0.81

> <Gold.Chemscore.Hbond.Weighted>
-11.9251

> <Gold.Chemscore.Metal.Weighted>
-0.0000

> <Gold.Chemscore.Lipo.Weighted>
-10.0342

> <Gold.Chemscore.Internal_Hbond.Weighted>
0.0000

> <Gold.Chemscore.DEClash.Weighted>
1.1669

> <Gold.Chemscore.DEInternal.Weighted>
1.3585

> <Gold.Chemscore.Rot.Weighted>
4.3143

> <Gold.Chemscore.Internal.Correction.Weighted>
   9.000000E+99

> <Gold.Protein.RotatedTorsions>
[ 6907 6896 6895 6894 ] final  107.25 input  -60.11 | X-H torsion
[ 7974 7965 7964 7962 ] final  -29.30 input  175.53 | X-H torsion
[ 8008 7997 7996 7995 ] final  -32.28 input   59.86 | X-H torsion
[ 10167 10162 10161 10158 ] final   45.22 input  -65.29 | X-H torsion
[ 10718 10713 10712 10709 ] final   18.68 input   66.30 | X-H torsion
[ 10763 10752 10751 10750 ] final -177.18 input  -60.55 | X-H torsion
[ 11005 11000 10999 10996 ] final  159.26 input  -57.11 | X-H torsion

> <Gold.Protein.ActiveResidues>
 VAL166  LYS551  ARG553  GLY616  TRP617  ASP618  TYR619  PRO620  LYS621  CYS622 
 ASP623  PHE694  ASN695  SER759  ASP760  ASP761  ALA762  ILE779  LEU786  VAL792 
 PHE793  MET794  SER795  GLU796  ALA797  LYS798  CYS799  TRP800  GLU811  SER814 

> <Gold.Protein.RotatedAtoms>
  152.5162  133.9262  159.7557 H   0  0  0  0  0  0  0  0  0  0  0  0  # atno 6907 bound_to 6896
  150.9622  133.6424  159.2759 H   0  0  0  0  0  0  0  0  0  0  0  0  # atno 6908 bound_to 6896
  151.3665  135.0919  159.9504 H   0  0  0  0  0  0  0  0  0  0  0  0  # atno 6909 bound_to 6896
  146.1226  140.5395  142.8728 H   0  0  0  0  0  0  0  0  0  0  0  0  # atno 7974 bound_to 7965
  154.4185  140.1742  156.1701 H   0  0  0  0  0  0  0  0  0  0  0  0  # atno 8008 bound_to 7997
  155.9767  140.3381  155.6601 H   0  0  0  0  0  0  0  0  0  0  0  0  # atno 8009 bound_to 7997
  155.6554  140.0695  157.2563 H   0  0  0  0  0  0  0  0  0  0  0  0  # atno 8010 bound_to 7997
  140.3263  144.2643  150.6174 H   0  0  0  0  0  0  0  0  0  0  0  0  # atno 10167 bound_to 10162
  157.0997  130.6463  149.5869 H   0  0  0  0  0  0  0  0  0  0  0  0  # atno 10718 bound_to 10713
  154.5633  135.2822  155.0898 H   0  0  0  0  0  0  0  0  0  0  0  0  # atno 10763 bound_to 10752
  154.2298  135.6376  153.5175 H   0  0  0  0  0  0  0  0  0  0  0  0  # atno 10764 bound_to 10752
  153.0035  135.5534  154.6234 H   0  0  0  0  0  0  0  0  0  0  0  0  # atno 10765 bound_to 10752
  140.1944  134.8384  157.2948 H   0  0  0  0  0  0  0  0  0  0  0  0  # atno 11005 bound_to 11000
  144.7611  140.5425  143.6734 LP  0  0  0  0  0  0  0  0  0  0  0  0  # atno 17320 bound_to 7965
  145.5434  139.1475  143.3434 LP  0  0  0  0  0  0  0  0  0  0  0  0  # atno 17321 bound_to 7965
  140.5438  143.2218  151.8041 LP  0  0  0  0  0  0  0  0  0  0  0  0  # atno 17342 bound_to 10162
  139.4864  144.4566  151.9591 LP  0  0  0  0  0  0  0  0  0  0  0  0  # atno 17343 bound_to 10162
  155.9876  130.4917  150.7135 LP  0  0  0  0  0  0  0  0  0  0  0  0  # atno 17370 bound_to 10713
  157.4651  131.0887  151.0704 LP  0  0  0  0  0  0  0  0  0  0  0  0  # atno 17371 bound_to 10713
  140.2123  134.4123  155.7606 LP  0  0  0  0  0  0  0  0  0  0  0  0  # atno 17394 bound_to 11000
  141.2227  133.7125  156.8358 LP  0  0  0  0  0  0  0  0  0  0  0  0  # atno 17395 bound_to 11000

$$$$
