AV-unprocessed.smi:1780|AV-procd|sdf|7183|dock4
  -GOLD-   22720 8423D 1   1.00000     0.00000
 Structure written by MMmdl.
 43 44  0  0  0  0  0  0  0  0  1 V2000
  143.9150  132.6973  148.2330 C   0  0  0  0  0  0  0  0  0  0  0  0
  143.8758  132.3082  149.7156 C   0  0  0  0  0  0  0  0  0  0  0  0
  144.2128  133.4264  150.5749 N   0  0  0  0  0  0  0  0  0  0  0  0
  145.3348  134.2301  150.5309 C   0  0  0  0  0  0  0  0  0  0  0  0
  145.1847  135.1338  151.5395 C   0  0  0  0  0  0  0  0  0  0  0  0
  146.1166  136.1530  151.8584 N   0  0  0  0  0  0  0  0  0  0  0  0
  145.8443  137.4022  152.2683 C   0  0  0  0  0  0  0  0  0  0  0  0
  144.7148  137.8770  152.3854 O   0  0  0  0  0  0  0  0  0  0  0  0
  146.9687  138.0778  152.5477 N   0  0  0  0  0  0  0  0  0  0  0  0
  147.0354  139.4543  153.0349 C   0  0  0  0  0  0  0  0  0  0  0  0
  147.1279  139.5531  154.5850 C   0  0  2  0  0  0  0  0  0  0  0  0
  146.3605  140.8122  155.0631 C   0  0  0  0  0  0  0  0  0  0  0  0
  148.5211  139.5085  155.0896 N   0  0  0  0  0  0  0  0  0  0  0  0
  149.1792  140.8200  155.0649 C   0  0  0  0  0  0  0  0  0  0  0  0
  150.6348  140.7689  155.5604 C   0  0  0  0  0  0  0  0  0  0  0  0
  151.3742  139.8385  154.7822 O   0  0  0  0  0  0  0  0  0  0  0  0
  150.8170  138.5333  154.8434 C   0  0  0  0  0  0  0  0  0  0  0  0
  149.3629  138.5666  154.3418 C   0  0  0  0  0  0  0  0  0  0  0  0
  143.9429  134.8199  152.1608 C   0  0  0  0  0  0  0  0  0  0  0  0
  143.3641  133.7854  151.5696 N   0  0  0  0  0  0  0  0  0  0  0  0
  143.6708  131.8428  147.6019 H   0  0  0  0  0  0  0  0  0  0  0  0
  144.9049  133.0522  147.9452 H   0  0  0  0  0  0  0  0  0  0  0  0
  143.1977  133.4885  148.0124 H   0  0  0  0  0  0  0  0  0  0  0  0
  142.8841  131.9434  149.9864 H   0  0  0  0  0  0  0  0  0  0  0  0
  144.5766  131.4954  149.9092 H   0  0  0  0  0  0  0  0  0  0  0  0
  146.1210  134.0911  149.8037 H   0  0  0  0  0  0  0  0  0  0  0  0
  147.0905  135.8965  151.7920 H   0  0  0  0  0  0  0  0  0  0  0  0
  147.8498  137.6022  152.4202 H   0  0  0  0  0  0  0  0  0  0  0  0
  147.9256  139.8646  152.5621 H   0  0  0  0  0  0  0  0  0  0  0  0
  146.1950  140.0475  152.6703 H   0  0  0  0  0  0  0  0  0  0  0  0
  146.5985  138.6888  154.9892 H   0  0  0  0  0  0  0  0  0  0  0  0
  145.3410  140.8464  154.6823 H   0  0  0  0  0  0  0  0  0  0  0  0
  146.8622  141.7253  154.7406 H   0  0  0  0  0  0  0  0  0  0  0  0
  146.2517  140.8504  156.1455 H   0  0  0  0  0  0  0  0  0  0  0  0
  149.1550  141.2277  154.0532 H   0  0  0  0  0  0  0  0  0  0  0  0
  148.6552  141.5261  155.7058 H   0  0  0  0  0  0  0  0  0  0  0  0
  151.0982  141.7517  155.4743 H   0  0  0  0  0  0  0  0  0  0  0  0
  150.6748  140.4873  156.6139 H   0  0  0  0  0  0  0  0  0  0  0  0
  151.4151  137.8627  154.2264 H   0  0  0  0  0  0  0  0  0  0  0  0
  150.8651  138.1548  155.8656 H   0  0  0  0  0  0  0  0  0  0  0  0
  148.9766  137.5530  154.4270 H   0  0  0  0  0  0  0  0  0  0  0  0
  149.3526  138.8232  153.2814 H   0  0  0  0  0  0  0  0  0  0  0  0
  143.4473  135.2870  152.9986 H   0  0  0  0  0  0  0  0  0  0  0  0
  1  2  1  0  0  0  0
  1 21  1  0  0  0  0
  1 22  1  0  0  0  0
  1 23  1  0  0  0  0
  2  3  1  0  0  0  0
  2 24  1  0  0  0  0
  2 25  1  0  0  0  0
  3 20  1  0  0  0  0
  3  4  1  0  0  0  0
  4  5  2  0  0  0  0
  4 26  1  0  0  0  0
  5  6  1  0  0  0  0
  5 19  1  0  0  0  0
  6  7  1  0  0  0  0
  6 27  1  0  0  0  0
  7  8  2  0  0  0  0
  7  9  1  0  0  0  0
  9 10  1  0  0  0  0
  9 28  1  0  0  0  0
 10 11  1  0  0  0  0
 10 29  1  0  0  0  0
 10 30  1  0  0  0  0
 11 12  1  0  0  0  0
 11 13  1  0  0  0  0
 11 31  1  0  0  0  0
 12 32  1  0  0  0  0
 12 33  1  0  0  0  0
 12 34  1  0  0  0  0
 13 18  1  0  0  0  0
 13 14  1  0  0  0  0
 14 15  1  0  0  0  0
 14 35  1  0  0  0  0
 14 36  1  0  0  0  0
 15 16  1  0  0  0  0
 15 37  1  0  0  0  0
 15 38  1  0  0  0  0
 16 17  1  0  0  0  0
 17 18  1  0  0  0  0
 17 39  1  0  0  0  0
 17 40  1  0  0  0  0
 18 41  1  0  0  0  0
 18 42  1  0  0  0  0
 19 20  2  0  0  0  0
 19 43  1  0  0  0  0
M  END
> <s_m_source_file>
AV-unprocessed.smi

> <i_m_source_file_index>
1780

> <i_lp_mmshare_version>
43012

> <i_f3d_flags>
0

> <s_epik_input>
W0NIM11bQ0gyXW4xW2NIXWMoW2NIXW4xKVtOSF1DKD1PKVtOSF1bQ0gyXVtDQEhdKFtDSDNdKU4yW0NIMl1bQ0gyXU9bQ0gyXVtDSDJdMg==

> <s_epik_cmdline>
J2VwaWtfcHl0aG9uJywgJy1waCcsICc3LjAnLCAnLXRuJywgJzgnLCAnLW1hJywgJzIwMCcsICctbWV0YWxfYmluZGluZycsICctaW1hZScsICc8aW5maWxlLm1hZT4nLCAnLW9tYWUnLCAnPG91dGZpbGUubWFlPic=

> <r_lp_tautomer_probability>
1

> <r_epik_Ionization_Penalty>
0.242902

> <r_epik_Ionization_Penalty_Charging>
0

> <r_epik_Ionization_Penalty_Neutral>
0.242902

> <r_epik_State_Penalty>
0.233765

> <r_epik_Charging_Adjusted_Penalty>
0.233765

> <i_epik_Tot_Q>
0

> <i_epik_Tot_abs_Q>
0

> <r_epik_Metal_State_Penalty>
0.233759

> <b_epik_Metal_Only>
0

> <s_lp_Force_Field>
OPLS_2005

> <r_lp_Energy>
32.6304

> <b_lp_Chiralities_Consistent>
1

> <s_lp_Variant>
AV-unprocessed.smi:1780-1

> <Gold.Version>
5.8.1

> <Gold.Id.Protein>
6NUR|6NUR_protein|mol2

> <Gold.PLP.Fitness>
43.4939

> <Gold.PLP.PLP>
-34.0436

> <Gold.PLP.part.hbond>
-3.0000

> <Gold.PLP.part.metal>
0.0000

> <Gold.PLP.part.buried>
-5.9863

> <Gold.PLP.part.nonpolar>
-27.3954

> <Gold.PLP.part.repulsive>
1.4592

> <Gold.PLP.ligand.clash>
0.0000

> <Gold.PLP.ligand.torsion>
1.2893

> <Gold.PLP.Chemscore.Hbond>
3.0000

> <Gold.PLP.Chemscore.CHOScore>
0.9969

> <Gold.PLP.Chemscore.Metal>
0.0000

> <Gold.Chemscore.Hbonds>
donor molecule, donor type, donor heavy atom, donor atom, acceptor molecule, acceptor atom, score
      L1  H     6    27       P1  7948  1.00
      L1  H     9    28       P1  7948  1.00
      P1  H  7989  7998       L1    16  0.80
      L1  C     4    26       P1  7921  0.85

> <Gold.PLP.Chemscore.Internal.Correction>
0.0381

> <Gold.Rescore>
     Score         DG    S(hbond)    S(metal)    S(lipo)     H(rot)  DE(clash)    DE(int)     intcor
     17.42     -19.79       2.91        0.00      74.59       1.61       0.08       2.29       ----

> <Gold.Chemscore.Fitness>
17.4181

> <Gold.Chemscore.DG>
-19.7898

> <Gold.Chemscore.ZeroCoef>
-5.4800

> <Gold.Chemscore.Hbond>
2.9069

> <Gold.Chemscore.Metal>
0.0000

> <Gold.Chemscore.Lipo>
74.5871

> <Gold.Chemscore.Internal_Hbond>
0.0000

> <Gold.Chemscore.DEClash>
0.0775

> <Gold.Chemscore.DEInternal>
2.2942

> <Gold.Chemscore.Rot>
1.6117

> <Gold.Chemscore.Internal.Correction>
   9.000000E+99

> <Gold.Chemscore.Hbonds>
donor molecule, donor type, donor heavy atom, donor atom, acceptor molecule, acceptor atom, score
      L1  H     6    27       P1  7948  0.98
      L1  H     9    28       P1  7948  0.99
      P1  H  7989  7998       L1    16  0.12

> <Gold.Chemscore.Hbond.Weighted>
-9.7091

> <Gold.Chemscore.Metal.Weighted>
-0.0000

> <Gold.Chemscore.Lipo.Weighted>
-8.7267

> <Gold.Chemscore.Internal_Hbond.Weighted>
0.0000

> <Gold.Chemscore.DEClash.Weighted>
0.0775

> <Gold.Chemscore.DEInternal.Weighted>
2.2942

> <Gold.Chemscore.Rot.Weighted>
4.1260

> <Gold.Chemscore.Internal.Correction.Weighted>
   9.000000E+99

> <Gold.Protein.RotatedTorsions>
[ 6907 6896 6895 6894 ] final  -76.50 input  -60.11 | X-H torsion
[ 7974 7965 7964 7962 ] final  -44.61 input  175.53 | X-H torsion
[ 8008 7997 7996 7995 ] final  -81.56 input   59.86 | X-H torsion
[ 10167 10162 10161 10158 ] final -176.58 input  -65.29 | X-H torsion
[ 10718 10713 10712 10709 ] final  -36.63 input   66.30 | X-H torsion
[ 10763 10752 10751 10750 ] final  -34.01 input  -60.55 | X-H torsion
[ 11005 11000 10999 10996 ] final  120.39 input  -57.11 | X-H torsion

> <Gold.Protein.ActiveResidues>
 VAL166  LYS551  ARG553  GLY616  TRP617  ASP618  TYR619  PRO620  LYS621  CYS622 
 ASP623  PHE694  ASN695  SER759  ASP760  ASP761  ALA762  ILE779  LEU786  VAL792 
 PHE793  MET794  SER795  GLU796  ALA797  LYS798  CYS799  TRP800  GLU811  SER814 

> <Gold.Protein.RotatedAtoms>
  150.7025  134.4562  159.5359 H   0  0  0  0  0  0  0  0  0  0  0  0  # atno 6907 bound_to 6896
  152.2246  134.8378  160.0491 H   0  0  0  0  0  0  0  0  0  0  0  0  # atno 6908 bound_to 6896
  151.9216  133.3552  159.3936 H   0  0  0  0  0  0  0  0  0  0  0  0  # atno 6909 bound_to 6896
  145.9903  140.7188  142.9320 H   0  0  0  0  0  0  0  0  0  0  0  0  # atno 7974 bound_to 7965
  154.5996  140.0646  156.9350 H   0  0  0  0  0  0  0  0  0  0  0  0  # atno 8008 bound_to 7997
  155.2155  140.3326  155.4304 H   0  0  0  0  0  0  0  0  0  0  0  0  # atno 8009 bound_to 7997
  156.2309  140.1840  156.7227 H   0  0  0  0  0  0  0  0  0  0  0  0  # atno 8010 bound_to 7997
  139.5523  144.2079  152.1098 H   0  0  0  0  0  0  0  0  0  0  0  0  # atno 10167 bound_to 10162
  156.3246  130.4270  149.7928 H   0  0  0  0  0  0  0  0  0  0  0  0  # atno 10718 bound_to 10713
  153.8397  135.6859  153.4804 H   0  0  0  0  0  0  0  0  0  0  0  0  # atno 10763 bound_to 10752
  153.1461  135.4637  154.9566 H   0  0  0  0  0  0  0  0  0  0  0  0  # atno 10764 bound_to 10752
  154.7850  135.3282  154.7851 H   0  0  0  0  0  0  0  0  0  0  0  0  # atno 10765 bound_to 10752
  139.9183  134.9634  156.7800 H   0  0  0  0  0  0  0  0  0  0  0  0  # atno 11005 bound_to 11000
  144.6887  140.3059  143.7256 LP  0  0  0  0  0  0  0  0  0  0  0  0  # atno 17320 bound_to 7965
  145.7639  139.1834  143.2251 LP  0  0  0  0  0  0  0  0  0  0  0  0  # atno 17321 bound_to 7965
  140.1576  144.5056  150.6651 LP  0  0  0  0  0  0  0  0  0  0  0  0  # atno 17342 bound_to 10162
  140.6788  143.2317  151.5438 LP  0  0  0  0  0  0  0  0  0  0  0  0  # atno 17343 bound_to 10162
  156.5223  130.8221  151.3208 LP  0  0  0  0  0  0  0  0  0  0  0  0  # atno 17370 bound_to 10713
  157.7418  130.9878  150.2475 LP  0  0  0  0  0  0  0  0  0  0  0  0  # atno 17371 bound_to 10713
  140.6552  133.9695  155.7775 LP  0  0  0  0  0  0  0  0  0  0  0  0  # atno 17394 bound_to 11000
  141.0681  134.0246  157.3565 LP  0  0  0  0  0  0  0  0  0  0  0  0  # atno 17395 bound_to 11000

$$$$
