AV-unprocessed.smi:2881|AV-procd|sdf|11065|dock5
  -GOLD-   2272015533D 1   1.00000     0.00000
 Structure written by MMmdl.
 40 42  0  0  0  0  0  0  0  0  1 V2000
  150.9298  129.1827  154.8952 C   0  0  0  0  0  0  0  0  0  0  0  0
  150.6061  130.6475  154.9162 C   0  0  0  0  0  0  0  0  0  0  0  0
  149.6956  131.3594  154.0814 C   0  0  0  0  0  0  0  0  0  0  0  0
  149.7757  132.6524  154.5178 C   0  0  0  0  0  0  0  0  0  0  0  0
  149.0727  133.8928  154.0664 C   0  0  0  0  0  0  0  0  0  0  0  0
  147.5885  133.6214  153.8207 C   0  0  0  0  0  0  0  0  0  0  0  0
  146.9327  132.9856  154.6456 O   0  0  0  0  0  0  0  0  0  0  0  0
  147.0723  134.1080  152.6820 N   0  0  0  0  0  0  0  0  0  0  0  0
  145.6730  133.9926  152.2794 C   0  0  2  0  0  0  0  0  0  0  0  0
  145.1588  132.5320  152.2149 C   0  0  2  0  0  0  0  0  0  0  0  0
  146.0929  131.6394  151.3697 C   0  0  0  0  0  0  0  0  0  0  0  0
  145.8557  132.1629  149.9410 C   0  0  0  0  0  0  0  0  0  0  0  0
  144.8002  133.2663  150.1522 C   0  0  1  0  0  0  0  0  0  0  0  0
  143.9642  132.6726  151.2802 C   0  0  0  0  0  0  0  0  0  0  0  0
  145.4639  134.4905  150.8249 C   0  0  1  0  0  0  0  0  0  0  0  0
  144.6055  135.7665  150.7326 C   0  0  0  0  0  0  0  0  0  0  0  0
  145.3483  136.8828  151.1759 O   0  0  0  0  0  0  0  0  0  0  0  0
  150.6943  132.6534  155.5433 N   0  0  0  0  0  0  0  0  0  0  0  0
  151.2078  131.4351  155.7951 N   0  0  0  0  0  0  0  0  0  0  0  0
  150.9772  133.4659  156.0725 H   0  0  0  0  0  0  0  0  0  0  0  0
  150.2576  128.6406  154.2299 H   0  0  0  0  0  0  0  0  0  0  0  0
  150.8362  128.7439  155.8889 H   0  0  0  0  0  0  0  0  0  0  0  0
  151.9492  129.0118  154.5486 H   0  0  0  0  0  0  0  0  0  0  0  0
  149.0736  130.9773  153.2854 H   0  0  0  0  0  0  0  0  0  0  0  0
  149.5309  134.2645  153.1492 H   0  0  0  0  0  0  0  0  0  0  0  0
  149.1772  134.6848  154.8093 H   0  0  0  0  0  0  0  0  0  0  0  0
  147.6827  134.6219  152.0635 H   0  0  0  0  0  0  0  0  0  0  0  0
  145.0507  134.5666  152.9692 H   0  0  0  0  0  0  0  0  0  0  0  0
  144.9232  132.1099  153.1925 H   0  0  0  0  0  0  0  0  0  0  0  0
  147.1390  131.6957  151.6702 H   0  0  0  0  0  0  0  0  0  0  0  0
  145.7906  130.5940  151.4441 H   0  0  0  0  0  0  0  0  0  0  0  0
  146.7680  132.5409  149.4781 H   0  0  0  0  0  0  0  0  0  0  0  0
  145.4648  131.3683  149.3043 H   0  0  0  0  0  0  0  0  0  0  0  0
  144.2448  133.5077  149.2454 H   0  0  0  0  0  0  0  0  0  0  0  0
  143.5017  131.7185  151.0204 H   0  0  0  0  0  0  0  0  0  0  0  0
  143.1949  133.3471  151.6589 H   0  0  0  0  0  0  0  0  0  0  0  0
  146.4175  134.6911  150.3324 H   0  0  0  0  0  0  0  0  0  0  0  0
  144.3023  135.9453  149.7008 H   0  0  0  0  0  0  0  0  0  0  0  0
  143.6950  135.6807  151.3260 H   0  0  0  0  0  0  0  0  0  0  0  0
  144.9688  137.6643  150.8038 H   0  0  0  0  0  0  0  0  0  0  0  0
  1 21  1  0  0  0  0
  1 22  1  0  0  0  0
  1 23  1  0  0  0  0
  1  2  1  0  0  0  0
  2 19  2  0  0  0  0
  2  3  1  0  0  0  0
  3  4  2  0  0  0  0
  3 24  1  0  0  0  0
  4 18  1  0  0  0  0
  4  5  1  0  0  0  0
  5  6  1  0  0  0  0
  5 25  1  0  0  0  0
  5 26  1  0  0  0  0
  6  7  2  0  0  0  0
  6  8  1  0  0  0  0
  8  9  1  0  0  0  0
  8 27  1  0  0  0  0
  9 15  1  0  0  0  0
  9 10  1  0  0  0  0
  9 28  1  0  0  0  0
 10 14  1  0  0  0  0
 10 11  1  0  0  0  0
 10 29  1  0  0  0  0
 11 12  1  0  0  0  0
 11 30  1  0  0  0  0
 11 31  1  0  0  0  0
 12 13  1  0  0  0  0
 12 32  1  0  0  0  0
 12 33  1  0  0  0  0
 13 14  1  0  0  0  0
 13 15  1  0  0  0  0
 13 34  1  0  0  0  0
 14 35  1  0  0  0  0
 14 36  1  0  0  0  0
 15 16  1  0  0  0  0
 15 37  1  0  0  0  0
 16 17  1  0  0  0  0
 16 38  1  0  0  0  0
 16 39  1  0  0  0  0
 17 40  1  0  0  0  0
 18 19  1  0  0  0  0
 18 20  1  0  0  0  0
M  END
> <s_m_source_file>
AV-unprocessed.smi

> <i_m_source_file_index>
2881

> <i_lp_mmshare_version>
43012

> <i_f3d_flags>
0

> <s_epik_input>
W0NIM11jMVtjSF1jKG5bbkhdMSlbQ0gyXUMoPU8pW05IXVtDQEhdKFtDQEBIXTIzKVtDQEhdKFtDSDJdW09IXSlbQ0BASF0oW0NIMl0zKVtDSDJdW0NIMl0y

> <s_epik_cmdline>
J2VwaWtfcHl0aG9uJywgJy1waCcsICc3LjAnLCAnLXRuJywgJzgnLCAnLW1hJywgJzIwMCcsICctbWV0YWxfYmluZGluZycsICctaW1hZScsICc8aW5maWxlLm1hZT4nLCAnLW9tYWUnLCAnPG91dGZpbGUubWFlPic=

> <r_lp_tautomer_probability>
0.5

> <r_epik_Ionization_Penalty>
0.00013396

> <r_epik_Ionization_Penalty_Charging>
0

> <r_epik_Ionization_Penalty_Neutral>
0.00013396

> <r_epik_State_Penalty>
0.41068

> <r_epik_Charging_Adjusted_Penalty>
0.41068

> <i_epik_Tot_Q>
0

> <i_epik_Tot_abs_Q>
0

> <r_epik_Metal_State_Penalty>
0.41066

> <b_epik_Metal_Only>
0

> <s_lp_Force_Field>
OPLS_2005

> <r_lp_Energy>
46.7591

> <b_lp_Chiralities_Consistent>
1

> <s_lp_Variant>
AV-unprocessed.smi:2881-11

> <Gold.Version>
5.8.1

> <Gold.Id.Protein>
6NUR|6NUR_protein|mol2

> <Gold.PLP.Fitness>
39.2832

> <Gold.PLP.PLP>
-34.2516

> <Gold.PLP.part.hbond>
-2.0000

> <Gold.PLP.part.metal>
0.0000

> <Gold.PLP.part.buried>
-2.9351

> <Gold.PLP.part.nonpolar>
-27.9244

> <Gold.PLP.part.repulsive>
0.0962

> <Gold.PLP.ligand.clash>
0.0000

> <Gold.PLP.ligand.torsion>
0.4861

> <Gold.PLP.Chemscore.Hbond>
1.9920

> <Gold.PLP.Chemscore.CHOScore>
0.0000

> <Gold.PLP.Chemscore.Metal>
0.0000

> <Gold.Chemscore.Hbonds>
donor molecule, donor type, donor heavy atom, donor atom, acceptor molecule, acceptor atom, score
      L1  H     8    27       P1  7948  0.96
      L1  H    17    40       P1 10171  1.00

> <Gold.PLP.Chemscore.Internal.Correction>
0.0277

> <Gold.Rescore>
     Score         DG    S(hbond)    S(metal)    S(lipo)     H(rot)  DE(clash)    DE(int)     intcor
     13.97     -15.14       1.83        0.00      80.01       2.28       0.19       0.99       ----

> <Gold.Chemscore.Fitness>
13.9652

> <Gold.Chemscore.DG>
-15.1425

> <Gold.Chemscore.ZeroCoef>
-5.4800

> <Gold.Chemscore.Hbond>
1.8342

> <Gold.Chemscore.Metal>
0.0000

> <Gold.Chemscore.Lipo>
80.0120

> <Gold.Chemscore.Internal_Hbond>
0.0000

> <Gold.Chemscore.DEClash>
0.1892

> <Gold.Chemscore.DEInternal>
0.9881

> <Gold.Chemscore.Rot>
2.2755

> <Gold.Chemscore.Internal.Correction>
   9.000000E+99

> <Gold.Chemscore.Hbonds>
donor molecule, donor type, donor heavy atom, donor atom, acceptor molecule, acceptor atom, score
      L1  H     8    27       P1  7948  0.49
      L1  H    17    40       P1 10171  0.99

> <Gold.Chemscore.Hbond.Weighted>
-6.1263

> <Gold.Chemscore.Metal.Weighted>
-0.0000

> <Gold.Chemscore.Lipo.Weighted>
-9.3614

> <Gold.Chemscore.Internal_Hbond.Weighted>
0.0000

> <Gold.Chemscore.DEClash.Weighted>
0.1892

> <Gold.Chemscore.DEInternal.Weighted>
0.9881

> <Gold.Chemscore.Rot.Weighted>
5.8252

> <Gold.Chemscore.Internal.Correction.Weighted>
   9.000000E+99

> <Gold.Protein.RotatedTorsions>
[ 6907 6896 6895 6894 ] final  -59.74 input  -60.11 | X-H torsion
[ 7974 7965 7964 7962 ] final  -69.43 input  175.53 | X-H torsion
[ 8008 7997 7996 7995 ] final -107.49 input   59.86 | X-H torsion
[ 10167 10162 10161 10158 ] final  -42.65 input  -65.29 | X-H torsion
[ 10718 10713 10712 10709 ] final  112.57 input   66.30 | X-H torsion
[ 10763 10752 10751 10750 ] final  167.83 input  -60.55 | X-H torsion
[ 11005 11000 10999 10996 ] final -154.25 input  -57.11 | X-H torsion

> <Gold.Protein.ActiveResidues>
 VAL166  LYS551  ARG553  GLY616  TRP617  ASP618  TYR619  PRO620  LYS621  CYS622 
 ASP623  PHE694  ASN695  SER759  ASP760  ASP761  ALA762  ILE779  LEU786  VAL792 
 PHE793  MET794  SER795  GLU796  ALA797  LYS798  CYS799  TRP800  GLU811  SER814 

> <Gold.Protein.RotatedAtoms>
  150.7907  134.6929  159.6506 H   0  0  0  0  0  0  0  0  0  0  0  0  # atno 6907 bound_to 6896
  152.4012  134.6279  160.0078 H   0  0  0  0  0  0  0  0  0  0  0  0  # atno 6908 bound_to 6896
  151.6550  133.3282  159.3197 H   0  0  0  0  0  0  0  0  0  0  0  0  # atno 6909 bound_to 6896
  145.7039  140.9106  143.0716 H   0  0  0  0  0  0  0  0  0  0  0  0  # atno 7974 bound_to 7965
  154.9301  140.0405  157.2043 H   0  0  0  0  0  0  0  0  0  0  0  0  # atno 8008 bound_to 7997
  154.8169  140.2877  155.5792 H   0  0  0  0  0  0  0  0  0  0  0  0  # atno 8009 bound_to 7997
  156.2976  140.2526  156.3069 H   0  0  0  0  0  0  0  0  0  0  0  0  # atno 8010 bound_to 7997
  140.6961  143.3026  151.3240 H   0  0  0  0  0  0  0  0  0  0  0  0  # atno 10167 bound_to 10162
  157.6385  131.0970  150.6915 H   0  0  0  0  0  0  0  0  0  0  0  0  # atno 10718 bound_to 10713
  154.3597  135.2753  155.2327 H   0  0  0  0  0  0  0  0  0  0  0  0  # atno 10763 bound_to 10752
  154.4520  135.5928  153.6202 H   0  0  0  0  0  0  0  0  0  0  0  0  # atno 10764 bound_to 10752
  152.9844  135.6044  154.3816 H   0  0  0  0  0  0  0  0  0  0  0  0  # atno 10765 bound_to 10752
  140.6994  134.3954  157.5211 H   0  0  0  0  0  0  0  0  0  0  0  0  # atno 11005 bound_to 11000
  144.6961  139.8984  143.7457 LP  0  0  0  0  0  0  0  0  0  0  0  0  # atno 17320 bound_to 7965
  146.0773  139.3761  143.0486 LP  0  0  0  0  0  0  0  0  0  0  0  0  # atno 17321 bound_to 7965
  139.6419  144.0523  152.2561 LP  0  0  0  0  0  0  0  0  0  0  0  0  # atno 17342 bound_to 10162
  140.0031  144.6279  150.7712 LP  0  0  0  0  0  0  0  0  0  0  0  0  # atno 17343 bound_to 10162
  156.7243  130.4690  149.5515 LP  0  0  0  0  0  0  0  0  0  0  0  0  # atno 17370 bound_to 10713
  156.1645  130.6396  151.0760 LP  0  0  0  0  0  0  0  0  0  0  0  0  # atno 17371 bound_to 10713
  139.8901  134.8813  156.2387 LP  0  0  0  0  0  0  0  0  0  0  0  0  # atno 17394 bound_to 11000
  141.0176  133.7059  156.1215 LP  0  0  0  0  0  0  0  0  0  0  0  0  # atno 17395 bound_to 11000

$$$$
