AV-unprocessed.smi:1005|AV-procd|sdf|4371|dock4
  -GOLD-   22720 2283D 1   1.00000     0.00000
 Structure written by MMmdl.
 57 59  0  0  0  0  0  0  0  0  3 V2000
  152.7146  143.2322  160.8864 C   0  0  0  0  0  0  0  0  0  0  0  0
  152.3018  142.4814  159.6322 C   0  0  0  0  0  0  0  0  0  0  0  0
  152.3200  141.0691  159.6426 C   0  0  0  0  0  0  0  0  0  0  0  0
  151.9713  140.3309  158.4909 C   0  0  0  0  0  0  0  0  0  0  0  0
  151.9240  138.9641  158.2851 N   0  0  0  0  0  0  0  0  0  0  0  0
  151.5456  138.8970  157.0128 C   0  0  0  0  0  0  0  0  0  0  0  0
  151.3194  140.0611  156.3730 N   0  0  0  0  0  0  0  0  0  0  0  0
  150.8945  140.2196  154.9908 C   0  0  0  0  0  0  0  0  0  0  0  0
  149.5008  140.8670  154.8506 C   0  0  1  0  0  0  0  0  0  0  0  0
  149.3266  141.2308  153.4965 O   0  0  0  0  0  0  0  0  0  0  0  0
  148.3350  139.9438  155.2808 C   0  0  0  0  0  0  0  0  0  0  0  0
  147.6412  140.4146  156.5103 N   0  3  1  0  0  0  0  0  0  0  0  0
  147.5685  141.8926  156.6116 C   0  0  0  0  0  0  0  0  0  0  0  0
  146.4701  142.4595  155.6934 C   0  0  0  0  0  0  0  0  0  0  0  0
  145.2223  141.8564  156.0166 O   0  0  0  0  0  0  0  0  0  0  0  0
  145.2248  140.4461  155.8169 C   0  0  2  0  0  0  0  0  0  0  0  0
  143.8187  139.9140  156.1490 C   0  0  0  0  0  0  0  0  0  0  0  0
  142.7660  140.4943  155.2767 N   0  3  0  0  0  0  0  0  0  0  0  0
  141.5217  139.6927  155.2443 C   0  0  0  0  0  0  0  0  0  0  0  0
  142.4875  141.9094  155.6070 C   0  0  0  0  0  0  0  0  0  0  0  0
  146.2960  139.8211  156.7385 C   0  0  0  0  0  0  0  0  0  0  0  0
  151.5998  141.0482  157.3156 C   0  0  0  0  0  0  0  0  0  0  0  0
  151.5721  142.4548  157.2961 C   0  0  0  0  0  0  0  0  0  0  0  0
  151.9180  143.1767  158.4577 C   0  0  0  0  0  0  0  0  0  0  0  0
  151.8787  144.6941  158.4251 C   0  0  0  0  0  0  0  0  0  0  0  0
  152.8159  142.5581  161.7376 H   0  0  0  0  0  0  0  0  0  0  0  0
  151.9806  143.9927  161.1513 H   0  0  0  0  0  0  0  0  0  0  0  0
  153.6759  143.7227  160.7305 H   0  0  0  0  0  0  0  0  0  0  0  0
  152.6142  140.5383  160.5365 H   0  0  0  0  0  0  0  0  0  0  0  0
  151.4160  137.9445  156.5197 H   0  0  0  0  0  0  0  0  0  0  0  0
  151.6445  140.8156  154.4690 H   0  0  0  0  0  0  0  0  0  0  0  0
  150.8959  139.2353  154.5192 H   0  0  0  0  0  0  0  0  0  0  0  0
  149.5028  141.7872  155.4286 H   0  0  0  0  0  0  0  0  0  0  0  0
  149.3480  140.4524  152.9614 H   0  0  0  0  0  0  0  0  0  0  0  0
  147.6253  139.8771  154.4546 H   0  0  0  0  0  0  0  0  0  0  0  0
  148.6778  138.9246  155.4467 H   0  0  0  0  0  0  0  0  0  0  0  0
  147.3431  142.1556  157.6459 H   0  0  0  0  0  0  0  0  0  0  0  0
  148.5355  142.3435  156.3859 H   0  0  0  0  0  0  0  0  0  0  0  0
  146.3851  143.5370  155.8349 H   0  0  0  0  0  0  0  0  0  0  0  0
  146.7071  142.2979  154.6408 H   0  0  0  0  0  0  0  0  0  0  0  0
  145.4604  140.2231  154.7769 H   0  0  0  0  0  0  0  0  0  0  0  0
  143.7917  138.8256  156.0729 H   0  0  0  0  0  0  0  0  0  0  0  0
  143.6009  140.1531  157.1912 H   0  0  0  0  0  0  0  0  0  0  0  0
  141.0617  139.6612  156.2316 H   0  0  0  0  0  0  0  0  0  0  0  0
  141.7047  138.6696  154.9186 H   0  0  0  0  0  0  0  0  0  0  0  0
  140.8024  140.1296  154.5511 H   0  0  0  0  0  0  0  0  0  0  0  0
  142.1036  142.0054  156.6236 H   0  0  0  0  0  0  0  0  0  0  0  0
  141.7498  142.3288  154.9219 H   0  0  0  0  0  0  0  0  0  0  0  0
  143.3924  142.5123  155.5239 H   0  0  0  0  0  0  0  0  0  0  0  0
  146.3087  138.7390  156.6219 H   0  0  0  0  0  0  0  0  0  0  0  0
  146.0254  140.0034  157.7795 H   0  0  0  0  0  0  0  0  0  0  0  0
  151.2971  142.9793  156.3938 H   0  0  0  0  0  0  0  0  0  0  0  0
  151.6574  145.0655  157.4241 H   0  0  0  0  0  0  0  0  0  0  0  0
  152.8387  145.1110  158.7305 H   0  0  0  0  0  0  0  0  0  0  0  0
  151.1077  145.0676  159.0995 H   0  0  0  0  0  0  0  0  0  0  0  0
  143.1394  140.4974  154.3378 H   0  0  0  0  0  0  0  0  0  0  0  0
  148.2274  140.1138  157.2764 H   0  0  0  0  0  0  0  0  0  0  0  0
  1  2  1  0  0  0  0
  1 26  1  0  0  0  0
  1 27  1  0  0  0  0
  1 28  1  0  0  0  0
  2 24  1  0  0  0  0
  2  3  2  0  0  0  0
  3  4  1  0  0  0  0
  3 29  1  0  0  0  0
  4 22  2  0  0  0  0
  4  5  1  0  0  0  0
  5  6  2  0  0  0  0
  6  7  1  0  0  0  0
  6 30  1  0  0  0  0
  7  8  1  0  0  0  0
  7 22  1  0  0  0  0
  8  9  1  0  0  0  0
  8 31  1  0  0  0  0
  8 32  1  0  0  0  0
  9 10  1  0  0  0  0
  9 11  1  0  0  0  0
  9 33  1  0  0  0  0
 10 34  1  0  0  0  0
 11 12  1  0  0  0  0
 11 35  1  0  0  0  0
 11 36  1  0  0  0  0
 12 21  1  0  0  0  0
 12 13  1  0  0  0  0
 12 57  1  0  0  0  0
 13 14  1  0  0  0  0
 13 37  1  0  0  0  0
 13 38  1  0  0  0  0
 14 15  1  0  0  0  0
 14 39  1  0  0  0  0
 14 40  1  0  0  0  0
 15 16  1  0  0  0  0
 16 17  1  0  0  0  0
 16 21  1  0  0  0  0
 16 41  1  0  0  0  0
 17 18  1  0  0  0  0
 17 42  1  0  0  0  0
 17 43  1  0  0  0  0
 18 19  1  0  0  0  0
 18 20  1  0  0  0  0
 18 56  1  0  0  0  0
 19 44  1  0  0  0  0
 19 45  1  0  0  0  0
 19 46  1  0  0  0  0
 20 47  1  0  0  0  0
 20 48  1  0  0  0  0
 20 49  1  0  0  0  0
 21 50  1  0  0  0  0
 21 51  1  0  0  0  0
 22 23  1  0  0  0  0
 23 24  2  0  0  0  0
 23 52  1  0  0  0  0
 24 25  1  0  0  0  0
 25 53  1  0  0  0  0
 25 54  1  0  0  0  0
 25 55  1  0  0  0  0
M  CHG  1  12   1
M  CHG  1  18   1
M  END
> <s_m_source_file>
AV-unprocessed.smi

> <i_m_source_file_index>
1005

> <i_lp_mmshare_version>
43012

> <i_f3d_flags>
0

> <s_epik_input>
W0NIM11jKFtjSF0xKWMoW0NIM10pW2NIXWMoYzEyKW4oW2NIXW4yKVtDSDJdW0NASF0oW09IXSlbQ0gyXU4zW0NIMl1bQ0gyXU9bQ0BIXShbQ0gyXTMpW0NIMl1OKFtDSDNdKVtDSDNd

> <s_epik_cmdline>
J2VwaWtfcHl0aG9uJywgJy1waCcsICc3LjAnLCAnLXRuJywgJzgnLCAnLW1hJywgJzIwMCcsICctbWV0YWxfYmluZGluZycsICctaW1hZScsICc8aW5maWxlLm1hZT4nLCAnLW9tYWUnLCAnPG91dGZpbGUubWFlPic=

> <r_epik_Ionization_Penalty>
1.0968

> <r_epik_Ionization_Penalty_Charging>
1.0096

> <r_epik_Ionization_Penalty_Neutral>
0.0871956

> <r_epik_State_Penalty>
1.31185

> <r_epik_Charging_Adjusted_Penalty>
2.32145

> <i_epik_Tot_Q>
2

> <i_epik_Tot_abs_Q>
2

> <r_epik_Metal_State_Penalty>
1.22442

> <b_epik_Metal_Only>
0

> <s_lp_Force_Field>
OPLS_2005

> <r_lp_Energy>
34.2577

> <b_lp_Chiralities_Consistent>
1

> <s_lp_Variant>
AV-unprocessed.smi:1005-10

> <Gold.Version>
5.8.1

> <Gold.Id.Protein>
6NUR|6NUR_protein|mol2

> <Gold.PLP.Fitness>
47.6010

> <Gold.PLP.PLP>
-38.6294

> <Gold.PLP.part.hbond>
-4.0000

> <Gold.PLP.part.metal>
0.0000

> <Gold.PLP.part.buried>
-2.8290

> <Gold.PLP.part.nonpolar>
-31.4770

> <Gold.PLP.part.repulsive>
0.1055

> <Gold.PLP.ligand.clash>
0.0000

> <Gold.PLP.ligand.torsion>
1.1595

> <Gold.PLP.Chemscore.Hbond>
3.7360

> <Gold.PLP.Chemscore.CHOScore>
0.0000

> <Gold.PLP.Chemscore.Metal>
0.0000

> <Gold.Chemscore.Hbonds>
donor molecule, donor type, donor heavy atom, donor atom, acceptor molecule, acceptor atom, score
      L1  H    10    34       P1  7957  0.74
      L1  H    18    56       P1 10175  2.00
      P1  H  8011  8017       L1    10  0.99

> <Gold.PLP.Chemscore.Internal.Correction>
0.0825

> <Gold.Rescore>
     Score         DG    S(hbond)    S(metal)    S(lipo)     H(rot)  DE(clash)    DE(int)     intcor
     15.57     -19.76       2.33        0.00     109.76       2.48       1.64       2.54       ----

> <Gold.Chemscore.Fitness>
15.5745

> <Gold.Chemscore.DG>
-19.7581

> <Gold.Chemscore.ZeroCoef>
-5.4800

> <Gold.Chemscore.Hbond>
2.3319

> <Gold.Chemscore.Metal>
0.0000

> <Gold.Chemscore.Lipo>
109.7586

> <Gold.Chemscore.Internal_Hbond>
0.0000

> <Gold.Chemscore.DEClash>
1.6427

> <Gold.Chemscore.DEInternal>
2.5409

> <Gold.Chemscore.Rot>
2.4814

> <Gold.Chemscore.Internal.Correction>
   9.000000E+99

> <Gold.Chemscore.Hbonds>
donor molecule, donor type, donor heavy atom, donor atom, acceptor molecule, acceptor atom, score
      L1  H    10    34       P1  7957  0.74
      L1  H    18    56       P1 10175  0.98
      P1  H  8011  8017       L1    10  0.24

> <Gold.Chemscore.Hbond.Weighted>
-7.7887

> <Gold.Chemscore.Metal.Weighted>
-0.0000

> <Gold.Chemscore.Lipo.Weighted>
-12.8418

> <Gold.Chemscore.Internal_Hbond.Weighted>
0.0000

> <Gold.Chemscore.DEClash.Weighted>
1.6427

> <Gold.Chemscore.DEInternal.Weighted>
2.5409

> <Gold.Chemscore.Rot.Weighted>
6.3524

> <Gold.Chemscore.Internal.Correction.Weighted>
   9.000000E+99

> <Gold.Protein.RotatedTorsions>
[ 6907 6896 6895 6894 ] final  -57.34 input  -60.11 | X-H torsion
[ 7974 7965 7964 7962 ] final  -72.76 input  175.53 | X-H torsion
[ 8008 7997 7996 7995 ] final  -81.51 input   59.86 | X-H torsion
[ 10167 10162 10161 10158 ] final  162.78 input  -65.29 | X-H torsion
[ 10718 10713 10712 10709 ] final -158.59 input   66.30 | X-H torsion
[ 10763 10752 10751 10750 ] final -118.45 input  -60.55 | X-H torsion
[ 11005 11000 10999 10996 ] final  -75.67 input  -57.11 | X-H torsion

> <Gold.Protein.ActiveResidues>
 VAL166  LYS551  ARG553  GLY616  TRP617  ASP618  TYR619  PRO620  LYS621  CYS622 
 ASP623  PHE694  ASN695  SER759  ASP760  ASP761  ALA762  ILE779  LEU786  VAL792 
 PHE793  MET794  SER795  GLU796  ALA797  LYS798  CYS799  TRP800  GLU811  SER814 

> <Gold.Protein.RotatedAtoms>
  150.8094  134.7239  159.6673 H   0  0  0  0  0  0  0  0  0  0  0  0  # atno 6907 bound_to 6896
  152.4214  134.5945  159.9993 H   0  0  0  0  0  0  0  0  0  0  0  0  # atno 6908 bound_to 6896
  151.6160  133.3306  159.3113 H   0  0  0  0  0  0  0  0  0  0  0  0  # atno 6909 bound_to 6896
  145.6610  140.9252  143.0934 H   0  0  0  0  0  0  0  0  0  0  0  0  # atno 7974 bound_to 7965
  154.5991  140.0647  156.9343 H   0  0  0  0  0  0  0  0  0  0  0  0  # atno 8008 bound_to 7997
  155.2164  140.3326  155.4303 H   0  0  0  0  0  0  0  0  0  0  0  0  # atno 8009 bound_to 7997
  156.2306  140.1839  156.7235 H   0  0  0  0  0  0  0  0  0  0  0  0  # atno 8010 bound_to 7997
  139.4865  144.4403  151.8960 H   0  0  0  0  0  0  0  0  0  0  0  0  # atno 10167 bound_to 10162
  156.5562  130.8627  151.2795 H   0  0  0  0  0  0  0  0  0  0  0  0  # atno 10718 bound_to 10713
  154.8588  135.4273  154.2141 H   0  0  0  0  0  0  0  0  0  0  0  0  # atno 10763 bound_to 10752
  153.3160  135.6979  153.7078 H   0  0  0  0  0  0  0  0  0  0  0  0  # atno 10764 bound_to 10752
  153.6152  135.3512  155.2966 H   0  0  0  0  0  0  0  0  0  0  0  0  # atno 10765 bound_to 10752
  141.1647  133.6955  156.7552 H   0  0  0  0  0  0  0  0  0  0  0  0  # atno 11005 bound_to 11000
  144.7089  139.8448  143.7421 LP  0  0  0  0  0  0  0  0  0  0  0  0  # atno 17320 bound_to 7965
  146.1125  139.4132  143.0278 LP  0  0  0  0  0  0  0  0  0  0  0  0  # atno 17321 bound_to 7965
  140.3855  144.2682  150.5904 LP  0  0  0  0  0  0  0  0  0  0  0  0  # atno 17342 bound_to 10162
  140.5194  143.2269  151.8412 LP  0  0  0  0  0  0  0  0  0  0  0  0  # atno 17343 bound_to 10162
  157.7378  130.9801  150.2212 LP  0  0  0  0  0  0  0  0  0  0  0  0  # atno 17370 bound_to 10713
  156.2840  130.3737  149.7907 LP  0  0  0  0  0  0  0  0  0  0  0  0  # atno 17371 bound_to 10713
  140.2574  134.8493  157.3726 LP  0  0  0  0  0  0  0  0  0  0  0  0  # atno 17394 bound_to 11000
  140.1644  134.4688  155.7873 LP  0  0  0  0  0  0  0  0  0  0  0  0  # atno 17395 bound_to 11000

$$$$
