AV-unprocessed.smi:1207|AV-procd|sdf|5054|dock9
  -GOLD-   22720 4 83D 1   1.00000     0.00000
 Structure written by MMmdl.
 52 54  0  0  0  0  0  0  0  0  2 V2000
  152.7844  143.9328  162.2173 C   0  0  0  0  0  0  0  0  0  0  0  0
  152.5063  143.1642  160.9374 C   0  0  0  0  0  0  0  0  0  0  0  0
  152.9219  141.8170  160.8410 C   0  0  0  0  0  0  0  0  0  0  0  0
  152.6802  141.0665  159.6697 C   0  0  0  0  0  0  0  0  0  0  0  0
  152.9908  139.7527  159.3634 N   0  0  0  0  0  0  0  0  0  0  0  0
  152.5045  139.6420  158.1310 C   0  0  0  0  0  0  0  0  0  0  0  0
  151.9134  140.7300  157.6013 N   0  0  0  0  0  0  0  0  0  0  0  0
  151.3077  140.8419  156.2866 C   0  0  0  0  0  0  0  0  0  0  0  0
  150.1332  141.8389  156.2622 C   0  0  1  0  0  0  0  0  0  0  0  0
  149.7292  142.0638  154.9241 O   0  0  0  0  0  0  0  0  0  0  0  0
  148.9221  141.3185  157.0566 C   0  0  0  0  0  0  0  0  0  0  0  0
  147.7931  142.2864  157.0272 N   0  3  2  0  0  0  0  0  0  0  0  0
  147.5261  142.8922  158.3519 C   0  0  0  0  0  0  0  0  0  0  0  0
  146.5593  141.7522  156.3984 C   0  0  0  0  0  0  0  0  0  0  0  0
  145.5611  142.8499  156.1281 C   0  0  0  0  0  0  0  0  0  0  0  0
  145.2834  143.5003  154.8911 C   0  0  0  0  0  0  0  0  0  0  0  0
  145.9005  143.2510  153.5443 C   0  0  0  0  0  0  0  0  0  0  0  0
  144.3571  144.4343  155.0224 N   0  0  0  0  0  0  0  0  0  0  0  0
  143.9858  144.4205  156.3700 O   0  0  0  0  0  0  0  0  0  0  0  0
  144.7129  143.4679  157.0058 C   0  0  0  0  0  0  0  0  0  0  0  0
  144.4651  143.3067  158.4673 C   0  0  0  0  0  0  0  0  0  0  0  0
  152.0077  141.7064  158.5878 C   0  0  0  0  0  0  0  0  0  0  0  0
  151.5913  143.0468  158.6709 C   0  0  0  0  0  0  0  0  0  0  0  0
  151.8383  143.7813  159.8494 C   0  0  0  0  0  0  0  0  0  0  0  0
  151.3807  145.2267  159.9310 C   0  0  0  0  0  0  0  0  0  0  0  0
  153.3325  143.3233  162.9365 H   0  0  0  0  0  0  0  0  0  0  0  0
  151.8507  144.2445  162.6859 H   0  0  0  0  0  0  0  0  0  0  0  0
  153.3815  144.8209  162.0086 H   0  0  0  0  0  0  0  0  0  0  0  0
  153.4306  141.3465  161.6696 H   0  0  0  0  0  0  0  0  0  0  0  0
  152.5792  138.7151  157.5815 H   0  0  0  0  0  0  0  0  0  0  0  0
  152.0781  141.1363  155.5726 H   0  0  0  0  0  0  0  0  0  0  0  0
  150.9662  139.8513  155.9831 H   0  0  0  0  0  0  0  0  0  0  0  0
  150.4708  142.7890  156.6772 H   0  0  0  0  0  0  0  0  0  0  0  0
  149.4985  142.9752  154.8247 H   0  0  0  0  0  0  0  0  0  0  0  0
  148.6269  140.3567  156.6375 H   0  0  0  0  0  0  0  0  0  0  0  0
  149.1990  141.1143  158.0921 H   0  0  0  0  0  0  0  0  0  0  0  0
  147.1588  142.1447  159.0564 H   0  0  0  0  0  0  0  0  0  0  0  0
  146.7774  143.6810  158.2713 H   0  0  0  0  0  0  0  0  0  0  0  0
  148.4277  143.3401  158.7696 H   0  0  0  0  0  0  0  0  0  0  0  0
  146.8268  141.2156  155.4871 H   0  0  0  0  0  0  0  0  0  0  0  0
  146.1141  141.0101  157.0623 H   0  0  0  0  0  0  0  0  0  0  0  0
  146.9838  143.3641  153.5831 H   0  0  0  0  0  0  0  0  0  0  0  0
  145.5238  143.9441  152.7909 H   0  0  0  0  0  0  0  0  0  0  0  0
  145.6844  142.2399  153.1994 H   0  0  0  0  0  0  0  0  0  0  0  0
  144.8577  142.3563  158.8289 H   0  0  0  0  0  0  0  0  0  0  0  0
  143.3973  143.3343  158.6854 H   0  0  0  0  0  0  0  0  0  0  0  0
  144.9464  144.1073  159.0292 H   0  0  0  0  0  0  0  0  0  0  0  0
  151.0831  143.5051  157.8355 H   0  0  0  0  0  0  0  0  0  0  0  0
  150.8580  145.5305  159.0235 H   0  0  0  0  0  0  0  0  0  0  0  0
  152.2356  145.8899  160.0633 H   0  0  0  0  0  0  0  0  0  0  0  0
  150.6997  145.3658  160.7709 H   0  0  0  0  0  0  0  0  0  0  0  0
  148.0950  143.0405  156.4264 H   0  0  0  0  0  0  0  0  0  0  0  0
  1  2  1  0  0  0  0
  1 26  1  0  0  0  0
  1 27  1  0  0  0  0
  1 28  1  0  0  0  0
  2 24  1  0  0  0  0
  2  3  2  0  0  0  0
  3  4  1  0  0  0  0
  3 29  1  0  0  0  0
  4 22  2  0  0  0  0
  4  5  1  0  0  0  0
  5  6  2  0  0  0  0
  6  7  1  0  0  0  0
  6 30  1  0  0  0  0
  7  8  1  0  0  0  0
  7 22  1  0  0  0  0
  8  9  1  0  0  0  0
  8 31  1  0  0  0  0
  8 32  1  0  0  0  0
  9 10  1  0  0  0  0
  9 11  1  0  0  0  0
  9 33  1  0  0  0  0
 10 34  1  0  0  0  0
 11 12  1  0  0  0  0
 11 35  1  0  0  0  0
 11 36  1  0  0  0  0
 12 13  1  0  0  0  0
 12 14  1  0  0  0  0
 12 52  1  0  0  0  0
 13 37  1  0  0  0  0
 13 38  1  0  0  0  0
 13 39  1  0  0  0  0
 14 15  1  0  0  0  0
 14 40  1  0  0  0  0
 14 41  1  0  0  0  0
 15 20  2  0  0  0  0
 15 16  1  0  0  0  0
 16 17  1  0  0  0  0
 16 18  2  0  0  0  0
 17 42  1  0  0  0  0
 17 43  1  0  0  0  0
 17 44  1  0  0  0  0
 18 19  1  0  0  0  0
 19 20  1  0  0  0  0
 20 21  1  0  0  0  0
 21 45  1  0  0  0  0
 21 46  1  0  0  0  0
 21 47  1  0  0  0  0
 22 23  1  0  0  0  0
 23 24  2  0  0  0  0
 23 48  1  0  0  0  0
 24 25  1  0  0  0  0
 25 49  1  0  0  0  0
 25 50  1  0  0  0  0
 25 51  1  0  0  0  0
M  CHG  1  12   1
M  END
> <s_m_source_file>
AV-unprocessed.smi

> <i_m_source_file_index>
1207

> <i_lp_mmshare_version>
43012

> <i_f3d_flags>
0

> <s_epik_input>
W0NIM11jKFtjSF0xKWMoW0NIM10pW2NIXWMoYzEyKW4oW2NIXW4yKVtDSDJdW0NASF0oW09IXSlbQ0gyXU4oW0NIM10pW0NIMl1jM2MoW0NIM10pbm9jM1tDSDNd

> <s_epik_cmdline>
J2VwaWtfcHl0aG9uJywgJy1waCcsICc3LjAnLCAnLXRuJywgJzgnLCAnLW1hJywgJzIwMCcsICctbWV0YWxfYmluZGluZycsICctaW1hZScsICc8aW5maWxlLm1hZT4nLCAnLW9tYWUnLCAnPG91dGZpbGUubWFlPic=

> <r_epik_Ionization_Penalty>
0.646518

> <r_epik_Ionization_Penalty_Charging>
0.559419

> <r_epik_Ionization_Penalty_Neutral>
0.0870981

> <r_epik_State_Penalty>
0.661677

> <r_epik_Charging_Adjusted_Penalty>
1.2211

> <i_epik_Tot_Q>
1

> <i_epik_Tot_abs_Q>
1

> <r_epik_Metal_State_Penalty>
0.649158

> <b_epik_Metal_Only>
0

> <s_lp_Force_Field>
OPLS_2005

> <r_lp_Energy>
8.09598

> <b_lp_Chiralities_Consistent>
1

> <s_lp_Variant>
AV-unprocessed.smi:1207-6

> <Gold.Version>
5.8.1

> <Gold.Id.Protein>
6NUR|6NUR_protein|mol2

> <Gold.PLP.Fitness>
53.6855

> <Gold.PLP.PLP>
-47.2826

> <Gold.PLP.part.hbond>
-3.3400

> <Gold.PLP.part.metal>
0.0000

> <Gold.PLP.part.buried>
-5.8082

> <Gold.PLP.part.nonpolar>
-37.3611

> <Gold.PLP.part.repulsive>
0.1979

> <Gold.PLP.ligand.clash>
0.0000

> <Gold.PLP.ligand.torsion>
1.4473

> <Gold.PLP.Chemscore.Hbond>
3.0000

> <Gold.PLP.Chemscore.CHOScore>
0.0000

> <Gold.PLP.Chemscore.Metal>
0.0000

> <Gold.Chemscore.Hbonds>
donor molecule, donor type, donor heavy atom, donor atom, acceptor molecule, acceptor atom, score
      L1  H    10    34       P1  8028  1.00
      L1  H    12    52       P1  8028  2.00

> <Gold.PLP.Chemscore.Internal.Correction>
0.2977

> <Gold.Rescore>
     Score         DG    S(hbond)    S(metal)    S(lipo)     H(rot)  DE(clash)    DE(int)     intcor
     15.57     -18.20       1.41        0.00     122.29       2.46       0.38       2.25       ----

> <Gold.Chemscore.Fitness>
15.5711

> <Gold.Chemscore.DG>
-18.2001

> <Gold.Chemscore.ZeroCoef>
-5.4800

> <Gold.Chemscore.Hbond>
1.4074

> <Gold.Chemscore.Metal>
0.0000

> <Gold.Chemscore.Lipo>
122.2902

> <Gold.Chemscore.Internal_Hbond>
0.0000

> <Gold.Chemscore.DEClash>
0.3812

> <Gold.Chemscore.DEInternal>
2.2478

> <Gold.Chemscore.Rot>
2.4565

> <Gold.Chemscore.Internal.Correction>
   9.000000E+99

> <Gold.Chemscore.Hbonds>
donor molecule, donor type, donor heavy atom, donor atom, acceptor molecule, acceptor atom, score
      L1  H    10    34       P1  8028  0.89
      L1  H    12    52       P1  8028  0.43

> <Gold.Chemscore.Hbond.Weighted>
-4.7008

> <Gold.Chemscore.Metal.Weighted>
-0.0000

> <Gold.Chemscore.Lipo.Weighted>
-14.3080

> <Gold.Chemscore.Internal_Hbond.Weighted>
0.0000

> <Gold.Chemscore.DEClash.Weighted>
0.3812

> <Gold.Chemscore.DEInternal.Weighted>
2.2478

> <Gold.Chemscore.Rot.Weighted>
6.2887

> <Gold.Chemscore.Internal.Correction.Weighted>
   9.000000E+99

> <Gold.Protein.RotatedTorsions>
[ 6907 6896 6895 6894 ] final   51.31 input  -60.11 | X-H torsion
[ 7974 7965 7964 7962 ] final  147.18 input  175.53 | X-H torsion
[ 8008 7997 7996 7995 ] final  -16.42 input   59.86 | X-H torsion
[ 10167 10162 10161 10158 ] final -167.94 input  -65.29 | X-H torsion
[ 10718 10713 10712 10709 ] final -177.75 input   66.30 | X-H torsion
[ 10763 10752 10751 10750 ] final -175.36 input  -60.55 | X-H torsion
[ 11005 11000 10999 10996 ] final  -40.43 input  -57.11 | X-H torsion

> <Gold.Protein.ActiveResidues>
 VAL166  LYS551  ARG553  GLY616  TRP617  ASP618  TYR619  PRO620  LYS621  CYS622 
 ASP623  PHE694  ASN695  SER759  ASP760  ASP761  ALA762  ILE779  LEU786  VAL792 
 PHE793  MET794  SER795  GLU796  ALA797  LYS798  CYS799  TRP800  GLU811  SER814 

> <Gold.Protein.RotatedAtoms>
  152.3112  134.7495  160.0335 H   0  0  0  0  0  0  0  0  0  0  0  0  # atno 6907 bound_to 6896
  151.7974  133.3361  159.3525 H   0  0  0  0  0  0  0  0  0  0  0  0  # atno 6908 bound_to 6896
  150.7321  134.5715  159.5937 H   0  0  0  0  0  0  0  0  0  0  0  0  # atno 6909 bound_to 6896
  144.8612  139.5997  143.5930 H   0  0  0  0  0  0  0  0  0  0  0  0  # atno 7974 bound_to 7965
  154.5055  140.2170  155.9260 H   0  0  0  0  0  0  0  0  0  0  0  0  # atno 8008 bound_to 7997
  156.1488  140.3165  155.8580 H   0  0  0  0  0  0  0  0  0  0  0  0  # atno 8009 bound_to 7997
  155.3980  140.0482  157.3028 H   0  0  0  0  0  0  0  0  0  0  0  0  # atno 8010 bound_to 7997
  139.6017  144.0997  152.1749 H   0  0  0  0  0  0  0  0  0  0  0  0  # atno 10167 bound_to 10162
  156.8341  130.9663  151.3104 H   0  0  0  0  0  0  0  0  0  0  0  0  # atno 10718 bound_to 10713
  154.5854  135.2840  155.0690 H   0  0  0  0  0  0  0  0  0  0  0  0  # atno 10763 bound_to 10752
  154.2011  135.6424  153.5091 H   0  0  0  0  0  0  0  0  0  0  0  0  # atno 10764 bound_to 10752
  153.0102  135.5469  154.6521 H   0  0  0  0  0  0  0  0  0  0  0  0  # atno 10765 bound_to 10752
  141.0174  133.6879  156.2320 H   0  0  0  0  0  0  0  0  0  0  0  0  # atno 11005 bound_to 11000
  146.2861  139.7009  142.9194 LP  0  0  0  0  0  0  0  0  0  0  0  0  # atno 17320 bound_to 7965
  145.4309  141.0415  143.2911 LP  0  0  0  0  0  0  0  0  0  0  0  0  # atno 17321 bound_to 7965
  140.0595  144.5868  150.7274 LP  0  0  0  0  0  0  0  0  0  0  0  0  # atno 17342 bound_to 10162
  140.7254  143.2631  151.4137 LP  0  0  0  0  0  0  0  0  0  0  0  0  # atno 17343 bound_to 10162
  157.6391  130.8791  149.9414 LP  0  0  0  0  0  0  0  0  0  0  0  0  # atno 17370 bound_to 10713
  156.0917  130.3663  150.0382 LP  0  0  0  0  0  0  0  0  0  0  0  0  # atno 17371 bound_to 10713
  140.6631  134.4946  157.5584 LP  0  0  0  0  0  0  0  0  0  0  0  0  # atno 17394 bound_to 11000
  139.9125  134.8315  156.1478 LP  0  0  0  0  0  0  0  0  0  0  0  0  # atno 17395 bound_to 11000

$$$$
