AV-unprocessed.smi:3084|AV-procd|sdf|11749|dock4
  -GOLD-   2272017143D 1   1.00000     0.00000
 Structure written by MMmdl.
 27 28  0  0  0  0  0  0  0  0  2 V2000
  152.2832  139.2506  155.1511 C   0  0  0  0  0  0  0  0  0  0  0  0
  152.9045  139.1954  156.3667 N   0  0  0  0  0  0  0  0  0  0  0  0
  152.1823  140.0898  157.0263 C   0  0  0  0  0  0  0  0  0  0  0  0
  151.2062  140.6356  156.2987 N   0  0  0  0  0  0  0  0  0  0  0  0
  150.2233  141.6468  156.6424 C   0  0  0  0  0  0  0  0  0  0  0  0
  150.6803  142.5700  157.7906 C   0  0  1  0  0  0  0  0  0  0  0  0
  151.9817  143.3396  157.4673 C   0  0  0  0  0  0  0  0  0  0  0  0
  152.3717  144.2884  158.6115 C   0  0  0  0  0  0  0  0  0  0  0  0
  151.2041  145.2250  158.9520 C   0  0  0  0  0  0  0  0  0  0  0  0
  149.9327  144.4181  159.2594 C   0  0  0  0  0  0  0  0  0  0  0  0
  149.5965  143.5209  158.1322 N   0  3  0  0  0  0  0  0  0  0  0  0
  151.2621  140.1024  155.0557 N   0  0  0  0  0  0  0  0  0  0  0  0
  152.5941  138.6469  154.3111 H   0  0  0  0  0  0  0  0  0  0  0  0
  152.3674  140.3494  158.0585 H   0  0  0  0  0  0  0  0  0  0  0  0
  150.0118  142.2351  155.7483 H   0  0  0  0  0  0  0  0  0  0  0  0
  149.2952  141.1394  156.9094 H   0  0  0  0  0  0  0  0  0  0  0  0
  150.8552  141.9535  158.6740 H   0  0  0  0  0  0  0  0  0  0  0  0
  152.8021  142.6445  157.2857 H   0  0  0  0  0  0  0  0  0  0  0  0
  151.8533  143.9119  156.5475 H   0  0  0  0  0  0  0  0  0  0  0  0
  152.6454  143.7073  159.4932 H   0  0  0  0  0  0  0  0  0  0  0  0
  153.2523  144.8693  158.3355 H   0  0  0  0  0  0  0  0  0  0  0  0
  151.4641  145.8532  159.8047 H   0  0  0  0  0  0  0  0  0  0  0  0
  151.0187  145.8998  158.1150 H   0  0  0  0  0  0  0  0  0  0  0  0
  150.0691  143.8237  160.1639 H   0  0  0  0  0  0  0  0  0  0  0  0
  149.0936  145.0895  159.4423 H   0  0  0  0  0  0  0  0  0  0  0  0
  149.3992  144.0874  157.3198 H   0  0  0  0  0  0  0  0  0  0  0  0
  148.7674  142.9963  158.3722 H   0  0  0  0  0  0  0  0  0  0  0  0
  1 12  2  0  0  0  0
  1  2  1  0  0  0  0
  1 13  1  0  0  0  0
  2  3  2  0  0  0  0
  3  4  1  0  0  0  0
  3 14  1  0  0  0  0
  4  5  1  0  0  0  0
  4 12  1  0  0  0  0
  5  6  1  0  0  0  0
  5 15  1  0  0  0  0
  5 16  1  0  0  0  0
  6 11  1  0  0  0  0
  6  7  1  0  0  0  0
  6 17  1  0  0  0  0
  7  8  1  0  0  0  0
  7 18  1  0  0  0  0
  7 19  1  0  0  0  0
  8  9  1  0  0  0  0
  8 20  1  0  0  0  0
  8 21  1  0  0  0  0
  9 10  1  0  0  0  0
  9 22  1  0  0  0  0
  9 23  1  0  0  0  0
 10 11  1  0  0  0  0
 10 24  1  0  0  0  0
 10 25  1  0  0  0  0
 11 26  1  0  0  0  0
 11 27  1  0  0  0  0
M  CHG  1  11   1
M  END
> <s_m_source_file>
AV-unprocessed.smi

> <i_m_source_file_index>
3084

> <i_lp_mmshare_version>
43012

> <i_f3d_flags>
0

> <s_epik_input>
bjFbY0hdbltjSF1uMVtDSDJdW0NAQEhdMltDSDJdW0NIMl1bQ0gyXVtDSDJdW05IXTI=

> <s_epik_cmdline>
J2VwaWtfcHl0aG9uJywgJy1waCcsICc3LjAnLCAnLXRuJywgJzgnLCAnLW1hJywgJzIwMCcsICctbWV0YWxfYmluZGluZycsICctaW1hZScsICc8aW5maWxlLm1hZT4nLCAnLW9tYWUnLCAnPG91dGZpbGUubWFlPic=

> <r_lp_tautomer_probability>
1

> <r_epik_Ionization_Penalty>
0.000475214

> <r_epik_Ionization_Penalty_Charging>
0.000474443

> <r_epik_Ionization_Penalty_Neutral>
7.70992e-07

> <r_epik_State_Penalty>
0.000294136

> <r_epik_Charging_Adjusted_Penalty>
0.000768579

> <i_epik_Tot_Q>
1

> <i_epik_Tot_abs_Q>
1

> <r_epik_Metal_State_Penalty>
-0

> <b_epik_Metal_Only>
0

> <s_lp_Force_Field>
OPLS_2005

> <r_lp_Energy>
15.8084

> <b_lp_Chiralities_Consistent>
1

> <s_lp_Variant>
AV-unprocessed.smi:3084-2

> <Gold.Version>
5.8.1

> <Gold.Id.Protein>
6NUR|6NUR_protein|mol2

> <Gold.PLP.Fitness>
38.8116

> <Gold.PLP.PLP>
-27.5234

> <Gold.PLP.part.hbond>
-3.8520

> <Gold.PLP.part.metal>
0.0000

> <Gold.PLP.part.buried>
-2.3665

> <Gold.PLP.part.nonpolar>
-21.1889

> <Gold.PLP.part.repulsive>
0.0889

> <Gold.PLP.ligand.clash>
0.0000

> <Gold.PLP.ligand.torsion>
0.3582

> <Gold.PLP.Chemscore.Hbond>
4.0000

> <Gold.PLP.Chemscore.CHOScore>
0.0000

> <Gold.PLP.Chemscore.Metal>
0.0000

> <Gold.Chemscore.Hbonds>
donor molecule, donor type, donor heavy atom, donor atom, acceptor molecule, acceptor atom, score
      L1  H    11    26       P1  8028  2.00
      P1  H  7989  7998       L1    12  1.00
      P1  H  7997  8009       L1     2  0.95

> <Gold.PLP.Chemscore.Internal.Correction>
0.0047

> <Gold.Rescore>
     Score         DG    S(hbond)    S(metal)    S(lipo)     H(rot)  DE(clash)    DE(int)     intcor
     11.74     -12.57       1.36        0.00      54.70       1.51       0.52       0.32       ----

> <Gold.Chemscore.Fitness>
11.7386

> <Gold.Chemscore.DG>
-12.5736

> <Gold.Chemscore.ZeroCoef>
-5.4800

> <Gold.Chemscore.Hbond>
1.3625

> <Gold.Chemscore.Metal>
0.0000

> <Gold.Chemscore.Lipo>
54.6986

> <Gold.Chemscore.Internal_Hbond>
0.0000

> <Gold.Chemscore.DEClash>
0.5176

> <Gold.Chemscore.DEInternal>
0.3173

> <Gold.Chemscore.Rot>
1.5066

> <Gold.Chemscore.Internal.Correction>
   9.000000E+99

> <Gold.Chemscore.Hbonds>
donor molecule, donor type, donor heavy atom, donor atom, acceptor molecule, acceptor atom, score
      L1  H    11    26       P1  8028  0.26
      P1  H  7989  7998       L1    12  0.25
      P1  H  7997  8009       L1     2  0.08

> <Gold.Chemscore.Hbond.Weighted>
-4.5508

> <Gold.Chemscore.Metal.Weighted>
-0.0000

> <Gold.Chemscore.Lipo.Weighted>
-6.3997

> <Gold.Chemscore.Internal_Hbond.Weighted>
0.0000

> <Gold.Chemscore.DEClash.Weighted>
0.5176

> <Gold.Chemscore.DEInternal.Weighted>
0.3173

> <Gold.Chemscore.Rot.Weighted>
3.8569

> <Gold.Chemscore.Internal.Correction.Weighted>
   9.000000E+99

> <Gold.Protein.RotatedTorsions>
[ 6907 6896 6895 6894 ] final  -80.52 input  -60.11 | X-H torsion
[ 7974 7965 7964 7962 ] final -135.38 input  175.53 | X-H torsion
[ 8008 7997 7996 7995 ] final -147.43 input   59.86 | X-H torsion
[ 10167 10162 10161 10158 ] final -117.71 input  -65.29 | X-H torsion
[ 10718 10713 10712 10709 ] final -168.48 input   66.30 | X-H torsion
[ 10763 10752 10751 10750 ] final -140.04 input  -60.55 | X-H torsion
[ 11005 11000 10999 10996 ] final  -19.89 input  -57.11 | X-H torsion

> <Gold.Protein.ActiveResidues>
 VAL166  LYS551  ARG553  GLY616  TRP617  ASP618  TYR619  PRO620  LYS621  CYS622 
 ASP623  PHE694  ASN695  SER759  ASP760  ASP761  ALA762  ILE779  LEU786  VAL792 
 PHE793  MET794  SER795  GLU796  ALA797  LYS798  CYS799  TRP800  GLU811  SER814 

> <Gold.Protein.RotatedAtoms>
  150.6928  134.3958  159.5096 H   0  0  0  0  0  0  0  0  0  0  0  0  # atno 6907 bound_to 6896
  152.1739  134.8808  160.0541 H   0  0  0  0  0  0  0  0  0  0  0  0  # atno 6908 bound_to 6896
  151.9824  133.3727  159.4149 H   0  0  0  0  0  0  0  0  0  0  0  0  # atno 6909 bound_to 6896
  144.9019  140.6783  143.5079 H   0  0  0  0  0  0  0  0  0  0  0  0  # atno 7974 bound_to 7965
  155.5754  140.0638  157.2796 H   0  0  0  0  0  0  0  0  0  0  0  0  # atno 8008 bound_to 7997
  154.4348  140.1861  156.0968 H   0  0  0  0  0  0  0  0  0  0  0  0  # atno 8009 bound_to 7997
  156.0345  140.3302  155.7179 H   0  0  0  0  0  0  0  0  0  0  0  0  # atno 8010 bound_to 7997
  140.0654  143.4928  152.2009 H   0  0  0  0  0  0  0  0  0  0  0  0  # atno 10167 bound_to 10162
  156.6975  130.9183  151.3076 H   0  0  0  0  0  0  0  0  0  0  0  0  # atno 10718 bound_to 10713
  154.8591  135.3565  154.5644 H   0  0  0  0  0  0  0  0  0  0  0  0  # atno 10763 bound_to 10752
  153.6258  135.7004  153.5298 H   0  0  0  0  0  0  0  0  0  0  0  0  # atno 10764 bound_to 10752
  153.3090  135.4184  155.1279 H   0  0  0  0  0  0  0  0  0  0  0  0  # atno 10765 bound_to 10752
  140.8410  133.7926  155.9861 H   0  0  0  0  0  0  0  0  0  0  0  0  # atno 11005 bound_to 11000
  145.3601  139.1684  143.4388 LP  0  0  0  0  0  0  0  0  0  0  0  0  # atno 17320 bound_to 7965
  146.3113  140.3662  142.8669 LP  0  0  0  0  0  0  0  0  0  0  0  0  # atno 17321 bound_to 7965
  139.5868  144.7534  151.3499 LP  0  0  0  0  0  0  0  0  0  0  0  0  # atno 17342 bound_to 10162
  140.7152  143.7286  150.7641 LP  0  0  0  0  0  0  0  0  0  0  0  0  # atno 17343 bound_to 10162
  157.6985  130.9308  150.0716 LP  0  0  0  0  0  0  0  0  0  0  0  0  # atno 17370 bound_to 10713
  156.1752  130.3648  149.9109 LP  0  0  0  0  0  0  0  0  0  0  0  0  # atno 17371 bound_to 10713
  140.8895  134.2513  157.5102 LP  0  0  0  0  0  0  0  0  0  0  0  0  # atno 17394 bound_to 11000
  139.8703  134.9654  156.4528 LP  0  0  0  0  0  0  0  0  0  0  0  0  # atno 17395 bound_to 11000

$$$$
