#       Name:                AV-unprocessed.smi:318
#       Creating user name   scv26
#       Creation time:       Thu Mar 26 22:23:34 2020


#       File generated by GOLD software.
#

@<TRIPOS>MOLECULE
AV-unprocessed.smi:318
    42    43     1
SMALL
NO_CHARGES


@<TRIPOS>ATOM
      1 ****        -0.3046   0.7712   0.7637 O.2            1 S1                 0.0000
      2 ****         0.3506  -0.0647   0.1394 C.2            1 S1                 0.0000
      3 ****         1.8778   0.0504   0.0234 C.3            1 S1                 0.0000
      4 ****         2.4099   1.3447   0.4842 N.am           1 S1                 0.0000
      5 ****         2.9007   1.3967   1.8012 C.2            1 S1                 0.0000
      6 ****         3.4069   2.5227   2.3215 C.2            1 S1                 0.0000
      7 ****         3.4409   3.7022   1.4918 C.2            1 S1                 0.0000
      8 ****         2.9711   3.6848   0.2229 C.2            1 S1                 0.0000
      9 ****         3.0019   4.9238  -0.6692 C.3            1 S1                 0.0000
     10 ****         3.7102   4.6893  -1.7747 F              1 S1                 0.0000
     11 ****         1.7662   5.2703  -1.0318 F              1 S1                 0.0000
     12 ****         3.5523   5.9679  -0.0477 F              1 S1                 0.0000
     13 ****         2.4119   2.4384  -0.3397 C.2            1 S1                 0.0000
     14 ****         1.9677   2.3741  -1.4873 O.2            1 S1                 0.0000
     15 ****        -0.2004  -1.1288  -0.4640 N.am           1 S1                 0.0000
     16 ****        -1.6252  -1.4465  -0.4854 C.3            1 S1                 0.0000
     17 ****        -2.0527  -2.1315   0.8301 C.3            1 S1                 0.0000
     18 ****        -3.5315  -2.5498   0.7930 C.3            1 S1                 0.0000
     19 ****        -3.8269  -3.4493  -0.4171 C.3            1 S1                 0.0000
     20 ****        -3.4108  -2.7663  -1.7291 C.3            1 S1                 0.0000
     21 ****        -1.9317  -2.3490  -1.6958 C.3            1 S1                 0.0000
     22 ****         2.3234  -0.7678   0.5911 H              1 S1                 0.0000
     23 ****         2.1720  -0.1309  -1.0121 H              1 S1                 0.0000
     24 ****         2.8324   0.4728   2.3570 H              1 S1                 0.0000
     25 ****         3.7764   2.5478   3.3361 H              1 S1                 0.0000
     26 ****         3.8524   4.6094   1.9080 H              1 S1                 0.0000
     27 ****         0.4135  -1.7666  -0.9496 H              1 S1                 0.0000
     28 ****        -2.1918  -0.5204  -0.6017 H              1 S1                 0.0000
     29 ****        -1.4333  -3.0123   1.0063 H              1 S1                 0.0000
     30 ****        -1.8862  -1.4635   1.6760 H              1 S1                 0.0000
     31 ****        -3.7941  -3.0693   1.7149 H              1 S1                 0.0000
     32 ****        -4.1611  -1.6603   0.7499 H              1 S1                 0.0000
     33 ****        -3.2918  -4.3937  -0.3103 H              1 S1                 0.0000
     34 ****        -4.8884  -3.6967  -0.4468 H              1 S1                 0.0000
     35 ****        -3.5883  -3.4373  -2.5700 H              1 S1                 0.0000
     36 ****        -4.0344  -1.8873  -1.8974 H              1 S1                 0.0000
     37 ****        -1.6762  -1.8318  -2.6216 H              1 S1                 0.0000
     38 ****        -1.3071  -3.2427  -1.6583 H              1 S1                 0.0000
     39 ****         0.1573   1.5404   1.2052 LP             1 S1                 0.0000
     40 ****        -1.2984   0.6805   0.8289 LP             1 S1                 0.0000
     41 ****         1.5968   1.5119  -1.8323 LP             1 S1                 0.0000
     42 ****         1.9780   3.1841  -2.0736 LP             1 S1                 0.0000
@<TRIPOS>BOND
    1    1    2 2     
    2    2    3 1     
    3    2   15 am    
    4    3    4 1     
    5    3   22 1     
    6    3   23 1     
    7    4   13 am    
    8    4    5 1     
    9    5    6 2     
   10    5   24 1     
   11    6    7 1     
   12    6   25 1     
   13    7    8 2     
   14    7   26 1     
   15    8    9 1     
   16    8   13 1     
   17    9   10 1     
   18    9   11 1     
   19    9   12 1     
   20   13   14 2     
   21   15   16 1     
   22   15   27 1     
   23   16   21 1     
   24   16   17 1     
   25   16   28 1     
   26   17   18 1     
   27   17   29 1     
   28   17   30 1     
   29   18   19 1     
   30   18   31 1     
   31   18   32 1     
   32   19   20 1     
   33   19   33 1     
   34   19   34 1     
   35   20   21 1     
   36   20   35 1     
   37   20   36 1     
   38   21   37 1     
   39   21   38 1     
   40    1   39 1     
   41    1   40 1     
   42   14   41 1     
   43   14   42 1     
@<TRIPOS>SUBSTRUCTURE
      1 S1             1
@<TRIPOS>SET
LONE_PAIRS      STATIC     ATOMS    <user>   **** ""
4 39 40 41 42
DONOR_HYDROGENS      STATIC     ATOMS    <user>   **** ""
1 27
ATOM$BLUE        STATIC     ATOMS    COLORGROUP SYSTEM
4 39 40 41 42
ATOM$RED        STATIC     ATOMS    COLORGROUP SYSTEM
1 27
