AV-unprocessed.smi:1878|AV-procd|sdf|7629|dock4
  -GOLD-   22720 9353D 1   1.00000     0.00000
 Structure written by MMmdl.
 35 36  0  0  0  0  0  0  0  0  3 V2000
  139.6553  136.2850  154.7232 O   0  0  0  0  0  0  0  0  0  0  0  0
  140.2421  137.3731  154.7105 C   0  0  0  0  0  0  0  0  0  0  0  0
  139.7985  138.5607  155.2002 N   0  5  0  0  0  0  0  0  0  0  0  0
  140.1740  139.8724  154.6641 C   0  0  0  0  0  0  0  0  0  0  0  0
  138.9240  140.7293  154.3901 C   0  0  0  0  0  0  0  0  0  0  0  0
  138.2528  140.2077  153.3631 F   0  0  0  0  0  0  0  0  0  0  0  0
  138.1207  140.7464  155.4552 F   0  0  0  0  0  0  0  0  0  0  0  0
  139.2673  141.9804  154.0788 F   0  0  0  0  0  0  0  0  0  0  0  0
  141.4570  137.4844  154.1435 N   0  0  0  0  0  0  0  0  0  0  0  0
  142.2601  136.4801  153.5398 C   0  0  0  0  0  0  0  0  0  0  0  0
  143.2245  136.8886  152.5946 C   0  0  0  0  0  0  0  0  0  0  0  0
  144.0533  135.9274  151.9807 C   0  0  0  0  0  0  0  0  0  0  0  0
  143.9150  134.5651  152.3352 C   0  0  0  0  0  0  0  0  0  0  0  0
  144.6789  133.5300  151.7785 N   0  0  0  0  0  0  0  0  0  0  0  0
  145.7887  133.9420  150.9353 C   0  0  0  0  0  0  0  0  0  0  0  0
  146.1936  132.6862  150.1596 C   0  0  0  0  0  0  0  0  0  0  0  0
  144.9442  131.7968  150.1739 C   0  0  0  0  0  0  0  0  0  0  0  0
  143.9128  132.5778  150.9932 C   0  0  0  0  0  0  0  0  0  0  0  0
  142.9905  134.2162  153.2560 N   0  3  0  0  0  0  0  0  0  0  0  0
  142.1764  135.1049  153.8658 C   0  0  0  0  0  0  0  0  0  0  0  0
  140.8249  140.4114  155.3542 H   0  0  0  0  0  0  0  0  0  0  0  0
  140.7432  139.7760  153.7383 H   0  0  0  0  0  0  0  0  0  0  0  0
  141.8194  138.4251  154.0894 H   0  0  0  0  0  0  0  0  0  0  0  0
  143.3237  137.9320  152.3325 H   0  0  0  0  0  0  0  0  0  0  0  0
  144.7791  136.2400  151.2448 H   0  0  0  0  0  0  0  0  0  0  0  0
  145.4813  134.7253  150.2419 H   0  0  0  0  0  0  0  0  0  0  0  0
  146.6149  134.3274  151.5336 H   0  0  0  0  0  0  0  0  0  0  0  0
  146.5244  132.9247  149.1485 H   0  0  0  0  0  0  0  0  0  0  0  0
  147.0147  132.1780  150.6666 H   0  0  0  0  0  0  0  0  0  0  0  0
  144.5769  131.5819  149.1698 H   0  0  0  0  0  0  0  0  0  0  0  0
  145.1710  130.8447  150.6552 H   0  0  0  0  0  0  0  0  0  0  0  0
  143.3276  131.9190  151.6356 H   0  0  0  0  0  0  0  0  0  0  0  0
  143.2230  133.1018  150.3298 H   0  0  0  0  0  0  0  0  0  0  0  0
  141.5021  134.6804  154.5946 H   0  0  0  0  0  0  0  0  0  0  0  0
  142.9039  133.2314  153.5075 H   0  0  0  0  0  0  0  0  0  0  0  0
  1  2  2  0  0  0  0
  2  3  1  0  0  0  0
  2  9  1  0  0  0  0
  3  4  1  0  0  0  0
  4  5  1  0  0  0  0
  4 21  1  0  0  0  0
  4 22  1  0  0  0  0
  5  6  1  0  0  0  0
  5  7  1  0  0  0  0
  5  8  1  0  0  0  0
  9 10  1  0  0  0  0
  9 23  1  0  0  0  0
 10 20  1  0  0  0  0
 10 11  2  0  0  0  0
 11 12  1  0  0  0  0
 11 24  1  0  0  0  0
 12 13  2  0  0  0  0
 12 25  1  0  0  0  0
 13 14  1  0  0  0  0
 13 19  1  0  0  0  0
 14 18  1  0  0  0  0
 14 15  1  0  0  0  0
 15 16  1  0  0  0  0
 15 26  1  0  0  0  0
 15 27  1  0  0  0  0
 16 17  1  0  0  0  0
 16 28  1  0  0  0  0
 16 29  1  0  0  0  0
 17 18  1  0  0  0  0
 17 30  1  0  0  0  0
 17 31  1  0  0  0  0
 18 32  1  0  0  0  0
 18 33  1  0  0  0  0
 19 20  2  0  0  0  0
 19 35  1  0  0  0  0
 20 34  1  0  0  0  0
M  CHG  1   3  -1
M  CHG  1  19   1
M  END
> <s_m_source_file>
AV-unprocessed.smi

> <i_m_source_file_index>
1878

> <i_lp_mmshare_version>
43012

> <i_f3d_flags>
0

> <s_epik_input>
RkMoRikoRilbQ0gyXVtOSF1DKD1PKVtOSF1jMVtjSF1bY0hdYyhuW2NIXTEpTjJbQ0gyXVtDSDJdW0NIMl1bQ0gyXTI=

> <s_epik_cmdline>
J2VwaWtfcHl0aG9uJywgJy1waCcsICc3LjAnLCAnLXRuJywgJzgnLCAnLW1hJywgJzIwMCcsICctbWV0YWxfYmluZGluZycsICctaW1hZScsICc8aW5maWxlLm1hZT4nLCAnLW9tYWUnLCAnPG91dGZpbGUubWFlPic=

> <r_lp_tautomer_probability>
0.999994

> <r_epik_Ionization_Penalty>
8.03425

> <r_epik_Ionization_Penalty_Charging>
8.03425

> <r_epik_Ionization_Penalty_Neutral>
2.43273e-06

> <r_epik_State_Penalty>
7.63947

> <r_epik_Charging_Adjusted_Penalty>
15.6737

> <i_epik_Tot_Q>
0

> <i_epik_Tot_abs_Q>
2

> <r_epik_Metal_State_Penalty>
3.63831

> <b_epik_Metal_Only>
1

> <s_lp_Force_Field>
OPLS_2005

> <r_lp_Energy>
42.9348

> <b_lp_Chiralities_Consistent>
1

> <s_lp_Variant>
AV-unprocessed.smi:1878-4

> <Gold.Version>
5.8.1

> <Gold.Id.Protein>
6NUR|6NUR_protein|mol2

> <Gold.PLP.Fitness>
41.4249

> <Gold.PLP.PLP>
-33.3834

> <Gold.PLP.part.hbond>
-2.0000

> <Gold.PLP.part.metal>
0.0000

> <Gold.PLP.part.buried>
-6.8384

> <Gold.PLP.part.nonpolar>
-25.3828

> <Gold.PLP.part.repulsive>
0.2014

> <Gold.PLP.ligand.clash>
0.0000

> <Gold.PLP.ligand.torsion>
0.5032

> <Gold.PLP.Chemscore.Hbond>
3.0000

> <Gold.PLP.Chemscore.CHOScore>
0.0000

> <Gold.PLP.Chemscore.Metal>
0.0000

> <Gold.Chemscore.Hbonds>
donor molecule, donor type, donor heavy atom, donor atom, acceptor molecule, acceptor atom, score
      L1  H    19    35       P1 10957  2.00
      P1  H 11000 11005       L1     1  1.00

> <Gold.PLP.Chemscore.Internal.Correction>
0.0480

> <Gold.Rescore>
     Score         DG    S(hbond)    S(metal)    S(lipo)     H(rot)  DE(clash)    DE(int)     intcor
     14.20     -15.89       1.97        0.00      61.77       1.33       0.07       1.63       ----

> <Gold.Chemscore.Fitness>
14.1954

> <Gold.Chemscore.DG>
-15.8914

> <Gold.Chemscore.ZeroCoef>
-5.4800

> <Gold.Chemscore.Hbond>
1.9741

> <Gold.Chemscore.Metal>
0.0000

> <Gold.Chemscore.Lipo>
61.7718

> <Gold.Chemscore.Internal_Hbond>
0.0000

> <Gold.Chemscore.DEClash>
0.0686

> <Gold.Chemscore.DEInternal>
1.6274

> <Gold.Chemscore.Rot>
1.3317

> <Gold.Chemscore.Internal.Correction>
   9.000000E+99

> <Gold.Chemscore.Hbonds>
donor molecule, donor type, donor heavy atom, donor atom, acceptor molecule, acceptor atom, score
      L1  H    19    35       P1 10957  0.93
      P1  H 11000 11005       L1     1  0.93

> <Gold.Chemscore.Hbond.Weighted>
-6.5933

> <Gold.Chemscore.Metal.Weighted>
-0.0000

> <Gold.Chemscore.Lipo.Weighted>
-7.2273

> <Gold.Chemscore.Internal_Hbond.Weighted>
0.0000

> <Gold.Chemscore.DEClash.Weighted>
0.0686

> <Gold.Chemscore.DEInternal.Weighted>
1.6274

> <Gold.Chemscore.Rot.Weighted>
3.4092

> <Gold.Chemscore.Internal.Correction.Weighted>
   9.000000E+99

> <Gold.Protein.RotatedTorsions>
[ 6907 6896 6895 6894 ] final  -47.11 input  -60.11 | X-H torsion
[ 7974 7965 7964 7962 ] final   89.48 input  175.53 | X-H torsion
[ 8008 7997 7996 7995 ] final  -38.41 input   59.86 | X-H torsion
[ 10167 10162 10161 10158 ] final   97.19 input  -65.29 | X-H torsion
[ 10718 10713 10712 10709 ] final   94.17 input   66.30 | X-H torsion
[ 10763 10752 10751 10750 ] final  101.96 input  -60.55 | X-H torsion
[ 11005 11000 10999 10996 ] final   75.82 input  -57.11 | X-H torsion

> <Gold.Protein.ActiveResidues>
 VAL166  LYS551  ARG553  GLY616  TRP617  ASP618  TYR619  PRO620  LYS621  CYS622 
 ASP623  PHE694  ASN695  SER759  ASP760  ASP761  ALA762  ILE779  LEU786  VAL792 
 PHE793  MET794  SER795  GLU796  ALA797  LYS798  CYS799  TRP800  GLU811  SER814 

> <Gold.Protein.RotatedAtoms>
  150.9042  134.8456  159.7380 H   0  0  0  0  0  0  0  0  0  0  0  0  # atno 6907 bound_to 6896
  152.4909  134.4457  159.9568 H   0  0  0  0  0  0  0  0  0  0  0  0  # atno 6908 bound_to 6896
  151.4506  133.3579  159.2830 H   0  0  0  0  0  0  0  0  0  0  0  0  # atno 6909 bound_to 6896
  145.5318  139.2283  143.2614 H   0  0  0  0  0  0  0  0  0  0  0  0  # atno 7974 bound_to 7965
  154.4037  140.1578  156.2696 H   0  0  0  0  0  0  0  0  0  0  0  0  # atno 8008 bound_to 7997
  155.8965  140.3435  155.5972 H   0  0  0  0  0  0  0  0  0  0  0  0  # atno 8009 bound_to 7997
  155.7498  140.0803  157.2197 H   0  0  0  0  0  0  0  0  0  0  0  0  # atno 8010 bound_to 7997
  139.7824  144.6883  151.0004 H   0  0  0  0  0  0  0  0  0  0  0  0  # atno 10167 bound_to 10162
  157.6950  131.0503  150.4145 H   0  0  0  0  0  0  0  0  0  0  0  0  # atno 10718 bound_to 10713
  153.3334  135.4027  155.1513 H   0  0  0  0  0  0  0  0  0  0  0  0  # atno 10763 bound_to 10752
  154.8628  135.3616  154.5441 H   0  0  0  0  0  0  0  0  0  0  0  0  # atno 10764 bound_to 10752
  153.5881  135.7074  153.5494 H   0  0  0  0  0  0  0  0  0  0  0  0  # atno 10765 bound_to 10752
  139.9326  134.7549  156.1318 H   0  0  0  0  0  0  0  0  0  0  0  0  # atno 11005 bound_to 11000
  146.2039  140.6135  142.9090 LP  0  0  0  0  0  0  0  0  0  0  0  0  # atno 17320 bound_to 7965
  144.7622  140.5448  143.6728 LP  0  0  0  0  0  0  0  0  0  0  0  0  # atno 17321 bound_to 7965
  140.7819  143.4468  151.0470 LP  0  0  0  0  0  0  0  0  0  0  0  0  # atno 17342 bound_to 10162
  139.8148  143.7901  152.3173 LP  0  0  0  0  0  0  0  0  0  0  0  0  # atno 17343 bound_to 10162
  156.4526  130.4015  149.6626 LP  0  0  0  0  0  0  0  0  0  0  0  0  # atno 17370 bound_to 10713
  156.3770  130.7560  151.2549 LP  0  0  0  0  0  0  0  0  0  0  0  0  # atno 17371 bound_to 10713
  141.0923  133.6709  156.2568 LP  0  0  0  0  0  0  0  0  0  0  0  0  # atno 17394 bound_to 11000
  140.6161  134.5409  157.5541 LP  0  0  0  0  0  0  0  0  0  0  0  0  # atno 17395 bound_to 11000

$$$$
