AV-unprocessed.smi:1394|AV-procd|sdf|5667|dock1
  -GOLD-   22720 5293D 1   1.00000     0.00000
 Structure written by MMmdl.
 41 42  0  0  0  0  0  0  0  0  1 V2000
  148.2881  140.7173  153.5775 C   0  0  0  0  0  0  0  0  0  0  0  0
  147.2028  141.2452  154.5314 C   0  0  2  0  0  0  0  0  0  0  0  0
  146.6773  142.6246  154.0825 C   0  0  0  0  0  0  0  0  0  0  0  0
  145.5422  143.1206  154.9927 C   0  0  0  0  0  0  0  0  0  0  0  0
  145.9786  143.1545  156.4650 C   0  0  0  0  0  0  0  0  0  0  0  0
  146.5085  141.7838  156.9218 C   0  0  0  0  0  0  0  0  0  0  0  0
  147.6463  141.2674  156.0180 C   0  0  2  0  0  0  0  0  0  0  0  0
  148.8449  142.0833  156.2237 N   0  0  0  0  0  0  0  0  0  0  0  0
  150.0242  141.6571  156.7013 C   0  0  0  0  0  0  0  0  0  0  0  0
  150.2412  140.4887  157.0250 O   0  0  0  0  0  0  0  0  0  0  0  0
  151.1159  142.7303  156.8178 C   0  0  0  0  0  0  0  0  0  0  0  0
  151.7326  142.8029  158.1534 N   0  0  0  0  0  0  0  0  0  0  0  0
  151.4745  143.9636  158.9040 C   0  0  0  0  0  0  0  0  0  0  0  0
  151.9847  144.1389  160.1302 C   0  0  0  0  0  0  0  0  0  0  0  0
  152.8176  143.0962  160.6775 C   0  0  0  0  0  0  0  0  0  0  0  0
  153.0892  141.9709  159.9766 C   0  0  0  0  0  0  0  0  0  0  0  0
  153.9623  140.8545  160.5449 C   0  0  0  0  0  0  0  0  0  0  0  0
  153.3701  139.6695  160.3914 F   0  0  0  0  0  0  0  0  0  0  0  0
  155.1387  140.8168  159.9184 F   0  0  0  0  0  0  0  0  0  0  0  0
  154.1984  141.0248  161.8467 F   0  0  0  0  0  0  0  0  0  0  0  0
  152.5258  141.7906  158.6228 C   0  0  0  0  0  0  0  0  0  0  0  0
  152.7520  140.7885  157.9426 O   0  0  0  0  0  0  0  0  0  0  0  0
  149.1403  141.3948  153.5196 H   0  0  0  0  0  0  0  0  0  0  0  0
  147.8954  140.5988  152.5674 H   0  0  0  0  0  0  0  0  0  0  0  0
  148.6562  139.7438  153.9028 H   0  0  0  0  0  0  0  0  0  0  0  0
  146.3672  140.5466  154.4624 H   0  0  0  0  0  0  0  0  0  0  0  0
  147.4905  143.3515  154.0828 H   0  0  0  0  0  0  0  0  0  0  0  0
  146.3181  142.5693  153.0544 H   0  0  0  0  0  0  0  0  0  0  0  0
  145.2205  144.1139  154.6782 H   0  0  0  0  0  0  0  0  0  0  0  0
  144.6760  142.4668  154.8844 H   0  0  0  0  0  0  0  0  0  0  0  0
  146.7493  143.9141  156.6007 H   0  0  0  0  0  0  0  0  0  0  0  0
  145.1391  143.4549  157.0927 H   0  0  0  0  0  0  0  0  0  0  0  0
  146.8446  141.8398  157.9578 H   0  0  0  0  0  0  0  0  0  0  0  0
  145.6889  141.0641  156.9096 H   0  0  0  0  0  0  0  0  0  0  0  0
  147.8580  140.2416  156.3251 H   0  0  0  0  0  0  0  0  0  0  0  0
  148.7653  143.0610  155.9845 H   0  0  0  0  0  0  0  0  0  0  0  0
  151.8815  142.5289  156.0667 H   0  0  0  0  0  0  0  0  0  0  0  0
  150.6902  143.6944  156.5342 H   0  0  0  0  0  0  0  0  0  0  0  0
  150.8468  144.6972  158.4189 H   0  0  0  0  0  0  0  0  0  0  0  0
  151.7792  145.0378  160.6926 H   0  0  0  0  0  0  0  0  0  0  0  0
  153.2244  143.2329  161.6682 H   0  0  0  0  0  0  0  0  0  0  0  0
  1  2  1  0  0  0  0
  1 23  1  0  0  0  0
  1 24  1  0  0  0  0
  1 25  1  0  0  0  0
  2  7  1  0  0  0  0
  2  3  1  0  0  0  0
  2 26  1  0  0  0  0
  3  4  1  0  0  0  0
  3 27  1  0  0  0  0
  3 28  1  0  0  0  0
  4  5  1  0  0  0  0
  4 29  1  0  0  0  0
  4 30  1  0  0  0  0
  5  6  1  0  0  0  0
  5 31  1  0  0  0  0
  5 32  1  0  0  0  0
  6  7  1  0  0  0  0
  6 33  1  0  0  0  0
  6 34  1  0  0  0  0
  7  8  1  0  0  0  0
  7 35  1  0  0  0  0
  8  9  1  0  0  0  0
  8 36  1  0  0  0  0
  9 10  2  0  0  0  0
  9 11  1  0  0  0  0
 11 12  1  0  0  0  0
 11 37  1  0  0  0  0
 11 38  1  0  0  0  0
 12 21  1  0  0  0  0
 12 13  1  0  0  0  0
 13 14  2  0  0  0  0
 13 39  1  0  0  0  0
 14 15  1  0  0  0  0
 14 40  1  0  0  0  0
 15 16  2  0  0  0  0
 15 41  1  0  0  0  0
 16 17  1  0  0  0  0
 16 21  1  0  0  0  0
 17 18  1  0  0  0  0
 17 19  1  0  0  0  0
 17 20  1  0  0  0  0
 21 22  2  0  0  0  0
M  END
> <s_m_source_file>
AV-unprocessed.smi

> <i_m_source_file_index>
1394

> <i_lp_mmshare_version>
43012

> <i_f3d_flags>
0

> <s_epik_input>
W0NIM11bQ0BASF0xW0NIMl1bQ0gyXVtDSDJdW0NIMl1bQ0BIXTFbTkhdQyg9TylbQ0gyXW4yW2NIXVtjSF1bY0hdYyhDKEYpKEYpRiljMj1P

> <s_epik_cmdline>
J2VwaWtfcHl0aG9uJywgJy1waCcsICc3LjAnLCAnLXRuJywgJzgnLCAnLW1hJywgJzIwMCcsICctbWV0YWxfYmluZGluZycsICctaW1hZScsICc8aW5maWxlLm1hZT4nLCAnLW9tYWUnLCAnPG91dGZpbGUubWFlPic=

> <r_lp_tautomer_probability>
1

> <r_epik_Ionization_Penalty>
2.11487e-08

> <r_epik_Ionization_Penalty_Charging>
2.10183e-09

> <r_epik_Ionization_Penalty_Neutral>
1.90469e-08

> <r_epik_State_Penalty>
-0

> <r_epik_Charging_Adjusted_Penalty>
2.10183e-09

> <i_epik_Tot_Q>
0

> <i_epik_Tot_abs_Q>
0

> <r_epik_Metal_State_Penalty>
-0

> <b_epik_Metal_Only>
0

> <s_lp_Force_Field>
OPLS_2005

> <r_lp_Energy>
20.183

> <b_lp_Chiralities_Consistent>
1

> <s_lp_Variant>
AV-unprocessed.smi:1394-3

> <Gold.Version>
5.8.1

> <Gold.Id.Protein>
6NUR|6NUR_protein|mol2

> <Gold.PLP.Fitness>
48.7615

> <Gold.PLP.PLP>
-45.0658

> <Gold.PLP.part.hbond>
-2.0000

> <Gold.PLP.part.metal>
0.0000

> <Gold.PLP.part.buried>
-1.0710

> <Gold.PLP.part.nonpolar>
-41.1769

> <Gold.PLP.part.repulsive>
0.0476

> <Gold.PLP.ligand.clash>
0.0000

> <Gold.PLP.ligand.torsion>
0.4688

> <Gold.PLP.Chemscore.Hbond>
1.3913

> <Gold.PLP.Chemscore.CHOScore>
0.0000

> <Gold.PLP.Chemscore.Metal>
0.0000

> <Gold.Chemscore.Hbonds>
donor molecule, donor type, donor heavy atom, donor atom, acceptor molecule, acceptor atom, score
      L1  H     8    36       P1  8028  1.00
      P1  H  7997  8009       L1    22  0.49

> <Gold.PLP.Chemscore.Internal.Correction>
0.4595

> <Gold.Rescore>
     Score         DG    S(hbond)    S(metal)    S(lipo)     H(rot)  DE(clash)    DE(int)     intcor
     14.67     -18.55       1.79        0.00      93.83       1.52       0.19       3.69       ----

> <Gold.Chemscore.Fitness>
14.6683

> <Gold.Chemscore.DG>
-18.5484

> <Gold.Chemscore.ZeroCoef>
-5.4800

> <Gold.Chemscore.Hbond>
1.7940

> <Gold.Chemscore.Metal>
0.0000

> <Gold.Chemscore.Lipo>
93.8315

> <Gold.Chemscore.Internal_Hbond>
0.0000

> <Gold.Chemscore.DEClash>
0.1878

> <Gold.Chemscore.DEInternal>
3.6923

> <Gold.Chemscore.Rot>
1.5242

> <Gold.Chemscore.Internal.Correction>
   9.000000E+99

> <Gold.Chemscore.Hbonds>
donor molecule, donor type, donor heavy atom, donor atom, acceptor molecule, acceptor atom, score
      L1  H     8    36       P1  8028  1.00
      P1  H  7997  8009       L1    22  0.50

> <Gold.Chemscore.Hbond.Weighted>
-5.9920

> <Gold.Chemscore.Metal.Weighted>
-0.0000

> <Gold.Chemscore.Lipo.Weighted>
-10.9783

> <Gold.Chemscore.Internal_Hbond.Weighted>
0.0000

> <Gold.Chemscore.DEClash.Weighted>
0.1878

> <Gold.Chemscore.DEInternal.Weighted>
3.6923

> <Gold.Chemscore.Rot.Weighted>
3.9019

> <Gold.Chemscore.Internal.Correction.Weighted>
   9.000000E+99

> <Gold.Protein.RotatedTorsions>
[ 6907 6896 6895 6894 ] final  173.45 input  -60.11 | X-H torsion
[ 7974 7965 7964 7962 ] final  -97.57 input  175.53 | X-H torsion
[ 8008 7997 7996 7995 ] final  166.36 input   59.86 | X-H torsion
[ 10167 10162 10161 10158 ] final  -51.26 input  -65.29 | X-H torsion
[ 10718 10713 10712 10709 ] final -112.43 input   66.30 | X-H torsion
[ 10763 10752 10751 10750 ] final   75.33 input  -60.55 | X-H torsion
[ 11005 11000 10999 10996 ] final  -81.58 input  -57.11 | X-H torsion

> <Gold.Protein.ActiveResidues>
 VAL166  LYS551  ARG553  GLY616  TRP617  ASP618  TYR619  PRO620  LYS621  CYS622 
 ASP623  PHE694  ASN695  SER759  ASP760  ASP761  ALA762  ILE779  LEU786  VAL792 
 PHE793  MET794  SER795  GLU796  ALA797  LYS798  CYS799  TRP800  GLU811  SER814 

> <Gold.Protein.RotatedAtoms>
  151.7681  133.3339  159.3436 H   0  0  0  0  0  0  0  0  0  0  0  0  # atno 6907 bound_to 6896
  150.7472  134.6044  159.6062 H   0  0  0  0  0  0  0  0  0  0  0  0  # atno 6908 bound_to 6896
  152.3360  134.7199  160.0328 H   0  0  0  0  0  0  0  0  0  0  0  0  # atno 6909 bound_to 6896
  145.3320  140.9443  143.2656 H   0  0  0  0  0  0  0  0  0  0  0  0  # atno 7974 bound_to 7965
  156.1725  140.1645  156.8422 H   0  0  0  0  0  0  0  0  0  0  0  0  # atno 8008 bound_to 7997
  154.5272  140.0765  156.8314 H   0  0  0  0  0  0  0  0  0  0  0  0  # atno 8009 bound_to 7997
  155.3482  140.3388  155.4241 H   0  0  0  0  0  0  0  0  0  0  0  0  # atno 8010 bound_to 7997
  140.6597  143.2626  151.4478 H   0  0  0  0  0  0  0  0  0  0  0  0  # atno 10167 bound_to 10162
  156.0705  130.5919  150.8507 H   0  0  0  0  0  0  0  0  0  0  0  0  # atno 10718 bound_to 10713
  153.0647  135.4993  154.8173 H   0  0  0  0  0  0  0  0  0  0  0  0  # atno 10763 bound_to 10752
  154.6936  135.2989  154.9447 H   0  0  0  0  0  0  0  0  0  0  0  0  # atno 10764 bound_to 10752
  154.0193  135.6744  153.4824 H   0  0  0  0  0  0  0  0  0  0  0  0  # atno 10765 bound_to 10752
  141.1666  133.7203  156.8444 H   0  0  0  0  0  0  0  0  0  0  0  0  # atno 11005 bound_to 11000
  144.8857  139.4843  143.6702 LP  0  0  0  0  0  0  0  0  0  0  0  0  # atno 17320 bound_to 7965
  146.3042  139.7524  142.9069 LP  0  0  0  0  0  0  0  0  0  0  0  0  # atno 17321 bound_to 7965
  139.5828  144.1671  152.1990 LP  0  0  0  0  0  0  0  0  0  0  0  0  # atno 17342 bound_to 10162
  140.1002  144.5546  150.6994 LP  0  0  0  0  0  0  0  0  0  0  0  0  # atno 17343 bound_to 10162
  157.5773  131.0946  150.9326 LP  0  0  0  0  0  0  0  0  0  0  0  0  # atno 17370 bound_to 10713
  156.9529  130.5426  149.5283 LP  0  0  0  0  0  0  0  0  0  0  0  0  # atno 17371 bound_to 10713
  140.1960  134.8931  157.3115 LP  0  0  0  0  0  0  0  0  0  0  0  0  # atno 17394 bound_to 11000
  140.2238  134.3991  155.7553 LP  0  0  0  0  0  0  0  0  0  0  0  0  # atno 17395 bound_to 11000

$$$$
