AV-unprocessed.smi:3030|AV-procd|sdf|11538|dock5
  -GOLD-   2272016483D 1   1.00000     0.00000
 Structure written by MMmdl.
 52 53  0  0  0  0  0  0  0  0  1 V2000
  148.7534  131.2019  154.1246 C   0  0  0  0  0  0  0  0  0  0  0  0
  149.1120  132.6843  153.9730 C   0  0  0  0  0  0  0  0  0  0  0  0
  150.0045  133.1344  155.0314 N   0  0  0  0  0  0  0  0  0  0  0  0
  150.5092  132.2474  155.9767 C   0  0  0  0  0  0  0  0  0  0  0  0
  151.2887  132.6119  157.0128 C   0  0  0  0  0  0  0  0  0  0  0  0
  151.6435  134.0351  157.1857 C   0  0  0  0  0  0  0  0  0  0  0  0
  152.3545  134.4029  158.1211 O   0  0  0  0  0  0  0  0  0  0  0  0
  151.0998  134.9846  156.1784 C   0  0  0  0  0  0  0  0  0  0  0  0
  151.4511  136.3342  156.3463 N   0  0  0  0  0  0  0  0  0  0  0  0
  150.7671  137.3289  156.9404 C   0  0  0  0  0  0  0  0  0  0  0  0
  149.6715  137.2254  157.4914 O   0  0  0  0  0  0  0  0  0  0  0  0
  151.4463  138.4818  156.8633 N   0  0  0  0  0  0  0  0  0  0  0  0
  151.0022  139.7696  157.3934 C   0  0  1  0  0  0  0  0  0  0  0  0
  152.0448  140.2844  158.4068 C   0  0  0  0  0  0  0  0  0  0  0  0
  151.6643  141.6610  158.9786 C   0  0  1  0  0  0  0  0  0  0  0  0
  152.7102  142.1589  159.9866 C   0  0  0  0  0  0  0  0  0  0  0  0
  151.4578  142.6688  157.8356 C   0  0  0  0  0  0  0  0  0  0  0  0
  150.4062  142.1726  156.8320 C   0  0  0  0  0  0  0  0  0  0  0  0
  150.7750  140.7897  156.2441 C   0  0  2  0  0  0  0  0  0  0  0  0
  149.7767  140.2983  155.1526 C   0  0  0  0  0  0  0  0  0  0  0  0
  149.5406  141.3510  154.0558 C   0  0  0  0  0  0  0  0  0  0  0  0
  148.4365  139.7848  155.7107 C   0  0  0  0  0  0  0  0  0  0  0  0
  150.3279  134.4815  155.1812 C   0  0  0  0  0  0  0  0  0  0  0  0
  148.0847  130.8817  153.3256 H   0  0  0  0  0  0  0  0  0  0  0  0
  148.2522  131.0132  155.0744 H   0  0  0  0  0  0  0  0  0  0  0  0
  149.6447  130.5749  154.0845 H   0  0  0  0  0  0  0  0  0  0  0  0
  149.5822  132.8543  153.0036 H   0  0  0  0  0  0  0  0  0  0  0  0
  148.2037  133.2877  153.9812 H   0  0  0  0  0  0  0  0  0  0  0  0
  150.2300  131.2164  155.8138 H   0  0  0  0  0  0  0  0  0  0  0  0
  151.6606  131.8865  157.7213 H   0  0  0  0  0  0  0  0  0  0  0  0
  152.3548  136.5786  155.9679 H   0  0  0  0  0  0  0  0  0  0  0  0
  152.3402  138.4725  156.3944 H   0  0  0  0  0  0  0  0  0  0  0  0
  150.0586  139.6381  157.9251 H   0  0  0  0  0  0  0  0  0  0  0  0
  152.1483  139.5677  159.2230 H   0  0  0  0  0  0  0  0  0  0  0  0
  153.0231  140.3462  157.9276 H   0  0  0  0  0  0  0  0  0  0  0  0
  150.7181  141.5557  159.5116 H   0  0  0  0  0  0  0  0  0  0  0  0
  153.6865  142.2827  159.5169 H   0  0  0  0  0  0  0  0  0  0  0  0
  152.8250  141.4559  160.8120 H   0  0  0  0  0  0  0  0  0  0  0  0
  152.4204  143.1203  160.4113 H   0  0  0  0  0  0  0  0  0  0  0  0
  151.1483  143.6330  158.2403 H   0  0  0  0  0  0  0  0  0  0  0  0
  152.4025  142.8412  157.3177 H   0  0  0  0  0  0  0  0  0  0  0  0
  149.4378  142.1235  157.3303 H   0  0  0  0  0  0  0  0  0  0  0  0
  150.3081  142.9133  156.0394 H   0  0  0  0  0  0  0  0  0  0  0  0
  151.7380  140.9106  155.7447 H   0  0  0  0  0  0  0  0  0  0  0  0
  150.2401  139.4552  154.6400 H   0  0  0  0  0  0  0  0  0  0  0  0
  148.9796  142.2083  154.4277 H   0  0  0  0  0  0  0  0  0  0  0  0
  148.9713  140.9272  153.2279 H   0  0  0  0  0  0  0  0  0  0  0  0
  150.4834  141.7170  153.6485 H   0  0  0  0  0  0  0  0  0  0  0  0
  147.8760  140.5739  156.2115 H   0  0  0  0  0  0  0  0  0  0  0  0
  148.5787  138.9701  156.4202 H   0  0  0  0  0  0  0  0  0  0  0  0
  147.8064  139.4003  154.9083 H   0  0  0  0  0  0  0  0  0  0  0  0
  149.9055  135.0915  154.3991 H   0  0  0  0  0  0  0  0  0  0  0  0
  1  2  1  0  0  0  0
  1 24  1  0  0  0  0
  1 25  1  0  0  0  0
  1 26  1  0  0  0  0
  2  3  1  0  0  0  0
  2 27  1  0  0  0  0
  2 28  1  0  0  0  0
  3 23  1  0  0  0  0
  3  4  1  0  0  0  0
  4  5  2  0  0  0  0
  4 29  1  0  0  0  0
  5  6  1  0  0  0  0
  5 30  1  0  0  0  0
  6  7  2  0  0  0  0
  6  8  1  0  0  0  0
  8  9  1  0  0  0  0
  8 23  2  0  0  0  0
  9 10  1  0  0  0  0
  9 31  1  0  0  0  0
 10 11  2  0  0  0  0
 10 12  1  0  0  0  0
 12 13  1  0  0  0  0
 12 32  1  0  0  0  0
 13 19  1  0  0  0  0
 13 14  1  0  0  0  0
 13 33  1  0  0  0  0
 14 15  1  0  0  0  0
 14 34  1  0  0  0  0
 14 35  1  0  0  0  0
 15 16  1  0  0  0  0
 15 17  1  0  0  0  0
 15 36  1  0  0  0  0
 16 37  1  0  0  0  0
 16 38  1  0  0  0  0
 16 39  1  0  0  0  0
 17 18  1  0  0  0  0
 17 40  1  0  0  0  0
 17 41  1  0  0  0  0
 18 19  1  0  0  0  0
 18 42  1  0  0  0  0
 18 43  1  0  0  0  0
 19 20  1  0  0  0  0
 19 44  1  0  0  0  0
 20 21  1  0  0  0  0
 20 22  1  0  0  0  0
 20 45  1  0  0  0  0
 21 46  1  0  0  0  0
 21 47  1  0  0  0  0
 21 48  1  0  0  0  0
 22 49  1  0  0  0  0
 22 50  1  0  0  0  0
 22 51  1  0  0  0  0
 23 52  1  0  0  0  0
M  END
> <s_m_source_file>
AV-unprocessed.smi

> <i_m_source_file_index>
3030

> <i_lp_mmshare_version>
43012

> <i_f3d_flags>
0

> <s_epik_input>
W0NIM11bQ0gyXW4xW2NIXVtjSF1jKD1PKWMoW2NIXTEpW05IXUMoPU8pW05IXVtDQEBIXTJbQ0gyXVtDQEBIXShbQ0gzXSlbQ0gyXVtDSDJdW0NASF0yW0NIXShbQ0gzXSlbQ0gzXQ==

> <s_epik_cmdline>
J2VwaWtfcHl0aG9uJywgJy1waCcsICc3LjAnLCAnLXRuJywgJzgnLCAnLW1hJywgJzIwMCcsICctbWV0YWxfYmluZGluZycsICctaW1hZScsICc8aW5maWxlLm1hZT4nLCAnLW9tYWUnLCAnPG91dGZpbGUubWFlPic=

> <r_lp_tautomer_probability>
1

> <r_epik_Ionization_Penalty>
0.00147933

> <r_epik_Ionization_Penalty_Charging>
0.00145753

> <r_epik_Ionization_Penalty_Neutral>
2.17987e-05

> <r_epik_State_Penalty>
0.00097457

> <r_epik_Charging_Adjusted_Penalty>
0.0024321

> <i_epik_Tot_Q>
0

> <i_epik_Tot_abs_Q>
0

> <r_epik_Metal_State_Penalty>
-0

> <b_epik_Metal_Only>
0

> <s_lp_Force_Field>
OPLS_2005

> <r_lp_Energy>
9.50568

> <b_lp_Chiralities_Consistent>
1

> <s_lp_Variant>
AV-unprocessed.smi:3030-6

> <Gold.Version>
5.8.1

> <Gold.Id.Protein>
6NUR|6NUR_protein|mol2

> <Gold.PLP.Fitness>
39.3181

> <Gold.PLP.PLP>
-37.7325

> <Gold.PLP.part.hbond>
-1.0000

> <Gold.PLP.part.metal>
0.0000

> <Gold.PLP.part.buried>
-3.5441

> <Gold.PLP.part.nonpolar>
-33.3099

> <Gold.PLP.part.repulsive>
0.1536

> <Gold.PLP.ligand.clash>
0.0000

> <Gold.PLP.ligand.torsion>
0.8927

> <Gold.PLP.Chemscore.Hbond>
0.1006

> <Gold.PLP.Chemscore.CHOScore>
1.0000

> <Gold.PLP.Chemscore.Metal>
0.0000

> <Gold.Chemscore.Hbonds>
donor molecule, donor type, donor heavy atom, donor atom, acceptor molecule, acceptor atom, score
      L1  C    23    52       P1  7948  0.06

> <Gold.PLP.Chemscore.Internal.Correction>
0.0691

> <Gold.Rescore>
     Score         DG    S(hbond)    S(metal)    S(lipo)     H(rot)  DE(clash)    DE(int)     intcor
     13.51     -14.29       0.28        0.00      95.07       1.27       0.01       0.76       ----

> <Gold.Chemscore.Fitness>
13.5140

> <Gold.Chemscore.DG>
-14.2851

> <Gold.Chemscore.ZeroCoef>
-5.4800

> <Gold.Chemscore.Hbond>
0.2782

> <Gold.Chemscore.Metal>
0.0000

> <Gold.Chemscore.Lipo>
95.0710

> <Gold.Chemscore.Internal_Hbond>
0.0000

> <Gold.Chemscore.DEClash>
0.0135

> <Gold.Chemscore.DEInternal>
0.7576

> <Gold.Chemscore.Rot>
1.2685

> <Gold.Chemscore.Internal.Correction>
   9.000000E+99

> <Gold.Chemscore.Hbond.Weighted>
-0.9292

> <Gold.Chemscore.Metal.Weighted>
-0.0000

> <Gold.Chemscore.Lipo.Weighted>
-11.1233

> <Gold.Chemscore.Internal_Hbond.Weighted>
0.0000

> <Gold.Chemscore.DEClash.Weighted>
0.0135

> <Gold.Chemscore.DEInternal.Weighted>
0.7576

> <Gold.Chemscore.Rot.Weighted>
3.2474

> <Gold.Chemscore.Internal.Correction.Weighted>
   9.000000E+99

> <Gold.Protein.RotatedTorsions>
[ 6907 6896 6895 6894 ] final   88.00 input  -60.11 | X-H torsion
[ 7974 7965 7964 7962 ] final   23.51 input  175.53 | X-H torsion
[ 8008 7997 7996 7995 ] final -137.59 input   59.86 | X-H torsion
[ 10167 10162 10161 10158 ] final -165.73 input  -65.29 | X-H torsion
[ 10718 10713 10712 10709 ] final  128.84 input   66.30 | X-H torsion
[ 10763 10752 10751 10750 ] final  101.35 input  -60.55 | X-H torsion
[ 11005 11000 10999 10996 ] final -127.78 input  -57.11 | X-H torsion

> <Gold.Protein.ActiveResidues>
 VAL166  LYS551  ARG553  GLY616  TRP617  ASP618  TYR619  PRO620  LYS621  CYS622 
 ASP623  PHE694  ASN695  SER759  ASP760  ASP761  ALA762  ILE779  LEU786  VAL792 
 PHE793  MET794  SER795  GLU796  ALA797  LYS798  CYS799  TRP800  GLU811  SER814 

> <Gold.Protein.RotatedAtoms>
  152.5419  134.2189  159.8779 H   0  0  0  0  0  0  0  0  0  0  0  0  # atno 6907 bound_to 6896
  151.2168  133.4518  159.2607 H   0  0  0  0  0  0  0  0  0  0  0  0  # atno 6908 bound_to 6896
  151.0844  134.9891  159.8428 H   0  0  0  0  0  0  0  0  0  0  0  0  # atno 6909 bound_to 6896
  146.1981  139.7734  142.8782 H   0  0  0  0  0  0  0  0  0  0  0  0  # atno 7974 bound_to 7965
  155.4143  140.0514  157.3030 H   0  0  0  0  0  0  0  0  0  0  0  0  # atno 8008 bound_to 7997
  154.4932  140.2128  155.9463 H   0  0  0  0  0  0  0  0  0  0  0  0  # atno 8009 bound_to 7997
  156.1370  140.3161  155.8441 H   0  0  0  0  0  0  0  0  0  0  0  0  # atno 8010 bound_to 7997
  139.6162  144.0715  152.1890 H   0  0  0  0  0  0  0  0  0  0  0  0  # atno 10167 bound_to 10162
  157.5208  131.1098  150.9156 H   0  0  0  0  0  0  0  0  0  0  0  0  # atno 10718 bound_to 10713
  153.3255  135.4047  155.1453 H   0  0  0  0  0  0  0  0  0  0  0  0  # atno 10763 bound_to 10752
  154.8611  135.3598  154.5539 H   0  0  0  0  0  0  0  0  0  0  0  0  # atno 10764 bound_to 10752
  153.5975  135.7072  153.5457 H   0  0  0  0  0  0  0  0  0  0  0  0  # atno 10765 bound_to 10752
  140.9571  134.0987  157.4006 H   0  0  0  0  0  0  0  0  0  0  0  0  # atno 11005 bound_to 11000
  145.3577  141.0320  143.3302 LP  0  0  0  0  0  0  0  0  0  0  0  0  # atno 17320 bound_to 7965
  144.8623  139.5159  143.6806 LP  0  0  0  0  0  0  0  0  0  0  0  0  # atno 17321 bound_to 7965
  140.0346  144.6054  150.7460 LP  0  0  0  0  0  0  0  0  0  0  0  0  # atno 17342 bound_to 10162
  140.7352  143.2738  151.3804 LP  0  0  0  0  0  0  0  0  0  0  0  0  # atno 17343 bound_to 10162
  156.9768  130.5511  149.5294 LP  0  0  0  0  0  0  0  0  0  0  0  0  # atno 17370 bound_to 10713
  156.0352  130.5440  150.8635 LP  0  0  0  0  0  0  0  0  0  0  0  0  # atno 17371 bound_to 10713
  139.8865  135.0082  156.6506 LP  0  0  0  0  0  0  0  0  0  0  0  0  # atno 17394 bound_to 11000
  140.7521  133.8888  155.8355 LP  0  0  0  0  0  0  0  0  0  0  0  0  # atno 17395 bound_to 11000

$$$$
