AV-unprocessed.smi:1715|AV-procd|sdf|6912|dock3
  -GOLD-   22720 8113D 1   1.00000     0.00000
 Structure written by MMmdl.
 41 42  0  0  0  0  0  0  0  0  2 V2000
  149.4592  141.5424  156.0631 C   0  0  0  0  0  0  0  0  0  0  0  0
  149.3651  141.0892  154.5951 C   0  0  2  0  0  0  0  0  0  0  0  0
  148.0100  140.4504  154.2322 C   0  0  0  0  0  0  0  0  0  0  0  0
  147.8865  139.0886  154.8050 N   0  3  1  0  0  0  0  0  0  0  0  0
  146.5659  138.4743  154.5198 C   0  0  0  0  0  0  0  0  0  0  0  0
  146.2160  138.5017  153.0192 C   0  0  0  0  0  0  0  0  0  0  0  0
  146.5387  137.2362  152.3703 N   0  0  0  0  0  0  0  0  0  0  0  0
  145.6353  136.3635  151.9012 C   0  0  0  0  0  0  0  0  0  0  0  0
  144.4193  136.5398  151.9780 O   0  0  0  0  0  0  0  0  0  0  0  0
  146.2289  135.2923  151.3497 N   0  0  0  0  0  0  0  0  0  0  0  0
  145.5993  134.1657  150.7626 C   0  0  0  0  0  0  0  0  0  0  0  0
  146.2413  132.9243  150.5031 C   0  0  0  0  0  0  0  0  0  0  0  0
  145.4075  132.0547  149.9508 N   0  0  0  0  0  0  0  0  0  0  0  0
  144.2396  132.7295  149.8545 N   0  0  0  0  0  0  0  0  0  0  0  0
  144.3088  134.0176  150.3374 C   0  0  0  0  0  0  0  0  0  0  0  0
  149.0338  138.2492  154.3831 C   0  0  0  0  0  0  0  0  0  0  0  0
  150.3627  138.9105  154.7907 C   0  0  1  0  0  0  0  0  0  0  0  0
  151.5764  138.1167  154.2945 C   0  0  0  0  0  0  0  0  0  0  0  0
  150.4347  140.2179  154.2282 O   0  0  0  0  0  0  0  0  0  0  0  0
  143.4131  132.3017  149.4614 H   0  0  0  0  0  0  0  0  0  0  0  0
  148.7134  142.3081  156.2791 H   0  0  0  0  0  0  0  0  0  0  0  0
  150.4392  141.9703  156.2752 H   0  0  0  0  0  0  0  0  0  0  0  0
  149.2933  140.7232  156.7619 H   0  0  0  0  0  0  0  0  0  0  0  0
  149.4830  141.9839  153.9831 H   0  0  0  0  0  0  0  0  0  0  0  0
  147.1951  141.0841  154.5844 H   0  0  0  0  0  0  0  0  0  0  0  0
  147.9143  140.3882  153.1469 H   0  0  0  0  0  0  0  0  0  0  0  0
  146.5789  137.4325  154.8435 H   0  0  0  0  0  0  0  0  0  0  0  0
  145.7973  138.9714  155.1140 H   0  0  0  0  0  0  0  0  0  0  0  0
  145.1610  138.7243  152.8573 H   0  0  0  0  0  0  0  0  0  0  0  0
  146.7794  139.2912  152.5211 H   0  0  0  0  0  0  0  0  0  0  0  0
  147.5176  137.0125  152.2637 H   0  0  0  0  0  0  0  0  0  0  0  0
  147.2383  135.2796  151.3488 H   0  0  0  0  0  0  0  0  0  0  0  0
  147.2635  132.6313  150.6926 H   0  0  0  0  0  0  0  0  0  0  0  0
  143.4585  134.6835  150.3314 H   0  0  0  0  0  0  0  0  0  0  0  0
  148.9716  137.2617  154.8392 H   0  0  0  0  0  0  0  0  0  0  0  0
  149.0000  138.1027  153.3022 H   0  0  0  0  0  0  0  0  0  0  0  0
  150.4224  138.9725  155.8775 H   0  0  0  0  0  0  0  0  0  0  0  0
  151.5799  137.1062  154.7040 H   0  0  0  0  0  0  0  0  0  0  0  0
  152.5067  138.5993  154.5951 H   0  0  0  0  0  0  0  0  0  0  0  0
  151.5790  138.0373  153.2070 H   0  0  0  0  0  0  0  0  0  0  0  0
  147.9467  139.1953  155.8076 H   0  0  0  0  0  0  0  0  0  0  0  0
  1  2  1  0  0  0  0
  1 21  1  0  0  0  0
  1 22  1  0  0  0  0
  1 23  1  0  0  0  0
  2 19  1  0  0  0  0
  2  3  1  0  0  0  0
  2 24  1  0  0  0  0
  3  4  1  0  0  0  0
  3 25  1  0  0  0  0
  3 26  1  0  0  0  0
  4  5  1  0  0  0  0
  4 16  1  0  0  0  0
  4 41  1  0  0  0  0
  5  6  1  0  0  0  0
  5 27  1  0  0  0  0
  5 28  1  0  0  0  0
  6  7  1  0  0  0  0
  6 29  1  0  0  0  0
  6 30  1  0  0  0  0
  7  8  1  0  0  0  0
  7 31  1  0  0  0  0
  8  9  2  0  0  0  0
  8 10  1  0  0  0  0
 10 11  1  0  0  0  0
 10 32  1  0  0  0  0
 11 15  2  0  0  0  0
 11 12  1  0  0  0  0
 12 13  2  0  0  0  0
 12 33  1  0  0  0  0
 13 14  1  0  0  0  0
 14 20  1  0  0  0  0
 14 15  1  0  0  0  0
 15 34  1  0  0  0  0
 16 17  1  0  0  0  0
 16 35  1  0  0  0  0
 16 36  1  0  0  0  0
 17 18  1  0  0  0  0
 17 19  1  0  0  0  0
 17 37  1  0  0  0  0
 18 38  1  0  0  0  0
 18 39  1  0  0  0  0
 18 40  1  0  0  0  0
M  CHG  1   4   1
M  END
> <s_m_source_file>
AV-unprocessed.smi

> <i_m_source_file_index>
1715

> <i_lp_mmshare_version>
43012

> <i_f3d_flags>
0

> <s_epik_input>
W0NIM11bQ0BASF0xW0NIMl1OKFtDSDJdW0NASF0oTzEpW0NIM10pW0NIMl1bQ0gyXVtOSF1DKD1PKVtOSF1jMltjSF1uW25IXVtjSF0y

> <s_epik_cmdline>
J2VwaWtfcHl0aG9uJywgJy1waCcsICc3LjAnLCAnLXRuJywgJzgnLCAnLW1hJywgJzIwMCcsICctbWV0YWxfYmluZGluZycsICctaW1hZScsICc8aW5maWxlLm1hZT4nLCAnLW9tYWUnLCAnPG91dGZpbGUubWFlPic=

> <r_lp_tautomer_probability>
0.5

> <r_epik_Ionization_Penalty>
0.646007

> <r_epik_Ionization_Penalty_Charging>
0.645968

> <r_epik_Ionization_Penalty_Neutral>
3.91671e-05

> <r_epik_State_Penalty>
0.664063

> <r_epik_Charging_Adjusted_Penalty>
1.31003

> <i_epik_Tot_Q>
1

> <i_epik_Tot_abs_Q>
1

> <r_epik_Metal_State_Penalty>
0.664064

> <b_epik_Metal_Only>
0

> <s_lp_Force_Field>
OPLS_2005

> <r_lp_Energy>
20.2841

> <b_lp_Chiralities_Consistent>
1

> <s_lp_Variant>
AV-unprocessed.smi:1715-4

> <Gold.Version>
5.8.1

> <Gold.Id.Protein>
6NUR|6NUR_protein|mol2

> <Gold.PLP.Fitness>
42.9193

> <Gold.PLP.PLP>
-28.9077

> <Gold.PLP.part.hbond>
-2.8926

> <Gold.PLP.part.metal>
0.0000

> <Gold.PLP.part.buried>
-5.7902

> <Gold.PLP.part.nonpolar>
-22.5799

> <Gold.PLP.part.repulsive>
1.2479

> <Gold.PLP.ligand.clash>
0.0000

> <Gold.PLP.ligand.torsion>
0.4158

> <Gold.PLP.Chemscore.Hbond>
2.9760

> <Gold.PLP.Chemscore.CHOScore>
1.9624

> <Gold.PLP.Chemscore.Metal>
0.0000

> <Gold.Chemscore.Hbonds>
donor molecule, donor type, donor heavy atom, donor atom, acceptor molecule, acceptor atom, score
      L1  H     7    31       P1  7948  1.00
      L1  H    10    32       P1  7948  0.98
      P1  H  7989  7998       L1    19  1.00
      L1  C    12    33       P1 10747  1.00
      L1  C    15    34       P1 10186  0.89

> <Gold.PLP.Chemscore.Internal.Correction>
0.0281

> <Gold.Rescore>
     Score         DG    S(hbond)    S(metal)    S(lipo)     H(rot)  DE(clash)    DE(int)     intcor
     17.16     -18.46       2.81        0.00      67.27       1.67       0.01       1.30       ----

> <Gold.Chemscore.Fitness>
17.1580

> <Gold.Chemscore.DG>
-18.4638

> <Gold.Chemscore.ZeroCoef>
-5.4800

> <Gold.Chemscore.Hbond>
2.8086

> <Gold.Chemscore.Metal>
0.0000

> <Gold.Chemscore.Lipo>
67.2710

> <Gold.Chemscore.Internal_Hbond>
0.0000

> <Gold.Chemscore.DEClash>
0.0062

> <Gold.Chemscore.DEInternal>
1.2996

> <Gold.Chemscore.Rot>
1.6671

> <Gold.Chemscore.Internal.Correction>
   9.000000E+99

> <Gold.Chemscore.Hbonds>
donor molecule, donor type, donor heavy atom, donor atom, acceptor molecule, acceptor atom, score
      L1  H     7    31       P1  7948  1.00
      L1  H    10    32       P1  7948  0.75
      P1  H  7989  7998       L1    19  0.85

> <Gold.Chemscore.Hbond.Weighted>
-9.3808

> <Gold.Chemscore.Metal.Weighted>
-0.0000

> <Gold.Chemscore.Lipo.Weighted>
-7.8707

> <Gold.Chemscore.Internal_Hbond.Weighted>
0.0000

> <Gold.Chemscore.DEClash.Weighted>
0.0062

> <Gold.Chemscore.DEInternal.Weighted>
1.2996

> <Gold.Chemscore.Rot.Weighted>
4.2677

> <Gold.Chemscore.Internal.Correction.Weighted>
   9.000000E+99

> <Gold.Protein.RotatedTorsions>
[ 6907 6896 6895 6894 ] final   39.75 input  -60.11 | X-H torsion
[ 7974 7965 7964 7962 ] final  -85.55 input  175.53 | X-H torsion
[ 8008 7997 7996 7995 ] final   14.01 input   59.86 | X-H torsion
[ 10167 10162 10161 10158 ] final    3.81 input  -65.29 | X-H torsion
[ 10718 10713 10712 10709 ] final   66.52 input   66.30 | X-H torsion
[ 10763 10752 10751 10750 ] final  103.79 input  -60.55 | X-H torsion
[ 11005 11000 10999 10996 ] final  -77.31 input  -57.11 | X-H torsion

> <Gold.Protein.ActiveResidues>
 VAL166  LYS551  ARG553  GLY616  TRP617  ASP618  TYR619  PRO620  LYS621  CYS622 
 ASP623  PHE694  ASN695  SER759  ASP760  ASP761  ALA762  ILE779  LEU786  VAL792 
 PHE793  MET794  SER795  GLU796  ALA797  LYS798  CYS799  TRP800  GLU811  SER814 

> <Gold.Protein.RotatedAtoms>
  152.1736  134.8813  160.0532 H   0  0  0  0  0  0  0  0  0  0  0  0  # atno 6907 bound_to 6896
  151.9764  133.3738  159.4099 H   0  0  0  0  0  0  0  0  0  0  0  0  # atno 6908 bound_to 6896
  150.6906  134.4008  159.5162 H   0  0  0  0  0  0  0  0  0  0  0  0  # atno 6909 bound_to 6896
  145.4918  140.9552  143.1808 H   0  0  0  0  0  0  0  0  0  0  0  0  # atno 7974 bound_to 7965
  154.8425  140.2917  155.5650 H   0  0  0  0  0  0  0  0  0  0  0  0  # atno 8008 bound_to 7997
  156.3012  140.2511  156.3302 H   0  0  0  0  0  0  0  0  0  0  0  0  # atno 8009 bound_to 7997
  154.9110  140.0388  157.1935 H   0  0  0  0  0  0  0  0  0  0  0  0  # atno 8010 bound_to 7997
  140.6567  143.7410  150.7666 H   0  0  0  0  0  0  0  0  0  0  0  0  # atno 10167 bound_to 10162
  157.6174  130.9272  150.0120 H   0  0  0  0  0  0  0  0  0  0  0  0  # atno 10718 bound_to 10713
  153.3573  135.3965  155.1692 H   0  0  0  0  0  0  0  0  0  0  0  0  # atno 10763 bound_to 10752
  154.8673  135.3671  154.5144 H   0  0  0  0  0  0  0  0  0  0  0  0  # atno 10764 bound_to 10752
  153.5601  135.7081  153.5611 H   0  0  0  0  0  0  0  0  0  0  0  0  # atno 10765 bound_to 10752
  141.1659  133.7017  156.7801 H   0  0  0  0  0  0  0  0  0  0  0  0  # atno 11005 bound_to 11000
  144.7830  139.6487  143.7146 LP  0  0  0  0  0  0  0  0  0  0  0  0  # atno 17320 bound_to 7965
  146.2279  139.5758  142.9574 LP  0  0  0  0  0  0  0  0  0  0  0  0  # atno 17321 bound_to 7965
  140.1071  143.4734  152.2392 LP  0  0  0  0  0  0  0  0  0  0  0  0  # atno 17342 bound_to 10162
  139.5791  144.7502  151.3687 LP  0  0  0  0  0  0  0  0  0  0  0  0  # atno 17343 bound_to 10162
  156.1303  130.3643  149.9743 LP  0  0  0  0  0  0  0  0  0  0  0  0  # atno 17370 bound_to 10713
  156.7805  130.9219  151.3646 LP  0  0  0  0  0  0  0  0  0  0  0  0  # atno 17371 bound_to 10713
  140.2401  134.8620  157.3565 LP  0  0  0  0  0  0  0  0  0  0  0  0  # atno 17394 bound_to 11000
  140.1804  134.4496  155.7775 LP  0  0  0  0  0  0  0  0  0  0  0  0  # atno 17395 bound_to 11000

$$$$
