#       Name:                AV-unprocessed.smi:3194
#       Creating user name   scv26
#       Creation time:       Fri Mar 27 18:04:55 2020


#       File generated by GOLD software.
#

@<TRIPOS>MOLECULE
AV-unprocessed.smi:3194
    33    33     1
SMALL
NO_CHARGES


@<TRIPOS>ATOM
      1 ****        -2.6718  -0.3434  -0.3174 C.3            1 S1                 0.0000
      2 ****        -2.1493   0.3971   0.9226 C.3            1 S1                 0.0000
      3 ****        -2.7173  -0.2147   2.2182 C.3            1 S1                 0.0000
      4 ****        -2.3908   0.5737   3.3459 O.3            1 S1                 0.0000
      5 ****        -0.6872   0.3126   0.9350 N.pl3          1 S1                -1.0000
      6 ****         0.1491   1.3765   0.7576 C.2            1 S1                 0.0000
      7 ****        -0.1157   2.5705   0.5764 O.2            1 S1                 0.0000
      8 ****         1.6319   0.9493   0.7857 C.3            1 S1                 0.0000
      9 ****         2.3948   2.0281   0.9834 F              1 S1                 0.0000
     10 ****         1.8386   0.1231   1.8164 F              1 S1                 0.0000
     11 ****         2.0307   0.2806  -0.5298 C.ar           1 S1                 0.0000
     12 ****         2.0983  -1.1276  -0.6406 C.ar           1 S1                 0.0000
     13 ****         2.4573  -1.6926  -1.8790 C.ar           1 S1                 0.0000
     14 ****         2.7376  -0.8362  -2.9603 C.ar           1 S1                 0.0000
     15 ****         2.6431   0.5539  -2.7534 C.ar           1 S1                 0.0000
     16 ****         2.2997   1.1061  -1.5706 N.ar           1 S1                 0.0000
     17 ****        -2.5066   1.4262   0.8558 H              1 S1                 0.0000
     18 ****        -3.7599  -0.2991  -0.3692 H              1 S1                 0.0000
     19 ****        -2.3822  -1.3949  -0.3072 H              1 S1                 0.0000
     20 ****        -2.2829   0.1009  -1.2344 H              1 S1                 0.0000
     21 ****        -3.8038  -0.2813   2.1587 H              1 S1                 0.0000
     22 ****        -2.3440  -1.2287   2.3684 H              1 S1                 0.0000
     23 ****        -2.7169   0.1397   4.1183 H              1 S1                 0.0000
     24 ****         1.8676  -1.7629   0.2016 H              1 S1                 0.0000
     25 ****         2.5142  -2.7645  -1.9975 H              1 S1                 0.0000
     26 ****         3.0153  -1.2342  -3.9249 H              1 S1                 0.0000
     27 ****         2.8501   1.2415  -3.5601 H              1 S1                 0.0000
     28 ****        -2.8143   1.4756   3.2613 LP             1 S1                 0.0000
     29 ****        -1.3981   0.6763   3.4101 LP             1 S1                 0.0000
     30 ****        -0.2735  -0.5856   1.0836 LP             1 S1                 0.0000
     31 ****        -1.0686   2.8720   0.5438 LP             1 S1                 0.0000
     32 ****         0.6230   3.2348   0.4624 LP             1 S1                 0.0000
     33 ****         2.2451   2.0990  -1.4649 LP             1 S1                 0.0000
@<TRIPOS>BOND
    1    1    2 1     
    2    1   18 1     
    3    1   19 1     
    4    1   20 1     
    5    2   17 1     
    6    2    3 1     
    7    2    5 1     
    8    3    4 1     
    9    3   21 1     
   10    3   22 1     
   11    4   23 1     
   12    5    6 1     
   13    6    7 2     
   14    6    8 1     
   15    8    9 1     
   16    8   10 1     
   17    8   11 1     
   18   11   16 ar    
   19   11   12 ar    
   20   12   13 ar    
   21   12   24 1     
   22   13   14 ar    
   23   13   25 1     
   24   14   15 ar    
   25   14   26 1     
   26   15   16 ar    
   27   15   27 1     
   28    4   28 1     
   29    4   29 1     
   30    5   30 1     
   31    7   31 1     
   32    7   32 1     
   33   16   33 1     
@<TRIPOS>SUBSTRUCTURE
      1 S1             1
@<TRIPOS>SET
LONE_PAIRS      STATIC     ATOMS    <user>   **** ""
6 28 29 30 31 32 33
DONOR_HYDROGENS      STATIC     ATOMS    <user>   **** ""
1 23
ATOM$BLUE        STATIC     ATOMS    COLORGROUP SYSTEM
6 28 29 30 31 32 33
ATOM$RED        STATIC     ATOMS    COLORGROUP SYSTEM
1 23
