AV-unprocessed.smi:476|AV-procd|sdf|2669|dock9
  -GOLD-   2262023 83D 1   1.00000     0.00000
 Structure written by MMmdl.
 39 40  0  0  0  0  0  0  0  0  1 V2000
  147.8517  138.9849  154.1680 C   0  0  0  0  0  0  0  0  0  0  0  0
  148.5013  137.8163  154.8880 C   0  0  0  0  0  0  0  0  0  0  0  0
  147.8510  136.8305  155.5153 C   0  0  0  0  0  0  0  0  0  0  0  0
  148.9283  135.6339  156.1926 S   0  0  0  0  0  0  0  0  0  0  0  0
  150.3484  136.5474  155.5691 C   0  0  0  0  0  0  0  0  0  0  0  0
  151.5081  136.1737  155.7371 O   0  0  0  0  0  0  0  0  0  0  0  0
  149.8972  137.6887  154.9063 N   0  0  0  0  0  0  0  0  0  0  0  0
  150.8137  138.6617  154.2977 C   0  0  0  0  0  0  0  0  0  0  0  0
  151.6784  139.3904  155.3334 C   0  0  0  0  0  0  0  0  0  0  0  0
  152.8766  139.5895  155.1286 O   0  0  0  0  0  0  0  0  0  0  0  0
  151.0467  139.7907  156.4468 N   0  0  0  0  0  0  0  0  0  0  0  0
  151.6824  140.4463  157.5858 C   0  0  0  0  0  0  0  0  0  0  0  0
  151.2048  141.9008  157.7778 C   0  0  0  0  0  0  0  0  0  0  0  0
  151.7241  142.5554  159.0500 C   0  0  0  0  0  0  0  0  0  0  0  0
  152.5033  141.8917  159.9265 C   0  0  0  0  0  0  0  0  0  0  0  0
  153.0200  142.4835  161.2255 C   0  0  0  0  0  0  0  0  0  0  0  0
  152.2813  143.7751  161.6128 C   0  0  0  0  0  0  0  0  0  0  0  0
  152.0980  144.6929  160.3975 C   0  0  0  0  0  0  0  0  0  0  0  0
  151.2921  143.9982  159.2852 C   0  0  0  0  0  0  0  0  0  0  0  0
  146.7951  138.7818  153.9910 H   0  0  0  0  0  0  0  0  0  0  0  0
  148.3163  139.1653  153.1985 H   0  0  0  0  0  0  0  0  0  0  0  0
  147.9266  139.8906  154.7700 H   0  0  0  0  0  0  0  0  0  0  0  0
  146.7799  136.7289  155.6105 H   0  0  0  0  0  0  0  0  0  0  0  0
  151.4602  138.1974  153.5539 H   0  0  0  0  0  0  0  0  0  0  0  0
  150.2266  139.3987  153.7464 H   0  0  0  0  0  0  0  0  0  0  0  0
  150.0596  139.5933  156.5286 H   0  0  0  0  0  0  0  0  0  0  0  0
  151.5115  139.8683  158.4951 H   0  0  0  0  0  0  0  0  0  0  0  0
  152.7590  140.4336  157.4144 H   0  0  0  0  0  0  0  0  0  0  0  0
  151.5183  142.4957  156.9189 H   0  0  0  0  0  0  0  0  0  0  0  0
  150.1151  141.9352  157.7826 H   0  0  0  0  0  0  0  0  0  0  0  0
  152.7961  140.8722  159.7214 H   0  0  0  0  0  0  0  0  0  0  0  0
  152.9188  141.7465  162.0223 H   0  0  0  0  0  0  0  0  0  0  0  0
  154.0862  142.6787  161.1069 H   0  0  0  0  0  0  0  0  0  0  0  0
  151.3021  143.5249  162.0232 H   0  0  0  0  0  0  0  0  0  0  0  0
  152.8250  144.2929  162.4034 H   0  0  0  0  0  0  0  0  0  0  0  0
  151.6031  145.6189  160.6919 H   0  0  0  0  0  0  0  0  0  0  0  0
  153.0787  144.9761  160.0128 H   0  0  0  0  0  0  0  0  0  0  0  0
  151.3879  144.5639  158.3581 H   0  0  0  0  0  0  0  0  0  0  0  0
  150.2333  143.9961  159.5458 H   0  0  0  0  0  0  0  0  0  0  0  0
  1  2  1  0  0  0  0
  1 20  1  0  0  0  0
  1 21  1  0  0  0  0
  1 22  1  0  0  0  0
  2  7  1  0  0  0  0
  2  3  2  0  0  0  0
  3  4  1  0  0  0  0
  3 23  1  0  0  0  0
  4  5  1  0  0  0  0
  5  6  2  0  0  0  0
  5  7  1  0  0  0  0
  7  8  1  0  0  0  0
  8  9  1  0  0  0  0
  8 24  1  0  0  0  0
  8 25  1  0  0  0  0
  9 10  2  0  0  0  0
  9 11  1  0  0  0  0
 11 12  1  0  0  0  0
 11 26  1  0  0  0  0
 12 13  1  0  0  0  0
 12 27  1  0  0  0  0
 12 28  1  0  0  0  0
 13 14  1  0  0  0  0
 13 29  1  0  0  0  0
 13 30  1  0  0  0  0
 14 19  1  0  0  0  0
 14 15  2  0  0  0  0
 15 16  1  0  0  0  0
 15 31  1  0  0  0  0
 16 17  1  0  0  0  0
 16 32  1  0  0  0  0
 16 33  1  0  0  0  0
 17 18  1  0  0  0  0
 17 34  1  0  0  0  0
 17 35  1  0  0  0  0
 18 19  1  0  0  0  0
 18 36  1  0  0  0  0
 18 37  1  0  0  0  0
 19 38  1  0  0  0  0
 19 39  1  0  0  0  0
M  END
> <s_m_source_file>
AV-unprocessed.smi

> <i_m_source_file_index>
476

> <i_lp_mmshare_version>
43012

> <i_f3d_flags>
0

> <s_epik_input>
W0NIM11jMVtjSF1zYyg9TyluMVtDSDJdQyg9TylbTkhdW0NIMl1bQ0gyXUMyPVtDSF1bQ0gyXVtDSDJdW0NIMl1bQ0gyXTI=

> <s_epik_cmdline>
J2VwaWtfcHl0aG9uJywgJy1waCcsICc3LjAnLCAnLXRuJywgJzgnLCAnLW1hJywgJzIwMCcsICctbWV0YWxfYmluZGluZycsICctaW1hZScsICc8aW5maWxlLm1hZT4nLCAnLW9tYWUnLCAnPG91dGZpbGUubWFlPic=

> <r_lp_tautomer_probability>
1

> <r_epik_Ionization_Penalty>
1.31088e-06

> <r_epik_Ionization_Penalty_Charging>
1.18065e-06

> <r_epik_Ionization_Penalty_Neutral>
1.30231e-07

> <r_epik_State_Penalty>
-0

> <r_epik_Charging_Adjusted_Penalty>
1.18065e-06

> <i_epik_Tot_Q>
0

> <i_epik_Tot_abs_Q>
0

> <r_epik_Metal_State_Penalty>
-0

> <b_epik_Metal_Only>
0

> <s_lp_Force_Field>
OPLS_2005

> <r_lp_Energy>
10.5339

> <b_lp_Chiralities_Consistent>
1

> <s_lp_Variant>
AV-unprocessed.smi:476-1

> <Gold.Version>
5.8.1

> <Gold.Id.Protein>
6NUR|6NUR_protein|mol2

> <Gold.PLP.Fitness>
45.3176

> <Gold.PLP.PLP>
-39.8852

> <Gold.PLP.part.hbond>
-2.6439

> <Gold.PLP.part.metal>
0.0000

> <Gold.PLP.part.buried>
-4.9547

> <Gold.PLP.part.nonpolar>
-32.4141

> <Gold.PLP.part.repulsive>
0.1621

> <Gold.PLP.ligand.clash>
0.0000

> <Gold.PLP.ligand.torsion>
0.2990

> <Gold.PLP.Chemscore.Hbond>
2.0000

> <Gold.PLP.Chemscore.CHOScore>
0.0000

> <Gold.PLP.Chemscore.Metal>
0.0000

> <Gold.Chemscore.Hbonds>
donor molecule, donor type, donor heavy atom, donor atom, acceptor molecule, acceptor atom, score
      P1  H  7997  8010       L1    10  1.00
      P1  H 10752 10765       L1     6  1.00

> <Gold.PLP.Chemscore.Internal.Correction>
0.0304

> <Gold.Rescore>
     Score         DG    S(hbond)    S(metal)    S(lipo)     H(rot)  DE(clash)    DE(int)     intcor
     19.64     -20.08       2.00        0.00     105.41       1.72       0.10       0.34       ----

> <Gold.Chemscore.Fitness>
19.6385

> <Gold.Chemscore.DG>
-20.0826

> <Gold.Chemscore.ZeroCoef>
-5.4800

> <Gold.Chemscore.Hbond>
1.9991

> <Gold.Chemscore.Metal>
0.0000

> <Gold.Chemscore.Lipo>
105.4077

> <Gold.Chemscore.Internal_Hbond>
0.0000

> <Gold.Chemscore.DEClash>
0.1021

> <Gold.Chemscore.DEInternal>
0.3420

> <Gold.Chemscore.Rot>
1.7215

> <Gold.Chemscore.Internal.Correction>
   9.000000E+99

> <Gold.Chemscore.Hbonds>
donor molecule, donor type, donor heavy atom, donor atom, acceptor molecule, acceptor atom, score
      P1  H  7997  8010       L1    10  1.00
      P1  H 10752 10765       L1     6  1.00

> <Gold.Chemscore.Hbond.Weighted>
-6.6770

> <Gold.Chemscore.Metal.Weighted>
-0.0000

> <Gold.Chemscore.Lipo.Weighted>
-12.3327

> <Gold.Chemscore.Internal_Hbond.Weighted>
0.0000

> <Gold.Chemscore.DEClash.Weighted>
0.1021

> <Gold.Chemscore.DEInternal.Weighted>
0.3420

> <Gold.Chemscore.Rot.Weighted>
4.4070

> <Gold.Chemscore.Internal.Correction.Weighted>
   9.000000E+99

> <Gold.Protein.RotatedTorsions>
[ 6907 6896 6895 6894 ] final -150.25 input  -60.11 | X-H torsion
[ 7974 7965 7964 7962 ] final -140.89 input  175.53 | X-H torsion
[ 8008 7997 7996 7995 ] final  102.77 input   59.86 | X-H torsion
[ 10167 10162 10161 10158 ] final  111.46 input  -65.29 | X-H torsion
[ 10718 10713 10712 10709 ] final -127.69 input   66.30 | X-H torsion
[ 10763 10752 10751 10750 ] final -159.04 input  -60.55 | X-H torsion
[ 11005 11000 10999 10996 ] final  -88.59 input  -57.11 | X-H torsion

> <Gold.Protein.ActiveResidues>
 VAL166  LYS551  ARG553  GLY616  TRP617  ASP618  TYR619  PRO620  LYS621  CYS622 
 ASP623  PHE694  ASN695  SER759  ASP760  ASP761  ALA762  ILE779  LEU786  VAL792 
 PHE793  MET794  SER795  GLU796  ALA797  LYS798  CYS799  TRP800  GLU811  SER814 

> <Gold.Protein.RotatedAtoms>
  151.1959  133.4639  159.2595 H   0  0  0  0  0  0  0  0  0  0  0  0  # atno 6907 bound_to 6896
  151.1117  135.0030  159.8507 H   0  0  0  0  0  0  0  0  0  0  0  0  # atno 6908 bound_to 6896
  152.5451  134.1878  159.8714 H   0  0  0  0  0  0  0  0  0  0  0  0  # atno 6909 bound_to 6896
  144.8562  140.6146  143.5358 H   0  0  0  0  0  0  0  0  0  0  0  0  # atno 7974 bound_to 7965
  156.1423  140.3176  155.8515 H   0  0  0  0  0  0  0  0  0  0  0  0  # atno 8008 bound_to 7997
  155.4131  140.0507  157.3047 H   0  0  0  0  0  0  0  0  0  0  0  0  # atno 8009 bound_to 7997
  154.4986  140.2120  155.9405 H   0  0  0  0  0  0  0  0  0  0  0  0  # atno 8010 bound_to 7997
  139.6609  144.7128  151.1866 H   0  0  0  0  0  0  0  0  0  0  0  0  # atno 10167 bound_to 10162
  156.1880  130.6776  151.0389 H   0  0  0  0  0  0  0  0  0  0  0  0  # atno 10718 bound_to 10713
  154.7508  135.3092  154.8561 H   0  0  0  0  0  0  0  0  0  0  0  0  # atno 10763 bound_to 10752
  153.9349  135.6781  153.4749 H   0  0  0  0  0  0  0  0  0  0  0  0  # atno 10764 bound_to 10752
  153.1104  135.4869  154.8953 H   0  0  0  0  0  0  0  0  0  0  0  0  # atno 10765 bound_to 10752
  141.1599  133.7579  156.9473 H   0  0  0  0  0  0  0  0  0  0  0  0  # atno 11005 bound_to 11000
  145.4402  139.1537  143.3974 LP  0  0  0  0  0  0  0  0  0  0  0  0  # atno 17320 bound_to 7965
  146.2825  140.4523  142.8771 LP  0  0  0  0  0  0  0  0  0  0  0  0  # atno 17321 bound_to 7965
  140.7580  143.5995  150.8714 LP  0  0  0  0  0  0  0  0  0  0  0  0  # atno 17342 bound_to 10162
  139.9652  143.6118  152.2990 LP  0  0  0  0  0  0  0  0  0  0  0  0  # atno 17343 bound_to 10162
  157.6911  131.0809  150.7104 LP  0  0  0  0  0  0  0  0  0  0  0  0  # atno 17370 bound_to 10713
  156.7160  130.4666  149.5535 LP  0  0  0  0  0  0  0  0  0  0  0  0  # atno 17371 bound_to 10713
  140.1281  134.9374  157.2298 LP  0  0  0  0  0  0  0  0  0  0  0  0  # atno 17394 bound_to 11000
  140.2987  134.3156  155.7295 LP  0  0  0  0  0  0  0  0  0  0  0  0  # atno 17395 bound_to 11000

$$$$
