#       Name:                AV-unprocessed.smi:2114
#       Creating user name   scv26
#       Creation time:       Fri Mar 27 11:36:47 2020


#       File generated by GOLD software.
#

@<TRIPOS>MOLECULE
AV-unprocessed.smi:2114
    55    56     1
SMALL
NO_CHARGES


@<TRIPOS>ATOM
      1 ****        -5.6189  -0.6087  -3.1213 C.3            1 S1                 0.0000
      2 ****        -5.1809   0.0075  -1.9233 O.3            1 S1                 0.0000
      3 ****        -5.5671  -0.7152  -0.7654 C.3            1 S1                 0.0000
      4 ****        -5.0547   0.0174   0.4841 C.3            1 S1                 0.0000
      5 ****        -5.5892  -0.6174   1.7758 C.3            1 S1                 0.0000
      6 ****        -3.5944  -0.0058   0.5006 N.am           1 S1                 0.0000
      7 ****        -2.7930   1.0522   0.7065 C.2            1 S1                 0.0000
      8 ****        -3.2023   2.1981   0.8928 O.2            1 S1                 0.0000
      9 ****        -1.3221   0.7657   0.6295 C.ar           1 S1                 0.0000
     10 ****        -0.7798  -0.4540   1.0928 C.ar           1 S1                 0.0000
     11 ****         0.6107  -0.6585   1.0108 C.ar           1 S1                 0.0000
     12 ****         1.4164   0.3640   0.4696 C.ar           1 S1                 0.0000
     13 ****         2.8002   0.1611   0.3786 N.3            1 S1                 0.0000
     14 ****         3.3257   0.2596  -0.9760 C.3            1 S1                 0.0000
     15 ****         4.8062  -0.1601  -0.9963 C.3            1 S1                 0.0000
     16 ****         5.4353   0.0241  -2.3813 C.3            1 S1                 0.0000
     17 ****         5.5366   0.6404  -0.0659 O.3            1 S1                 0.0000
     18 ****         5.0562   0.5882   1.2806 C.3            1 S1                 0.0000
     19 ****         5.3714  -0.7589   1.9543 C.3            1 S1                 0.0000
     20 ****         3.5612   0.9628   1.3275 C.3            1 S1                 0.0000
     21 ****         0.9070   1.5419   0.0370 N.ar           1 S1                 0.0000
     22 ****        -0.4268   1.7337   0.1237 C.ar           1 S1                 0.0000
     23 ****        -5.2940  -0.0173  -3.9774 H              1 S1                 0.0000
     24 ****        -6.7069  -0.6792  -3.1547 H              1 S1                 0.0000
     25 ****        -5.1995  -1.6101  -3.2256 H              1 S1                 0.0000
     26 ****        -6.6553  -0.7886  -0.7320 H              1 S1                 0.0000
     27 ****        -5.1718  -1.7319  -0.8018 H              1 S1                 0.0000
     28 ****        -5.4187   1.0455   0.4407 H              1 S1                 0.0000
     29 ****        -6.6789  -0.5950   1.8014 H              1 S1                 0.0000
     30 ****        -5.2296  -0.0812   2.6547 H              1 S1                 0.0000
     31 ****        -5.2752  -1.6578   1.8676 H              1 S1                 0.0000
     32 ****        -3.1564  -0.8988   0.3274 H              1 S1                 0.0000
     33 ****        -1.4104  -1.2264   1.5088 H              1 S1                 0.0000
     34 ****         1.0479  -1.5845   1.3547 H              1 S1                 0.0000
     35 ****         2.7442  -0.3780  -1.6433 H              1 S1                 0.0000
     36 ****         3.2234   1.2842  -1.3371 H              1 S1                 0.0000
     37 ****         4.8932  -1.2122  -0.7236 H              1 S1                 0.0000
     38 ****         4.9179  -0.5760  -3.1303 H              1 S1                 0.0000
     39 ****         6.4819  -0.2813  -2.3770 H              1 S1                 0.0000
     40 ****         5.3935   1.0665  -2.6990 H              1 S1                 0.0000
     41 ****         5.6072   1.3519   1.8298 H              1 S1                 0.0000
     42 ****         5.1225  -0.7272   3.0153 H              1 S1                 0.0000
     43 ****         6.4325  -0.9949   1.8718 H              1 S1                 0.0000
     44 ****         4.8093  -1.5828   1.5150 H              1 S1                 0.0000
     45 ****         3.4425   2.0183   1.0775 H              1 S1                 0.0000
     46 ****         3.1671   0.8287   2.3358 H              1 S1                 0.0000
     47 ****        -0.7859   2.6885  -0.2324 H              1 S1                 0.0000
     48 ****        -5.5734   0.9259  -1.8734 LP             1 S1                 0.0000
     49 ****        -4.1831   0.0721  -1.9426 LP             1 S1                 0.0000
     50 ****        -4.1849   2.3837   0.8966 LP             1 S1                 0.0000
     51 ****        -2.5521   2.9435   1.0403 LP             1 S1                 0.0000
     52 ****         2.9305  -0.7935   0.6463 LP             1 S1                 0.0000
     53 ****         5.4949   1.5909  -0.3740 LP             1 S1                 0.0000
     54 ****         6.4874   0.3305  -0.0688 LP             1 S1                 0.0000
     55 ****         1.5037   2.2518  -0.3373 LP             1 S1                 0.0000
@<TRIPOS>BOND
    1    1    2 1     
    2    1   23 1     
    3    1   24 1     
    4    1   25 1     
    5    2    3 1     
    6    3    4 1     
    7    3   26 1     
    8    3   27 1     
    9    4    5 1     
   10    4    6 1     
   11    4   28 1     
   12    5   29 1     
   13    5   30 1     
   14    5   31 1     
   15    6    7 am    
   16    6   32 1     
   17    7    8 2     
   18    7    9 1     
   19    9   22 ar    
   20    9   10 ar    
   21   10   11 ar    
   22   10   33 1     
   23   11   12 ar    
   24   11   34 1     
   25   12   13 1     
   26   12   21 ar    
   27   13   20 1     
   28   13   14 1     
   29   14   15 1     
   30   14   35 1     
   31   14   36 1     
   32   15   16 1     
   33   15   17 1     
   34   15   37 1     
   35   16   38 1     
   36   16   39 1     
   37   16   40 1     
   38   17   18 1     
   39   18   19 1     
   40   18   20 1     
   41   18   41 1     
   42   19   42 1     
   43   19   43 1     
   44   19   44 1     
   45   20   45 1     
   46   20   46 1     
   47   21   22 ar    
   48   22   47 1     
   49    2   48 1     
   50    2   49 1     
   51    8   50 1     
   52    8   51 1     
   53   13   52 1     
   54   17   53 1     
   55   17   54 1     
   56   21   55 1     
@<TRIPOS>SUBSTRUCTURE
      1 S1             1
@<TRIPOS>SET
LONE_PAIRS      STATIC     ATOMS    <user>   **** ""
8 48 49 50 51 52 53 54 55
DONOR_HYDROGENS      STATIC     ATOMS    <user>   **** ""
1 32
ATOM$BLUE        STATIC     ATOMS    COLORGROUP SYSTEM
8 48 49 50 51 52 53 54 55
ATOM$RED        STATIC     ATOMS    COLORGROUP SYSTEM
1 32
