AV-unprocessed.smi:166|AV-procd|sdf|1388|dock6
  -GOLD-   2262019123D 1   1.00000     0.00000
 Structure written by MMmdl.
 54 58  0  0  0  0  0  0  0  0  1 V2000
  143.9845  133.7165  152.6106 O   0  0  0  0  0  0  0  0  0  0  0  0
  144.4558  133.5875  151.2798 C   0  0  1  0  0  0  0  0  0  0  0  0
  144.2478  134.9302  150.5392 C   0  0  0  0  0  0  0  0  0  0  0  0
  145.0647  136.0172  151.0588 N   0  0  0  0  0  0  0  0  0  0  0  0
  145.9832  136.7680  150.3598 C   0  0  0  0  0  0  0  0  0  0  0  0
  146.5934  137.6895  151.0535 N   0  0  0  0  0  0  0  0  0  0  0  0
  146.0439  137.5780  152.3252 C   0  0  0  0  0  0  0  0  0  0  0  0
  146.2509  138.2594  153.5579 C   0  0  0  0  0  0  0  0  0  0  0  0
  147.1368  139.2790  153.6930 N   0  0  0  0  0  0  0  0  0  0  0  0
  146.5544  140.5372  154.1592 C   0  0  0  0  0  0  0  0  0  0  0  0
  147.5105  141.7123  153.8988 C   0  0  0  0  0  0  0  0  0  0  0  0
  148.8944  141.4372  154.5052 C   0  0  0  0  0  0  0  0  0  0  0  0
  149.4564  140.1082  153.9753 C   0  0  1  0  0  0  0  0  0  0  0  0
  150.6901  139.8704  154.6390 O   0  0  0  0  0  0  0  0  0  0  0  0
  150.5930  139.7998  156.0555 C   0  0  0  0  0  0  0  0  0  0  0  0
  151.3002  140.9710  156.7128 C   0  0  0  0  0  0  0  0  0  0  0  0
  151.0168  141.3414  158.1541 C   0  0  0  0  0  0  0  0  0  0  0  0
  150.5557  142.2480  157.0451 C   0  0  0  0  0  0  0  0  0  0  0  0
  148.4576  138.9624  154.2401 C   0  0  0  0  0  0  0  0  0  0  0  0
  145.5178  137.8503  154.6284 N   0  0  0  0  0  0  0  0  0  0  0  0
  144.6377  136.8529  154.5033 C   0  0  0  0  0  0  0  0  0  0  0  0
  144.3399  136.1342  153.4196 N   0  0  0  0  0  0  0  0  0  0  0  0
  145.0787  136.5313  152.3442 C   0  0  0  0  0  0  0  0  0  0  0  0
  145.9182  133.1601  151.3327 C   0  0  0  0  0  0  0  0  0  0  0  0
  145.8259  131.6405  151.3627 C   0  0  0  0  0  0  0  0  0  0  0  0
  144.7672  131.3752  150.4595 O   0  0  0  0  0  0  0  0  0  0  0  0
  143.7625  132.3702  150.6301 C   0  0  0  0  0  0  0  0  0  0  0  0
  144.2398  134.5650  152.9389 H   0  0  0  0  0  0  0  0  0  0  0  0
  144.4673  134.8155  149.4768 H   0  0  0  0  0  0  0  0  0  0  0  0
  143.2016  135.2319  150.6021 H   0  0  0  0  0  0  0  0  0  0  0  0
  146.1931  136.6057  149.3126 H   0  0  0  0  0  0  0  0  0  0  0  0
  145.5984  140.7385  153.6772 H   0  0  0  0  0  0  0  0  0  0  0  0
  146.3528  140.4530  155.2279 H   0  0  0  0  0  0  0  0  0  0  0  0
  147.6073  141.8727  152.8241 H   0  0  0  0  0  0  0  0  0  0  0  0
  147.0953  142.6308  154.3140 H   0  0  0  0  0  0  0  0  0  0  0  0
  149.5765  142.2547  154.2703 H   0  0  0  0  0  0  0  0  0  0  0  0
  148.8157  141.3983  155.5926 H   0  0  0  0  0  0  0  0  0  0  0  0
  149.6255  140.2111  152.9014 H   0  0  0  0  0  0  0  0  0  0  0  0
  149.5511  139.8060  156.3744 H   0  0  0  0  0  0  0  0  0  0  0  0
  151.0442  138.8747  156.4165 H   0  0  0  0  0  0  0  0  0  0  0  0
  152.3314  141.0937  156.3872 H   0  0  0  0  0  0  0  0  0  0  0  0
  150.2561  140.7757  158.6888 H   0  0  0  0  0  0  0  0  0  0  0  0
  151.8566  141.6762  158.7595 H   0  0  0  0  0  0  0  0  0  0  0  0
  151.0879  143.1875  156.9113 H   0  0  0  0  0  0  0  0  0  0  0  0
  149.4877  142.2875  156.8405 H   0  0  0  0  0  0  0  0  0  0  0  0
  148.3683  138.7882  155.3133 H   0  0  0  0  0  0  0  0  0  0  0  0
  148.8235  138.0383  153.7918 H   0  0  0  0  0  0  0  0  0  0  0  0
  144.0947  136.5930  155.4001 H   0  0  0  0  0  0  0  0  0  0  0  0
  146.4355  133.4635  150.4213 H   0  0  0  0  0  0  0  0  0  0  0  0
  146.4688  133.5730  152.1788 H   0  0  0  0  0  0  0  0  0  0  0  0
  146.7510  131.1533  151.0541 H   0  0  0  0  0  0  0  0  0  0  0  0
  145.5599  131.2820  152.3583 H   0  0  0  0  0  0  0  0  0  0  0  0
  142.9526  131.9788  151.2480 H   0  0  0  0  0  0  0  0  0  0  0  0
  143.3432  132.5997  149.6513 H   0  0  0  0  0  0  0  0  0  0  0  0
  1  2  1  0  0  0  0
  1 28  1  0  0  0  0
  2 27  1  0  0  0  0
  2  3  1  0  0  0  0
  2 24  1  0  0  0  0
  3  4  1  0  0  0  0
  3 29  1  0  0  0  0
  3 30  1  0  0  0  0
  4 23  1  0  0  0  0
  4  5  1  0  0  0  0
  5  6  2  0  0  0  0
  5 31  1  0  0  0  0
  6  7  1  0  0  0  0
  7 23  2  0  0  0  0
  7  8  1  0  0  0  0
  8  9  1  0  0  0  0
  8 20  2  0  0  0  0
  9 19  1  0  0  0  0
  9 10  1  0  0  0  0
 10 11  1  0  0  0  0
 10 32  1  0  0  0  0
 10 33  1  0  0  0  0
 11 12  1  0  0  0  0
 11 34  1  0  0  0  0
 11 35  1  0  0  0  0
 12 13  1  0  0  0  0
 12 36  1  0  0  0  0
 12 37  1  0  0  0  0
 13 14  1  0  0  0  0
 13 19  1  0  0  0  0
 13 38  1  0  0  0  0
 14 15  1  0  0  0  0
 15 16  1  0  0  0  0
 15 39  1  0  0  0  0
 15 40  1  0  0  0  0
 16 18  1  0  0  0  0
 16 17  1  0  0  0  0
 16 41  1  0  0  0  0
 17 18  1  0  0  0  0
 17 42  1  0  0  0  0
 17 43  1  0  0  0  0
 18 44  1  0  0  0  0
 18 45  1  0  0  0  0
 19 46  1  0  0  0  0
 19 47  1  0  0  0  0
 20 21  1  0  0  0  0
 21 22  2  0  0  0  0
 21 48  1  0  0  0  0
 22 23  1  0  0  0  0
 24 25  1  0  0  0  0
 24 49  1  0  0  0  0
 24 50  1  0  0  0  0
 25 26  1  0  0  0  0
 25 51  1  0  0  0  0
 25 52  1  0  0  0  0
 26 27  1  0  0  0  0
 27 53  1  0  0  0  0
 27 54  1  0  0  0  0
M  END
> <s_m_source_file>
AV-unprocessed.smi

> <i_m_source_file_index>
166

> <i_lp_mmshare_version>
43012

> <i_f3d_flags>
0

> <s_epik_input>
W0NIMl0xT1tDSDJdW0NIMl1bQ0BAXTEoW09IXSlbQ0gyXW4oW2NIXW4yKWMoYzIzKW5bY0hdbmMzTjRbQ0gyXVtDSDJdW0NIMl1bQ0BIXShbQ0gyXTQpT1tDSDJdW0NIXTVbQ0gyXVtDSDJdNQ==

> <s_epik_cmdline>
J2VwaWtfcHl0aG9uJywgJy1waCcsICc3LjAnLCAnLXRuJywgJzgnLCAnLW1hJywgJzIwMCcsICctbWV0YWxfYmluZGluZycsICctaW1hZScsICc8aW5maWxlLm1hZT4nLCAnLW9tYWUnLCAnPG91dGZpbGUubWFlPic=

> <r_lp_tautomer_probability>
1

> <r_epik_Ionization_Penalty>
0.00342552

> <r_epik_Ionization_Penalty_Charging>
0

> <r_epik_Ionization_Penalty_Neutral>
0.00342552

> <r_epik_State_Penalty>
0.0022204

> <r_epik_Charging_Adjusted_Penalty>
0.0022204

> <i_epik_Tot_Q>
0

> <i_epik_Tot_abs_Q>
0

> <r_epik_Metal_State_Penalty>
-0

> <b_epik_Metal_Only>
0

> <s_lp_Force_Field>
OPLS_2005

> <r_lp_Energy>
44.5811

> <b_lp_Chiralities_Consistent>
1

> <s_lp_Variant>
AV-unprocessed.smi:166-1

> <Gold.Version>
5.8.1

> <Gold.Id.Protein>
6NUR|6NUR_protein|mol2

> <Gold.PLP.Fitness>
47.8738

> <Gold.PLP.PLP>
-40.1592

> <Gold.PLP.part.hbond>
-3.0790

> <Gold.PLP.part.metal>
0.0000

> <Gold.PLP.part.buried>
1.7210

> <Gold.PLP.part.nonpolar>
-41.8886

> <Gold.PLP.part.repulsive>
2.7153

> <Gold.PLP.ligand.clash>
0.0000

> <Gold.PLP.ligand.torsion>
0.9996

> <Gold.PLP.Chemscore.Hbond>
1.9000

> <Gold.PLP.Chemscore.CHOScore>
1.0000

> <Gold.PLP.Chemscore.Metal>
0.0000

> <Gold.Chemscore.Hbonds>
donor molecule, donor type, donor heavy atom, donor atom, acceptor molecule, acceptor atom, score
      P1  H  7954  7966       L1     6  0.85
      P1  H  7989  7998       L1    14  0.70
      L1  C     5    31       P1  7921  1.00

> <Gold.PLP.Chemscore.Internal.Correction>
1.0138

> <Gold.Rescore>
     Score         DG    S(hbond)    S(metal)    S(lipo)     H(rot)  DE(clash)    DE(int)     intcor
      5.01     -11.83       0.29        0.00     104.65       2.68       4.39       2.42       ----

> <Gold.Chemscore.Fitness>
5.0146

> <Gold.Chemscore.DG>
-11.8301

> <Gold.Chemscore.ZeroCoef>
-5.4800

> <Gold.Chemscore.Hbond>
0.2907

> <Gold.Chemscore.Metal>
0.0000

> <Gold.Chemscore.Lipo>
104.6501

> <Gold.Chemscore.Internal_Hbond>
0.0000

> <Gold.Chemscore.DEClash>
4.3946

> <Gold.Chemscore.DEInternal>
2.4209

> <Gold.Chemscore.Rot>
2.6817

> <Gold.Chemscore.Internal.Correction>
   9.000000E+99

> <Gold.Chemscore.Hbonds>
donor molecule, donor type, donor heavy atom, donor atom, acceptor molecule, acceptor atom, score
      P1  H  7954  7966       L1     6  0.14
      P1  H  7989  7998       L1    14  0.07

> <Gold.Chemscore.Hbond.Weighted>
-0.9711

> <Gold.Chemscore.Metal.Weighted>
-0.0000

> <Gold.Chemscore.Lipo.Weighted>
-12.2441

> <Gold.Chemscore.Internal_Hbond.Weighted>
0.0000

> <Gold.Chemscore.DEClash.Weighted>
4.3946

> <Gold.Chemscore.DEInternal.Weighted>
2.4209

> <Gold.Chemscore.Rot.Weighted>
6.8651

> <Gold.Chemscore.Internal.Correction.Weighted>
   9.000000E+99

> <Gold.Protein.RotatedTorsions>
[ 6907 6896 6895 6894 ] final   -3.26 input  -60.11 | X-H torsion
[ 7974 7965 7964 7962 ] final  126.32 input  175.53 | X-H torsion
[ 8008 7997 7996 7995 ] final   52.36 input   59.86 | X-H torsion
[ 10167 10162 10161 10158 ] final  -98.88 input  -65.29 | X-H torsion
[ 10718 10713 10712 10709 ] final  179.23 input   66.30 | X-H torsion
[ 10763 10752 10751 10750 ] final  -65.98 input  -60.55 | X-H torsion
[ 11005 11000 10999 10996 ] final -114.21 input  -57.11 | X-H torsion

> <Gold.Protein.ActiveResidues>
 VAL166  LYS551  ARG553  GLY616  TRP617  ASP618  TYR619  PRO620  LYS621  CYS622 
 ASP623  PHE694  ASN695  SER759  ASP760  ASP761  ALA762  ILE779  LEU786  VAL792 
 PHE793  MET794  SER795  GLU796  ALA797  LYS798  CYS799  TRP800  GLU811  SER814 

> <Gold.Protein.RotatedAtoms>
  151.5166  135.1066  159.9867 H   0  0  0  0  0  0  0  0  0  0  0  0  # atno 6907 bound_to 6896
  152.4638  133.7876  159.6895 H   0  0  0  0  0  0  0  0  0  0  0  0  # atno 6908 bound_to 6896
  150.8613  133.7576  159.3017 H   0  0  0  0  0  0  0  0  0  0  0  0  # atno 6909 bound_to 6896
  145.0630  139.3790  143.4996 H   0  0  0  0  0  0  0  0  0  0  0  0  # atno 7974 bound_to 7965
  155.4506  140.3458  155.4300 H   0  0  0  0  0  0  0  0  0  0  0  0  # atno 8008 bound_to 7997
  156.1223  140.1490  156.9217 H   0  0  0  0  0  0  0  0  0  0  0  0  # atno 8009 bound_to 7997
  154.4832  140.0863  156.7405 H   0  0  0  0  0  0  0  0  0  0  0  0  # atno 8010 bound_to 7997
  140.2683  143.3361  152.0559 H   0  0  0  0  0  0  0  0  0  0  0  0  # atno 10167 bound_to 10162
  156.8789  130.9809  151.3064 H   0  0  0  0  0  0  0  0  0  0  0  0  # atno 10718 bound_to 10713
  154.3530  135.6132  153.5652 H   0  0  0  0  0  0  0  0  0  0  0  0  # atno 10763 bound_to 10752
  152.9797  135.5797  154.4721 H   0  0  0  0  0  0  0  0  0  0  0  0  # atno 10764 bound_to 10752
  154.4446  135.2851  155.1801 H   0  0  0  0  0  0  0  0  0  0  0  0  # atno 10765 bound_to 10752
  141.0566  133.9602  157.2742 H   0  0  0  0  0  0  0  0  0  0  0  0  # atno 11005 bound_to 11000
  146.3525  140.0338  142.8648 LP  0  0  0  0  0  0  0  0  0  0  0  0  # atno 17320 bound_to 7965
  145.1385  140.9558  143.4502 LP  0  0  0  0  0  0  0  0  0  0  0  0  # atno 17321 bound_to 7965
  139.4996  144.6673  151.6326 LP  0  0  0  0  0  0  0  0  0  0  0  0  # atno 17342 bound_to 10162
  140.5910  143.9779  150.6325 LP  0  0  0  0  0  0  0  0  0  0  0  0  # atno 17343 bound_to 10162
  157.6152  130.8613  149.9017 LP  0  0  0  0  0  0  0  0  0  0  0  0  # atno 17370 bound_to 10713
  156.0687  130.3688  150.0821 LP  0  0  0  0  0  0  0  0  0  0  0  0  # atno 17371 bound_to 10713
  139.9396  135.0192  156.8665 LP  0  0  0  0  0  0  0  0  0  0  0  0  # atno 17394 bound_to 11000
  140.5951  134.0225  155.7515 LP  0  0  0  0  0  0  0  0  0  0  0  0  # atno 17395 bound_to 11000

$$$$
