#       Name:                AV-unprocessed.smi:195
#       Creating user name   scv26
#       Creation time:       Thu Mar 26 19:36:56 2020


#       File generated by GOLD software.
#

@<TRIPOS>MOLECULE
AV-unprocessed.smi:195
    56    59     1
SMALL
NO_CHARGES


@<TRIPOS>ATOM
      1 ****        -2.8308   4.2674  -2.7758 N.1            1 S1                 0.0000
      2 ****        -2.8170   3.1710  -2.4068 C.1            1 S1                 0.0000
      3 ****        -2.7984   1.7768  -1.9365 C.3            1 S1                 0.0000
      4 ****        -3.8633   1.4773  -0.8775 C.3            1 S1                 0.0000
      5 ****        -5.0815   1.4383  -1.5907 O.3            1 S1                 0.0000
      6 ****        -3.6170   0.2849   0.0516 C.3            1 S1                 0.0000
      7 ****        -3.2018   1.2381   1.0778 N.3            1 S1                 0.0000
      8 ****        -1.7831   1.3299   1.2373 C.ar           1 S1                 0.0000
      9 ****        -1.1405   2.5217   1.1022 N.ar           1 S1                 0.0000
     10 ****         0.1833   2.6166   1.2550 C.ar           1 S1                 0.0000
     11 ****         1.0580   1.6554   1.5515 N.ar           1 S1                 0.0000
     12 ****         0.4299   0.4567   1.7104 C.ar           1 S1                 0.0000
     13 ****        -0.9671   0.2131   1.5796 C.ar           1 S1                 0.0000
     14 ****        -1.2356  -1.1276   1.8293 N.2            1 S1                 0.0000
     15 ****        -0.0664  -1.6472   2.0848 C.2            1 S1                 0.0000
     16 ****         0.9929  -0.7708   2.0142 N.pl3          1 S1                 0.0000
     17 ****         2.3926  -1.0789   2.2544 C.3            1 S1                 0.0000
     18 ****         2.9671  -2.1499   1.2985 C.3            1 S1                 0.0000
     19 ****         4.2084  -2.5345   1.8543 O.3            1 S1                 0.0000
     20 ****         3.2432  -1.6722  -0.1463 C.3            1 S1                 0.0000
     21 ****         2.0499  -1.0904  -0.9077 C.3            1 S1                 0.0000
     22 ****         2.4158  -1.2983  -2.3673 C.3            1 S1                 0.0000
     23 ****         3.4930  -2.3832  -2.3224 C.3            1 S1                 0.0000
     24 ****         3.5474  -2.7939  -0.9634 O.3            1 S1                 0.0000
     25 ****        -3.8815   2.3371   0.3907 C.3            1 S1                 0.0000
     26 ****        -2.9118   1.1266  -2.8045 H              1 S1                 0.0000
     27 ****        -1.7982   1.5917  -1.5455 H              1 S1                 0.0000
     28 ****        -5.7633   1.2529  -0.9628 H              1 S1                 0.0000
     29 ****        -4.5292  -0.2426   0.3341 H              1 S1                 0.0000
     30 ****        -2.8450  -0.4006  -0.2999 H              1 S1                 0.0000
     31 ****         0.6000   3.6039   1.1203 H              1 S1                 0.0000
     32 ****         0.0562  -2.6931   2.3267 H              1 S1                 0.0000
     33 ****         2.9807  -0.1623   2.1949 H              1 S1                 0.0000
     34 ****         2.4655  -1.4242   3.2868 H              1 S1                 0.0000
     35 ****         2.3172  -3.0256   1.2860 H              1 S1                 0.0000
     36 ****         4.7870  -1.7874   1.8423 H              1 S1                 0.0000
     37 ****         4.0734  -0.9631  -0.1707 H              1 S1                 0.0000
     38 ****         1.1439  -1.6534  -0.6789 H              1 S1                 0.0000
     39 ****         1.8690  -0.0416  -0.6749 H              1 S1                 0.0000
     40 ****         1.5486  -1.6038  -2.9537 H              1 S1                 0.0000
     41 ****         2.8158  -0.3839  -2.8073 H              1 S1                 0.0000
     42 ****         3.2645  -3.2270  -2.9739 H              1 S1                 0.0000
     43 ****         4.4616  -1.9769  -2.6166 H              1 S1                 0.0000
     44 ****        -3.3461   3.2832   0.3131 H              1 S1                 0.0000
     45 ****        -4.8866   2.4891   0.7868 H              1 S1                 0.0000
     46 ****        -2.8427   5.2151  -3.0947 LP             1 S1                 0.0000
     47 ****        -5.0499   0.7199  -2.2855 LP             1 S1                 0.0000
     48 ****        -5.2503   2.3203  -2.0306 LP             1 S1                 0.0000
     49 ****        -3.4228   1.0903   2.0418 LP             1 S1                 0.0000
     50 ****        -1.6692   3.3421   0.8844 LP             1 S1                 0.0000
     51 ****         2.0437   1.7954   1.6449 LP             1 S1                 0.0000
     52 ****        -2.1228  -1.5888   1.8161 LP             1 S1                 0.0000
     53 ****         4.6046  -3.2766   1.3136 LP             1 S1                 0.0000
     54 ****         4.0751  -2.8427   2.7962 LP             1 S1                 0.0000
     55 ****         2.8794  -3.5205  -0.8027 LP             1 S1                 0.0000
     56 ****         4.4642  -3.1304  -0.7482 LP             1 S1                 0.0000
@<TRIPOS>BOND
    1    1    2 3     
    2    2    3 1     
    3    3    4 1     
    4    3   26 1     
    5    3   27 1     
    6    4   25 1     
    7    4    5 1     
    8    4    6 1     
    9    5   28 1     
   10    6    7 1     
   11    6   29 1     
   12    6   30 1     
   13    7    8 1     
   14    7   25 1     
   15    8   13 ar    
   16    8    9 ar    
   17    9   10 ar    
   18   10   11 ar    
   19   10   31 1     
   20   11   12 ar    
   21   12   16 1     
   22   12   13 ar    
   23   13   14 1     
   24   14   15 2     
   25   15   16 1     
   26   15   32 1     
   27   16   17 1     
   28   17   18 1     
   29   17   33 1     
   30   17   34 1     
   31   18   19 1     
   32   18   20 1     
   33   18   35 1     
   34   19   36 1     
   35   20   24 1     
   36   20   21 1     
   37   20   37 1     
   38   21   22 1     
   39   21   38 1     
   40   21   39 1     
   41   22   23 1     
   42   22   40 1     
   43   22   41 1     
   44   23   24 1     
   45   23   42 1     
   46   23   43 1     
   47   25   44 1     
   48   25   45 1     
   49    1   46 1     
   50    5   47 1     
   51    5   48 1     
   52    7   49 1     
   53    9   50 1     
   54   11   51 1     
   55   14   52 1     
   56   19   53 1     
   57   19   54 1     
   58   24   55 1     
   59   24   56 1     
@<TRIPOS>SUBSTRUCTURE
      1 S1             1
@<TRIPOS>SET
LONE_PAIRS      STATIC     ATOMS    <user>   **** ""
11 46 47 48 49 50 51 52 53 54 55 56
DONOR_HYDROGENS      STATIC     ATOMS    <user>   **** ""
2 28 36
ATOM$BLUE        STATIC     ATOMS    COLORGROUP SYSTEM
11 46 47 48 49 50 51 52 53 54 55 56
ATOM$RED        STATIC     ATOMS    COLORGROUP SYSTEM
2 28 36
