AV-unprocessed.smi:526|AV-procd|sdf|2813|dock4
  -GOLD-   2262023293D 1   1.00000     0.00000
 Structure written by MMmdl.
 30 30  0  0  0  0  0  0  0  0  2 V2000
  151.7879  144.8836  160.1452 C   0  0  0  0  0  0  0  0  0  0  0  0
  152.0361  143.5776  160.3374 C   0  0  0  0  0  0  0  0  0  0  0  0
  152.5876  143.0492  161.6481 C   0  0  0  0  0  0  0  0  0  0  0  0
  151.7831  142.5417  159.2577 C   0  0  0  0  0  0  0  0  0  0  0  0
  150.9638  143.2485  157.7957 S   0  0  0  0  0  0  0  0  0  0  0  0
  150.9071  141.8694  156.6617 C   0  0  0  0  0  0  0  0  0  0  0  0
  151.6617  140.8259  157.0045 N   0  0  0  0  0  0  0  0  0  0  0  0
  151.6437  139.7626  156.1707 C   0  0  0  0  0  0  0  0  0  0  0  0
  152.5141  138.5881  156.5796 C   0  0  0  0  0  0  0  0  0  0  0  0
  150.8555  139.7541  154.9914 C   0  0  0  0  0  0  0  0  0  0  0  0
  150.8297  138.5603  154.0396 C   0  0  0  0  0  0  0  0  0  0  0  0
  150.4278  137.3057  154.8224 C   0  0  0  0  0  0  0  0  0  0  0  0
  151.2727  136.3863  154.8869 O   0  0  0  0  0  0  0  0  0  0  0  0
  149.2927  137.2846  155.3483 O   0  5  0  0  0  0  0  0  0  0  0  0
  150.0975  140.9252  154.7394 C   0  0  0  0  0  0  0  0  0  0  0  0
  149.3061  141.0215  153.6317 O   0  0  0  0  0  0  0  0  0  0  0  0
  150.1284  141.9790  155.5832 N   0  0  0  0  0  0  0  0  0  0  0  0
  149.3932  140.2767  153.0576 H   0  0  0  0  0  0  0  0  0  0  0  0
  151.9728  145.6096  160.9232 H   0  0  0  0  0  0  0  0  0  0  0  0
  151.3965  145.2474  159.2063 H   0  0  0  0  0  0  0  0  0  0  0  0
  153.5566  142.5743  161.4937 H   0  0  0  0  0  0  0  0  0  0  0  0
  151.9074  142.3111  162.0741 H   0  0  0  0  0  0  0  0  0  0  0  0
  152.7174  143.8503  162.3766 H   0  0  0  0  0  0  0  0  0  0  0  0
  152.7348  142.0956  158.9675 H   0  0  0  0  0  0  0  0  0  0  0  0
  151.1583  141.7406  159.6552 H   0  0  0  0  0  0  0  0  0  0  0  0
  151.8983  137.7141  156.7918 H   0  0  0  0  0  0  0  0  0  0  0  0
  153.0942  138.8160  157.4747 H   0  0  0  0  0  0  0  0  0  0  0  0
  153.2150  138.3345  155.7843 H   0  0  0  0  0  0  0  0  0  0  0  0
  151.8062  138.4028  153.5817 H   0  0  0  0  0  0  0  0  0  0  0  0
  150.1327  138.7390  153.2204 H   0  0  0  0  0  0  0  0  0  0  0  0
  1  2  2  0  0  0  0
  1 19  1  0  0  0  0
  1 20  1  0  0  0  0
  2  3  1  0  0  0  0
  2  4  1  0  0  0  0
  3 21  1  0  0  0  0
  3 22  1  0  0  0  0
  3 23  1  0  0  0  0
  4 24  1  0  0  0  0
  4 25  1  0  0  0  0
  4  5  1  0  0  0  0
  5  6  1  0  0  0  0
  6 17  1  0  0  0  0
  6  7  2  0  0  0  0
  7  8  1  0  0  0  0
  8 10  2  0  0  0  0
  8  9  1  0  0  0  0
  9 26  1  0  0  0  0
  9 27  1  0  0  0  0
  9 28  1  0  0  0  0
 10 15  1  0  0  0  0
 10 11  1  0  0  0  0
 11 12  1  0  0  0  0
 11 29  1  0  0  0  0
 11 30  1  0  0  0  0
 12 13  2  0  0  0  0
 12 14  1  0  0  0  0
 15 17  2  0  0  0  0
 15 16  1  0  0  0  0
 16 18  1  0  0  0  0
M  CHG  1  14  -1
M  END
> <s_m_source_file>
AV-unprocessed.smi

> <i_m_source_file_index>
526

> <i_lp_mmshare_version>
43012

> <i_f3d_flags>
0

> <s_epik_input>
W0NIMl09QyhbQ0gzXSlbQ0gyXVNjMW5jKFtDSDNdKWMoYyg9TylbbkhdMSlbQ0gyXUMoPU8pW09IXQ==

> <s_epik_cmdline>
J2VwaWtfcHl0aG9uJywgJy1waCcsICc3LjAnLCAnLXRuJywgJzgnLCAnLW1hJywgJzIwMCcsICctbWV0YWxfYmluZGluZycsICctaW1hZScsICc8aW5maWxlLm1hZT4nLCAnLW9tYWUnLCAnPG91dGZpbGUubWFlPic=

> <r_lp_tautomer_probability>
0.0660145

> <r_epik_Ionization_Penalty>
2.37967

> <r_epik_Ionization_Penalty_Charging>
0.000421182

> <r_epik_Ionization_Penalty_Neutral>
2.37925

> <r_epik_State_Penalty>
1.68674

> <r_epik_Charging_Adjusted_Penalty>
1.68716

> <i_epik_Tot_Q>
-1

> <i_epik_Tot_abs_Q>
1

> <r_epik_Metal_State_Penalty>
1.80034

> <b_epik_Metal_Only>
0

> <s_lp_Force_Field>
OPLS_2005

> <r_lp_Energy>
-7.53164

> <b_lp_Chiralities_Consistent>
1

> <s_lp_Variant>
AV-unprocessed.smi:526-3

> <Gold.Version>
5.8.1

> <Gold.Id.Protein>
6NUR|6NUR_protein|mol2

> <Gold.PLP.Fitness>
46.1116

> <Gold.PLP.PLP>
-35.6336

> <Gold.PLP.part.hbond>
-4.0409

> <Gold.PLP.part.metal>
0.0000

> <Gold.PLP.part.buried>
-0.5132

> <Gold.PLP.part.nonpolar>
-29.9072

> <Gold.PLP.part.repulsive>
0.7054

> <Gold.PLP.ligand.clash>
0.0000

> <Gold.PLP.ligand.torsion>
0.2100

> <Gold.PLP.Chemscore.Hbond>
3.6240

> <Gold.PLP.Chemscore.CHOScore>
0.0000

> <Gold.PLP.Chemscore.Metal>
0.0000

> <Gold.Chemscore.Hbonds>
donor molecule, donor type, donor heavy atom, donor atom, acceptor molecule, acceptor atom, score
      L1  H    16    18       P1  7957  0.69
      P1  H  8011  8017       L1    16  0.90
      P1  H 10752 10763       L1    13  2.00

> <Gold.PLP.Chemscore.Internal.Correction>
0.0259

> <Gold.Rescore>
     Score         DG    S(hbond)    S(metal)    S(lipo)     H(rot)  DE(clash)    DE(int)     intcor
     13.06     -14.61       2.04        0.00      83.60       2.92       1.37       0.18       ----

> <Gold.Chemscore.Fitness>
13.0639

> <Gold.Chemscore.DG>
-14.6117

> <Gold.Chemscore.ZeroCoef>
-5.4800

> <Gold.Chemscore.Hbond>
2.0426

> <Gold.Chemscore.Metal>
0.0000

> <Gold.Chemscore.Lipo>
83.6012

> <Gold.Chemscore.Internal_Hbond>
0.0000

> <Gold.Chemscore.DEClash>
1.3665

> <Gold.Chemscore.DEInternal>
0.1813

> <Gold.Chemscore.Rot>
2.9187

> <Gold.Chemscore.Internal.Correction>
   9.000000E+99

> <Gold.Chemscore.Hbonds>
donor molecule, donor type, donor heavy atom, donor atom, acceptor molecule, acceptor atom, score
      L1  H    16    18       P1  7957  0.70
      P1  H  8011  8017       L1    16  0.16
      P1  H 10752 10763       L1    13  1.00

> <Gold.Chemscore.Hbond.Weighted>
-6.8223

> <Gold.Chemscore.Metal.Weighted>
-0.0000

> <Gold.Chemscore.Lipo.Weighted>
-9.7813

> <Gold.Chemscore.Internal_Hbond.Weighted>
0.0000

> <Gold.Chemscore.DEClash.Weighted>
1.3665

> <Gold.Chemscore.DEInternal.Weighted>
0.1813

> <Gold.Chemscore.Rot.Weighted>
7.4720

> <Gold.Chemscore.Internal.Correction.Weighted>
   9.000000E+99

> <Gold.Protein.RotatedTorsions>
[ 6907 6896 6895 6894 ] final -115.18 input  -60.11 | X-H torsion
[ 7974 7965 7964 7962 ] final   60.12 input  175.53 | X-H torsion
[ 8008 7997 7996 7995 ] final  -10.64 input   59.86 | X-H torsion
[ 10167 10162 10161 10158 ] final -141.82 input  -65.29 | X-H torsion
[ 10718 10713 10712 10709 ] final    8.78 input   66.30 | X-H torsion
[ 10763 10752 10751 10750 ] final   57.78 input  -60.55 | X-H torsion
[ 11005 11000 10999 10996 ] final   83.72 input  -57.11 | X-H torsion

> <Gold.Protein.ActiveResidues>
 VAL166  LYS551  ARG553  GLY616  TRP617  ASP618  TYR619  PRO620  LYS621  CYS622 
 ASP623  PHE694  ASN695  SER759  ASP760  ASP761  ALA762  ILE779  LEU786  VAL792 
 PHE793  MET794  SER795  GLU796  ALA797  LYS798  CYS799  TRP800  GLU811  SER814 

> <Gold.Protein.RotatedAtoms>
  150.7958  133.8696  159.3254 H   0  0  0  0  0  0  0  0  0  0  0  0  # atno 6907 bound_to 6896
  151.6521  135.0998  160.0172 H   0  0  0  0  0  0  0  0  0  0  0  0  # atno 6908 bound_to 6896
  152.4039  133.6820  159.6375 H   0  0  0  0  0  0  0  0  0  0  0  0  # atno 6909 bound_to 6896
  145.8995  139.3571  143.0601 H   0  0  0  0  0  0  0  0  0  0  0  0  # atno 7974 bound_to 7965
  154.5536  140.2323  155.8446 H   0  0  0  0  0  0  0  0  0  0  0  0  # atno 8008 bound_to 7997
  156.1968  140.3063  155.9405 H   0  0  0  0  0  0  0  0  0  0  0  0  # atno 8009 bound_to 7997
  155.3023  140.0431  157.3021 H   0  0  0  0  0  0  0  0  0  0  0  0  # atno 8010 bound_to 7997
  139.8148  143.7654  152.2664 H   0  0  0  0  0  0  0  0  0  0  0  0  # atno 10167 bound_to 10162
  156.9566  130.5917  149.5659 H   0  0  0  0  0  0  0  0  0  0  0  0  # atno 10718 bound_to 10713
  152.9857  135.5629  154.5447 H   0  0  0  0  0  0  0  0  0  0  0  0  # atno 10763 bound_to 10752
  154.4895  135.2792  155.1510 H   0  0  0  0  0  0  0  0  0  0  0  0  # atno 10764 bound_to 10752
  154.2985  135.6312  153.5468 H   0  0  0  0  0  0  0  0  0  0  0  0  # atno 10765 bound_to 10752
  139.9022  134.8165  156.2347 H   0  0  0  0  0  0  0  0  0  0  0  0  # atno 11005 bound_to 11000
  145.8808  140.9363  143.0602 LP  0  0  0  0  0  0  0  0  0  0  0  0  # atno 17320 bound_to 7965
  144.6735  140.0778  143.7470 LP  0  0  0  0  0  0  0  0  0  0  0  0  # atno 17321 bound_to 7965
  139.7814  144.7443  151.0083 LP  0  0  0  0  0  0  0  0  0  0  0  0  # atno 17342 bound_to 10162
  140.7816  143.4538  151.0375 LP  0  0  0  0  0  0  0  0  0  0  0  0  # atno 17343 bound_to 10162
  156.0340  130.5429  150.8606 LP  0  0  0  0  0  0  0  0  0  0  0  0  # atno 17370 bound_to 10713
  157.5686  131.0946  150.9452 LP  0  0  0  0  0  0  0  0  0  0  0  0  # atno 17371 bound_to 10713
  141.0323  133.6982  156.1451 LP  0  0  0  0  0  0  0  0  0  0  0  0  # atno 17394 bound_to 11000
  140.7078  134.4494  157.5583 LP  0  0  0  0  0  0  0  0  0  0  0  0  # atno 17395 bound_to 11000

$$$$
