AV-unprocessed.smi:2699|AV-procd|sdf|10423|dock10
  -GOLD-   2272014463D 1   1.00000     0.00000
 Structure written by MMmdl.
 42 44  0  0  0  0  0  0  0  0  2 V2000
  145.9037  136.6948  156.2479 C   0  0  0  0  0  0  0  0  0  0  0  0
  147.1035  136.6169  157.1853 C   0  0  0  0  0  0  0  0  0  0  0  0
  146.9723  136.9332  158.4923 C   0  0  0  0  0  0  0  0  0  0  0  0
  148.0392  136.8439  159.3768 C   0  0  0  0  0  0  0  0  0  0  0  0
  147.9241  137.1385  160.5869 O   0  5  0  0  0  0  0  0  0  0  0  0
  149.2397  136.4027  158.8358 C   0  0  0  0  0  0  0  0  0  0  0  0
  149.4413  136.0414  157.4379 C   0  0  0  0  0  0  0  0  0  0  0  0
  150.5282  135.6435  157.0149 O   0  0  0  0  0  0  0  0  0  0  0  0
  148.3433  136.1842  156.6433 N   0  0  0  0  0  0  0  0  0  0  0  0
  148.4701  135.8934  155.1965 C   0  0  0  0  0  0  0  0  0  0  0  0
  147.7483  134.6037  154.7562 C   0  0  0  0  0  0  0  0  0  0  0  0
  147.4184  133.7553  155.5836 O   0  0  0  0  0  0  0  0  0  0  0  0
  147.4769  134.4313  153.4534 N   0  0  0  0  0  0  0  0  0  0  0  0
  146.8050  133.2834  152.8524 C   0  0  0  0  0  0  0  0  0  0  0  0
  145.8010  133.7130  151.7671 C   0  0  0  0  0  0  0  0  0  0  0  0
  145.6757  132.5564  150.7715 C   0  0  0  0  0  0  0  0  0  0  0  0
  144.5034  132.4348  149.8277 C   0  0  0  0  0  0  0  0  0  0  0  0
  144.7034  131.4097  150.9261 C   0  0  0  0  0  0  0  0  0  0  0  0
  144.4593  134.2486  152.3098 C   0  0  0  0  0  0  0  0  0  0  0  0
  145.0211  135.6683  152.2527 C   0  0  0  0  0  0  0  0  0  0  0  0
  146.0146  135.1457  151.2163 C   0  0  0  0  0  0  0  0  0  0  0  0
  144.9765  136.7779  156.8156 H   0  0  0  0  0  0  0  0  0  0  0  0
  145.8104  135.8046  155.6266 H   0  0  0  0  0  0  0  0  0  0  0  0
  145.9762  137.5729  155.6059 H   0  0  0  0  0  0  0  0  0  0  0  0
  146.0096  137.2606  158.8583 H   0  0  0  0  0  0  0  0  0  0  0  0
  150.0958  136.3155  159.4895 H   0  0  0  0  0  0  0  0  0  0  0  0
  148.1203  136.7272  154.5904 H   0  0  0  0  0  0  0  0  0  0  0  0
  149.5238  135.8103  154.9258 H   0  0  0  0  0  0  0  0  0  0  0  0
  147.7654  135.1631  152.8204 H   0  0  0  0  0  0  0  0  0  0  0  0
  147.5495  132.6069  152.4299 H   0  0  0  0  0  0  0  0  0  0  0  0
  146.3001  132.7266  153.6429 H   0  0  0  0  0  0  0  0  0  0  0  0
  146.6390  132.2581  150.3609 H   0  0  0  0  0  0  0  0  0  0  0  0
  143.6808  133.1383  149.9416 H   0  0  0  0  0  0  0  0  0  0  0  0
  144.7150  132.1280  148.8056 H   0  0  0  0  0  0  0  0  0  0  0  0
  145.0473  130.4213  150.6284 H   0  0  0  0  0  0  0  0  0  0  0  0
  144.0068  131.4195  151.7604 H   0  0  0  0  0  0  0  0  0  0  0  0
  143.6293  134.1046  151.6157 H   0  0  0  0  0  0  0  0  0  0  0  0
  144.1984  133.9039  153.3110 H   0  0  0  0  0  0  0  0  0  0  0  0
  144.3251  136.4205  151.8811 H   0  0  0  0  0  0  0  0  0  0  0  0
  145.4969  135.9787  153.1842 H   0  0  0  0  0  0  0  0  0  0  0  0
  147.0261  135.5363  151.3323 H   0  0  0  0  0  0  0  0  0  0  0  0
  145.6568  135.2994  150.1988 H   0  0  0  0  0  0  0  0  0  0  0  0
  1  2  1  0  0  0  0
  1 22  1  0  0  0  0
  1 23  1  0  0  0  0
  1 24  1  0  0  0  0
  2  9  1  0  0  0  0
  2  3  2  0  0  0  0
  3  4  1  0  0  0  0
  3 25  1  0  0  0  0
  4  5  1  0  0  0  0
  4  6  2  0  0  0  0
  6  7  1  0  0  0  0
  6 26  1  0  0  0  0
  7  8  2  0  0  0  0
  7  9  1  0  0  0  0
  9 10  1  0  0  0  0
 10 11  1  0  0  0  0
 10 27  1  0  0  0  0
 10 28  1  0  0  0  0
 11 12  2  0  0  0  0
 11 13  1  0  0  0  0
 13 14  1  0  0  0  0
 13 29  1  0  0  0  0
 14 15  1  0  0  0  0
 14 30  1  0  0  0  0
 14 31  1  0  0  0  0
 15 21  1  0  0  0  0
 15 16  1  0  0  0  0
 15 19  1  0  0  0  0
 16 18  1  0  0  0  0
 16 17  1  0  0  0  0
 16 32  1  0  0  0  0
 17 18  1  0  0  0  0
 17 33  1  0  0  0  0
 17 34  1  0  0  0  0
 18 35  1  0  0  0  0
 18 36  1  0  0  0  0
 19 20  1  0  0  0  0
 19 37  1  0  0  0  0
 19 38  1  0  0  0  0
 20 21  1  0  0  0  0
 20 39  1  0  0  0  0
 20 40  1  0  0  0  0
 21 41  1  0  0  0  0
 21 42  1  0  0  0  0
M  CHG  1   5  -1
M  END
> <s_m_source_file>
AV-unprocessed.smi

> <i_m_source_file_index>
2699

> <i_lp_mmshare_version>
43012

> <i_f3d_flags>
0

> <s_epik_input>
W0NIM11jMVtjSF1jKFtPSF0pW2NIXWMoPU8pbjFbQ0gyXUMoPU8pW05IXVtDSDJdQzIoW0NIXTNbQ0gyXVtDSDJdMylbQ0gyXVtDSDJdW0NIMl0y

> <s_epik_cmdline>
J2VwaWtfcHl0aG9uJywgJy1waCcsICc3LjAnLCAnLXRuJywgJzgnLCAnLW1hJywgJzIwMCcsICctbWV0YWxfYmluZGluZycsICctaW1hZScsICc8aW5maWxlLm1hZT4nLCAnLW9tYWUnLCAnPG91dGZpbGUubWFlPic=

> <r_lp_tautomer_probability>
1

> <r_epik_Ionization_Penalty>
0.201472

> <r_epik_Ionization_Penalty_Charging>
0.201472

> <r_epik_Ionization_Penalty_Neutral>
1.82775e-08

> <r_epik_State_Penalty>
0.183831

> <r_epik_Charging_Adjusted_Penalty>
0.385303

> <i_epik_Tot_Q>
-1

> <i_epik_Tot_abs_Q>
1

> <r_epik_Metal_State_Penalty>
0.183831

> <b_epik_Metal_Only>
0

> <s_lp_Force_Field>
OPLS_2005

> <r_lp_Energy>
45.0719

> <b_lp_Chiralities_Consistent>
1

> <s_lp_Variant>
AV-unprocessed.smi:2699-1

> <Gold.Version>
5.8.1

> <Gold.Id.Protein>
6NUR|6NUR_protein|mol2

> <Gold.PLP.Fitness>
37.3621

> <Gold.PLP.PLP>
-26.3748

> <Gold.PLP.part.hbond>
-3.0000

> <Gold.PLP.part.metal>
0.0000

> <Gold.PLP.part.buried>
-5.0177

> <Gold.PLP.part.nonpolar>
-18.3846

> <Gold.PLP.part.repulsive>
0.0129

> <Gold.PLP.ligand.clash>
0.0000

> <Gold.PLP.ligand.torsion>
1.8062

> <Gold.PLP.Chemscore.Hbond>
4.2960

> <Gold.PLP.Chemscore.CHOScore>
0.0000

> <Gold.PLP.Chemscore.Metal>
0.0000

> <Gold.Chemscore.Hbonds>
donor molecule, donor type, donor heavy atom, donor atom, acceptor molecule, acceptor atom, score
      L1  H    13    29       P1  7948  1.00
      P1  H  6931  6943       L1     5  1.56
      P1  H  6934  6947       L1     5  1.56

> <Gold.PLP.Chemscore.Internal.Correction>
1.7117

> <Gold.Rescore>
     Score         DG    S(hbond)    S(metal)    S(lipo)     H(rot)  DE(clash)    DE(int)     intcor
     13.69     -16.64       2.44        0.00      63.24       1.71       0.00       2.95       ----

> <Gold.Chemscore.Fitness>
13.6900

> <Gold.Chemscore.DG>
-16.6404

> <Gold.Chemscore.ZeroCoef>
-5.4800

> <Gold.Chemscore.Hbond>
2.4362

> <Gold.Chemscore.Metal>
0.0000

> <Gold.Chemscore.Lipo>
63.2439

> <Gold.Chemscore.Internal_Hbond>
0.0000

> <Gold.Chemscore.DEClash>
0.0009

> <Gold.Chemscore.DEInternal>
2.9495

> <Gold.Chemscore.Rot>
1.7094

> <Gold.Chemscore.Internal.Correction>
   9.000000E+99

> <Gold.Chemscore.Hbonds>
donor molecule, donor type, donor heavy atom, donor atom, acceptor molecule, acceptor atom, score
      L1  H    13    29       P1  7948  0.98
      P1  H  6931  6943       L1     5  0.73
      P1  H  6934  6947       L1     5  0.65

> <Gold.Chemscore.Hbond.Weighted>
-8.1369

> <Gold.Chemscore.Metal.Weighted>
-0.0000

> <Gold.Chemscore.Lipo.Weighted>
-7.3995

> <Gold.Chemscore.Internal_Hbond.Weighted>
0.0000

> <Gold.Chemscore.DEClash.Weighted>
0.0009

> <Gold.Chemscore.DEInternal.Weighted>
2.9495

> <Gold.Chemscore.Rot.Weighted>
4.3760

> <Gold.Chemscore.Internal.Correction.Weighted>
   9.000000E+99

> <Gold.Protein.RotatedTorsions>
[ 6907 6896 6895 6894 ] final   37.60 input  -60.11 | X-H torsion
[ 7974 7965 7964 7962 ] final  -54.97 input  175.53 | X-H torsion
[ 8008 7997 7996 7995 ] final   50.76 input   59.86 | X-H torsion
[ 10167 10162 10161 10158 ] final  -59.95 input  -65.29 | X-H torsion
[ 10718 10713 10712 10709 ] final   93.32 input   66.30 | X-H torsion
[ 10763 10752 10751 10750 ] final   48.35 input  -60.55 | X-H torsion
[ 11005 11000 10999 10996 ] final  -49.37 input  -57.11 | X-H torsion

> <Gold.Protein.ActiveResidues>
 VAL166  LYS551  ARG553  GLY616  TRP617  ASP618  TYR619  PRO620  LYS621  CYS622 
 ASP623  PHE694  ASN695  SER759  ASP760  ASP761  ALA762  ILE779  LEU786  VAL792 
 PHE793  MET794  SER795  GLU796  ALA797  LYS798  CYS799  TRP800  GLU811  SER814 

> <Gold.Protein.RotatedAtoms>
  152.1454  134.9030  160.0551 H   0  0  0  0  0  0  0  0  0  0  0  0  # atno 6907 bound_to 6896
  152.0082  133.3846  159.4217 H   0  0  0  0  0  0  0  0  0  0  0  0  # atno 6908 bound_to 6896
  150.6869  134.3681  159.5024 H   0  0  0  0  0  0  0  0  0  0  0  0  # atno 6909 bound_to 6896
  145.8795  140.8155  142.9847 H   0  0  0  0  0  0  0  0  0  0  0  0  # atno 7974 bound_to 7965
  155.4241  140.3448  155.4274 H   0  0  0  0  0  0  0  0  0  0  0  0  # atno 8008 bound_to 7997
  156.1375  140.1532  156.9003 H   0  0  0  0  0  0  0  0  0  0  0  0  # atno 8009 bound_to 7997
  154.4944  140.0832  156.7644 H   0  0  0  0  0  0  0  0  0  0  0  0  # atno 8010 bound_to 7997
  140.6102  143.2385  151.5726 H   0  0  0  0  0  0  0  0  0  0  0  0  # atno 10167 bound_to 10162
  157.6955  131.0474  150.4015 H   0  0  0  0  0  0  0  0  0  0  0  0  # atno 10718 bound_to 10713
  152.9792  135.5947  154.3912 H   0  0  0  0  0  0  0  0  0  0  0  0  # atno 10763 bound_to 10752
  154.3567  135.2767  155.2344 H   0  0  0  0  0  0  0  0  0  0  0  0  # atno 10764 bound_to 10752
  154.4360  135.6025  153.6153 H   0  0  0  0  0  0  0  0  0  0  0  0  # atno 10765 bound_to 10752
  141.0755  133.6667  156.3576 H   0  0  0  0  0  0  0  0  0  0  0  0  # atno 11005 bound_to 11000
  144.6727  140.1362  143.7440 LP  0  0  0  0  0  0  0  0  0  0  0  0  # atno 17320 bound_to 7965
  145.9040  139.2447  143.1476 LP  0  0  0  0  0  0  0  0  0  0  0  0  # atno 17321 bound_to 7965
  139.5356  144.2792  152.1243 LP  0  0  0  0  0  0  0  0  0  0  0  0  # atno 17342 bound_to 10162
  140.1989  144.4677  150.6441 LP  0  0  0  0  0  0  0  0  0  0  0  0  # atno 17343 bound_to 10162
  156.4408  130.3991  149.6698 LP  0  0  0  0  0  0  0  0  0  0  0  0  # atno 17370 bound_to 10713
  156.3882  130.7614  151.2612 LP  0  0  0  0  0  0  0  0  0  0  0  0  # atno 17371 bound_to 10713
  140.5582  134.5960  157.5426 LP  0  0  0  0  0  0  0  0  0  0  0  0  # atno 17394 bound_to 11000
  139.9568  134.7522  156.0325 LP  0  0  0  0  0  0  0  0  0  0  0  0  # atno 17395 bound_to 11000

$$$$
