AV-unprocessed.smi:367|AV-procd|sdf|2433|dock8
  -GOLD-   2262022373D 1   1.00000     0.00000
 Structure written by MMmdl.
 21 21  0  0  0  0  0  0  0  0  3 V2000
  153.7619  136.8810  161.8112 C   0  0  0  0  0  0  0  0  0  0  0  0
  153.1435  137.7205  160.7138 C   0  0  0  0  0  0  0  0  0  0  0  0
  153.5176  138.9342  160.5688 N   0  0  0  0  0  0  0  0  0  0  0  0
  152.9414  139.7188  159.5549 C   0  0  0  0  0  0  0  0  0  0  0  0
  153.4331  141.1531  159.4670 C   0  0  0  0  0  0  0  0  0  0  0  0
  151.9944  139.2072  158.7171 C   0  0  0  0  0  0  0  0  0  0  0  0
  151.3210  140.0286  157.6133 C   0  0  0  0  0  0  0  0  0  0  0  0
  151.7729  139.6969  156.1859 C   0  0  0  0  0  0  0  0  0  0  0  0
  151.1519  140.2644  155.2604 O   0  0  0  0  0  0  0  0  0  0  0  0
  152.7174  138.8912  156.0295 O   0  5  0  0  0  0  0  0  0  0  0  0
  151.5981  137.8004  158.9126 C   0  0  0  0  0  0  0  0  0  0  0  0
  150.7570  137.2827  158.1786 O   0  0  0  0  0  0  0  0  0  0  0  0
  152.1938  137.1091  159.9270 N   0  5  0  0  0  0  0  0  0  0  0  0
  154.5504  137.4288  162.3290 H   0  0  0  0  0  0  0  0  0  0  0  0
  154.1953  135.9714  161.3946 H   0  0  0  0  0  0  0  0  0  0  0  0
  153.0036  136.5999  162.5425 H   0  0  0  0  0  0  0  0  0  0  0  0
  152.6215  141.8485  159.6815 H   0  0  0  0  0  0  0  0  0  0  0  0
  153.8193  141.3661  158.4702 H   0  0  0  0  0  0  0  0  0  0  0  0
  154.2348  141.3407  160.1820 H   0  0  0  0  0  0  0  0  0  0  0  0
  150.2360  139.9349  157.6636 H   0  0  0  0  0  0  0  0  0  0  0  0
  151.5203  141.0846  157.7954 H   0  0  0  0  0  0  0  0  0  0  0  0
  1  2  1  0  0  0  0
  1 14  1  0  0  0  0
  1 15  1  0  0  0  0
  1 16  1  0  0  0  0
  2 13  1  0  0  0  0
  2  3  2  0  0  0  0
  3  4  1  0  0  0  0
  4  5  1  0  0  0  0
  4  6  2  0  0  0  0
  5 17  1  0  0  0  0
  5 18  1  0  0  0  0
  5 19  1  0  0  0  0
  6  7  1  0  0  0  0
  6 11  1  0  0  0  0
  7  8  1  0  0  0  0
  7 20  1  0  0  0  0
  7 21  1  0  0  0  0
  8  9  2  0  0  0  0
  8 10  1  0  0  0  0
 11 12  2  0  0  0  0
 11 13  1  0  0  0  0
M  CHG  1  10  -1
M  CHG  1  13  -1
M  END
> <s_m_source_file>
AV-unprocessed.smi

> <i_m_source_file_index>
367

> <i_lp_mmshare_version>
43012

> <i_f3d_flags>
0

> <s_epik_input>
W0NIM11jMW5jKFtDSDNdKWMoYyg9TylbbkhdMSlbQ0gyXUMoPU8pW09IXQ==

> <s_epik_cmdline>
J2VwaWtfcHl0aG9uJywgJy1waCcsICc3LjAnLCAnLXRuJywgJzgnLCAnLW1hJywgJzIwMCcsICctbWV0YWxfYmluZGluZycsICctaW1hZScsICc8aW5maWxlLm1hZT4nLCAnLW9tYWUnLCAnPG91dGZpbGUubWFlPic=

> <r_lp_tautomer_probability>
0.839158

> <r_epik_Ionization_Penalty>
8.1762

> <r_epik_Ionization_Penalty_Charging>
0.00175347

> <r_epik_Ionization_Penalty_Neutral>
8.17445

> <r_epik_State_Penalty>
5.46366

> <r_epik_Charging_Adjusted_Penalty>
5.46542

> <i_epik_Tot_Q>
-2

> <i_epik_Tot_abs_Q>
2

> <r_epik_Metal_State_Penalty>
1.48615

> <b_epik_Metal_Only>
1

> <s_lp_Force_Field>
OPLS_2005

> <r_lp_Energy>
12.8552

> <b_lp_Chiralities_Consistent>
1

> <s_lp_Variant>
AV-unprocessed.smi:367-3

> <Gold.Version>
5.8.1

> <Gold.Id.Protein>
6NUR|6NUR_protein|mol2

> <Gold.PLP.Fitness>
35.8265

> <Gold.PLP.PLP>
-21.2662

> <Gold.PLP.part.hbond>
-3.0000

> <Gold.PLP.part.metal>
0.0000

> <Gold.PLP.part.buried>
-4.1899

> <Gold.PLP.part.nonpolar>
-14.3877

> <Gold.PLP.part.repulsive>
0.0260

> <Gold.PLP.ligand.clash>
0.0000

> <Gold.PLP.ligand.torsion>
0.2082

> <Gold.PLP.Chemscore.Hbond>
4.9920

> <Gold.PLP.Chemscore.CHOScore>
0.0000

> <Gold.PLP.Chemscore.Metal>
0.0000

> <Gold.Chemscore.Hbonds>
donor molecule, donor type, donor heavy atom, donor atom, acceptor molecule, acceptor atom, score
      P1  H  6896  6907       L1    13  2.00
      P1  H  7989  7998       L1     9  1.00
      P1  H  7997  8008       L1    10  1.89

> <Gold.PLP.Chemscore.Internal.Correction>
0.0007

> <Gold.Rescore>
     Score         DG    S(hbond)    S(metal)    S(lipo)     H(rot)  DE(clash)    DE(int)     intcor
     14.47     -14.71       2.83        0.00      31.51       1.53       0.00       0.24       ----

> <Gold.Chemscore.Fitness>
14.4729

> <Gold.Chemscore.DG>
-14.7116

> <Gold.Chemscore.ZeroCoef>
-5.4800

> <Gold.Chemscore.Hbond>
2.8310

> <Gold.Chemscore.Metal>
0.0000

> <Gold.Chemscore.Lipo>
31.5133

> <Gold.Chemscore.Internal_Hbond>
0.0000

> <Gold.Chemscore.DEClash>
0.0000

> <Gold.Chemscore.DEInternal>
0.2387

> <Gold.Chemscore.Rot>
1.5278

> <Gold.Chemscore.Internal.Correction>
   9.000000E+99

> <Gold.Chemscore.Hbonds>
donor molecule, donor type, donor heavy atom, donor atom, acceptor molecule, acceptor atom, score
      P1  H  6896  6907       L1    13  0.89
      P1  H  7989  7998       L1     9  0.97
      P1  H  7997  8008       L1    10  0.27

> <Gold.Chemscore.Hbond.Weighted>
-9.4556

> <Gold.Chemscore.Metal.Weighted>
-0.0000

> <Gold.Chemscore.Lipo.Weighted>
-3.6871

> <Gold.Chemscore.Internal_Hbond.Weighted>
0.0000

> <Gold.Chemscore.DEClash.Weighted>
0.0000

> <Gold.Chemscore.DEInternal.Weighted>
0.2387

> <Gold.Chemscore.Rot.Weighted>
3.9111

> <Gold.Chemscore.Internal.Correction.Weighted>
   9.000000E+99

> <Gold.Protein.RotatedTorsions>
[ 6907 6896 6895 6894 ] final   18.81 input  -60.11 | X-H torsion
[ 7974 7965 7964 7962 ] final  -98.93 input  175.53 | X-H torsion
[ 8008 7997 7996 7995 ] final  -43.26 input   59.86 | X-H torsion
[ 10167 10162 10161 10158 ] final -178.75 input  -65.29 | X-H torsion
[ 10718 10713 10712 10709 ] final   -0.00 input   66.30 | X-H torsion
[ 10763 10752 10751 10750 ] final -151.00 input  -60.55 | X-H torsion
[ 11005 11000 10999 10996 ] final  -82.29 input  -57.11 | X-H torsion

> <Gold.Protein.ActiveResidues>
 VAL166  LYS551  ARG553  GLY616  TRP617  ASP618  TYR619  PRO620  LYS621  CYS622 
 ASP623  PHE694  ASN695  SER759  ASP760  ASP761  ALA762  ILE779  LEU786  VAL792 
 PHE793  MET794  SER795  GLU796  ALA797  LYS798  CYS799  TRP800  GLU811  SER814 

> <Gold.Protein.RotatedAtoms>
  151.8710  135.0489  160.0479 H   0  0  0  0  0  0  0  0  0  0  0  0  # atno 6907 bound_to 6896
  152.2588  133.5274  159.5377 H   0  0  0  0  0  0  0  0  0  0  0  0  # atno 6908 bound_to 6896
  150.7109  134.0775  159.3928 H   0  0  0  0  0  0  0  0  0  0  0  0  # atno 6909 bound_to 6896
  145.3141  140.9407  143.2753 H   0  0  0  0  0  0  0  0  0  0  0  0  # atno 7974 bound_to 7965
  154.3997  140.1452  156.3490 H   0  0  0  0  0  0  0  0  0  0  0  0  # atno 8008 bound_to 7997
  155.8287  140.3466  155.5537 H   0  0  0  0  0  0  0  0  0  0  0  0  # atno 8009 bound_to 7997
  155.8211  140.0898  157.1838 H   0  0  0  0  0  0  0  0  0  0  0  0  # atno 8010 bound_to 7997
  139.5418  144.2343  152.0910 H   0  0  0  0  0  0  0  0  0  0  0  0  # atno 10167 bound_to 10162
  156.8269  130.5475  149.5691 H   0  0  0  0  0  0  0  0  0  0  0  0  # atno 10718 bound_to 10713
  154.8085  135.3270  154.7369 H   0  0  0  0  0  0  0  0  0  0  0  0  # atno 10763 bound_to 10752
  153.8023  135.6902  153.4858 H   0  0  0  0  0  0  0  0  0  0  0  0  # atno 10764 bound_to 10752
  153.1846  135.4573  155.0017 H   0  0  0  0  0  0  0  0  0  0  0  0  # atno 10765 bound_to 10752
  141.1663  133.7237  156.8550 H   0  0  0  0  0  0  0  0  0  0  0  0  # atno 11005 bound_to 11000
  144.8992  139.4672  143.6641 LP  0  0  0  0  0  0  0  0  0  0  0  0  # atno 17320 bound_to 7965
  146.3107  139.7735  142.9022 LP  0  0  0  0  0  0  0  0  0  0  0  0  # atno 17321 bound_to 7965
  140.1822  144.4833  150.6522 LP  0  0  0  0  0  0  0  0  0  0  0  0  # atno 17342 bound_to 10162
  140.6651  143.2265  151.5763 LP  0  0  0  0  0  0  0  0  0  0  0  0  # atno 17343 bound_to 10162
  156.0956  130.5930  150.9808 LP  0  0  0  0  0  0  0  0  0  0  0  0  # atno 17370 bound_to 10713
  157.6427  131.0908  150.8217 LP  0  0  0  0  0  0  0  0  0  0  0  0  # atno 17371 bound_to 10713
  140.1888  134.8980  157.3036 LP  0  0  0  0  0  0  0  0  0  0  0  0  # atno 17394 bound_to 11000
  140.2313  134.3906  155.7521 LP  0  0  0  0  0  0  0  0  0  0  0  0  # atno 17395 bound_to 11000

$$$$
