AV-unprocessed.smi:1078|AV-procd|sdf|4703|dock2
  -GOLD-   22720 3223D 1   1.00000     0.00000
 Structure written by MMmdl.
 40 41  0  0  0  0  0  0  0  0  2 V2000
  148.1121  141.3754  157.0435 C   0  0  0  0  0  0  0  0  0  0  0  0
  149.5636  141.5804  156.5771 C   0  0  1  0  0  0  0  0  0  0  0  0
  149.6957  141.5981  155.0358 C   0  0  0  0  0  0  0  0  0  0  0  0
  148.8623  140.6071  154.3787 N   0  0  0  0  0  0  0  0  0  0  0  0
  147.7361  140.8064  153.6076 C   0  0  0  0  0  0  0  0  0  0  0  0
  147.3025  139.5783  153.1975 C   0  0  0  0  0  0  0  0  0  0  0  0
  148.2453  138.6783  153.7687 C   0  0  0  0  0  0  0  0  0  0  0  0
  149.1803  139.2976  154.4714 N   0  0  0  0  0  0  0  0  0  0  0  0
  150.0935  142.8263  157.1753 N   0  3  0  0  0  0  0  0  0  0  0  0
  151.5578  143.0090  157.0795 C   0  0  0  0  0  0  0  0  0  0  0  0
  152.1411  143.5712  158.3891 C   0  0  0  0  0  0  0  0  0  0  0  0
  152.3462  142.4492  159.4277 C   0  0  0  0  0  0  0  0  0  0  0  0
  152.9298  142.9903  160.7431 C   0  0  0  0  0  0  0  0  0  0  0  0
  152.0487  144.1053  161.3257 C   0  0  0  0  0  0  0  0  0  0  0  0
  151.8346  145.2309  160.3027 C   0  0  0  0  0  0  0  0  0  0  0  0
  151.2545  144.6862  158.9873 C   0  0  0  0  0  0  0  0  0  0  0  0
  147.7151  140.4142  156.7159 H   0  0  0  0  0  0  0  0  0  0  0  0
  147.4573  142.1560  156.6548 H   0  0  0  0  0  0  0  0  0  0  0  0
  148.0435  141.3947  158.1317 H   0  0  0  0  0  0  0  0  0  0  0  0
  150.1497  140.7489  156.9719 H   0  0  0  0  0  0  0  0  0  0  0  0
  149.4255  142.5814  154.6481 H   0  0  0  0  0  0  0  0  0  0  0  0
  150.7264  141.4153  154.7308 H   0  0  0  0  0  0  0  0  0  0  0  0
  147.3391  141.7930  153.4179 H   0  0  0  0  0  0  0  0  0  0  0  0
  146.4439  139.3565  152.5809 H   0  0  0  0  0  0  0  0  0  0  0  0
  148.2784  137.6014  153.6928 H   0  0  0  0  0  0  0  0  0  0  0  0
  149.6314  143.6181  156.7512 H   0  0  0  0  0  0  0  0  0  0  0  0
  152.0357  142.0597  156.8331 H   0  0  0  0  0  0  0  0  0  0  0  0
  151.7747  143.6964  156.2619 H   0  0  0  0  0  0  0  0  0  0  0  0
  153.1219  143.9952  158.1670 H   0  0  0  0  0  0  0  0  0  0  0  0
  151.3950  141.9544  159.6298 H   0  0  0  0  0  0  0  0  0  0  0  0
  153.0114  141.6839  159.0260 H   0  0  0  0  0  0  0  0  0  0  0  0
  153.0291  142.1802  161.4662 H   0  0  0  0  0  0  0  0  0  0  0  0
  153.9360  143.3733  160.5675 H   0  0  0  0  0  0  0  0  0  0  0  0
  151.0837  143.6919  161.6217 H   0  0  0  0  0  0  0  0  0  0  0  0
  152.5049  144.5061  162.2313 H   0  0  0  0  0  0  0  0  0  0  0  0
  151.1676  145.9868  160.7182 H   0  0  0  0  0  0  0  0  0  0  0  0
  152.7836  145.7312  160.1052 H   0  0  0  0  0  0  0  0  0  0  0  0
  151.1461  145.5076  158.2787 H   0  0  0  0  0  0  0  0  0  0  0  0
  150.2496  144.3017  159.1676 H   0  0  0  0  0  0  0  0  0  0  0  0
  149.8609  142.8113  158.1582 H   0  0  0  0  0  0  0  0  0  0  0  0
  1  2  1  0  0  0  0
  1 17  1  0  0  0  0
  1 18  1  0  0  0  0
  1 19  1  0  0  0  0
  2  3  1  0  0  0  0
  2  9  1  0  0  0  0
  2 20  1  0  0  0  0
  3  4  1  0  0  0  0
  3 21  1  0  0  0  0
  3 22  1  0  0  0  0
  4  8  1  0  0  0  0
  4  5  1  0  0  0  0
  5  6  2  0  0  0  0
  5 23  1  0  0  0  0
  6  7  1  0  0  0  0
  6 24  1  0  0  0  0
  7  8  2  0  0  0  0
  7 25  1  0  0  0  0
  9 10  1  0  0  0  0
  9 26  1  0  0  0  0
  9 40  1  0  0  0  0
 10 11  1  0  0  0  0
 10 27  1  0  0  0  0
 10 28  1  0  0  0  0
 11 16  1  0  0  0  0
 11 12  1  0  0  0  0
 11 29  1  0  0  0  0
 12 13  1  0  0  0  0
 12 30  1  0  0  0  0
 12 31  1  0  0  0  0
 13 14  1  0  0  0  0
 13 32  1  0  0  0  0
 13 33  1  0  0  0  0
 14 15  1  0  0  0  0
 14 34  1  0  0  0  0
 14 35  1  0  0  0  0
 15 16  1  0  0  0  0
 15 36  1  0  0  0  0
 15 37  1  0  0  0  0
 16 38  1  0  0  0  0
 16 39  1  0  0  0  0
M  CHG  1   9   1
M  END
> <s_m_source_file>
AV-unprocessed.smi

> <i_m_source_file_index>
1078

> <i_lp_mmshare_version>
43012

> <i_f3d_flags>
0

> <s_epik_input>
bjFbY0hdW2NIXVtjSF1uMVtDSDJdW0NAQEhdKFtDSDNdKVtOSF1bQ0gyXVtDSF0yW0NIMl1bQ0gyXVtDSDJdW0NIMl1bQ0gyXTI=

> <s_epik_cmdline>
J2VwaWtfcHl0aG9uJywgJy1waCcsICc3LjAnLCAnLXRuJywgJzgnLCAnLW1hJywgJzIwMCcsICctbWV0YWxfYmluZGluZycsICctaW1hZScsICc8aW5maWxlLm1hZT4nLCAnLW9tYWUnLCAnPG91dGZpbGUubWFlPic=

> <r_lp_tautomer_probability>
1

> <r_epik_Ionization_Penalty>
0.00174474

> <r_epik_Ionization_Penalty_Charging>
0.00174052

> <r_epik_Ionization_Penalty_Neutral>
4.21324e-06

> <r_epik_State_Penalty>
0.00117783

> <r_epik_Charging_Adjusted_Penalty>
0.00291835

> <i_epik_Tot_Q>
1

> <i_epik_Tot_abs_Q>
1

> <r_epik_Metal_State_Penalty>
-0

> <b_epik_Metal_Only>
0

> <s_lp_Force_Field>
OPLS_2005

> <r_lp_Energy>
15.419

> <b_lp_Chiralities_Consistent>
1

> <s_lp_Variant>
AV-unprocessed.smi:1078-2

> <Gold.Version>
5.8.1

> <Gold.Id.Protein>
6NUR|6NUR_protein|mol2

> <Gold.PLP.Fitness>
47.6372

> <Gold.PLP.PLP>
-40.2103

> <Gold.PLP.part.hbond>
-1.0000

> <Gold.PLP.part.metal>
0.0000

> <Gold.PLP.part.buried>
-3.4548

> <Gold.PLP.part.nonpolar>
-35.6818

> <Gold.PLP.part.repulsive>
0.1379

> <Gold.PLP.ligand.clash>
0.0000

> <Gold.PLP.ligand.torsion>
0.8028

> <Gold.PLP.Chemscore.Hbond>
2.0000

> <Gold.PLP.Chemscore.CHOScore>
1.0000

> <Gold.PLP.Chemscore.Metal>
0.0000

> <Gold.Chemscore.Hbonds>
donor molecule, donor type, donor heavy atom, donor atom, acceptor molecule, acceptor atom, score
      L1  H     9    26       P1  8028  2.00
      L1  C     7    25       P1  7948  0.98

> <Gold.PLP.Chemscore.Internal.Correction>
0.0324

> <Gold.Rescore>
     Score         DG    S(hbond)    S(metal)    S(lipo)     H(rot)  DE(clash)    DE(int)     intcor
     17.41     -18.69       0.98        0.00     118.56       1.54       0.64       0.65       ----

> <Gold.Chemscore.Fitness>
17.4066

> <Gold.Chemscore.DG>
-18.6945

> <Gold.Chemscore.ZeroCoef>
-5.4800

> <Gold.Chemscore.Hbond>
0.9819

> <Gold.Chemscore.Metal>
0.0000

> <Gold.Chemscore.Lipo>
118.5605

> <Gold.Chemscore.Internal_Hbond>
0.0000

> <Gold.Chemscore.DEClash>
0.6378

> <Gold.Chemscore.DEInternal>
0.6501

> <Gold.Chemscore.Rot>
1.5378

> <Gold.Chemscore.Internal.Correction>
   9.000000E+99

> <Gold.Chemscore.Hbonds>
donor molecule, donor type, donor heavy atom, donor atom, acceptor molecule, acceptor atom, score
      L1  H     9    26       P1  8028  0.99

> <Gold.Chemscore.Hbond.Weighted>
-3.2797

> <Gold.Chemscore.Metal.Weighted>
-0.0000

> <Gold.Chemscore.Lipo.Weighted>
-13.8716

> <Gold.Chemscore.Internal_Hbond.Weighted>
0.0000

> <Gold.Chemscore.DEClash.Weighted>
0.6378

> <Gold.Chemscore.DEInternal.Weighted>
0.6501

> <Gold.Chemscore.Rot.Weighted>
3.9368

> <Gold.Chemscore.Internal.Correction.Weighted>
   9.000000E+99

> <Gold.Protein.RotatedTorsions>
[ 6907 6896 6895 6894 ] final   -3.31 input  -60.11 | X-H torsion
[ 7974 7965 7964 7962 ] final  138.71 input  175.53 | X-H torsion
[ 8008 7997 7996 7995 ] final  -26.05 input   59.86 | X-H torsion
[ 10167 10162 10161 10158 ] final -135.15 input  -65.29 | X-H torsion
[ 10718 10713 10712 10709 ] final  -78.11 input   66.30 | X-H torsion
[ 10763 10752 10751 10750 ] final -148.19 input  -60.55 | X-H torsion
[ 11005 11000 10999 10996 ] final  -19.21 input  -57.11 | X-H torsion

> <Gold.Protein.ActiveResidues>
 VAL166  LYS551  ARG553  GLY616  TRP617  ASP618  TYR619  PRO620  LYS621  CYS622 
 ASP623  PHE694  ASN695  SER759  ASP760  ASP761  ALA762  ILE779  LEU786  VAL792 
 PHE793  MET794  SER795  GLU796  ALA797  LYS798  CYS799  TRP800  GLU811  SER814 

> <Gold.Protein.RotatedAtoms>
  151.5159  135.1066  159.9865 H   0  0  0  0  0  0  0  0  0  0  0  0  # atno 6907 bound_to 6896
  152.4642  133.7882  159.6898 H   0  0  0  0  0  0  0  0  0  0  0  0  # atno 6908 bound_to 6896
  150.8617  133.7570  159.3015 H   0  0  0  0  0  0  0  0  0  0  0  0  # atno 6909 bound_to 6896
  144.9347  139.5004  143.5601 H   0  0  0  0  0  0  0  0  0  0  0  0  # atno 7974 bound_to 7965
  154.4445  140.1910  156.0714 H   0  0  0  0  0  0  0  0  0  0  0  0  # atno 8008 bound_to 7997
  156.0508  140.3309  155.7322 H   0  0  0  0  0  0  0  0  0  0  0  0  # atno 8009 bound_to 7997
  155.5560  140.0599  157.2830 H   0  0  0  0  0  0  0  0  0  0  0  0  # atno 8010 bound_to 7997
  139.8807  143.6842  152.2627 H   0  0  0  0  0  0  0  0  0  0  0  0  # atno 10167 bound_to 10162
  156.0126  130.4509  150.3447 H   0  0  0  0  0  0  0  0  0  0  0  0  # atno 10718 bound_to 10713
  154.8246  135.3341  154.6935 H   0  0  0  0  0  0  0  0  0  0  0  0  # atno 10763 bound_to 10752
  153.7562  135.6936  153.4939 H   0  0  0  0  0  0  0  0  0  0  0  0  # atno 10764 bound_to 10752
  153.2141  135.4471  155.0364 H   0  0  0  0  0  0  0  0  0  0  0  0  # atno 10765 bound_to 10752
  140.8344  133.7973  155.9793 H   0  0  0  0  0  0  0  0  0  0  0  0  # atno 11005 bound_to 11000
  146.3261  139.8323  142.8906 LP  0  0  0  0  0  0  0  0  0  0  0  0  # atno 17320 bound_to 7965
  145.3086  141.0213  143.3568 LP  0  0  0  0  0  0  0  0  0  0  0  0  # atno 17321 bound_to 7965
  139.7198  144.7605  151.0974 LP  0  0  0  0  0  0  0  0  0  0  0  0  # atno 17342 bound_to 10162
  140.7745  143.5222  150.9523 LP  0  0  0  0  0  0  0  0  0  0  0  0  # atno 17343 bound_to 10162
  157.1541  131.0328  151.2871 LP  0  0  0  0  0  0  0  0  0  0  0  0  # atno 17370 bound_to 10713
  157.4367  130.7521  149.7035 LP  0  0  0  0  0  0  0  0  0  0  0  0  # atno 17371 bound_to 10713
  140.8963  134.2433  157.5066 LP  0  0  0  0  0  0  0  0  0  0  0  0  # atno 17394 bound_to 11000
  139.8704  134.9686  156.4635 LP  0  0  0  0  0  0  0  0  0  0  0  0  # atno 17395 bound_to 11000

$$$$
