AV-unprocessed.smi:1728|AV-procd|sdf|6968|dock10
  -GOLD-   22720 8183D 1   1.00000     0.00000
 Structure written by MMmdl.
 47 48  0  0  0  0  0  0  0  0  2 V2000
  151.5587  138.1229  154.4999 C   0  0  0  0  0  0  0  0  0  0  0  0
  150.2296  138.1582  153.9915 O   0  0  0  0  0  0  0  0  0  0  0  0
  149.4947  139.3187  154.1452 C   0  0  0  0  0  0  0  0  0  0  0  0
  150.0750  140.3698  154.7765 N   0  0  0  0  0  0  0  0  0  0  0  0
  149.3617  141.5049  154.9229 C   0  0  0  0  0  0  0  0  0  0  0  0
  148.0465  141.6547  154.4471 C   0  0  0  0  0  0  0  0  0  0  0  0
  147.4421  140.5661  153.7915 C   0  0  0  0  0  0  0  0  0  0  0  0
  148.1732  139.3620  153.6418 C   0  0  0  0  0  0  0  0  0  0  0  0
  147.6730  138.2035  152.9844 N   0  0  0  0  0  0  0  0  0  0  0  0
  146.4037  137.8789  152.6870 C   0  0  0  0  0  0  0  0  0  0  0  0
  145.4110  138.5587  152.9455 O   0  0  0  0  0  0  0  0  0  0  0  0
  146.3434  136.6852  152.0796 N   0  0  0  0  0  0  0  0  0  0  0  0
  145.1236  136.0258  151.6155 C   0  0  0  0  0  0  0  0  0  0  0  0
  144.5585  134.9784  152.6228 C   0  0  0  0  0  0  0  0  0  0  0  0
  145.1415  135.2434  154.0333 C   0  0  0  0  0  0  0  0  0  0  0  0
  143.0224  135.1295  152.7604 C   0  0  0  0  0  0  0  0  0  0  0  0
  144.8879  133.5716  152.1921 N   0  3  0  0  0  0  0  0  0  0  0  0
  144.2338  133.1078  150.9354 C   0  0  0  0  0  0  0  0  0  0  0  0
  144.5003  131.6109  150.7067 C   0  0  0  0  0  0  0  0  0  0  0  0
  145.9000  131.3752  150.6594 O   0  0  0  0  0  0  0  0  0  0  0  0
  146.5311  131.7252  151.8827 C   0  0  0  0  0  0  0  0  0  0  0  0
  146.3376  133.2260  152.1557 C   0  0  0  0  0  0  0  0  0  0  0  0
  151.9963  137.1455  154.2972 H   0  0  0  0  0  0  0  0  0  0  0  0
  151.5777  138.2759  155.5798 H   0  0  0  0  0  0  0  0  0  0  0  0
  152.1890  138.8735  154.0205 H   0  0  0  0  0  0  0  0  0  0  0  0
  149.8576  142.3200  155.4289 H   0  0  0  0  0  0  0  0  0  0  0  0
  147.5148  142.5856  154.5772 H   0  0  0  0  0  0  0  0  0  0  0  0
  146.4412  140.6860  153.4083 H   0  0  0  0  0  0  0  0  0  0  0  0
  148.3696  137.5067  152.7641 H   0  0  0  0  0  0  0  0  0  0  0  0
  147.2120  136.1972  151.9150 H   0  0  0  0  0  0  0  0  0  0  0  0
  144.3738  136.7775  151.3678 H   0  0  0  0  0  0  0  0  0  0  0  0
  145.3830  135.5450  150.6730 H   0  0  0  0  0  0  0  0  0  0  0  0
  144.7575  136.1700  154.4615 H   0  0  0  0  0  0  0  0  0  0  0  0
  146.2265  135.3438  154.0220 H   0  0  0  0  0  0  0  0  0  0  0  0
  144.8847  134.4414  154.7262 H   0  0  0  0  0  0  0  0  0  0  0  0
  142.7504  136.0545  153.2701 H   0  0  0  0  0  0  0  0  0  0  0  0
  142.5914  134.3112  153.3385 H   0  0  0  0  0  0  0  0  0  0  0  0
  142.5204  135.1597  151.7937 H   0  0  0  0  0  0  0  0  0  0  0  0
  143.1553  133.2497  150.9674 H   0  0  0  0  0  0  0  0  0  0  0  0
  144.6085  133.6730  150.0819 H   0  0  0  0  0  0  0  0  0  0  0  0
  144.0417  131.0086  151.4926 H   0  0  0  0  0  0  0  0  0  0  0  0
  144.0582  131.2917  149.7626 H   0  0  0  0  0  0  0  0  0  0  0  0
  146.1297  131.1249  152.7006 H   0  0  0  0  0  0  0  0  0  0  0  0
  147.5934  131.4915  151.8090 H   0  0  0  0  0  0  0  0  0  0  0  0
  146.8437  133.7986  151.3781 H   0  0  0  0  0  0  0  0  0  0  0  0
  146.8291  133.4570  153.0988 H   0  0  0  0  0  0  0  0  0  0  0  0
  144.4983  132.9880  152.9187 H   0  0  0  0  0  0  0  0  0  0  0  0
  1  2  1  0  0  0  0
  1 23  1  0  0  0  0
  1 24  1  0  0  0  0
  1 25  1  0  0  0  0
  2  3  1  0  0  0  0
  3  8  1  0  0  0  0
  3  4  2  0  0  0  0
  4  5  1  0  0  0  0
  5  6  2  0  0  0  0
  5 26  1  0  0  0  0
  6  7  1  0  0  0  0
  6 27  1  0  0  0  0
  7  8  2  0  0  0  0
  7 28  1  0  0  0  0
  8  9  1  0  0  0  0
  9 10  1  0  0  0  0
  9 29  1  0  0  0  0
 10 11  2  0  0  0  0
 10 12  1  0  0  0  0
 12 13  1  0  0  0  0
 12 30  1  0  0  0  0
 13 14  1  0  0  0  0
 13 31  1  0  0  0  0
 13 32  1  0  0  0  0
 14 15  1  0  0  0  0
 14 16  1  0  0  0  0
 14 17  1  0  0  0  0
 15 33  1  0  0  0  0
 15 34  1  0  0  0  0
 15 35  1  0  0  0  0
 16 36  1  0  0  0  0
 16 37  1  0  0  0  0
 16 38  1  0  0  0  0
 17 22  1  0  0  0  0
 17 18  1  0  0  0  0
 17 47  1  0  0  0  0
 18 19  1  0  0  0  0
 18 39  1  0  0  0  0
 18 40  1  0  0  0  0
 19 20  1  0  0  0  0
 19 41  1  0  0  0  0
 19 42  1  0  0  0  0
 20 21  1  0  0  0  0
 21 22  1  0  0  0  0
 21 43  1  0  0  0  0
 21 44  1  0  0  0  0
 22 45  1  0  0  0  0
 22 46  1  0  0  0  0
M  CHG  1  17   1
M  END
> <s_m_source_file>
AV-unprocessed.smi

> <i_m_source_file_index>
1728

> <i_lp_mmshare_version>
43012

> <i_f3d_flags>
0

> <s_epik_input>
W0NIM11PYzFuW2NIXVtjSF1bY0hdYzFbTkhdQyg9TylbTkhdW0NIMl1DKFtDSDNdKShbQ0gzXSlOMltDSDJdW0NIMl1PW0NIMl1bQ0gyXTI=

> <s_epik_cmdline>
J2VwaWtfcHl0aG9uJywgJy1waCcsICc3LjAnLCAnLXRuJywgJzgnLCAnLW1hJywgJzIwMCcsICctbWV0YWxfYmluZGluZycsICctaW1hZScsICc8aW5maWxlLm1hZT4nLCAnLW9tYWUnLCAnPG91dGZpbGUubWFlPic=

> <r_lp_tautomer_probability>
1

> <r_epik_Ionization_Penalty>
0.602608

> <r_epik_Ionization_Penalty_Charging>
0.602531

> <r_epik_Ionization_Penalty_Neutral>
7.74611e-05

> <r_epik_State_Penalty>
0.617039

> <r_epik_Charging_Adjusted_Penalty>
1.21957

> <i_epik_Tot_Q>
1

> <i_epik_Tot_abs_Q>
1

> <r_epik_Metal_State_Penalty>
0.617043

> <b_epik_Metal_Only>
0

> <s_lp_Force_Field>
OPLS_2005

> <r_lp_Energy>
27.5646

> <b_lp_Chiralities_Consistent>
1

> <s_lp_Variant>
AV-unprocessed.smi:1728-2

> <Gold.Version>
5.8.1

> <Gold.Id.Protein>
6NUR|6NUR_protein|mol2

> <Gold.PLP.Fitness>
40.4034

> <Gold.PLP.PLP>
-32.5719

> <Gold.PLP.part.hbond>
-3.5350

> <Gold.PLP.part.metal>
0.0000

> <Gold.PLP.part.buried>
-2.5102

> <Gold.PLP.part.nonpolar>
-31.7120

> <Gold.PLP.part.repulsive>
4.2925

> <Gold.PLP.ligand.clash>
1.4701

> <Gold.PLP.ligand.torsion>
1.1799

> <Gold.PLP.Chemscore.Hbond>
2.9200

> <Gold.PLP.Chemscore.CHOScore>
0.9341

> <Gold.PLP.Chemscore.Metal>
0.0000

> <Gold.Chemscore.Hbonds>
donor molecule, donor type, donor heavy atom, donor atom, acceptor molecule, acceptor atom, score
      L1  H     9    29       P1  7948  1.00
      L1  H    12    30       P1  7948  0.99
      P1  H  7989  7998       L1     4  0.89
      L1  C     5    26       P1  8028  0.74

> <Gold.PLP.Chemscore.Internal.Correction>
0.0992

> <Gold.Rescore>
     Score         DG    S(hbond)    S(metal)    S(lipo)     H(rot)  DE(clash)    DE(int)     intcor
     12.80     -16.88       2.02        0.00      78.28       1.76       1.78       2.30       ----

> <Gold.Chemscore.Fitness>
12.7966

> <Gold.Chemscore.DG>
-16.8813

> <Gold.Chemscore.ZeroCoef>
-5.4800

> <Gold.Chemscore.Hbond>
2.0186

> <Gold.Chemscore.Metal>
0.0000

> <Gold.Chemscore.Lipo>
78.2809

> <Gold.Chemscore.Internal_Hbond>
0.0000

> <Gold.Chemscore.DEClash>
1.7815

> <Gold.Chemscore.DEInternal>
2.3033

> <Gold.Chemscore.Rot>
1.7577

> <Gold.Chemscore.Internal.Correction>
   9.000000E+99

> <Gold.Chemscore.Hbonds>
donor molecule, donor type, donor heavy atom, donor atom, acceptor molecule, acceptor atom, score
      L1  H     9    29       P1  7948  0.97
      L1  H    12    30       P1  7948  0.94
      P1  H  7989  7998       L1     4  0.14

> <Gold.Chemscore.Hbond.Weighted>
-6.7422

> <Gold.Chemscore.Metal.Weighted>
-0.0000

> <Gold.Chemscore.Lipo.Weighted>
-9.1589

> <Gold.Chemscore.Internal_Hbond.Weighted>
0.0000

> <Gold.Chemscore.DEClash.Weighted>
1.7815

> <Gold.Chemscore.DEInternal.Weighted>
2.3033

> <Gold.Chemscore.Rot.Weighted>
4.4997

> <Gold.Chemscore.Internal.Correction.Weighted>
   9.000000E+99

> <Gold.Protein.RotatedTorsions>
[ 6907 6896 6895 6894 ] final -119.55 input  -60.11 | X-H torsion
[ 7974 7965 7964 7962 ] final   72.72 input  175.53 | X-H torsion
[ 8008 7997 7996 7995 ] final   38.33 input   59.86 | X-H torsion
[ 10167 10162 10161 10158 ] final  -17.71 input  -65.29 | X-H torsion
[ 10718 10713 10712 10709 ] final   54.00 input   66.30 | X-H torsion
[ 10763 10752 10751 10750 ] final -165.00 input  -60.55 | X-H torsion
[ 11005 11000 10999 10996 ] final  -80.34 input  -57.11 | X-H torsion

> <Gold.Protein.ActiveResidues>
 VAL166  LYS551  ARG553  GLY616  TRP617  ASP618  TYR619  PRO620  LYS621  CYS622 
 ASP623  PHE694  ASN695  SER759  ASP760  ASP761  ALA762  ILE779  LEU786  VAL792 
 PHE793  MET794  SER795  GLU796  ALA797  LYS798  CYS799  TRP800  GLU811  SER814 

> <Gold.Protein.RotatedAtoms>
  150.8315  133.8083  159.3096 H   0  0  0  0  0  0  0  0  0  0  0  0  # atno 6907 bound_to 6896
  151.5812  135.1056  160.0027 H   0  0  0  0  0  0  0  0  0  0  0  0  # atno 6908 bound_to 6896
  152.4394  133.7378  159.6680 H   0  0  0  0  0  0  0  0  0  0  0  0  # atno 6909 bound_to 6896
  145.7498  139.2755  143.1438 H   0  0  0  0  0  0  0  0  0  0  0  0  # atno 7974 bound_to 7965
  155.2184  140.3329  155.4319 H   0  0  0  0  0  0  0  0  0  0  0  0  # atno 8008 bound_to 7997
  156.2343  140.1865  156.7209 H   0  0  0  0  0  0  0  0  0  0  0  0  # atno 8009 bound_to 7997
  154.6031  140.0620  156.9381 H   0  0  0  0  0  0  0  0  0  0  0  0  # atno 8010 bound_to 7997
  140.7250  143.4989  150.9895 H   0  0  0  0  0  0  0  0  0  0  0  0  # atno 10167 bound_to 10162
  157.5218  130.8570  149.8568 H   0  0  0  0  0  0  0  0  0  0  0  0  # atno 10718 bound_to 10713
  154.6974  135.2981  154.9391 H   0  0  0  0  0  0  0  0  0  0  0  0  # atno 10763 bound_to 10752
  154.0334  135.6667  153.4787 H   0  0  0  0  0  0  0  0  0  0  0  0  # atno 10764 bound_to 10752
  153.0656  135.5090  154.8099 H   0  0  0  0  0  0  0  0  0  0  0  0  # atno 10765 bound_to 10752
  141.1668  133.7146  156.8259 H   0  0  0  0  0  0  0  0  0  0  0  0  # atno 11005 bound_to 11000
  146.0368  140.8205  142.9849 LP  0  0  0  0  0  0  0  0  0  0  0  0  # atno 17320 bound_to 7965
  144.6852  140.2850  143.7286 LP  0  0  0  0  0  0  0  0  0  0  0  0  # atno 17321 bound_to 7965
  139.8697  143.7208  152.3167 LP  0  0  0  0  0  0  0  0  0  0  0  0  # atno 17342 bound_to 10162
  139.7452  144.7549  151.0590 LP  0  0  0  0  0  0  0  0  0  0  0  0  # atno 17343 bound_to 10162
  156.0359  130.3751  150.1563 LP  0  0  0  0  0  0  0  0  0  0  0  0  # atno 17370 bound_to 10713
  156.9751  130.9846  151.3450 LP  0  0  0  0  0  0  0  0  0  0  0  0  # atno 17371 bound_to 10713
  140.2086  134.8844  157.3249 LP  0  0  0  0  0  0  0  0  0  0  0  0  # atno 17394 bound_to 11000
  140.2111  134.4138  155.7612 LP  0  0  0  0  0  0  0  0  0  0  0  0  # atno 17395 bound_to 11000

$$$$
