#       Name:                AV-unprocessed.smi:2243
#       Creating user name   scv26
#       Creation time:       Fri Mar 27 12:26:57 2020


#       File generated by GOLD software.
#

@<TRIPOS>MOLECULE
AV-unprocessed.smi:2243
    41    42     1
SMALL
NO_CHARGES


@<TRIPOS>ATOM
      1 ****        -1.4705  -0.9631  -2.2338 C.3            1 S1                 0.0000
      2 ****        -1.0285  -0.2540  -0.9420 C.3            1 S1                 0.0000
      3 ****         0.4342  -0.2085  -0.9302 N.am           1 S1                 0.0000
      4 ****         1.1899   0.9004  -0.9250 C.2            1 S1                 0.0000
      5 ****         0.7304   2.0427  -0.9214 O.2            1 S1                 0.0000
      6 ****         2.4981   0.5947  -0.9210 N.am           1 S1                 0.0000
      7 ****         3.5951   1.4928  -0.9117 C.2            1 S1                 0.0000
      8 ****         3.5323   2.8253  -0.9083 N.2            1 S1                 0.0000
      9 ****         4.8569   3.2378  -0.8996 C.2            1 S1                 0.0000
     10 ****         5.6525   2.1209  -0.8983 C.2            1 S1                 0.0000
     11 ****         4.8628   1.0025  -0.9064 O.3            1 S1                 0.0000
     12 ****        -1.5612  -0.9343   0.3473 C.3            1 S1                 0.0000
     13 ****        -3.1021  -0.9710   0.4042 C.3            1 S1                 0.0000
     14 ****        -3.5996  -1.5760   1.7270 C.3            1 S1                 0.0000
     15 ****        -3.0763  -0.8422   2.8268 O.3            1 S1                 0.0000
     16 ****        -1.6566  -0.8917   2.8908 C.3            1 S1                 0.0000
     17 ****        -1.0501  -0.2488   1.6332 C.3            1 S1                 0.0000
     18 ****        -2.5497  -0.9128  -2.3746 H              1 S1                 0.0000
     19 ****        -1.1799  -2.0142  -2.2305 H              1 S1                 0.0000
     20 ****        -1.0170  -0.4967  -3.1094 H              1 S1                 0.0000
     21 ****        -1.4291   0.7609  -0.9748 H              1 S1                 0.0000
     22 ****         0.9087  -1.0996  -0.9292 H              1 S1                 0.0000
     23 ****         2.7366  -0.3859  -0.9245 H              1 S1                 0.0000
     24 ****         5.1273   4.2834  -0.8950 H              1 S1                 0.0000
     25 ****         6.7205   1.9610  -0.8927 H              1 S1                 0.0000
     26 ****        -1.2032  -1.9652   0.3578 H              1 S1                 0.0000
     27 ****        -3.5006   0.0386   0.2961 H              1 S1                 0.0000
     28 ****        -3.5058  -1.5569  -0.4210 H              1 S1                 0.0000
     29 ****        -4.6883  -1.5405   1.7676 H              1 S1                 0.0000
     30 ****        -3.3128  -2.6257   1.8068 H              1 S1                 0.0000
     31 ****        -1.3263  -0.3552   3.7805 H              1 S1                 0.0000
     32 ****        -1.3221  -1.9244   3.0001 H              1 S1                 0.0000
     33 ****         0.0366  -0.3061   1.6987 H              1 S1                 0.0000
     34 ****        -1.3038   0.8119   1.6112 H              1 S1                 0.0000
     35 ****        -0.2596   2.1834  -0.9222 LP             1 S1                 0.0000
     36 ****         1.3473   2.8298  -0.9176 LP             1 S1                 0.0000
     37 ****         2.7132   3.3989  -0.9113 LP             1 S1                 0.0000
     38 ****         5.0343   0.4526  -1.7238 LP             1 S1                 0.0000
     39 ****         5.0254   0.4471  -0.0908 LP             1 S1                 0.0000
     40 ****        -3.4486  -1.2239   3.6728 LP             1 S1                 0.0000
     41 ****        -3.3599   0.1127   2.7388 LP             1 S1                 0.0000
@<TRIPOS>BOND
    1    1    2 1     
    2    1   18 1     
    3    1   19 1     
    4    1   20 1     
    5    2    3 1     
    6    2   12 1     
    7    2   21 1     
    8    3    4 am    
    9    3   22 1     
   10    4    5 2     
   11    4    6 am    
   12    6    7 1     
   13    6   23 1     
   14    7   11 1     
   15    7    8 2     
   16    8    9 1     
   17    9   10 2     
   18    9   24 1     
   19   10   11 1     
   20   10   25 1     
   21   12   17 1     
   22   12   13 1     
   23   12   26 1     
   24   13   14 1     
   25   13   27 1     
   26   13   28 1     
   27   14   15 1     
   28   14   29 1     
   29   14   30 1     
   30   15   16 1     
   31   16   17 1     
   32   16   31 1     
   33   16   32 1     
   34   17   33 1     
   35   17   34 1     
   36    5   35 1     
   37    5   36 1     
   38    8   37 1     
   39   11   38 1     
   40   11   39 1     
   41   15   40 1     
   42   15   41 1     
@<TRIPOS>SUBSTRUCTURE
      1 S1             1
@<TRIPOS>SET
LONE_PAIRS      STATIC     ATOMS    <user>   **** ""
7 35 36 37 38 39 40 41
DONOR_HYDROGENS      STATIC     ATOMS    <user>   **** ""
2 22 23
ATOM$BLUE        STATIC     ATOMS    COLORGROUP SYSTEM
7 35 36 37 38 39 40 41
ATOM$RED        STATIC     ATOMS    COLORGROUP SYSTEM
2 22 23
