AV-unprocessed.smi:2061|AV-procd|sdf|8361|dock7
  -GOLD-   2272011 33D 1   1.00000     0.00000
 Structure written by MMmdl.
 45 46  0  0  0  0  0  0  0  0  1 V2000
  144.1927  143.5883  162.8548 C   0  0  0  0  0  0  0  0  0  0  0  0
  144.6689  143.7234  161.4491 C   0  0  0  0  0  0  0  0  0  0  0  0
  145.8413  143.3934  160.8292 C   0  0  0  0  0  0  0  0  0  0  0  0
  145.6154  143.7917  159.4849 C   0  0  0  0  0  0  0  0  0  0  0  0
  146.6137  143.6097  158.4941 N   0  0  0  0  0  0  0  0  0  0  0  0
  147.3512  142.5093  158.2673 C   0  0  0  0  0  0  0  0  0  0  0  0
  147.2510  141.4500  158.8869 O   0  0  0  0  0  0  0  0  0  0  0  0
  148.2283  142.7098  157.2726 N   0  0  0  0  0  0  0  0  0  0  0  0
  149.1910  141.7285  156.7766 C   0  0  0  0  0  0  0  0  0  0  0  0
  150.0303  141.0733  157.9104 C   0  0  1  0  0  0  0  0  0  0  0  0
  150.3203  139.5960  157.5396 C   0  0  0  0  0  0  0  0  0  0  0  0
  151.2607  141.8319  158.2384 N   0  0  0  0  0  0  0  0  0  0  0  0
  150.9859  143.2112  158.6557 C   0  0  0  0  0  0  0  0  0  0  0  0
  152.2615  143.9955  159.0187 C   0  0  1  0  0  0  0  0  0  0  0  0
  151.9487  145.4057  159.5303 C   0  0  0  0  0  0  0  0  0  0  0  0
  152.9639  143.2987  160.0396 O   0  0  0  0  0  0  0  0  0  0  0  0
  153.3267  141.9802  159.6516 C   0  0  1  0  0  0  0  0  0  0  0  0
  154.1023  141.3366  160.8058 C   0  0  0  0  0  0  0  0  0  0  0  0
  152.0530  141.1913  159.2942 C   0  0  0  0  0  0  0  0  0  0  0  0
  144.4145  144.3187  159.3011 N   0  0  0  0  0  0  0  0  0  0  0  0
  143.8017  144.2773  160.5589 O   0  0  0  0  0  0  0  0  0  0  0  0
  145.0221  143.6784  163.5562 H   0  0  0  0  0  0  0  0  0  0  0  0
  143.7213  142.6177  163.0094 H   0  0  0  0  0  0  0  0  0  0  0  0
  143.4627  144.3614  163.0959 H   0  0  0  0  0  0  0  0  0  0  0  0
  146.7163  142.9381  161.2691 H   0  0  0  0  0  0  0  0  0  0  0  0
  146.7967  144.4081  157.9047 H   0  0  0  0  0  0  0  0  0  0  0  0
  148.2375  143.6144  156.8251 H   0  0  0  0  0  0  0  0  0  0  0  0
  148.7058  140.9563  156.1770 H   0  0  0  0  0  0  0  0  0  0  0  0
  149.8234  142.2924  156.0939 H   0  0  0  0  0  0  0  0  0  0  0  0
  149.4002  141.0573  158.8012 H   0  0  0  0  0  0  0  0  0  0  0  0
  149.4166  139.0486  157.2762 H   0  0  0  0  0  0  0  0  0  0  0  0
  150.7520  139.0354  158.3671 H   0  0  0  0  0  0  0  0  0  0  0  0
  151.0031  139.5288  156.6920 H   0  0  0  0  0  0  0  0  0  0  0  0
  150.4958  143.7630  157.8560 H   0  0  0  0  0  0  0  0  0  0  0  0
  150.3030  143.2092  159.5066 H   0  0  0  0  0  0  0  0  0  0  0  0
  152.9027  144.0775  158.1392 H   0  0  0  0  0  0  0  0  0  0  0  0
  151.4190  145.9886  158.7764 H   0  0  0  0  0  0  0  0  0  0  0  0
  152.8649  145.9408  159.7810 H   0  0  0  0  0  0  0  0  0  0  0  0
  151.3275  145.3714  160.4258 H   0  0  0  0  0  0  0  0  0  0  0  0
  153.9799  142.0331  158.7789 H   0  0  0  0  0  0  0  0  0  0  0  0
  154.4165  140.3243  160.5509 H   0  0  0  0  0  0  0  0  0  0  0  0
  153.4938  141.2819  161.7089 H   0  0  0  0  0  0  0  0  0  0  0  0
  154.9972  141.9127  161.0416 H   0  0  0  0  0  0  0  0  0  0  0  0
  151.4398  141.0625  160.1876 H   0  0  0  0  0  0  0  0  0  0  0  0
  152.3728  140.1984  158.9837 H   0  0  0  0  0  0  0  0  0  0  0  0
  1  2  1  0  0  0  0
  1 22  1  0  0  0  0
  1 23  1  0  0  0  0
  1 24  1  0  0  0  0
  2 21  1  0  0  0  0
  2  3  2  0  0  0  0
  3  4  1  0  0  0  0
  3 25  1  0  0  0  0
  4  5  1  0  0  0  0
  4 20  2  0  0  0  0
  5  6  1  0  0  0  0
  5 26  1  0  0  0  0
  6  7  2  0  0  0  0
  6  8  1  0  0  0  0
  8  9  1  0  0  0  0
  8 27  1  0  0  0  0
  9 10  1  0  0  0  0
  9 28  1  0  0  0  0
  9 29  1  0  0  0  0
 10 11  1  0  0  0  0
 10 12  1  0  0  0  0
 10 30  1  0  0  0  0
 11 31  1  0  0  0  0
 11 32  1  0  0  0  0
 11 33  1  0  0  0  0
 12 19  1  0  0  0  0
 12 13  1  0  0  0  0
 13 14  1  0  0  0  0
 13 34  1  0  0  0  0
 13 35  1  0  0  0  0
 14 15  1  0  0  0  0
 14 16  1  0  0  0  0
 14 36  1  0  0  0  0
 15 37  1  0  0  0  0
 15 38  1  0  0  0  0
 15 39  1  0  0  0  0
 16 17  1  0  0  0  0
 17 18  1  0  0  0  0
 17 19  1  0  0  0  0
 17 40  1  0  0  0  0
 18 41  1  0  0  0  0
 18 42  1  0  0  0  0
 18 43  1  0  0  0  0
 19 44  1  0  0  0  0
 19 45  1  0  0  0  0
 20 21  1  0  0  0  0
M  END
> <s_m_source_file>
AV-unprocessed.smi

> <i_m_source_file_index>
2061

> <i_lp_mmshare_version>
43012

> <i_f3d_flags>
0

> <s_epik_input>
W0NIM11jMVtjSF1jKG5vMSlbTkhdQyg9TylbTkhdW0NIMl1bQ0BIXShbQ0gzXSlOMltDSDJdW0NAQEhdKFtDSDNdKU9bQ0BASF0oW0NIM10pW0NIMl0y

> <s_epik_cmdline>
J2VwaWtfcHl0aG9uJywgJy1waCcsICc3LjAnLCAnLXRuJywgJzgnLCAnLW1hJywgJzIwMCcsICctbWV0YWxfYmluZGluZycsICctaW1hZScsICc8aW5maWxlLm1hZT4nLCAnLW9tYWUnLCAnPG91dGZpbGUubWFlPic=

> <r_epik_Ionization_Penalty>
0.214073

> <r_epik_Ionization_Penalty_Charging>
0

> <r_epik_Ionization_Penalty_Neutral>
0.214073

> <r_epik_State_Penalty>
0.204211

> <r_epik_Charging_Adjusted_Penalty>
0.204211

> <i_epik_Tot_Q>
0

> <i_epik_Tot_abs_Q>
0

> <r_epik_Metal_State_Penalty>
0.217067

> <b_epik_Metal_Only>
0

> <s_lp_Force_Field>
OPLS_2005

> <r_lp_Energy>
26.0702

> <b_lp_Chiralities_Consistent>
1

> <s_lp_Variant>
AV-unprocessed.smi:2061-2

> <Gold.Version>
5.8.1

> <Gold.Id.Protein>
6NUR|6NUR_protein|mol2

> <Gold.PLP.Fitness>
42.5406

> <Gold.PLP.PLP>
-38.3046

> <Gold.PLP.part.hbond>
-3.3073

> <Gold.PLP.part.metal>
0.0000

> <Gold.PLP.part.buried>
-4.5420

> <Gold.PLP.part.nonpolar>
-30.5145

> <Gold.PLP.part.repulsive>
0.2294

> <Gold.PLP.ligand.clash>
0.0000

> <Gold.PLP.ligand.torsion>
0.8511

> <Gold.PLP.Chemscore.Hbond>
1.9680

> <Gold.PLP.Chemscore.CHOScore>
0.0000

> <Gold.PLP.Chemscore.Metal>
0.0000

> <Gold.Chemscore.Hbonds>
donor molecule, donor type, donor heavy atom, donor atom, acceptor molecule, acceptor atom, score
      L1  H     5    26       P1  8029  1.00
      L1  H     8    27       P1  8028  0.60
      P1  H  6934  6946       L1     7  0.35

> <Gold.PLP.Chemscore.Internal.Correction>
0.0343

> <Gold.Rescore>
     Score         DG    S(hbond)    S(metal)    S(lipo)     H(rot)  DE(clash)    DE(int)     intcor
     14.34     -16.20       1.11        0.00      93.93       1.55       0.02       1.84       ----

> <Gold.Chemscore.Fitness>
14.3390

> <Gold.Chemscore.DG>
-16.1997

> <Gold.Chemscore.ZeroCoef>
-5.4800

> <Gold.Chemscore.Hbond>
1.1050

> <Gold.Chemscore.Metal>
0.0000

> <Gold.Chemscore.Lipo>
93.9331

> <Gold.Chemscore.Internal_Hbond>
0.0000

> <Gold.Chemscore.DEClash>
0.0237

> <Gold.Chemscore.DEInternal>
1.8370

> <Gold.Chemscore.Rot>
1.5474

> <Gold.Chemscore.Internal.Correction>
   9.000000E+99

> <Gold.Chemscore.Hbonds>
donor molecule, donor type, donor heavy atom, donor atom, acceptor molecule, acceptor atom, score
      L1  H     5    26       P1  8029  0.29
      L1  H     8    27       P1  8028  0.04
      P1  H  6934  6946       L1     7  0.34

> <Gold.Chemscore.Hbond.Weighted>
-3.6908

> <Gold.Chemscore.Metal.Weighted>
-0.0000

> <Gold.Chemscore.Lipo.Weighted>
-10.9902

> <Gold.Chemscore.Internal_Hbond.Weighted>
0.0000

> <Gold.Chemscore.DEClash.Weighted>
0.0237

> <Gold.Chemscore.DEInternal.Weighted>
1.8370

> <Gold.Chemscore.Rot.Weighted>
3.9612

> <Gold.Chemscore.Internal.Correction.Weighted>
   9.000000E+99

> <Gold.Protein.RotatedTorsions>
[ 6907 6896 6895 6894 ] final  -28.89 input  -60.11 | X-H torsion
[ 7974 7965 7964 7962 ] final   15.63 input  175.53 | X-H torsion
[ 8008 7997 7996 7995 ] final  126.30 input   59.86 | X-H torsion
[ 10167 10162 10161 10158 ] final  162.71 input  -65.29 | X-H torsion
[ 10718 10713 10712 10709 ] final  -56.77 input   66.30 | X-H torsion
[ 10763 10752 10751 10750 ] final -164.88 input  -60.55 | X-H torsion
[ 11005 11000 10999 10996 ] final  165.16 input  -57.11 | X-H torsion

> <Gold.Protein.ActiveResidues>
 VAL166  LYS551  ARG553  GLY616  TRP617  ASP618  TYR619  PRO620  LYS621  CYS622 
 ASP623  PHE694  ASN695  SER759  ASP760  ASP761  ALA762  ILE779  LEU786  VAL792 
 PHE793  MET794  SER795  GLU796  ALA797  LYS798  CYS799  TRP800  GLU811  SER814 

> <Gold.Protein.RotatedAtoms>
  151.1268  135.0109  159.8563 H   0  0  0  0  0  0  0  0  0  0  0  0  # atno 6907 bound_to 6896
  152.5450  134.1658  159.8586 H   0  0  0  0  0  0  0  0  0  0  0  0  # atno 6908 bound_to 6896
  151.1721  133.4733  159.2627 H   0  0  0  0  0  0  0  0  0  0  0  0  # atno 6909 bound_to 6896
  146.2273  139.8866  142.8562 H   0  0  0  0  0  0  0  0  0  0  0  0  # atno 7974 bound_to 7965
  156.2860  140.2696  156.2089 H   0  0  0  0  0  0  0  0  0  0  0  0  # atno 8008 bound_to 7997
  155.0285  140.0386  157.2483 H   0  0  0  0  0  0  0  0  0  0  0  0  # atno 8009 bound_to 7997
  154.7375  140.2718  155.6407 H   0  0  0  0  0  0  0  0  0  0  0  0  # atno 8010 bound_to 7997
  139.4864  144.4410  151.8951 H   0  0  0  0  0  0  0  0  0  0  0  0  # atno 10167 bound_to 10162
  156.1262  130.4162  150.0350 H   0  0  0  0  0  0  0  0  0  0  0  0  # atno 10718 bound_to 10713
  154.6986  135.2984  154.9374 H   0  0  0  0  0  0  0  0  0  0  0  0  # atno 10763 bound_to 10752
  154.0314  135.6669  153.4785 H   0  0  0  0  0  0  0  0  0  0  0  0  # atno 10764 bound_to 10752
  153.0664  135.5085  154.8118 H   0  0  0  0  0  0  0  0  0  0  0  0  # atno 10765 bound_to 10752
  140.2533  134.7960  157.3522 H   0  0  0  0  0  0  0  0  0  0  0  0  # atno 11005 bound_to 11000
  145.2460  141.0026  143.3909 LP  0  0  0  0  0  0  0  0  0  0  0  0  # atno 17320 bound_to 7965
  144.9413  139.4185  143.6447 LP  0  0  0  0  0  0  0  0  0  0  0  0  # atno 17321 bound_to 7965
  140.3862  144.2673  150.5904 LP  0  0  0  0  0  0  0  0  0  0  0  0  # atno 17342 bound_to 10162
  140.5188  143.2271  151.8421 LP  0  0  0  0  0  0  0  0  0  0  0  0  # atno 17343 bound_to 10162
  156.8275  130.9380  151.3638 LP  0  0  0  0  0  0  0  0  0  0  0  0  # atno 17370 bound_to 10713
  157.6444  130.8832  149.9509 LP  0  0  0  0  0  0  0  0  0  0  0  0  # atno 17371 bound_to 10713
  140.1537  134.4817  155.7943 LP  0  0  0  0  0  0  0  0  0  0  0  0  # atno 17394 bound_to 11000
  141.2199  133.6872  156.7423 LP  0  0  0  0  0  0  0  0  0  0  0  0  # atno 17395 bound_to 11000

$$$$
