#       Name:                AV-unprocessed.smi:1056
#       Creating user name   scv26
#       Creation time:       Fri Mar 27 03:13:31 2020


#       File generated by GOLD software.
#

@<TRIPOS>MOLECULE
AV-unprocessed.smi:1056
    50    52     1
SMALL
NO_CHARGES


@<TRIPOS>ATOM
      1 ****        -3.7385   4.3701  -3.0709 C.3            1 S1                 0.0000
      2 ****        -2.9205   3.4003  -2.2364 C.ar           1 S1                 0.0000
      3 ****        -2.5473   3.7681  -0.9241 C.ar           1 S1                 0.0000
      4 ****        -1.7890   2.8941  -0.1152 C.ar           1 S1                 0.0000
      5 ****        -1.3204   3.0459   1.1787 N.2            1 S1                 0.0000
      6 ****        -0.6889   1.8925   1.3726 C.2            1 S1                 0.0000
      7 ****        -0.6887   1.0107   0.3545 N.pl3          1 S1                 0.0000
      8 ****        -0.0701  -0.3022   0.3383 C.3            1 S1                 0.0000
      9 ****         1.4508  -0.2340   0.0910 C.3            1 S1                 0.0000
     10 ****         1.6963   0.3888  -1.1539 O.3            1 S1                 0.0000
     11 ****         2.1117  -1.6266   0.0584 C.3            1 S1                 0.0000
     12 ****         2.0015  -2.3440   1.3535 N.4            1 S1                 1.0000
     13 ****         2.9514  -1.8648   2.3857 C.3            1 S1                 0.0000
     14 ****         2.6185  -2.5007   3.7472 C.3            1 S1                 0.0000
     15 ****         2.3098  -3.9258   3.6531 N.am           1 S1                 0.0000
     16 ****         2.0378  -4.5905   2.5182 C.2            1 S1                 0.0000
     17 ****         1.7746  -5.7900   2.5185 O.2            1 S1                 0.0000
     18 ****         2.0616  -3.8189   1.1900 C.3            1 S1                 0.0000
     19 ****        -1.4106   1.6318  -0.6595 C.ar           1 S1                 0.0000
     20 ****        -1.7739   1.2553  -1.9645 C.ar           1 S1                 0.0000
     21 ****        -2.5332   2.1400  -2.7586 C.ar           1 S1                 0.0000
     22 ****        -2.9255   1.7226  -4.1650 C.3            1 S1                 0.0000
     23 ****        -3.9315   5.2971  -2.5301 H              1 S1                 0.0000
     24 ****        -4.7004   3.9292  -3.3335 H              1 S1                 0.0000
     25 ****        -3.2104   4.6240  -3.9902 H              1 S1                 0.0000
     26 ****        -2.8429   4.7278  -0.5262 H              1 S1                 0.0000
     27 ****        -0.1955   1.6757   2.3088 H              1 S1                 0.0000
     28 ****        -0.2805  -0.7819   1.2949 H              1 S1                 0.0000
     29 ****        -0.5559  -0.9100  -0.4260 H              1 S1                 0.0000
     30 ****         1.9170   0.3885   0.8546 H              1 S1                 0.0000
     31 ****         1.3034   1.2489  -1.1450 H              1 S1                 0.0000
     32 ****         1.6311  -2.2162  -0.7244 H              1 S1                 0.0000
     33 ****         3.1639  -1.5497  -0.2215 H              1 S1                 0.0000
     34 ****         3.9672  -2.1281   2.0863 H              1 S1                 0.0000
     35 ****         2.9210  -0.7798   2.4790 H              1 S1                 0.0000
     36 ****         3.4415  -2.3535   4.4470 H              1 S1                 0.0000
     37 ****         1.7480  -2.0047   4.1783 H              1 S1                 0.0000
     38 ****         2.2958  -4.4477   4.5183 H              1 S1                 0.0000
     39 ****         1.2228  -4.1494   0.5759 H              1 S1                 0.0000
     40 ****         2.9750  -4.0887   0.6579 H              1 S1                 0.0000
     41 ****        -1.4715   0.2936  -2.3517 H              1 S1                 0.0000
     42 ****        -2.5418   0.7312  -4.4078 H              1 S1                 0.0000
     43 ****        -2.5268   2.4243  -4.8979 H              1 S1                 0.0000
     44 ****        -4.0106   1.6951  -4.2658 H              1 S1                 0.0000
     45 ****         1.0758  -2.1480   1.7068 H              1 S1                 0.0000
     46 ****        -1.4286   3.8196   1.8030 LP             1 S1                 0.0000
     47 ****         1.2940  -0.1574  -1.8886 LP             1 S1                 0.0000
     48 ****         2.6820   0.4706  -1.3007 LP             1 S1                 0.0000
     49 ****         1.7587  -6.2982   3.3796 LP             1 S1                 0.0000
     50 ****         1.5761  -6.2586   1.6577 LP             1 S1                 0.0000
@<TRIPOS>BOND
    1    1    2 1     
    2    1   23 1     
    3    1   24 1     
    4    1   25 1     
    5    2   21 ar    
    6    2    3 ar    
    7    3    4 ar    
    8    3   26 1     
    9    4   19 ar    
   10    4    5 1     
   11    5    6 2     
   12    6    7 1     
   13    6   27 1     
   14    7    8 1     
   15    7   19 1     
   16    8    9 1     
   17    8   28 1     
   18    8   29 1     
   19    9   10 1     
   20    9   11 1     
   21    9   30 1     
   22   10   31 1     
   23   11   12 1     
   24   11   32 1     
   25   11   33 1     
   26   12   18 1     
   27   12   13 1     
   28   12   45 1     
   29   13   14 1     
   30   13   34 1     
   31   13   35 1     
   32   14   15 1     
   33   14   36 1     
   34   14   37 1     
   35   15   16 am    
   36   15   38 1     
   37   16   17 2     
   38   16   18 1     
   39   18   39 1     
   40   18   40 1     
   41   19   20 ar    
   42   20   21 ar    
   43   20   41 1     
   44   21   22 1     
   45   22   42 1     
   46   22   43 1     
   47   22   44 1     
   48    5   46 1     
   49   10   47 1     
   50   10   48 1     
   51   17   49 1     
   52   17   50 1     
@<TRIPOS>SUBSTRUCTURE
      1 S1             1
@<TRIPOS>SET
LONE_PAIRS      STATIC     ATOMS    <user>   **** ""
5 46 47 48 49 50
DONOR_HYDROGENS      STATIC     ATOMS    <user>   **** ""
3 31 45 38
ATOM$BLUE        STATIC     ATOMS    COLORGROUP SYSTEM
5 46 47 48 49 50
ATOM$RED        STATIC     ATOMS    COLORGROUP SYSTEM
3 31 45 38
