#       Name:                AV-unprocessed.smi:86
#       Creating user name   scv26
#       Creation time:       Thu Mar 26 17:22:04 2020


#       File generated by GOLD software.
#

@<TRIPOS>MOLECULE
AV-unprocessed.smi:86
    61    65     1
SMALL
NO_CHARGES


@<TRIPOS>ATOM
      1 ****        -2.5107   0.8625   4.7092 O.3            1 S1                 0.0000
      2 ****        -2.9011   0.0608   3.6128 C.3            1 S1                 0.0000
      3 ****        -2.2754  -1.3423   3.6930 C.3            1 S1                 0.0000
      4 ****        -0.7381  -1.2500   3.6051 C.3            1 S1                 0.0000
      5 ****        -0.2569  -0.7050   2.3443 N.pl3          1 S1                 0.0000
      6 ****        -0.0858  -1.3904   1.1627 C.2            1 S1                 0.0000
      7 ****         0.3576  -0.6773   0.1642 N.2            1 S1                 0.0000
      8 ****         0.5152   0.5956   0.6981 C.ar           1 S1                 0.0000
      9 ****         0.9543   1.8475   0.1812 C.ar           1 S1                 0.0000
     10 ****         1.3504   2.0696  -1.0892 N.3            1 S1                 0.0000
     11 ****         0.3889   1.7767  -2.1411 C.3            1 S1                 0.0000
     12 ****         1.2423   1.6928  -3.4034 C.3            1 S1                 0.0000
     13 ****         0.5771   1.0549  -4.6391 C.3            1 S1                 0.0000
     14 ****         0.4933  -0.4755  -4.5575 C.3            1 S1                 0.0000
     15 ****         1.8767  -1.0764  -4.2704 C.3            1 S1                 0.0000
     16 ****         1.7736  -2.4835  -4.2130 O.3            1 S1                 0.0000
     17 ****         2.4160  -0.5509  -2.9330 C.3            1 S1                 0.0000
     18 ****         2.5161   0.9904  -2.9028 C.3            1 S1                 0.0000
     19 ****         2.6482   1.5109  -1.4587 C.3            1 S1                 0.0000
     20 ****         0.9944   2.9061   1.0261 N.ar           1 S1                 0.0000
     21 ****         0.6205   2.7585   2.3003 C.ar           1 S1                 0.0000
     22 ****         0.1838   1.6602   2.9204 N.ar           1 S1                 0.0000
     23 ****         0.1457   0.5921   2.0728 C.ar           1 S1                 0.0000
     24 ****        -2.8369  -2.2394   4.8047 C.3            1 S1                 0.0000
     25 ****        -3.6811  -2.9558   3.8785 O.3            1 S1                 0.0000
     26 ****        -2.9403  -2.3834   2.7805 C.3            1 S1                 0.0000
     27 ****        -2.8992   1.7183   4.6099 H              1 S1                 0.0000
     28 ****        -3.9897  -0.0033   3.6199 H              1 S1                 0.0000
     29 ****        -2.6354   0.5682   2.6857 H              1 S1                 0.0000
     30 ****        -0.3343  -0.6491   4.4205 H              1 S1                 0.0000
     31 ****        -0.2916  -2.2379   3.7260 H              1 S1                 0.0000
     32 ****        -0.3016  -2.4438   1.0610 H              1 S1                 0.0000
     33 ****        -0.1288   0.8359  -1.9563 H              1 S1                 0.0000
     34 ****        -0.3596   2.5660  -2.2154 H              1 S1                 0.0000
     35 ****         1.5096   2.7173  -3.6692 H              1 S1                 0.0000
     36 ****        -0.4155   1.4795  -4.7920 H              1 S1                 0.0000
     37 ****         1.1589   1.3212  -5.5223 H              1 S1                 0.0000
     38 ****        -0.2116  -0.7659  -3.7771 H              1 S1                 0.0000
     39 ****         0.0985  -0.8704  -5.4943 H              1 S1                 0.0000
     40 ****         2.5670  -0.8197  -5.0749 H              1 S1                 0.0000
     41 ****         1.1771  -2.7124  -3.5167 H              1 S1                 0.0000
     42 ****         1.7585  -0.8931  -2.1346 H              1 S1                 0.0000
     43 ****         3.3951  -0.9842  -2.7251 H              1 S1                 0.0000
     44 ****         3.3722   1.2964  -3.5053 H              1 S1                 0.0000
     45 ****         3.3854   2.3131  -1.4140 H              1 S1                 0.0000
     46 ****         2.9774   0.7296  -0.7714 H              1 S1                 0.0000
     47 ****         0.6789   3.6480   2.9102 H              1 S1                 0.0000
     48 ****        -2.0950  -2.8939   5.2648 H              1 S1                 0.0000
     49 ****        -3.4076  -1.7050   5.5650 H              1 S1                 0.0000
     50 ****        -3.5865  -1.9558   2.0129 H              1 S1                 0.0000
     51 ****        -2.2487  -3.1074   2.3480 H              1 S1                 0.0000
     52 ****        -1.5143   0.9449   4.7285 LP             1 S1                 0.0000
     53 ****        -2.8273   0.4455   5.5612 LP             1 S1                 0.0000
     54 ****         0.5419  -0.9782  -0.7715 LP             1 S1                 0.0000
     55 ****         1.4379   3.0647  -1.0435 LP             1 S1                 0.0000
     56 ****         2.6731  -2.8805  -4.0307 LP             1 S1                 0.0000
     57 ****         1.4257  -2.8320  -5.0834 LP             1 S1                 0.0000
     58 ****         1.3038   3.7979   0.6959 LP             1 S1                 0.0000
     59 ****        -0.0817   1.6248   3.8838 LP             1 S1                 0.0000
     60 ****        -4.6437  -2.6864   3.9084 LP             1 S1                 0.0000
     61 ****        -3.6113  -3.9511   3.9456 LP             1 S1                 0.0000
@<TRIPOS>BOND
    1    1    2 1     
    2    1   27 1     
    3    2    3 1     
    4    2   28 1     
    5    2   29 1     
    6    3   26 1     
    7    3    4 1     
    8    3   24 1     
    9    4    5 1     
   10    4   30 1     
   11    4   31 1     
   12    5   23 1     
   13    5    6 1     
   14    6    7 2     
   15    6   32 1     
   16    7    8 1     
   17    8   23 ar    
   18    8    9 ar    
   19    9   10 1     
   20    9   20 ar    
   21   10   19 1     
   22   10   11 1     
   23   11   12 1     
   24   11   33 1     
   25   11   34 1     
   26   12   18 1     
   27   12   13 1     
   28   12   35 1     
   29   13   14 1     
   30   13   36 1     
   31   13   37 1     
   32   14   15 1     
   33   14   38 1     
   34   14   39 1     
   35   15   16 1     
   36   15   17 1     
   37   15   40 1     
   38   16   41 1     
   39   17   18 1     
   40   17   42 1     
   41   17   43 1     
   42   18   19 1     
   43   18   44 1     
   44   19   45 1     
   45   19   46 1     
   46   20   21 ar    
   47   21   22 ar    
   48   21   47 1     
   49   22   23 ar    
   50   24   25 1     
   51   24   48 1     
   52   24   49 1     
   53   25   26 1     
   54   26   50 1     
   55   26   51 1     
   56    1   52 1     
   57    1   53 1     
   58    7   54 1     
   59   10   55 1     
   60   16   56 1     
   61   16   57 1     
   62   20   58 1     
   63   22   59 1     
   64   25   60 1     
   65   25   61 1     
@<TRIPOS>SUBSTRUCTURE
      1 S1             1
@<TRIPOS>SET
LONE_PAIRS      STATIC     ATOMS    <user>   **** ""
10 52 53 54 55 56 57 58 59 60 61
DONOR_HYDROGENS      STATIC     ATOMS    <user>   **** ""
2 27 41
ATOM$BLUE        STATIC     ATOMS    COLORGROUP SYSTEM
10 52 53 54 55 56 57 58 59 60 61
ATOM$RED        STATIC     ATOMS    COLORGROUP SYSTEM
2 27 41
