AV-unprocessed.smi:1483|AV-procd|sdf|5991|dock9
  -GOLD-   22720 6 83D 1   1.00000     0.00000
 Structure written by MMmdl.
 50 51  0  0  0  0  0  0  0  0  3 V2000
  151.4310  144.9151  159.2167 C   0  0  0  0  0  0  0  0  0  0  0  0
  151.5241  143.5374  158.5960 C   0  0  0  0  0  0  0  0  0  0  0  0
  152.2981  142.5044  159.1668 C   0  0  0  0  0  0  0  0  0  0  0  0
  152.3376  141.2440  158.5355 C   0  0  0  0  0  0  0  0  0  0  0  0
  151.6044  141.0408  157.3454 C   0  0  0  0  0  0  0  0  0  0  0  0
  151.6290  139.6958  156.6413 C   0  0  0  0  0  0  0  0  0  0  0  0
  150.2049  139.1827  156.4269 C   0  0  0  0  0  0  0  0  0  0  0  0
  149.5788  138.6988  157.3692 O   0  0  0  0  0  0  0  0  0  0  0  0
  149.7045  139.2996  155.1866 N   0  0  0  0  0  0  0  0  0  0  0  0
  148.3664  138.8841  154.7766 C   0  0  2  0  0  0  0  0  0  0  0  0
  148.2005  137.3609  154.9175 C   0  0  0  0  0  0  0  0  0  0  0  0
  146.8318  136.8990  154.3898 C   0  0  0  0  0  0  0  0  0  0  0  0
  146.6272  137.3177  152.9786 N   0  3  1  0  0  0  0  0  0  0  0  0
  145.3708  136.7673  152.4070 C   0  0  0  0  0  0  0  0  0  0  0  0
  145.6142  135.6717  151.3460 C   0  0  0  0  0  0  0  0  0  0  0  0
  144.3019  135.3091  150.6353 C   0  0  0  0  0  0  0  0  0  0  0  0
  146.2593  134.4158  151.9558 C   0  0  0  0  0  0  0  0  0  0  0  0
  146.7466  138.7928  152.8264 C   0  0  0  0  0  0  0  0  0  0  0  0
  148.1154  139.2938  153.3172 C   0  0  0  0  0  0  0  0  0  0  0  0
  150.8461  142.1109  156.8220 C   0  0  0  0  0  0  0  0  0  0  0  0
  150.8342  143.3036  157.4570 N   0  3  0  0  0  0  0  0  0  0  0  0
  152.1188  145.0141  160.0571 H   0  0  0  0  0  0  0  0  0  0  0  0
  150.4198  145.0991  159.5805 H   0  0  0  0  0  0  0  0  0  0  0  0
  151.6792  145.6826  158.4832 H   0  0  0  0  0  0  0  0  0  0  0  0
  152.8552  142.6728  160.0769 H   0  0  0  0  0  0  0  0  0  0  0  0
  152.9265  140.4446  158.9613 H   0  0  0  0  0  0  0  0  0  0  0  0
  152.1465  139.7806  155.6846 H   0  0  0  0  0  0  0  0  0  0  0  0
  152.1914  138.9774  157.2395 H   0  0  0  0  0  0  0  0  0  0  0  0
  150.2935  139.7072  154.4749 H   0  0  0  0  0  0  0  0  0  0  0  0
  147.6244  139.3835  155.4032 H   0  0  0  0  0  0  0  0  0  0  0  0
  148.9914  136.8481  154.3676 H   0  0  0  0  0  0  0  0  0  0  0  0
  148.3087  137.0649  155.9618 H   0  0  0  0  0  0  0  0  0  0  0  0
  146.7712  135.8127  154.4646 H   0  0  0  0  0  0  0  0  0  0  0  0
  146.0317  137.3055  155.0108 H   0  0  0  0  0  0  0  0  0  0  0  0
  144.7653  136.3359  153.2057 H   0  0  0  0  0  0  0  0  0  0  0  0
  144.7801  137.5844  151.9897 H   0  0  0  0  0  0  0  0  0  0  0  0
  146.2867  136.0549  150.5795 H   0  0  0  0  0  0  0  0  0  0  0  0
  143.5690  134.9049  151.3344 H   0  0  0  0  0  0  0  0  0  0  0  0
  144.4680  134.5613  149.8591 H   0  0  0  0  0  0  0  0  0  0  0  0
  143.8587  136.1831  150.1569 H   0  0  0  0  0  0  0  0  0  0  0  0
  145.6293  133.9834  152.7339 H   0  0  0  0  0  0  0  0  0  0  0  0
  147.2301  134.6391  152.3983 H   0  0  0  0  0  0  0  0  0  0  0  0
  146.4190  133.6498  151.1963 H   0  0  0  0  0  0  0  0  0  0  0  0
  146.6237  139.0804  151.7833 H   0  0  0  0  0  0  0  0  0  0  0  0
  145.9468  139.2836  153.3832 H   0  0  0  0  0  0  0  0  0  0  0  0
  148.1657  140.3791  153.2196 H   0  0  0  0  0  0  0  0  0  0  0  0
  148.8994  138.8886  152.6754 H   0  0  0  0  0  0  0  0  0  0  0  0
  150.2555  142.0512  155.9191 H   0  0  0  0  0  0  0  0  0  0  0  0
  147.3825  136.9030  152.4515 H   0  0  0  0  0  0  0  0  0  0  0  0
  150.2799  144.0618  157.0585 H   0  0  0  0  0  0  0  0  0  0  0  0
  1  2  1  0  0  0  0
  1 22  1  0  0  0  0
  1 23  1  0  0  0  0
  1 24  1  0  0  0  0
  2 21  1  0  0  0  0
  2  3  2  0  0  0  0
  3  4  1  0  0  0  0
  3 25  1  0  0  0  0
  4  5  2  0  0  0  0
  4 26  1  0  0  0  0
  5  6  1  0  0  0  0
  5 20  1  0  0  0  0
  6  7  1  0  0  0  0
  6 27  1  0  0  0  0
  6 28  1  0  0  0  0
  7  8  2  0  0  0  0
  7  9  1  0  0  0  0
  9 10  1  0  0  0  0
  9 29  1  0  0  0  0
 10 19  1  0  0  0  0
 10 11  1  0  0  0  0
 10 30  1  0  0  0  0
 11 12  1  0  0  0  0
 11 31  1  0  0  0  0
 11 32  1  0  0  0  0
 12 13  1  0  0  0  0
 12 33  1  0  0  0  0
 12 34  1  0  0  0  0
 13 14  1  0  0  0  0
 13 18  1  0  0  0  0
 13 49  1  0  0  0  0
 14 15  1  0  0  0  0
 14 35  1  0  0  0  0
 14 36  1  0  0  0  0
 15 16  1  0  0  0  0
 15 17  1  0  0  0  0
 15 37  1  0  0  0  0
 16 38  1  0  0  0  0
 16 39  1  0  0  0  0
 16 40  1  0  0  0  0
 17 41  1  0  0  0  0
 17 42  1  0  0  0  0
 17 43  1  0  0  0  0
 18 19  1  0  0  0  0
 18 44  1  0  0  0  0
 18 45  1  0  0  0  0
 19 46  1  0  0  0  0
 19 47  1  0  0  0  0
 20 21  2  0  0  0  0
 20 48  1  0  0  0  0
 21 50  1  0  0  0  0
M  CHG  1  13   1
M  CHG  1  21   1
M  END
> <s_m_source_file>
AV-unprocessed.smi

> <i_m_source_file_index>
1483

> <i_lp_mmshare_version>
43012

> <i_f3d_flags>
0

> <s_epik_input>
W0NIM11jMVtjSF1bY0hdYyhbY0hdbjEpW0NIMl1DKD1PKVtOSF1bQ0hdMltDSDJdW0NIMl1OKFtDSDJdW0NIMl0yKVtDSDJdW0NIXShbQ0gzXSlbQ0gzXQ==

> <s_epik_cmdline>
J2VwaWtfcHl0aG9uJywgJy1waCcsICc3LjAnLCAnLXRuJywgJzgnLCAnLW1hJywgJzIwMCcsICctbWV0YWxfYmluZGluZycsICctaW1hZScsICc8aW5maWxlLm1hZT4nLCAnLW9tYWUnLCAnPG91dGZpbGUubWFlPic=

> <r_epik_Ionization_Penalty>
2.20554

> <r_epik_Ionization_Penalty_Charging>
2.20554

> <r_epik_Ionization_Penalty_Neutral>
2.83835e-07

> <r_epik_State_Penalty>
2.34446

> <r_epik_Charging_Adjusted_Penalty>
4.55

> <i_epik_Tot_Q>
2

> <i_epik_Tot_abs_Q>
2

> <r_epik_Metal_State_Penalty>
2.35906

> <b_epik_Metal_Only>
0

> <s_lp_Force_Field>
OPLS_2005

> <r_lp_Energy>
27.324

> <b_lp_Chiralities_Consistent>
1

> <s_lp_Variant>
AV-unprocessed.smi:1483-3

> <Gold.Version>
5.8.1

> <Gold.Id.Protein>
6NUR|6NUR_protein|mol2

> <Gold.PLP.Fitness>
44.9898

> <Gold.PLP.PLP>
-35.1343

> <Gold.PLP.part.hbond>
-2.0000

> <Gold.PLP.part.metal>
0.0000

> <Gold.PLP.part.buried>
-1.2186

> <Gold.PLP.part.nonpolar>
-32.3620

> <Gold.PLP.part.repulsive>
0.0970

> <Gold.PLP.ligand.clash>
0.0000

> <Gold.PLP.ligand.torsion>
1.0244

> <Gold.PLP.Chemscore.Hbond>
3.9520

> <Gold.PLP.Chemscore.CHOScore>
0.0000

> <Gold.PLP.Chemscore.Metal>
0.0000

> <Gold.Chemscore.Hbonds>
donor molecule, donor type, donor heavy atom, donor atom, acceptor molecule, acceptor atom, score
      L1  H    13    49       P1  7948  2.00
      L1  H    21    50       P1  8028  1.85

> <Gold.PLP.Chemscore.Internal.Correction>
0.0483

> <Gold.Rescore>
     Score         DG    S(hbond)    S(metal)    S(lipo)     H(rot)  DE(clash)    DE(int)     intcor
     18.39     -20.89       1.93        0.00     110.60       1.55       1.51       0.99       ----

> <Gold.Chemscore.Fitness>
18.3870

> <Gold.Chemscore.DG>
-20.8865

> <Gold.Chemscore.ZeroCoef>
-5.4800

> <Gold.Chemscore.Hbond>
1.9279

> <Gold.Chemscore.Metal>
0.0000

> <Gold.Chemscore.Lipo>
110.6001

> <Gold.Chemscore.Internal_Hbond>
0.0000

> <Gold.Chemscore.DEClash>
1.5136

> <Gold.Chemscore.DEInternal>
0.9859

> <Gold.Chemscore.Rot>
1.5520

> <Gold.Chemscore.Internal.Correction>
   9.000000E+99

> <Gold.Chemscore.Hbonds>
donor molecule, donor type, donor heavy atom, donor atom, acceptor molecule, acceptor atom, score
      L1  H    13    49       P1  7948  1.00
      L1  H    21    50       P1  8028  0.80

> <Gold.Chemscore.Hbond.Weighted>
-6.4393

> <Gold.Chemscore.Metal.Weighted>
-0.0000

> <Gold.Chemscore.Lipo.Weighted>
-12.9402

> <Gold.Chemscore.Internal_Hbond.Weighted>
0.0000

> <Gold.Chemscore.DEClash.Weighted>
1.5136

> <Gold.Chemscore.DEInternal.Weighted>
0.9859

> <Gold.Chemscore.Rot.Weighted>
3.9730

> <Gold.Chemscore.Internal.Correction.Weighted>
   9.000000E+99

> <Gold.Protein.RotatedTorsions>
[ 6907 6896 6895 6894 ] final   -1.82 input  -60.11 | X-H torsion
[ 7974 7965 7964 7962 ] final -143.47 input  175.53 | X-H torsion
[ 8008 7997 7996 7995 ] final  -55.64 input   59.86 | X-H torsion
[ 10167 10162 10161 10158 ] final  122.47 input  -65.29 | X-H torsion
[ 10718 10713 10712 10709 ] final  -71.40 input   66.30 | X-H torsion
[ 10763 10752 10751 10750 ] final -107.56 input  -60.55 | X-H torsion
[ 11005 11000 10999 10996 ] final -157.38 input  -57.11 | X-H torsion

> <Gold.Protein.ActiveResidues>
 VAL166  LYS551  ARG553  GLY616  TRP617  ASP618  TYR619  PRO620  LYS621  CYS622 
 ASP623  PHE694  ASN695  SER759  ASP760  ASP761  ALA762  ILE779  LEU786  VAL792 
 PHE793  MET794  SER795  GLU796  ALA797  LYS798  CYS799  TRP800  GLU811  SER814 

> <Gold.Protein.RotatedAtoms>
  151.5398  135.1068  159.9923 H   0  0  0  0  0  0  0  0  0  0  0  0  # atno 6907 bound_to 6896
  152.4540  133.7682  159.6795 H   0  0  0  0  0  0  0  0  0  0  0  0  # atno 6908 bound_to 6896
  150.8478  133.7768  159.3061 H   0  0  0  0  0  0  0  0  0  0  0  0  # atno 6909 bound_to 6896
  144.8367  140.5830  143.5479 H   0  0  0  0  0  0  0  0  0  0  0  0  # atno 7974 bound_to 7965
  154.4202  140.1148  156.5509 H   0  0  0  0  0  0  0  0  0  0  0  0  # atno 8008 bound_to 7997
  155.6411  140.3496  155.4696 H   0  0  0  0  0  0  0  0  0  0  0  0  # atno 8009 bound_to 7997
  155.9870  140.1172  157.0663 H   0  0  0  0  0  0  0  0  0  0  0  0  # atno 8010 bound_to 7997
  139.5856  144.7005  151.3416 H   0  0  0  0  0  0  0  0  0  0  0  0  # atno 10167 bound_to 10162
  156.0364  130.4350  150.2438 H   0  0  0  0  0  0  0  0  0  0  0  0  # atno 10718 bound_to 10713
  154.8083  135.4670  154.0449 H   0  0  0  0  0  0  0  0  0  0  0  0  # atno 10763 bound_to 10752
  153.1900  135.6853  153.8371 H   0  0  0  0  0  0  0  0  0  0  0  0  # atno 10764 bound_to 10752
  153.7892  135.3245  155.3353 H   0  0  0  0  0  0  0  0  0  0  0  0  # atno 10765 bound_to 10752
  140.6653  134.4306  157.5233 H   0  0  0  0  0  0  0  0  0  0  0  0  # atno 11005 bound_to 11000
  145.4780  139.1497  143.3777 LP  0  0  0  0  0  0  0  0  0  0  0  0  # atno 17320 bound_to 7965
  146.2665  140.4916  142.8832 LP  0  0  0  0  0  0  0  0  0  0  0  0  # atno 17321 bound_to 7965
  140.7129  143.7344  150.7599 LP  0  0  0  0  0  0  0  0  0  0  0  0  # atno 17342 bound_to 10162
  140.0888  143.4898  152.2490 LP  0  0  0  0  0  0  0  0  0  0  0  0  # atno 17343 bound_to 10162
  157.0537  131.0070  151.3245 LP  0  0  0  0  0  0  0  0  0  0  0  0  # atno 17370 bound_to 10713
  157.5121  130.7945  149.7717 LP  0  0  0  0  0  0  0  0  0  0  0  0  # atno 17371 bound_to 10713
  139.8999  134.8580  156.1939 LP  0  0  0  0  0  0  0  0  0  0  0  0  # atno 17394 bound_to 11000
  141.0434  133.6926  156.1639 LP  0  0  0  0  0  0  0  0  0  0  0  0  # atno 17395 bound_to 11000

$$$$
