AV-unprocessed.smi:3209|AV-procd|sdf|12269|dock9
  -GOLD-   2272018103D 1   1.00000     0.00000
 Structure written by MMmdl.
 37 39  0  0  0  0  0  0  0  0  2 V2000
  146.5685  138.4681  152.9069 C   0  0  0  0  0  0  0  0  0  0  0  0
  147.2232  139.6288  153.5748 C   0  0  0  0  0  0  0  0  0  0  0  0
  148.3858  139.5469  154.2274 N   0  0  0  0  0  0  0  0  0  0  0  0
  148.7875  140.7717  154.7690 C   0  0  0  0  0  0  0  0  0  0  0  0
  150.0709  140.8606  155.5375 C   0  0  0  0  0  0  0  0  0  0  0  0
  149.8842  141.5339  156.9037 C   0  0  0  0  0  0  0  0  0  0  0  0
  150.6380  142.8020  156.9778 N   0  3  0  0  0  0  0  0  0  0  0  0
  150.8298  143.3241  158.3485 C   0  0  1  0  0  0  0  0  0  0  0  0
  151.9872  142.6202  159.0949 C   0  0  0  0  0  0  0  0  0  0  0  0
  152.9145  143.7895  159.4732 C   0  0  2  0  0  0  0  0  0  0  0  0
  152.2378  144.6607  160.5478 C   0  0  0  0  0  0  0  0  0  0  0  0
  151.1313  145.3806  159.7535 C   0  0  0  0  0  0  0  0  0  0  0  0
  151.2947  144.7969  158.3371 C   0  0  1  0  0  0  0  0  0  0  0  0
  152.8125  144.6736  158.2367 C   0  0  0  0  0  0  0  0  0  0  0  0
  147.9078  141.7932  154.5089 C   0  0  0  0  0  0  0  0  0  0  0  0
  146.5394  141.2498  153.5769 S   0  0  0  0  0  0  0  0  0  0  0  0
  147.0625  137.5363  153.1838 H   0  0  0  0  0  0  0  0  0  0  0  0
  146.6203  138.5843  151.8244 H   0  0  0  0  0  0  0  0  0  0  0  0
  145.5214  138.4085  153.2040 H   0  0  0  0  0  0  0  0  0  0  0  0
  150.4884  139.8627  155.6775 H   0  0  0  0  0  0  0  0  0  0  0  0
  150.8100  141.4149  154.9572 H   0  0  0  0  0  0  0  0  0  0  0  0
  148.8268  141.7380  157.0782 H   0  0  0  0  0  0  0  0  0  0  0  0
  150.2175  140.8622  157.6956 H   0  0  0  0  0  0  0  0  0  0  0  0
  151.5441  142.6763  156.5499 H   0  0  0  0  0  0  0  0  0  0  0  0
  149.8892  143.2308  158.8937 H   0  0  0  0  0  0  0  0  0  0  0  0
  151.6407  142.0676  159.9690 H   0  0  0  0  0  0  0  0  0  0  0  0
  152.5171  141.9180  158.4492 H   0  0  0  0  0  0  0  0  0  0  0  0
  153.9259  143.4782  159.7357 H   0  0  0  0  0  0  0  0  0  0  0  0
  151.8403  144.0657  161.3711 H   0  0  0  0  0  0  0  0  0  0  0  0
  152.9412  145.3825  160.9651 H   0  0  0  0  0  0  0  0  0  0  0  0
  150.1378  145.2044  160.1675 H   0  0  0  0  0  0  0  0  0  0  0  0
  151.3032  146.4578  159.7494 H   0  0  0  0  0  0  0  0  0  0  0  0
  150.8258  145.4071  157.5642 H   0  0  0  0  0  0  0  0  0  0  0  0
  153.3328  145.6274  158.3435 H   0  0  0  0  0  0  0  0  0  0  0  0
  153.1511  144.1824  157.3228 H   0  0  0  0  0  0  0  0  0  0  0  0
  147.9789  142.8287  154.8075 H   0  0  0  0  0  0  0  0  0  0  0  0
  150.1260  143.4940  156.4494 H   0  0  0  0  0  0  0  0  0  0  0  0
  1  2  1  0  0  0  0
  1 17  1  0  0  0  0
  1 18  1  0  0  0  0
  1 19  1  0  0  0  0
  2 16  1  0  0  0  0
  2  3  2  0  0  0  0
  3  4  1  0  0  0  0
  4  5  1  0  0  0  0
  4 15  2  0  0  0  0
  5  6  1  0  0  0  0
  5 20  1  0  0  0  0
  5 21  1  0  0  0  0
  6  7  1  0  0  0  0
  6 22  1  0  0  0  0
  6 23  1  0  0  0  0
  7  8  1  0  0  0  0
  7 24  1  0  0  0  0
  7 37  1  0  0  0  0
  8 13  1  0  0  0  0
  8  9  1  0  0  0  0
  8 25  1  0  0  0  0
  9 10  1  0  0  0  0
  9 26  1  0  0  0  0
  9 27  1  0  0  0  0
 10 14  1  0  0  0  0
 10 11  1  0  0  0  0
 10 28  1  0  0  0  0
 11 12  1  0  0  0  0
 11 29  1  0  0  0  0
 11 30  1  0  0  0  0
 12 13  1  0  0  0  0
 12 31  1  0  0  0  0
 12 32  1  0  0  0  0
 13 14  1  0  0  0  0
 13 33  1  0  0  0  0
 14 34  1  0  0  0  0
 14 35  1  0  0  0  0
 15 16  1  0  0  0  0
 15 36  1  0  0  0  0
M  CHG  1   7   1
M  END
> <s_m_source_file>
AV-unprocessed.smi

> <i_m_source_file_index>
3209

> <i_lp_mmshare_version>
43012

> <i_f3d_flags>
0

> <s_epik_input>
W0NIM11jMW5jKFtjSF1zMSlbQ0gyXVtDSDJdW05IXVtDQEhdKFtDSDJdW0NASF0yMylbQ0BIXShbQ0gyXTMpW0NIMl1bQ0gyXTI=

> <s_epik_cmdline>
J2VwaWtfcHl0aG9uJywgJy1waCcsICc3LjAnLCAnLXRuJywgJzgnLCAnLW1hJywgJzIwMCcsICctbWV0YWxfYmluZGluZycsICctaW1hZScsICc8aW5maWxlLm1hZT4nLCAnLW9tYWUnLCAnPG91dGZpbGUubWFlPic=

> <r_lp_tautomer_probability>
1

> <r_epik_Ionization_Penalty>
0.000342479

> <r_epik_Ionization_Penalty_Charging>
0.000317129

> <r_epik_Ionization_Penalty_Neutral>
2.535e-05

> <r_epik_State_Penalty>
-0

> <r_epik_Charging_Adjusted_Penalty>
0.000317129

> <i_epik_Tot_Q>
1

> <i_epik_Tot_abs_Q>
1

> <r_epik_Metal_State_Penalty>
-0

> <b_epik_Metal_Only>
0

> <s_lp_Force_Field>
OPLS_2005

> <r_lp_Energy>
48.296

> <b_lp_Chiralities_Consistent>
1

> <s_lp_Variant>
AV-unprocessed.smi:3209-2

> <Gold.Version>
5.8.1

> <Gold.Id.Protein>
6NUR|6NUR_protein|mol2

> <Gold.PLP.Fitness>
50.2925

> <Gold.PLP.PLP>
-42.5932

> <Gold.PLP.part.hbond>
-1.0000

> <Gold.PLP.part.metal>
0.0000

> <Gold.PLP.part.buried>
-3.2540

> <Gold.PLP.part.nonpolar>
-38.2035

> <Gold.PLP.part.repulsive>
0.9372

> <Gold.PLP.ligand.clash>
0.0000

> <Gold.PLP.ligand.torsion>
0.6561

> <Gold.PLP.Chemscore.Hbond>
2.0000

> <Gold.PLP.Chemscore.CHOScore>
1.0000

> <Gold.PLP.Chemscore.Metal>
0.0000

> <Gold.Chemscore.Hbonds>
donor molecule, donor type, donor heavy atom, donor atom, acceptor molecule, acceptor atom, score
      L1  H     7    37       P1  8028  2.00
      L1  C    15    36       P1  8028  1.00

> <Gold.PLP.Chemscore.Internal.Correction>
0.0113

> <Gold.Rescore>
     Score         DG    S(hbond)    S(metal)    S(lipo)     H(rot)  DE(clash)    DE(int)     intcor
     20.37     -21.06       1.00        0.00     133.32       1.31       0.12       0.57       ----

> <Gold.Chemscore.Fitness>
20.3718

> <Gold.Chemscore.DG>
-21.0605

> <Gold.Chemscore.ZeroCoef>
-5.4800

> <Gold.Chemscore.Hbond>
0.9994

> <Gold.Chemscore.Metal>
0.0000

> <Gold.Chemscore.Lipo>
133.3182

> <Gold.Chemscore.Internal_Hbond>
0.0000

> <Gold.Chemscore.DEClash>
0.1200

> <Gold.Chemscore.DEInternal>
0.5686

> <Gold.Chemscore.Rot>
1.3108

> <Gold.Chemscore.Internal.Correction>
   9.000000E+99

> <Gold.Chemscore.Hbonds>
donor molecule, donor type, donor heavy atom, donor atom, acceptor molecule, acceptor atom, score
      L1  H     7    37       P1  8028  1.00

> <Gold.Chemscore.Hbond.Weighted>
-3.3380

> <Gold.Chemscore.Metal.Weighted>
-0.0000

> <Gold.Chemscore.Lipo.Weighted>
-15.5982

> <Gold.Chemscore.Internal_Hbond.Weighted>
0.0000

> <Gold.Chemscore.DEClash.Weighted>
0.1200

> <Gold.Chemscore.DEInternal.Weighted>
0.5686

> <Gold.Chemscore.Rot.Weighted>
3.3558

> <Gold.Chemscore.Internal.Correction.Weighted>
   9.000000E+99

> <Gold.Protein.RotatedTorsions>
[ 6907 6896 6895 6894 ] final   82.34 input  -60.11 | X-H torsion
[ 7974 7965 7964 7962 ] final  164.97 input  175.53 | X-H torsion
[ 8008 7997 7996 7995 ] final -135.46 input   59.86 | X-H torsion
[ 10167 10162 10161 10158 ] final  163.92 input  -65.29 | X-H torsion
[ 10718 10713 10712 10709 ] final    0.91 input   66.30 | X-H torsion
[ 10763 10752 10751 10750 ] final  144.05 input  -60.55 | X-H torsion
[ 11005 11000 10999 10996 ] final -166.39 input  -57.11 | X-H torsion

> <Gold.Protein.ActiveResidues>
 VAL166  LYS551  ARG553  GLY616  TRP617  ASP618  TYR619  PRO620  LYS621  CYS622 
 ASP623  PHE694  ASN695  SER759  ASP760  ASP761  ALA762  ILE779  LEU786  VAL792 
 PHE793  MET794  SER795  GLU796  ALA797  LYS798  CYS799  TRP800  GLU811  SER814 

> <Gold.Protein.RotatedAtoms>
  152.5296  134.3064  159.9097 H   0  0  0  0  0  0  0  0  0  0  0  0  # atno 6907 bound_to 6896
  151.3014  133.4114  159.2647 H   0  0  0  0  0  0  0  0  0  0  0  0  # atno 6908 bound_to 6896
  151.0115  134.9417  159.8067 H   0  0  0  0  0  0  0  0  0  0  0  0  # atno 6909 bound_to 6896
  144.7522  139.8403  143.6362 H   0  0  0  0  0  0  0  0  0  0  0  0  # atno 7974 bound_to 7965
  155.3791  140.0493  157.3044 H   0  0  0  0  0  0  0  0  0  0  0  0  # atno 8008 bound_to 7997
  154.5092  140.2185  155.9153 H   0  0  0  0  0  0  0  0  0  0  0  0  # atno 8009 bound_to 7997
  156.1562  140.3126  155.8735 H   0  0  0  0  0  0  0  0  0  0  0  0  # atno 8010 bound_to 7997
  139.4881  144.4288  151.9097 H   0  0  0  0  0  0  0  0  0  0  0  0  # atno 10167 bound_to 10162
  156.8403  130.5519  149.5678 H   0  0  0  0  0  0  0  0  0  0  0  0  # atno 10718 bound_to 10713
  153.9825  135.2940  155.3419 H   0  0  0  0  0  0  0  0  0  0  0  0  # atno 10763 bound_to 10752
  154.7260  135.5088  153.8891 H   0  0  0  0  0  0  0  0  0  0  0  0  # atno 10764 bound_to 10752
  153.0847  135.6690  154.0087 H   0  0  0  0  0  0  0  0  0  0  0  0  # atno 10765 bound_to 10752
  140.5650  134.5295  157.5151 H   0  0  0  0  0  0  0  0  0  0  0  0  # atno 11005 bound_to 11000
  146.1487  139.4564  143.0062 LP  0  0  0  0  0  0  0  0  0  0  0  0  # atno 17320 bound_to 7965
  145.6904  141.0166  143.1558 LP  0  0  0  0  0  0  0  0  0  0  0  0  # atno 17321 bound_to 7965
  140.3734  144.2826  150.5917 LP  0  0  0  0  0  0  0  0  0  0  0  0  # atno 17342 bound_to 10162
  140.5298  143.2246  151.8257 LP  0  0  0  0  0  0  0  0  0  0  0  0  # atno 17343 bound_to 10162
  156.0884  130.5876  150.9689 LP  0  0  0  0  0  0  0  0  0  0  0  0  # atno 17370 bound_to 10713
  157.6359  131.0916  150.8349 LP  0  0  0  0  0  0  0  0  0  0  0  0  # atno 17371 bound_to 10713
  139.9389  134.7823  156.0729 LP  0  0  0  0  0  0  0  0  0  0  0  0  # atno 17394 bound_to 11000
  141.1091  133.6649  156.2935 LP  0  0  0  0  0  0  0  0  0  0  0  0  # atno 17395 bound_to 11000

$$$$
