AV-unprocessed.smi:3220|AV-procd|sdf|12299|dock2
  -GOLD-   2272018143D 1   1.00000     0.00000
 Structure written by MMmdl.
 33 34  0  0  0  0  0  0  0  0  1 V2000
  151.0104  140.5425  156.9155 C   0  0  0  0  0  0  0  0  0  0  0  0
  150.4325  141.9626  156.8496 C   0  0  2  0  0  0  0  0  0  0  0  0
  150.0366  142.4735  158.2517 C   0  0  0  0  0  0  0  0  0  0  0  0
  150.9527  143.4768  158.7647 N   0  0  0  0  0  0  0  0  0  0  0  0
  151.2868  144.6957  158.2126 C   0  0  0  0  0  0  0  0  0  0  0  0
  152.1976  145.2820  159.0439 C   0  0  0  0  0  0  0  0  0  0  0  0
  152.3554  144.3343  160.0936 C   0  0  0  0  0  0  0  0  0  0  0  0
  151.6058  143.2570  159.9259 N   0  0  0  0  0  0  0  0  0  0  0  0
  149.2781  141.9630  155.9516 N   0  0  0  0  0  0  0  0  0  0  0  0
  149.2014  141.3298  154.7703 C   0  0  0  0  0  0  0  0  0  0  0  0
  150.1107  140.6394  154.3090 O   0  0  0  0  0  0  0  0  0  0  0  0
  147.8966  141.5085  153.9878 C   0  0  1  0  0  0  0  0  0  0  0  0
  146.6537  140.9854  154.7319 C   0  0  0  0  0  0  0  0  0  0  0  0
  145.8796  142.2442  155.0718 C   0  0  0  0  0  0  0  0  0  0  0  0
  146.2941  143.1806  153.9462 C   0  0  0  0  0  0  0  0  0  0  0  0
  147.6775  142.9049  153.7979 O   0  0  0  0  0  0  0  0  0  0  0  0
  151.8875  140.5060  157.5623 H   0  0  0  0  0  0  0  0  0  0  0  0
  151.3173  140.1977  155.9275 H   0  0  0  0  0  0  0  0  0  0  0  0
  150.2799  139.8327  157.3053 H   0  0  0  0  0  0  0  0  0  0  0  0
  151.2159  142.6086  156.4486 H   0  0  0  0  0  0  0  0  0  0  0  0
  149.0298  142.8937  158.2368 H   0  0  0  0  0  0  0  0  0  0  0  0
  150.0157  141.6444  158.9607 H   0  0  0  0  0  0  0  0  0  0  0  0
  150.8595  145.0365  157.2810 H   0  0  0  0  0  0  0  0  0  0  0  0
  152.6793  146.2405  158.9206 H   0  0  0  0  0  0  0  0  0  0  0  0
  152.9875  144.3971  160.9671 H   0  0  0  0  0  0  0  0  0  0  0  0
  148.4753  142.4992  156.2474 H   0  0  0  0  0  0  0  0  0  0  0  0
  147.9702  141.0253  153.0119 H   0  0  0  0  0  0  0  0  0  0  0  0
  146.0658  140.3545  154.0644 H   0  0  0  0  0  0  0  0  0  0  0  0
  146.8815  140.3947  155.6207 H   0  0  0  0  0  0  0  0  0  0  0  0
  144.8022  142.0851  155.1216 H   0  0  0  0  0  0  0  0  0  0  0  0
  146.2135  142.6427  156.0309 H   0  0  0  0  0  0  0  0  0  0  0  0
  145.7701  142.9360  153.0211 H   0  0  0  0  0  0  0  0  0  0  0  0
  146.1156  144.2303  154.1803 H   0  0  0  0  0  0  0  0  0  0  0  0
  1  2  1  0  0  0  0
  1 17  1  0  0  0  0
  1 18  1  0  0  0  0
  1 19  1  0  0  0  0
  2  3  1  0  0  0  0
  2  9  1  0  0  0  0
  2 20  1  0  0  0  0
  3  4  1  0  0  0  0
  3 21  1  0  0  0  0
  3 22  1  0  0  0  0
  4  8  1  0  0  0  0
  4  5  1  0  0  0  0
  5  6  2  0  0  0  0
  5 23  1  0  0  0  0
  6  7  1  0  0  0  0
  6 24  1  0  0  0  0
  7  8  2  0  0  0  0
  7 25  1  0  0  0  0
  9 10  1  0  0  0  0
  9 26  1  0  0  0  0
 10 11  2  0  0  0  0
 10 12  1  0  0  0  0
 12 16  1  0  0  0  0
 12 13  1  0  0  0  0
 12 27  1  0  0  0  0
 13 14  1  0  0  0  0
 13 28  1  0  0  0  0
 13 29  1  0  0  0  0
 14 15  1  0  0  0  0
 14 30  1  0  0  0  0
 14 31  1  0  0  0  0
 15 16  1  0  0  0  0
 15 32  1  0  0  0  0
 15 33  1  0  0  0  0
M  END
> <s_m_source_file>
AV-unprocessed.smi

> <i_m_source_file_index>
3220

> <i_lp_mmshare_version>
43012

> <i_f3d_flags>
0

> <s_epik_input>
bjFbY0hdW2NIXVtjSF1uMVtDSDJdW0NAQEhdKFtDSDNdKVtOSF1DKD1PKVtDQEBIXTJbQ0gyXVtDSDJdW0NIMl1PMg==

> <s_epik_cmdline>
J2VwaWtfcHl0aG9uJywgJy1waCcsICc3LjAnLCAnLXRuJywgJzgnLCAnLW1hJywgJzIwMCcsICctbWV0YWxfYmluZGluZycsICctaW1hZScsICc8aW5maWxlLm1hZT4nLCAnLW9tYWUnLCAnPG91dGZpbGUubWFlPic=

> <r_lp_tautomer_probability>
1

> <r_epik_Ionization_Penalty>
0.00033363

> <r_epik_Ionization_Penalty_Charging>
0

> <r_epik_Ionization_Penalty_Neutral>
0.00033363

> <r_epik_State_Penalty>
-0

> <r_epik_Charging_Adjusted_Penalty>
0

> <i_epik_Tot_Q>
0

> <i_epik_Tot_abs_Q>
0

> <r_epik_Metal_State_Penalty>
-0

> <b_epik_Metal_Only>
0

> <s_lp_Force_Field>
OPLS_2005

> <r_lp_Energy>
17.4241

> <b_lp_Chiralities_Consistent>
1

> <s_lp_Variant>
AV-unprocessed.smi:3220-3

> <Gold.Version>
5.8.1

> <Gold.Id.Protein>
6NUR|6NUR_protein|mol2

> <Gold.PLP.Fitness>
40.6816

> <Gold.PLP.PLP>
-35.1272

> <Gold.PLP.part.hbond>
-4.0000

> <Gold.PLP.part.metal>
0.0000

> <Gold.PLP.part.buried>
-2.8791

> <Gold.PLP.part.nonpolar>
-29.1218

> <Gold.PLP.part.repulsive>
2.3768

> <Gold.PLP.ligand.clash>
0.0000

> <Gold.PLP.ligand.torsion>
0.8976

> <Gold.PLP.Chemscore.Hbond>
1.4371

> <Gold.PLP.Chemscore.CHOScore>
1.0000

> <Gold.PLP.Chemscore.Metal>
0.0000

> <Gold.Chemscore.Hbonds>
donor molecule, donor type, donor heavy atom, donor atom, acceptor molecule, acceptor atom, score
      L1  H     9    26       P1  8028  0.04
      P1  H  7989  7998       L1    11  0.78
      P1  H  8022  8030       L1    16  0.61
      L1  C     5    23       P1  8028  1.00

> <Gold.PLP.Chemscore.Internal.Correction>
0.0382

> <Gold.Rescore>
     Score         DG    S(hbond)    S(metal)    S(lipo)     H(rot)  DE(clash)    DE(int)     intcor
     10.64     -14.76       1.25        0.00      79.07       1.62       1.73       2.39       ----

> <Gold.Chemscore.Fitness>
10.6392

> <Gold.Chemscore.DG>
-14.7648

> <Gold.Chemscore.ZeroCoef>
-5.4800

> <Gold.Chemscore.Hbond>
1.2531

> <Gold.Chemscore.Metal>
0.0000

> <Gold.Chemscore.Lipo>
79.0713

> <Gold.Chemscore.Internal_Hbond>
0.0000

> <Gold.Chemscore.DEClash>
1.7308

> <Gold.Chemscore.DEInternal>
2.3948

> <Gold.Chemscore.Rot>
1.6219

> <Gold.Chemscore.Internal.Correction>
   9.000000E+99

> <Gold.Chemscore.Hbonds>
donor molecule, donor type, donor heavy atom, donor atom, acceptor molecule, acceptor atom, score
      L1  H     9    26       P1  8028  0.04
      P1  H  7989  7998       L1    11  0.78
      P1  H  8022  8030       L1    16  0.29

> <Gold.Chemscore.Hbond.Weighted>
-4.1854

> <Gold.Chemscore.Metal.Weighted>
-0.0000

> <Gold.Chemscore.Lipo.Weighted>
-9.2513

> <Gold.Chemscore.Internal_Hbond.Weighted>
0.0000

> <Gold.Chemscore.DEClash.Weighted>
1.7308

> <Gold.Chemscore.DEInternal.Weighted>
2.3948

> <Gold.Chemscore.Rot.Weighted>
4.1520

> <Gold.Chemscore.Internal.Correction.Weighted>
   9.000000E+99

> <Gold.Protein.RotatedTorsions>
[ 6907 6896 6895 6894 ] final  -69.96 input  -60.11 | X-H torsion
[ 7974 7965 7964 7962 ] final -119.19 input  175.53 | X-H torsion
[ 8008 7997 7996 7995 ] final  170.14 input   59.86 | X-H torsion
[ 10167 10162 10161 10158 ] final   10.70 input  -65.29 | X-H torsion
[ 10718 10713 10712 10709 ] final  -98.15 input   66.30 | X-H torsion
[ 10763 10752 10751 10750 ] final  178.10 input  -60.55 | X-H torsion
[ 11005 11000 10999 10996 ] final -158.39 input  -57.11 | X-H torsion

> <Gold.Protein.ActiveResidues>
 VAL166  LYS551  ARG553  GLY616  TRP617  ASP618  TYR619  PRO620  LYS621  CYS622 
 ASP623  PHE694  ASN695  SER759  ASP760  ASP761  ALA762  ILE779  LEU786  VAL792 
 PHE793  MET794  SER795  GLU796  ALA797  LYS798  CYS799  TRP800  GLU811  SER814 

> <Gold.Protein.RotatedAtoms>
  150.7280  134.5521  159.5799 H   0  0  0  0  0  0  0  0  0  0  0  0  # atno 6907 bound_to 6896
  152.3006  134.7612  160.0367 H   0  0  0  0  0  0  0  0  0  0  0  0  # atno 6908 bound_to 6896
  151.8194  133.3357  159.3616 H   0  0  0  0  0  0  0  0  0  0  0  0  # atno 6909 bound_to 6896
  145.0653  140.8320  143.4128 H   0  0  0  0  0  0  0  0  0  0  0  0  # atno 7974 bound_to 7965
  156.1393  140.1546  156.8945 H   0  0  0  0  0  0  0  0  0  0  0  0  # atno 8008 bound_to 7997
  154.4974  140.0834  156.7764 H   0  0  0  0  0  0  0  0  0  0  0  0  # atno 8009 bound_to 7997
  155.4109  140.3419  155.4266 H   0  0  0  0  0  0  0  0  0  0  0  0  # atno 8010 bound_to 7997
  140.6178  143.8271  150.7138 H   0  0  0  0  0  0  0  0  0  0  0  0  # atno 10167 bound_to 10162
  156.0100  130.5225  150.6480 H   0  0  0  0  0  0  0  0  0  0  0  0  # atno 10718 bound_to 10713
  154.5032  135.2784  155.1403 H   0  0  0  0  0  0  0  0  0  0  0  0  # atno 10763 bound_to 10752
  154.3028  135.6244  153.5436 H   0  0  0  0  0  0  0  0  0  0  0  0  # atno 10764 bound_to 10752
  152.9906  135.5701  154.5480 H   0  0  0  0  0  0  0  0  0  0  0  0  # atno 10765 bound_to 10752
  140.6542  134.4418  157.5235 H   0  0  0  0  0  0  0  0  0  0  0  0  # atno 11005 bound_to 11000
  145.1359  139.2602  143.5515 LP  0  0  0  0  0  0  0  0  0  0  0  0  # atno 17320 bound_to 7965
  146.3526  140.1023  142.8607 LP  0  0  0  0  0  0  0  0  0  0  0  0  # atno 17321 bound_to 7965
  140.1854  143.4080  152.1902 LP  0  0  0  0  0  0  0  0  0  0  0  0  # atno 17342 bound_to 10162
  139.5413  144.7258  151.4726 LP  0  0  0  0  0  0  0  0  0  0  0  0  # atno 17343 bound_to 10162
  157.4247  131.0841  151.1097 LP  0  0  0  0  0  0  0  0  0  0  0  0  # atno 17370 bound_to 10713
  157.1688  130.6258  149.5634 LP  0  0  0  0  0  0  0  0  0  0  0  0  # atno 17371 bound_to 10713
  139.9035  134.8501  156.1798 LP  0  0  0  0  0  0  0  0  0  0  0  0  # atno 17394 bound_to 11000
  141.0514  133.6887  156.1779 LP  0  0  0  0  0  0  0  0  0  0  0  0  # atno 17395 bound_to 11000

$$$$
