AV-unprocessed.smi:521|AV-procd|sdf|2800|dock5
  -GOLD-   2262023273D 1   1.00000     0.00000
 Structure written by MMmdl.
 41 43  0  0  0  0  0  0  0  0  2 V2000
  143.6229  144.5675  157.8830 C   0  0  0  0  0  0  0  0  0  0  0  0
  144.3740  143.8103  156.9456 O   0  0  0  0  0  0  0  0  0  0  0  0
  144.4717  144.2807  155.6521 C   0  0  0  0  0  0  0  0  0  0  0  0
  143.7894  145.4317  155.1820 C   0  0  0  0  0  0  0  0  0  0  0  0
  143.9343  145.8534  153.8481 C   0  0  0  0  0  0  0  0  0  0  0  0
  144.7612  145.1332  152.9700 C   0  0  0  0  0  0  0  0  0  0  0  0
  145.4433  143.9903  153.4249 C   0  0  0  0  0  0  0  0  0  0  0  0
  145.3027  143.5545  154.7671 C   0  0  0  0  0  0  0  0  0  0  0  0
  145.9371  142.4416  155.2799 O   0  0  0  0  0  0  0  0  0  0  0  0
  146.4662  141.4858  154.3733 C   0  0  0  0  0  0  0  0  0  0  0  0
  147.9892  141.6550  154.3268 C   0  0  0  0  0  0  0  0  0  0  0  0
  148.6722  140.3812  154.0687 N   0  0  0  0  0  0  0  0  0  0  0  0
  148.3257  139.3470  153.2502 C   0  0  0  0  0  0  0  0  0  0  0  0
  147.1092  139.2702  152.3837 C   0  0  0  0  0  0  0  0  0  0  0  0
  147.1604  138.2198  151.4408 O   0  0  0  0  0  0  0  0  0  0  0  0
  149.2988  138.3985  153.3694 N   0  3  0  0  0  0  0  0  0  0  0  0
  150.2775  138.8328  154.2642 C   0  0  0  0  0  0  0  0  0  0  0  0
  151.4493  138.2230  154.7012 C   0  0  0  0  0  0  0  0  0  0  0  0
  152.2346  138.9484  155.6213 C   0  0  0  0  0  0  0  0  0  0  0  0
  151.8458  140.2271  156.0711 C   0  0  0  0  0  0  0  0  0  0  0  0
  150.6542  140.8343  155.6225 C   0  0  0  0  0  0  0  0  0  0  0  0
  149.8830  140.1092  154.7145 C   0  0  0  0  0  0  0  0  0  0  0  0
  143.6309  144.0570  158.8458 H   0  0  0  0  0  0  0  0  0  0  0  0
  142.5818  144.6668  157.5726 H   0  0  0  0  0  0  0  0  0  0  0  0
  144.0533  145.5588  158.0320 H   0  0  0  0  0  0  0  0  0  0  0  0
  143.1465  146.0110  155.8268 H   0  0  0  0  0  0  0  0  0  0  0  0
  143.4098  146.7305  153.4989 H   0  0  0  0  0  0  0  0  0  0  0  0
  144.8728  145.4573  151.9456 H   0  0  0  0  0  0  0  0  0  0  0  0
  146.0695  143.4642  152.7210 H   0  0  0  0  0  0  0  0  0  0  0  0
  146.2212  140.4749  154.7032 H   0  0  0  0  0  0  0  0  0  0  0  0
  146.0432  141.6344  153.3787 H   0  0  0  0  0  0  0  0  0  0  0  0
  148.2836  142.3787  153.5662 H   0  0  0  0  0  0  0  0  0  0  0  0
  148.3532  142.0416  155.2793 H   0  0  0  0  0  0  0  0  0  0  0  0
  146.2299  139.1382  153.0143 H   0  0  0  0  0  0  0  0  0  0  0  0
  146.9894  140.2146  151.8517 H   0  0  0  0  0  0  0  0  0  0  0  0
  147.4163  137.4274  151.8885 H   0  0  0  0  0  0  0  0  0  0  0  0
  151.7502  137.2445  154.3564 H   0  0  0  0  0  0  0  0  0  0  0  0
  153.1542  138.5158  155.9882 H   0  0  0  0  0  0  0  0  0  0  0  0
  152.4743  140.7535  156.7749 H   0  0  0  0  0  0  0  0  0  0  0  0
  150.3660  141.8148  155.9716 H   0  0  0  0  0  0  0  0  0  0  0  0
  149.2892  137.5203  152.8662 H   0  0  0  0  0  0  0  0  0  0  0  0
  1  2  1  0  0  0  0
  1 23  1  0  0  0  0
  1 24  1  0  0  0  0
  1 25  1  0  0  0  0
  2  3  1  0  0  0  0
  3  8  1  0  0  0  0
  3  4  2  0  0  0  0
  4  5  1  0  0  0  0
  4 26  1  0  0  0  0
  5  6  2  0  0  0  0
  5 27  1  0  0  0  0
  6  7  1  0  0  0  0
  6 28  1  0  0  0  0
  7  8  2  0  0  0  0
  7 29  1  0  0  0  0
  8  9  1  0  0  0  0
  9 10  1  0  0  0  0
 10 11  1  0  0  0  0
 10 30  1  0  0  0  0
 10 31  1  0  0  0  0
 11 12  1  0  0  0  0
 11 32  1  0  0  0  0
 11 33  1  0  0  0  0
 12 22  1  0  0  0  0
 12 13  1  0  0  0  0
 13 14  1  0  0  0  0
 13 16  2  0  0  0  0
 14 15  1  0  0  0  0
 14 34  1  0  0  0  0
 14 35  1  0  0  0  0
 15 36  1  0  0  0  0
 16 17  1  0  0  0  0
 16 41  1  0  0  0  0
 17 22  2  0  0  0  0
 17 18  1  0  0  0  0
 18 19  2  0  0  0  0
 18 37  1  0  0  0  0
 19 20  1  0  0  0  0
 19 38  1  0  0  0  0
 20 21  2  0  0  0  0
 20 39  1  0  0  0  0
 21 22  1  0  0  0  0
 21 40  1  0  0  0  0
M  CHG  1  16   1
M  END
> <s_m_source_file>
AV-unprocessed.smi

> <i_m_source_file_index>
521

> <i_lp_mmshare_version>
43012

> <i_f3d_flags>
0

> <s_epik_input>
W0NIM11PYzFbY0hdW2NIXVtjSF1bY0hdYzFPW0NIMl1bQ0gyXW4oYyhuMilbQ0gyXVtPSF0pYyhjMjMpW2NIXVtjSF1bY0hdW2NIXTM=

> <s_epik_cmdline>
J2VwaWtfcHl0aG9uJywgJy1waCcsICc3LjAnLCAnLXRuJywgJzgnLCAnLW1hJywgJzIwMCcsICctbWV0YWxfYmluZGluZycsICctaW1hZScsICc8aW5maWxlLm1hZT4nLCAnLW9tYWUnLCAnPG91dGZpbGUubWFlPic=

> <r_lp_tautomer_probability>
1

> <r_epik_Ionization_Penalty>
1.50718

> <r_epik_Ionization_Penalty_Charging>
1.50632

> <r_epik_Ionization_Penalty_Neutral>
0.000855784

> <r_epik_State_Penalty>
1.59697

> <r_epik_Charging_Adjusted_Penalty>
3.1033

> <i_epik_Tot_Q>
1

> <i_epik_Tot_abs_Q>
1

> <r_epik_Metal_State_Penalty>
5.64835

> <b_epik_Metal_Only>
0

> <s_lp_Force_Field>
OPLS_2005

> <r_lp_Energy>
22.6327

> <b_lp_Chiralities_Consistent>
1

> <s_lp_Variant>
AV-unprocessed.smi:521-2

> <Gold.Version>
5.8.1

> <Gold.Id.Protein>
6NUR|6NUR_protein|mol2

> <Gold.PLP.Fitness>
56.2112

> <Gold.PLP.PLP>
-48.1117

> <Gold.PLP.part.hbond>
-4.9730

> <Gold.PLP.part.metal>
0.0000

> <Gold.PLP.part.buried>
2.2157

> <Gold.PLP.part.nonpolar>
-46.2301

> <Gold.PLP.part.repulsive>
0.3047

> <Gold.PLP.ligand.clash>
0.0000

> <Gold.PLP.ligand.torsion>
1.2262

> <Gold.PLP.Chemscore.Hbond>
3.4880

> <Gold.PLP.Chemscore.CHOScore>
0.0000

> <Gold.PLP.Chemscore.Metal>
0.0000

> <Gold.Chemscore.Hbonds>
donor molecule, donor type, donor heavy atom, donor atom, acceptor molecule, acceptor atom, score
      L1  H    15    36       P1  7948  0.70
      L1  H    16    41       P1  7948  2.00
      P1  H  7954  7966       L1    15  0.75

> <Gold.PLP.Chemscore.Internal.Correction>
0.0880

> <Gold.Rescore>
     Score         DG    S(hbond)    S(metal)    S(lipo)     H(rot)  DE(clash)    DE(int)     intcor
     14.20     -19.13       2.10        0.00     112.49       2.54       2.98       1.96       ----

> <Gold.Chemscore.Fitness>
14.1971

> <Gold.Chemscore.DG>
-19.1329

> <Gold.Chemscore.ZeroCoef>
-5.4800

> <Gold.Chemscore.Hbond>
2.0964

> <Gold.Chemscore.Metal>
0.0000

> <Gold.Chemscore.Lipo>
112.4891

> <Gold.Chemscore.Internal_Hbond>
0.0000

> <Gold.Chemscore.DEClash>
2.9802

> <Gold.Chemscore.DEInternal>
1.9556

> <Gold.Chemscore.Rot>
2.5431

> <Gold.Chemscore.Internal.Correction>
   9.000000E+99

> <Gold.Chemscore.Hbonds>
donor molecule, donor type, donor heavy atom, donor atom, acceptor molecule, acceptor atom, score
      L1  H    15    36       P1  7948  0.70
      L1  H    16    41       P1  7948  0.95
      P1  H  7954  7966       L1    15  0.09

> <Gold.Chemscore.Hbond.Weighted>
-7.0020

> <Gold.Chemscore.Metal.Weighted>
-0.0000

> <Gold.Chemscore.Lipo.Weighted>
-13.1612

> <Gold.Chemscore.Internal_Hbond.Weighted>
0.0000

> <Gold.Chemscore.DEClash.Weighted>
2.9802

> <Gold.Chemscore.DEInternal.Weighted>
1.9556

> <Gold.Chemscore.Rot.Weighted>
6.5103

> <Gold.Chemscore.Internal.Correction.Weighted>
   9.000000E+99

> <Gold.Protein.RotatedTorsions>
[ 6907 6896 6895 6894 ] final  115.83 input  -60.11 | X-H torsion
[ 7974 7965 7964 7962 ] final   97.52 input  175.53 | X-H torsion
[ 8008 7997 7996 7995 ] final -170.78 input   59.86 | X-H torsion
[ 10167 10162 10161 10158 ] final   75.20 input  -65.29 | X-H torsion
[ 10718 10713 10712 10709 ] final  150.24 input   66.30 | X-H torsion
[ 10763 10752 10751 10750 ] final -172.06 input  -60.55 | X-H torsion
[ 11005 11000 10999 10996 ] final   41.79 input  -57.11 | X-H torsion

> <Gold.Protein.ActiveResidues>
 VAL166  LYS551  ARG553  GLY616  TRP617  ASP618  TYR619  PRO620  LYS621  CYS622 
 ASP623  PHE694  ASN695  SER759  ASP760  ASP761  ALA762  ILE779  LEU786  VAL792 
 PHE793  MET794  SER795  GLU796  ALA797  LYS798  CYS799  TRP800  GLU811  SER814 

> <Gold.Protein.RotatedAtoms>
  152.4717  133.8044  159.6969 H   0  0  0  0  0  0  0  0  0  0  0  0  # atno 6907 bound_to 6896
  150.8709  133.7497  159.2968 H   0  0  0  0  0  0  0  0  0  0  0  0  # atno 6908 bound_to 6896
  151.5032  135.1066  159.9886 H   0  0  0  0  0  0  0  0  0  0  0  0  # atno 6909 bound_to 6896
  145.4244  139.2317  143.3178 H   0  0  0  0  0  0  0  0  0  0  0  0  # atno 7974 bound_to 7965
  155.9229  140.1077  157.1192 H   0  0  0  0  0  0  0  0  0  0  0  0  # atno 8008 bound_to 7997
  154.4057  140.1252  156.4768 H   0  0  0  0  0  0  0  0  0  0  0  0  # atno 8009 bound_to 7997
  155.7174  140.3470  155.5003 H   0  0  0  0  0  0  0  0  0  0  0  0  # atno 8010 bound_to 7997
  140.0055  144.5653  150.7701 H   0  0  0  0  0  0  0  0  0  0  0  0  # atno 10167 bound_to 10162
  157.2860  131.0844  151.1497 H   0  0  0  0  0  0  0  0  0  0  0  0  # atno 10718 bound_to 10713
  154.6235  135.2878  155.0299 H   0  0  0  0  0  0  0  0  0  0  0  0  # atno 10763 bound_to 10752
  154.1485  135.6507  153.4962 H   0  0  0  0  0  0  0  0  0  0  0  0  # atno 10764 bound_to 10752
  153.0247  135.5350  154.7034 H   0  0  0  0  0  0  0  0  0  0  0  0  # atno 10765 bound_to 10752
  140.1800  134.4115  155.8205 H   0  0  0  0  0  0  0  0  0  0  0  0  # atno 11005 bound_to 11000
  146.2639  140.4973  142.8842 LP  0  0  0  0  0  0  0  0  0  0  0  0  # atno 17320 bound_to 7965
  144.8224  140.6571  143.6344 LP  0  0  0  0  0  0  0  0  0  0  0  0  # atno 17321 bound_to 7965
  140.7402  143.2801  151.3624 LP  0  0  0  0  0  0  0  0  0  0  0  0  # atno 17342 bound_to 10162
  139.6241  144.0848  152.2418 LP  0  0  0  0  0  0  0  0  0  0  0  0  # atno 17343 bound_to 10162
  157.2912  130.6797  149.6115 LP  0  0  0  0  0  0  0  0  0  0  0  0  # atno 17370 bound_to 10713
  155.9665  130.4420  150.5364 LP  0  0  0  0  0  0  0  0  0  0  0  0  # atno 17371 bound_to 10713
  141.2222  133.6996  156.7915 LP  0  0  0  0  0  0  0  0  0  0  0  0  # atno 17394 bound_to 11000
  140.2278  134.8709  157.3445 LP  0  0  0  0  0  0  0  0  0  0  0  0  # atno 17395 bound_to 11000

$$$$
