AV-unprocessed.smi:1867|AV-procd|sdf|7560|dock10
  -GOLD-   22720 9273D 1   1.00000     0.00000
 Structure written by MMmdl.
 52 55  0  0  0  0  0  0  0  0  2 V2000
  146.5065  139.2933  153.9377 O   0  0  0  0  0  0  0  0  0  0  0  0
  147.3011  138.5034  153.4330 C   0  0  0  0  0  0  0  0  0  0  0  0
  148.6362  138.5378  153.6119 N   0  0  0  0  0  0  0  0  0  0  0  0
  149.3927  139.3965  154.4532 C   0  0  0  0  0  0  0  0  0  0  0  0
  150.7433  139.1747  154.8080 C   0  0  0  0  0  0  0  0  0  0  0  0
  151.3957  140.1130  155.6301 C   0  0  0  0  0  0  0  0  0  0  0  0
  150.6870  141.2556  156.0719 C   0  0  0  0  0  0  0  0  0  0  0  0
  151.2992  142.2162  156.9015 N   0  0  0  0  0  0  0  0  0  0  0  0
  150.9684  143.6302  156.8307 C   0  0  0  0  0  0  0  0  0  0  0  0
  151.7570  144.2726  157.9717 C   0  0  0  0  0  0  0  0  0  0  0  0
  151.8207  143.1632  159.0214 C   0  0  0  0  0  0  0  0  0  0  0  0
  151.8760  141.8737  158.1953 C   0  0  0  0  0  0  0  0  0  0  0  0
  149.3955  141.4688  155.7240 N   0  0  0  0  0  0  0  0  0  0  0  0
  148.7752  140.5680  154.9341 C   0  0  0  0  0  0  0  0  0  0  0  0
  146.8811  137.5353  152.5996 N   0  0  0  0  0  0  0  0  0  0  0  0
  145.5089  137.2283  152.1951 C   0  0  2  0  0  0  0  0  0  0  0  0
  144.4431  137.6139  153.2400 C   0  0  0  0  0  0  0  0  0  0  0  0
  143.4023  136.4769  153.2027 C   0  0  0  0  0  0  0  0  0  0  0  0
  143.8370  135.5861  152.1099 N   0  3  2  0  0  0  0  0  0  0  0  0
  143.3951  134.1757  152.1696 C   0  0  0  0  0  0  0  0  0  0  0  0
  143.8803  133.4380  150.9051 C   0  0  0  0  0  0  0  0  0  0  0  0
  145.4003  133.5995  150.6950 C   0  0  0  0  0  0  0  0  0  0  0  0
  145.8140  135.0835  150.7381 C   0  0  0  0  0  0  0  0  0  0  0  0
  145.2993  135.7226  152.0382 C   0  0  1  0  0  0  0  0  0  0  0  0
  149.1770  137.8983  153.0488 H   0  0  0  0  0  0  0  0  0  0  0  0
  151.2951  138.3168  154.4563 H   0  0  0  0  0  0  0  0  0  0  0  0
  152.4258  139.9424  155.9041 H   0  0  0  0  0  0  0  0  0  0  0  0
  151.2388  144.0611  155.8662 H   0  0  0  0  0  0  0  0  0  0  0  0
  149.8961  143.7600  156.9822 H   0  0  0  0  0  0  0  0  0  0  0  0
  152.7651  144.5158  157.6332 H   0  0  0  0  0  0  0  0  0  0  0  0
  151.2952  145.1876  158.3436 H   0  0  0  0  0  0  0  0  0  0  0  0
  152.6668  143.2671  159.7012 H   0  0  0  0  0  0  0  0  0  0  0  0
  150.9077  143.1749  159.6183 H   0  0  0  0  0  0  0  0  0  0  0  0
  151.3366  141.0674  158.6939 H   0  0  0  0  0  0  0  0  0  0  0  0
  152.9078  141.5548  158.0450 H   0  0  0  0  0  0  0  0  0  0  0  0
  147.7485  140.7898  154.6819 H   0  0  0  0  0  0  0  0  0  0  0  0
  147.6033  136.9822  152.1608 H   0  0  0  0  0  0  0  0  0  0  0  0
  145.2774  137.7124  151.2440 H   0  0  0  0  0  0  0  0  0  0  0  0
  144.8737  137.6872  154.2401 H   0  0  0  0  0  0  0  0  0  0  0  0
  143.9959  138.5807  153.0054 H   0  0  0  0  0  0  0  0  0  0  0  0
  143.4045  135.9370  154.1510 H   0  0  0  0  0  0  0  0  0  0  0  0
  142.3911  136.8434  153.0236 H   0  0  0  0  0  0  0  0  0  0  0  0
  143.7926  133.6985  153.0667 H   0  0  0  0  0  0  0  0  0  0  0  0
  142.3073  134.1346  152.2357 H   0  0  0  0  0  0  0  0  0  0  0  0
  143.6211  132.3808  150.9661 H   0  0  0  0  0  0  0  0  0  0  0  0
  143.3543  133.8327  150.0347 H   0  0  0  0  0  0  0  0  0  0  0  0
  145.9332  133.0518  151.4732 H   0  0  0  0  0  0  0  0  0  0  0  0
  145.6975  133.1538  149.7452 H   0  0  0  0  0  0  0  0  0  0  0  0
  146.8990  135.1731  150.6756 H   0  0  0  0  0  0  0  0  0  0  0  0
  145.4054  135.6074  149.8728 H   0  0  0  0  0  0  0  0  0  0  0  0
  145.7381  135.2069  152.8960 H   0  0  0  0  0  0  0  0  0  0  0  0
  143.4709  135.9798  151.2548 H   0  0  0  0  0  0  0  0  0  0  0  0
  1  2  2  0  0  0  0
  2  3  1  0  0  0  0
  2 15  1  0  0  0  0
  3  4  1  0  0  0  0
  3 25  1  0  0  0  0
  4 14  1  0  0  0  0
  4  5  2  0  0  0  0
  5  6  1  0  0  0  0
  5 26  1  0  0  0  0
  6  7  2  0  0  0  0
  6 27  1  0  0  0  0
  7  8  1  0  0  0  0
  7 13  1  0  0  0  0
  8 12  1  0  0  0  0
  8  9  1  0  0  0  0
  9 10  1  0  0  0  0
  9 28  1  0  0  0  0
  9 29  1  0  0  0  0
 10 11  1  0  0  0  0
 10 30  1  0  0  0  0
 10 31  1  0  0  0  0
 11 12  1  0  0  0  0
 11 32  1  0  0  0  0
 11 33  1  0  0  0  0
 12 34  1  0  0  0  0
 12 35  1  0  0  0  0
 13 14  2  0  0  0  0
 14 36  1  0  0  0  0
 15 16  1  0  0  0  0
 15 37  1  0  0  0  0
 16 24  1  0  0  0  0
 16 17  1  0  0  0  0
 16 38  1  0  0  0  0
 17 18  1  0  0  0  0
 17 39  1  0  0  0  0
 17 40  1  0  0  0  0
 18 19  1  0  0  0  0
 18 41  1  0  0  0  0
 18 42  1  0  0  0  0
 19 24  1  0  0  0  0
 19 20  1  0  0  0  0
 19 52  1  0  0  0  0
 20 21  1  0  0  0  0
 20 43  1  0  0  0  0
 20 44  1  0  0  0  0
 21 22  1  0  0  0  0
 21 45  1  0  0  0  0
 21 46  1  0  0  0  0
 22 23  1  0  0  0  0
 22 47  1  0  0  0  0
 22 48  1  0  0  0  0
 23 24  1  0  0  0  0
 23 49  1  0  0  0  0
 23 50  1  0  0  0  0
 24 51  1  0  0  0  0
M  CHG  1  19   1
M  END
> <s_m_source_file>
AV-unprocessed.smi

> <i_m_source_file_index>
1867

> <i_lp_mmshare_version>
43012

> <i_f3d_flags>
0

> <s_epik_input>
W0NIMl0xW0NIMl1bQ0gyXVtDSDJdW0NASF0oTjEyKVtDQEBIXShbQ0gyXVtDSDJdMilbTkhdQyg9TylbTkhdYzNbY0hdW2NIXWMobltjSF0zKU40W0NIMl1bQ0gyXVtDSDJdW0NIMl00

> <s_epik_cmdline>
J2VwaWtfcHl0aG9uJywgJy1waCcsICc3LjAnLCAnLXRuJywgJzgnLCAnLW1hJywgJzIwMCcsICctbWV0YWxfYmluZGluZycsICctaW1hZScsICc8aW5maWxlLm1hZT4nLCAnLW9tYWUnLCAnPG91dGZpbGUubWFlPic=

> <r_lp_tautomer_probability>
1

> <r_epik_Ionization_Penalty>
0.0751123

> <r_epik_Ionization_Penalty_Charging>
0.000974069

> <r_epik_Ionization_Penalty_Neutral>
0.0741382

> <r_epik_State_Penalty>
0.0647261

> <r_epik_Charging_Adjusted_Penalty>
0.0657002

> <i_epik_Tot_Q>
1

> <i_epik_Tot_abs_Q>
1

> <r_epik_Metal_State_Penalty>
0.0580571

> <b_epik_Metal_Only>
0

> <s_lp_Force_Field>
OPLS_2005

> <r_lp_Energy>
71.0604

> <b_lp_Chiralities_Consistent>
1

> <s_lp_Variant>
AV-unprocessed.smi:1867-1

> <Gold.Version>
5.8.1

> <Gold.Id.Protein>
6NUR|6NUR_protein|mol2

> <Gold.PLP.Fitness>
45.2975

> <Gold.PLP.PLP>
-41.9507

> <Gold.PLP.part.hbond>
-2.9592

> <Gold.PLP.part.metal>
0.0000

> <Gold.PLP.part.buried>
-0.1536

> <Gold.PLP.part.nonpolar>
-40.1247

> <Gold.PLP.part.repulsive>
0.3368

> <Gold.PLP.ligand.clash>
0.0000

> <Gold.PLP.ligand.torsion>
1.1731

> <Gold.PLP.Chemscore.Hbond>
1.8480

> <Gold.PLP.Chemscore.CHOScore>
0.0000

> <Gold.PLP.Chemscore.Metal>
0.0000

> <Gold.Chemscore.Hbonds>
donor molecule, donor type, donor heavy atom, donor atom, acceptor molecule, acceptor atom, score
      L1  H     3    25       P1  7948  0.85
      L1  H    15    37       P1  7948  1.00

> <Gold.PLP.Chemscore.Internal.Correction>
0.1491

> <Gold.Rescore>
     Score         DG    S(hbond)    S(metal)    S(lipo)     H(rot)  DE(clash)    DE(int)     intcor
     17.32     -21.66       1.70        0.00     111.53       1.00       0.47       3.87       ----

> <Gold.Chemscore.Fitness>
17.3175

> <Gold.Chemscore.DG>
-21.6584

> <Gold.Chemscore.ZeroCoef>
-5.4800

> <Gold.Chemscore.Hbond>
1.7033

> <Gold.Chemscore.Metal>
0.0000

> <Gold.Chemscore.Lipo>
111.5345

> <Gold.Chemscore.Internal_Hbond>
0.0000

> <Gold.Chemscore.DEClash>
0.4708

> <Gold.Chemscore.DEInternal>
3.8701

> <Gold.Chemscore.Rot>
1.0000

> <Gold.Chemscore.Internal.Correction>
   9.000000E+99

> <Gold.Chemscore.Hbonds>
donor molecule, donor type, donor heavy atom, donor atom, acceptor molecule, acceptor atom, score
      L1  H     3    25       P1  7948  0.77
      L1  H    15    37       P1  7948  0.96

> <Gold.Chemscore.Hbond.Weighted>
-5.6889

> <Gold.Chemscore.Metal.Weighted>
-0.0000

> <Gold.Chemscore.Lipo.Weighted>
-13.0495

> <Gold.Chemscore.Internal_Hbond.Weighted>
0.0000

> <Gold.Chemscore.DEClash.Weighted>
0.4708

> <Gold.Chemscore.DEInternal.Weighted>
3.8701

> <Gold.Chemscore.Rot.Weighted>
2.5600

> <Gold.Chemscore.Internal.Correction.Weighted>
   9.000000E+99

> <Gold.Protein.RotatedTorsions>
[ 6907 6896 6895 6894 ] final  170.11 input  -60.11 | X-H torsion
[ 7974 7965 7964 7962 ] final  -38.71 input  175.53 | X-H torsion
[ 8008 7997 7996 7995 ] final  107.97 input   59.86 | X-H torsion
[ 10167 10162 10161 10158 ] final   87.47 input  -65.29 | X-H torsion
[ 10718 10713 10712 10709 ] final -116.84 input   66.30 | X-H torsion
[ 10763 10752 10751 10750 ] final   34.33 input  -60.55 | X-H torsion
[ 11005 11000 10999 10996 ] final  -24.19 input  -57.11 | X-H torsion

> <Gold.Protein.ActiveResidues>
 VAL166  LYS551  ARG553  GLY616  TRP617  ASP618  TYR619  PRO620  LYS621  CYS622 
 ASP623  PHE694  ASN695  SER759  ASP760  ASP761  ALA762  ILE779  LEU786  VAL792 
 PHE793  MET794  SER795  GLU796  ALA797  LYS798  CYS799  TRP800  GLU811  SER814 

> <Gold.Protein.RotatedAtoms>
  151.8213  133.3395  159.3584 H   0  0  0  0  0  0  0  0  0  0  0  0  # atno 6907 bound_to 6896
  150.7294  134.5571  159.5833 H   0  0  0  0  0  0  0  0  0  0  0  0  # atno 6908 bound_to 6896
  152.3004  134.7619  160.0410 H   0  0  0  0  0  0  0  0  0  0  0  0  # atno 6909 bound_to 6896
  146.0462  140.6542  142.9063 H   0  0  0  0  0  0  0  0  0  0  0  0  # atno 7974 bound_to 7965
  156.1867  140.3085  155.9251 H   0  0  0  0  0  0  0  0  0  0  0  0  # atno 8008 bound_to 7997
  155.3266  140.0458  157.3058 H   0  0  0  0  0  0  0  0  0  0  0  0  # atno 8009 bound_to 7997
  154.5403  140.2259  155.8661 H   0  0  0  0  0  0  0  0  0  0  0  0  # atno 8010 bound_to 7997
  139.8770  144.6461  150.8885 H   0  0  0  0  0  0  0  0  0  0  0  0  # atno 10167 bound_to 10162
  156.0992  130.6157  150.9087 H   0  0  0  0  0  0  0  0  0  0  0  0  # atno 10718 bound_to 10713
  153.0169  135.6363  154.1652 H   0  0  0  0  0  0  0  0  0  0  0  0  # atno 10763 bound_to 10752
  154.1390  135.2836  155.3167 H   0  0  0  0  0  0  0  0  0  0  0  0  # atno 10764 bound_to 10752
  154.6138  135.5547  153.7563 H   0  0  0  0  0  0  0  0  0  0  0  0  # atno 10765 bound_to 10752
  140.8822  133.7646  156.0316 H   0  0  0  0  0  0  0  0  0  0  0  0  # atno 11005 bound_to 11000
  144.7099  140.3999  143.7089 LP  0  0  0  0  0  0  0  0  0  0  0  0  # atno 17320 bound_to 7965
  145.6801  139.1617  143.2705 LP  0  0  0  0  0  0  0  0  0  0  0  0  # atno 17321 bound_to 7965
  140.7751  143.3617  151.1816 LP  0  0  0  0  0  0  0  0  0  0  0  0  # atno 17342 bound_to 10162
  139.7231  143.9192  152.2992 LP  0  0  0  0  0  0  0  0  0  0  0  0  # atno 17343 bound_to 10162
  157.6159  131.0933  150.8712 LP  0  0  0  0  0  0  0  0  0  0  0  0  # atno 17370 bound_to 10713
  156.8843  130.5190  149.5289 LP  0  0  0  0  0  0  0  0  0  0  0  0  # atno 17371 bound_to 10713
  140.8448  134.3024  157.5299 LP  0  0  0  0  0  0  0  0  0  0  0  0  # atno 17394 bound_to 11000
  139.8721  134.9436  156.3857 LP  0  0  0  0  0  0  0  0  0  0  0  0  # atno 17395 bound_to 11000

$$$$
