AV-unprocessed.smi:441|AV-procd|sdf|2582|dock9
  -GOLD-   2262022573D 1   1.00000     0.00000
 Structure written by MMmdl.
 34 35  0  0  0  0  0  0  0  0  1 V2000
  152.7978  140.1233  157.9220 O   0  0  0  0  0  0  0  0  0  0  0  0
  151.9126  140.6625  157.2561 C   0  0  0  0  0  0  0  0  0  0  0  0
  151.1354  139.8721  156.1930 C   0  0  0  0  0  0  0  0  0  0  0  0
  149.8827  140.5233  155.7814 N   0  0  0  0  0  0  0  0  0  0  0  0
  149.8108  140.8042  154.4280 N   0  0  0  0  0  0  0  0  0  0  0  0
  148.7504  141.3590  153.9509 C   0  0  0  0  0  0  0  0  0  0  0  0
  147.6214  141.7077  154.7847 C   0  0  0  0  0  0  0  0  0  0  0  0
  146.2254  142.4506  154.0873 Cl  0  0  0  0  0  0  0  0  0  0  0  0
  147.7046  141.4338  156.1109 C   0  0  0  0  0  0  0  0  0  0  0  0
  146.3952  141.8236  157.1728 Cl  0  0  0  0  0  0  0  0  0  0  0  0
  148.8979  140.8015  156.6904 C   0  0  0  0  0  0  0  0  0  0  0  0
  149.0128  140.5385  157.8882 O   0  0  0  0  0  0  0  0  0  0  0  0
  151.5792  141.9556  157.3867 N   0  0  0  0  0  0  0  0  0  0  0  0
  152.1856  142.8933  158.3271 C   0  0  0  0  0  0  0  0  0  0  0  0
  151.9409  142.4086  159.7688 C   0  0  0  0  0  0  0  0  0  0  0  0
  152.5104  143.3969  160.7996 C   0  0  0  0  0  0  0  0  0  0  0  0
  151.9406  144.8087  160.5922 C   0  0  0  0  0  0  0  0  0  0  0  0
  152.1859  145.2998  159.1570 C   0  0  0  0  0  0  0  0  0  0  0  0
  151.6174  144.3134  158.1239 C   0  0  0  0  0  0  0  0  0  0  0  0
  151.7725  139.7061  155.3222 H   0  0  0  0  0  0  0  0  0  0  0  0
  150.9293  138.8792  156.5965 H   0  0  0  0  0  0  0  0  0  0  0  0
  148.6477  141.5958  152.8918 H   0  0  0  0  0  0  0  0  0  0  0  0
  150.8447  142.3167  156.7954 H   0  0  0  0  0  0  0  0  0  0  0  0
  153.2640  142.9174  158.1582 H   0  0  0  0  0  0  0  0  0  0  0  0
  150.8706  142.2851  159.9410 H   0  0  0  0  0  0  0  0  0  0  0  0
  152.3930  141.4267  159.9149 H   0  0  0  0  0  0  0  0  0  0  0  0
  152.2877  143.0507  161.8093 H   0  0  0  0  0  0  0  0  0  0  0  0
  153.5974  143.4255  160.7155 H   0  0  0  0  0  0  0  0  0  0  0  0
  150.8697  144.8047  160.7996 H   0  0  0  0  0  0  0  0  0  0  0  0
  152.3912  145.5003  161.3044 H   0  0  0  0  0  0  0  0  0  0  0  0
  151.7360  146.2831  159.0183 H   0  0  0  0  0  0  0  0  0  0  0  0
  153.2568  145.4239  158.9915 H   0  0  0  0  0  0  0  0  0  0  0  0
  151.8433  144.6705  157.1186 H   0  0  0  0  0  0  0  0  0  0  0  0
  150.5299  144.2918  158.2062 H   0  0  0  0  0  0  0  0  0  0  0  0
  1  2  2  0  0  0  0
  2  3  1  0  0  0  0
  2 13  1  0  0  0  0
  3  4  1  0  0  0  0
  3 20  1  0  0  0  0
  3 21  1  0  0  0  0
  4 11  1  0  0  0  0
  4  5  1  0  0  0  0
  5  6  2  0  0  0  0
  6  7  1  0  0  0  0
  6 22  1  0  0  0  0
  7  8  1  0  0  0  0
  7  9  2  0  0  0  0
  9 10  1  0  0  0  0
  9 11  1  0  0  0  0
 11 12  2  0  0  0  0
 13 14  1  0  0  0  0
 13 23  1  0  0  0  0
 14 19  1  0  0  0  0
 14 15  1  0  0  0  0
 14 24  1  0  0  0  0
 15 16  1  0  0  0  0
 15 25  1  0  0  0  0
 15 26  1  0  0  0  0
 16 17  1  0  0  0  0
 16 27  1  0  0  0  0
 16 28  1  0  0  0  0
 17 18  1  0  0  0  0
 17 29  1  0  0  0  0
 17 30  1  0  0  0  0
 18 19  1  0  0  0  0
 18 31  1  0  0  0  0
 18 32  1  0  0  0  0
 19 33  1  0  0  0  0
 19 34  1  0  0  0  0
M  END
> <s_m_source_file>
AV-unprocessed.smi

> <i_m_source_file_index>
441

> <i_lp_mmshare_version>
43012

> <i_f3d_flags>
0

> <s_epik_input>
W0NIMl0xW0NIMl1bQ0gyXVtDSDJdW0NIMl1bQ0hdMVtOSF1DKD1PKVtDSDJdbjJuW2NIXWMoQ2wpYyhDbCljMj1P

> <s_epik_cmdline>
J2VwaWtfcHl0aG9uJywgJy1waCcsICc3LjAnLCAnLXRuJywgJzgnLCAnLW1hJywgJzIwMCcsICctbWV0YWxfYmluZGluZycsICctaW1hZScsICc8aW5maWxlLm1hZT4nLCAnLW9tYWUnLCAnPG91dGZpbGUubWFlPic=

> <r_lp_tautomer_probability>
1

> <r_epik_Ionization_Penalty>
1.90776e-08

> <r_epik_Ionization_Penalty_Charging>
3.07389e-11

> <r_epik_Ionization_Penalty_Neutral>
1.90469e-08

> <r_epik_State_Penalty>
-0

> <r_epik_Charging_Adjusted_Penalty>
3.07389e-11

> <i_epik_Tot_Q>
0

> <i_epik_Tot_abs_Q>
0

> <r_epik_Metal_State_Penalty>
-0

> <b_epik_Metal_Only>
0

> <s_lp_Force_Field>
OPLS_2005

> <r_lp_Energy>
22.7857

> <b_lp_Chiralities_Consistent>
1

> <s_lp_Variant>
AV-unprocessed.smi:441-1

> <Gold.Version>
5.8.1

> <Gold.Id.Protein>
6NUR|6NUR_protein|mol2

> <Gold.PLP.Fitness>
46.9425

> <Gold.PLP.PLP>
-40.3558

> <Gold.PLP.part.hbond>
-2.0000

> <Gold.PLP.part.metal>
0.0000

> <Gold.PLP.part.buried>
-2.6551

> <Gold.PLP.part.nonpolar>
-35.1951

> <Gold.PLP.part.repulsive>
0.2095

> <Gold.PLP.ligand.clash>
0.0000

> <Gold.PLP.ligand.torsion>
0.2475

> <Gold.PLP.Chemscore.Hbond>
1.5443

> <Gold.PLP.Chemscore.CHOScore>
0.8147

> <Gold.PLP.Chemscore.Metal>
0.0000

> <Gold.Chemscore.Hbonds>
donor molecule, donor type, donor heavy atom, donor atom, acceptor molecule, acceptor atom, score
      P1  H  7989  7998       L1     5  0.67
      P1  H  7997  8010       L1     1  0.87
      L1  C     6    22       P1  7957  0.82

> <Gold.PLP.Chemscore.Internal.Correction>
0.0047

> <Gold.Rescore>
     Score         DG    S(hbond)    S(metal)    S(lipo)     H(rot)  DE(clash)    DE(int)     intcor
     14.81     -15.91       0.98        0.00      94.14       1.51       0.02       1.08       ----

> <Gold.Chemscore.Fitness>
14.8105

> <Gold.Chemscore.DG>
-15.9081

> <Gold.Chemscore.ZeroCoef>
-5.4800

> <Gold.Chemscore.Hbond>
0.9833

> <Gold.Chemscore.Metal>
0.0000

> <Gold.Chemscore.Lipo>
94.1373

> <Gold.Chemscore.Internal_Hbond>
0.0000

> <Gold.Chemscore.DEClash>
0.0162

> <Gold.Chemscore.DEInternal>
1.0814

> <Gold.Chemscore.Rot>
1.5118

> <Gold.Chemscore.Internal.Correction>
   9.000000E+99

> <Gold.Chemscore.Hbonds>
donor molecule, donor type, donor heavy atom, donor atom, acceptor molecule, acceptor atom, score
      P1  H  7989  7998       L1     5  0.55
      P1  H  7997  8010       L1     1  0.32

> <Gold.Chemscore.Hbond.Weighted>
-3.2843

> <Gold.Chemscore.Metal.Weighted>
-0.0000

> <Gold.Chemscore.Lipo.Weighted>
-11.0141

> <Gold.Chemscore.Internal_Hbond.Weighted>
0.0000

> <Gold.Chemscore.DEClash.Weighted>
0.0162

> <Gold.Chemscore.DEInternal.Weighted>
1.0814

> <Gold.Chemscore.Rot.Weighted>
3.8702

> <Gold.Chemscore.Internal.Correction.Weighted>
   9.000000E+99

> <Gold.Protein.RotatedTorsions>
[ 6907 6896 6895 6894 ] final   46.81 input  -60.11 | X-H torsion
[ 7974 7965 7964 7962 ] final  141.95 input  175.53 | X-H torsion
[ 8008 7997 7996 7995 ] final   61.16 input   59.86 | X-H torsion
[ 10167 10162 10161 10158 ] final   -9.82 input  -65.29 | X-H torsion
[ 10718 10713 10712 10709 ] final -102.34 input   66.30 | X-H torsion
[ 10763 10752 10751 10750 ] final   71.57 input  -60.55 | X-H torsion
[ 11005 11000 10999 10996 ] final  -18.71 input  -57.11 | X-H torsion

> <Gold.Protein.ActiveResidues>
 VAL166  LYS551  ARG553  GLY616  TRP617  ASP618  TYR619  PRO620  LYS621  CYS622 
 ASP623  PHE694  ASN695  SER759  ASP760  ASP761  ALA762  ILE779  LEU786  VAL792 
 PHE793  MET794  SER795  GLU796  ALA797  LYS798  CYS799  TRP800  GLU811  SER814 

> <Gold.Protein.RotatedAtoms>
  152.2607  134.8037  160.0430 H   0  0  0  0  0  0  0  0  0  0  0  0  # atno 6907 bound_to 6896
  151.8684  133.3465  159.3735 H   0  0  0  0  0  0  0  0  0  0  0  0  # atno 6908 bound_to 6896
  150.7116  134.5064  159.5630 H   0  0  0  0  0  0  0  0  0  0  0  0  # atno 6909 bound_to 6896
  144.9051  139.5369  143.5735 H   0  0  0  0  0  0  0  0  0  0  0  0  # atno 7974 bound_to 7965
  155.5939  140.3493  155.4574 H   0  0  0  0  0  0  0  0  0  0  0  0  # atno 8008 bound_to 7997
  156.0280  140.1268  157.0313 H   0  0  0  0  0  0  0  0  0  0  0  0  # atno 8009 bound_to 7997
  154.4341  140.1049  156.6044 H   0  0  0  0  0  0  0  0  0  0  0  0  # atno 8010 bound_to 7997
  140.7097  143.5816  150.8986 H   0  0  0  0  0  0  0  0  0  0  0  0  # atno 10167 bound_to 10162
  156.0225  130.5415  150.7094 H   0  0  0  0  0  0  0  0  0  0  0  0  # atno 10718 bound_to 10713
  153.0407  135.5132  154.7613 H   0  0  0  0  0  0  0  0  0  0  0  0  # atno 10763 bound_to 10752
  154.6553  135.2931  154.9938 H   0  0  0  0  0  0  0  0  0  0  0  0  # atno 10764 bound_to 10752
  154.0808  135.6664  153.4890 H   0  0  0  0  0  0  0  0  0  0  0  0  # atno 10765 bound_to 10752
  140.8295  133.8007  155.9743 H   0  0  0  0  0  0  0  0  0  0  0  0  # atno 11005 bound_to 11000
  146.3129  139.7812  142.9006 LP  0  0  0  0  0  0  0  0  0  0  0  0  # atno 17320 bound_to 7965
  145.3550  141.0315  143.3317 LP  0  0  0  0  0  0  0  0  0  0  0  0  # atno 17321 bound_to 7965
  139.9542  143.6238  152.3021 LP  0  0  0  0  0  0  0  0  0  0  0  0  # atno 17342 bound_to 10162
  139.6767  144.7658  151.1683 LP  0  0  0  0  0  0  0  0  0  0  0  0  # atno 17343 bound_to 10162
  157.4736  131.0895  151.0615 LP  0  0  0  0  0  0  0  0  0  0  0  0  # atno 17370 bound_to 10713
  157.1068  130.6005  149.5473 LP  0  0  0  0  0  0  0  0  0  0  0  0  # atno 17371 bound_to 10713
  140.9013  134.2375  157.5040 LP  0  0  0  0  0  0  0  0  0  0  0  0  # atno 17394 bound_to 11000
  139.8705  134.9708  156.4713 LP  0  0  0  0  0  0  0  0  0  0  0  0  # atno 17395 bound_to 11000

$$$$
