AV-unprocessed.smi:2514|AV-procd|sdf|9894|dock3
  -GOLD-   2272013533D 1   1.00000     0.00000
 Structure written by MMmdl.
 25 26  0  0  0  0  0  0  0  0  2 V2000
  152.4356  143.3580  158.9255 C   0  0  0  0  0  0  0  0  0  0  0  0
  151.0022  142.9785  158.5332 C   0  0  1  0  0  0  0  0  0  0  0  0
  150.3560  144.0969  157.9595 O   0  0  0  0  0  0  0  0  0  0  0  0
  150.9539  141.8698  157.5188 C   0  0  0  0  0  0  0  0  0  0  0  0
  150.4201  141.8877  156.2612 C   0  0  0  0  0  0  0  0  0  0  0  0
  150.6393  140.6061  155.8018 N   0  0  0  0  0  0  0  0  0  0  0  0
  150.3413  140.0796  154.5030 C   0  0  0  0  0  0  0  0  0  0  0  0
  148.9535  139.5245  154.1893 C   0  0  0  0  0  0  0  0  0  0  0  0
  149.6029  138.5641  153.3053 N   0  3  0  0  0  0  0  0  0  0  0  0
  150.8396  138.7020  154.0640 C   0  0  0  0  0  0  0  0  0  0  0  0
  151.3091  139.8578  156.7093 N   0  0  0  0  0  0  0  0  0  0  0  0
  151.4832  140.5987  157.7576 N   0  0  0  0  0  0  0  0  0  0  0  0
  152.9563  142.5088  159.3688 H   0  0  0  0  0  0  0  0  0  0  0  0
  152.4402  144.1670  159.6565 H   0  0  0  0  0  0  0  0  0  0  0  0
  153.0126  143.6876  158.0606 H   0  0  0  0  0  0  0  0  0  0  0  0
  150.4481  142.6935  159.4283 H   0  0  0  0  0  0  0  0  0  0  0  0
  150.0444  143.8554  157.1008 H   0  0  0  0  0  0  0  0  0  0  0  0
  149.9295  142.6597  155.6870 H   0  0  0  0  0  0  0  0  0  0  0  0
  150.6288  140.8479  153.7816 H   0  0  0  0  0  0  0  0  0  0  0  0
  148.4740  139.0403  155.0423 H   0  0  0  0  0  0  0  0  0  0  0  0
  148.2843  140.2181  153.6796 H   0  0  0  0  0  0  0  0  0  0  0  0
  149.2014  137.6376  153.3375 H   0  0  0  0  0  0  0  0  0  0  0  0
  151.7403  138.7120  153.4494 H   0  0  0  0  0  0  0  0  0  0  0  0
  150.9038  137.9766  154.8775 H   0  0  0  0  0  0  0  0  0  0  0  0
  149.7007  138.9301  152.3688 H   0  0  0  0  0  0  0  0  0  0  0  0
  1  2  1  0  0  0  0
  1 13  1  0  0  0  0
  1 14  1  0  0  0  0
  1 15  1  0  0  0  0
  2  3  1  0  0  0  0
  2  4  1  0  0  0  0
  2 16  1  0  0  0  0
  3 17  1  0  0  0  0
  4 12  1  0  0  0  0
  4  5  2  0  0  0  0
  5  6  1  0  0  0  0
  5 18  1  0  0  0  0
  6  7  1  0  0  0  0
  6 11  1  0  0  0  0
  7 10  1  0  0  0  0
  7  8  1  0  0  0  0
  7 19  1  0  0  0  0
  8  9  1  0  0  0  0
  8 20  1  0  0  0  0
  8 21  1  0  0  0  0
  9 10  1  0  0  0  0
  9 22  1  0  0  0  0
  9 25  1  0  0  0  0
 10 23  1  0  0  0  0
 10 24  1  0  0  0  0
 11 12  2  0  0  0  0
M  CHG  1   9   1
M  END
> <s_m_source_file>
AV-unprocessed.smi

> <i_m_source_file_index>
2514

> <i_lp_mmshare_version>
43012

> <i_f3d_flags>
0

> <s_epik_input>
W0NIM11bQ0BIXShbT0hdKWMxW2NIXW4obm4xKVtDSF0yW0NIMl1bTkhdW0NIMl0y

> <s_epik_cmdline>
J2VwaWtfcHl0aG9uJywgJy1waCcsICc3LjAnLCAnLXRuJywgJzgnLCAnLW1hJywgJzIwMCcsICctbWV0YWxfYmluZGluZycsICctaW1hZScsICc8aW5maWxlLm1hZT4nLCAnLW9tYWUnLCAnPG91dGZpbGUubWFlPic=

> <r_lp_tautomer_probability>
1

> <r_epik_Ionization_Penalty>
0.215039

> <r_epik_Ionization_Penalty_Charging>
0.215038

> <r_epik_Ionization_Penalty_Neutral>
9.39085e-07

> <r_epik_State_Penalty>
0.20523

> <r_epik_Charging_Adjusted_Penalty>
0.420268

> <i_epik_Tot_Q>
1

> <i_epik_Tot_abs_Q>
1

> <r_epik_Metal_State_Penalty>
0.205259

> <b_epik_Metal_Only>
0

> <s_lp_Force_Field>
OPLS_2005

> <r_lp_Energy>
12.9729

> <b_lp_Chiralities_Consistent>
1

> <s_lp_Variant>
AV-unprocessed.smi:2514-2

> <Gold.Version>
5.8.1

> <Gold.Id.Protein>
6NUR|6NUR_protein|mol2

> <Gold.PLP.Fitness>
34.8467

> <Gold.PLP.PLP>
-23.6890

> <Gold.PLP.part.hbond>
-3.6192

> <Gold.PLP.part.metal>
0.0000

> <Gold.PLP.part.buried>
0.2066

> <Gold.PLP.part.nonpolar>
-19.9579

> <Gold.PLP.part.repulsive>
0.0934

> <Gold.PLP.ligand.clash>
0.0000

> <Gold.PLP.ligand.torsion>
0.3752

> <Gold.PLP.Chemscore.Hbond>
2.8776

> <Gold.PLP.Chemscore.CHOScore>
1.0000

> <Gold.PLP.Chemscore.Metal>
0.0000

> <Gold.Chemscore.Hbonds>
donor molecule, donor type, donor heavy atom, donor atom, acceptor molecule, acceptor atom, score
      L1  H     3    17       P1  8028  0.70
      L1  H     9    22       P1  7948  1.18
      L1  H     9    25       P1  7957  1.00
      L1  C     5    18       P1  8028  1.00

> <Gold.PLP.Chemscore.Internal.Correction>
0.2751

> <Gold.Rescore>
     Score         DG    S(hbond)    S(metal)    S(lipo)     H(rot)  DE(clash)    DE(int)     intcor
     12.88     -14.28       1.97        0.00      59.14       1.83       1.00       0.40       ----

> <Gold.Chemscore.Fitness>
12.8786

> <Gold.Chemscore.DG>
-14.2802

> <Gold.Chemscore.ZeroCoef>
-5.4800

> <Gold.Chemscore.Hbond>
1.9666

> <Gold.Chemscore.Metal>
0.0000

> <Gold.Chemscore.Lipo>
59.1423

> <Gold.Chemscore.Internal_Hbond>
0.0000

> <Gold.Chemscore.DEClash>
0.9977

> <Gold.Chemscore.DEInternal>
0.4039

> <Gold.Chemscore.Rot>
1.8312

> <Gold.Chemscore.Internal.Correction>
   9.000000E+99

> <Gold.Chemscore.Hbonds>
donor molecule, donor type, donor heavy atom, donor atom, acceptor molecule, acceptor atom, score
      L1  H     3    17       P1  8028  0.62
      L1  H     9    22       P1  7948  0.56
      L1  H     9    25       P1  7957  0.64

> <Gold.Chemscore.Hbond.Weighted>
-6.5685

> <Gold.Chemscore.Metal.Weighted>
-0.0000

> <Gold.Chemscore.Lipo.Weighted>
-6.9196

> <Gold.Chemscore.Internal_Hbond.Weighted>
0.0000

> <Gold.Chemscore.DEClash.Weighted>
0.9977

> <Gold.Chemscore.DEInternal.Weighted>
0.4039

> <Gold.Chemscore.Rot.Weighted>
4.6879

> <Gold.Chemscore.Internal.Correction.Weighted>
   9.000000E+99

> <Gold.Protein.RotatedTorsions>
[ 6907 6896 6895 6894 ] final   42.79 input  -60.11 | X-H torsion
[ 7974 7965 7964 7962 ] final  -47.68 input  175.53 | X-H torsion
[ 8008 7997 7996 7995 ] final   39.06 input   59.86 | X-H torsion
[ 10167 10162 10161 10158 ] final  132.42 input  -65.29 | X-H torsion
[ 10718 10713 10712 10709 ] final  119.05 input   66.30 | X-H torsion
[ 10763 10752 10751 10750 ] final  -41.62 input  -60.55 | X-H torsion
[ 11005 11000 10999 10996 ] final  136.29 input  -57.11 | X-H torsion

> <Gold.Protein.ActiveResidues>
 VAL166  LYS551  ARG553  GLY616  TRP617  ASP618  TYR619  PRO620  LYS621  CYS622 
 ASP623  PHE694  ASN695  SER759  ASP760  ASP761  ALA762  ILE779  LEU786  VAL792 
 PHE793  MET794  SER795  GLU796  ALA797  LYS798  CYS799  TRP800  GLU811  SER814 

> <Gold.Protein.RotatedAtoms>
  152.2123  134.8490  160.0495 H   0  0  0  0  0  0  0  0  0  0  0  0  # atno 6907 bound_to 6896
  151.9304  133.3604  159.3937 H   0  0  0  0  0  0  0  0  0  0  0  0  # atno 6908 bound_to 6896
  150.6979  134.4468  159.5362 H   0  0  0  0  0  0  0  0  0  0  0  0  # atno 6909 bound_to 6896
  145.9591  140.7497  142.9466 H   0  0  0  0  0  0  0  0  0  0  0  0  # atno 7974 bound_to 7965
  155.2305  140.3338  155.4304 H   0  0  0  0  0  0  0  0  0  0  0  0  # atno 8008 bound_to 7997
  156.2297  140.1845  156.7320 H   0  0  0  0  0  0  0  0  0  0  0  0  # atno 8009 bound_to 7997
  154.5957  140.0631  156.9285 H   0  0  0  0  0  0  0  0  0  0  0  0  # atno 8010 bound_to 7997
  139.5340  144.6663  151.4849 H   0  0  0  0  0  0  0  0  0  0  0  0  # atno 10167 bound_to 10162
  157.5988  131.1054  150.7842 H   0  0  0  0  0  0  0  0  0  0  0  0  # atno 10718 bound_to 10713
  153.9655  135.6734  153.4746 H   0  0  0  0  0  0  0  0  0  0  0  0  # atno 10763 bound_to 10752
  153.0817  135.4919  154.8514 H   0  0  0  0  0  0  0  0  0  0  0  0  # atno 10764 bound_to 10752
  154.7248  135.3125  154.8948 H   0  0  0  0  0  0  0  0  0  0  0  0  # atno 10765 bound_to 10752
  140.0036  134.9468  157.0126 H   0  0  0  0  0  0  0  0  0  0  0  0  # atno 11005 bound_to 11000
  144.6811  140.2561  143.7325 LP  0  0  0  0  0  0  0  0  0  0  0  0  # atno 17320 bound_to 7965
  145.8065  139.1985  143.2018 LP  0  0  0  0  0  0  0  0  0  0  0  0  # atno 17321 bound_to 7965
  140.6536  143.8645  150.6812 LP  0  0  0  0  0  0  0  0  0  0  0  0  # atno 17342 bound_to 10162
  140.2017  143.3954  152.1786 LP  0  0  0  0  0  0  0  0  0  0  0  0  # atno 17343 bound_to 10162
  156.8246  130.4995  149.5339 LP  0  0  0  0  0  0  0  0  0  0  0  0  # atno 17370 bound_to 10713
  156.1057  130.6002  150.9966 LP  0  0  0  0  0  0  0  0  0  0  0  0  # atno 17371 bound_to 10713
  140.4682  134.1413  155.7199 LP  0  0  0  0  0  0  0  0  0  0  0  0  # atno 17394 bound_to 11000
  141.1660  133.8701  157.1712 LP  0  0  0  0  0  0  0  0  0  0  0  0  # atno 17395 bound_to 11000

$$$$
