AV-unprocessed.smi:1396|AV-procd|sdf|5674|dock5
  -GOLD-   22720 5293D 1   1.00000     0.00000
 Structure written by MMmdl.
 46 47  0  0  0  0  0  0  0  0  1 V2000
  152.6920  141.7833  160.1141 C   0  0  0  0  0  0  0  0  0  0  0  0
  152.0711  142.2129  158.8707 N   0  0  0  0  0  0  0  0  0  0  0  0
  151.0923  141.5432  158.2451 C   0  0  0  0  0  0  0  0  0  0  0  0
  150.6111  140.4935  158.6709 O   0  0  0  0  0  0  0  0  0  0  0  0
  150.5702  142.1528  156.9384 C   0  0  0  0  0  0  0  0  0  0  0  0
  149.4882  141.3824  156.2819 N   0  0  0  0  0  0  0  0  0  0  0  0
  149.5787  141.5658  154.8293 C   0  0  0  0  0  0  0  0  0  0  0  0
  148.5527  140.6767  154.1055 C   0  0  0  0  0  0  0  0  0  0  0  0
  147.1247  140.9892  154.5727 C   0  0  0  0  0  0  0  0  0  0  0  0
  146.1844  140.0583  153.9565 N   0  0  0  0  0  0  0  0  0  0  0  0
  146.3293  138.7261  153.9230 C   0  0  0  0  0  0  0  0  0  0  0  0
  147.2770  138.1335  154.4383 O   0  0  0  0  0  0  0  0  0  0  0  0
  145.3060  138.1418  153.2769 N   0  0  0  0  0  0  0  0  0  0  0  0
  145.1305  136.7678  152.9597 C   0  0  0  0  0  0  0  0  0  0  0  0
  145.9448  135.8268  153.6211 C   0  0  0  0  0  0  0  0  0  0  0  0
  145.7747  134.4570  153.3460 C   0  0  0  0  0  0  0  0  0  0  0  0
  144.7858  134.0682  152.4208 C   0  0  0  0  0  0  0  0  0  0  0  0
  144.6202  132.7239  152.1566 O   0  0  0  0  0  0  0  0  0  0  0  0
  143.6058  132.3363  151.2362 C   0  0  0  0  0  0  0  0  0  0  0  0
  143.9892  134.9642  151.7877 N   0  0  0  0  0  0  0  0  0  0  0  0
  144.1583  136.2768  152.0543 C   0  0  0  0  0  0  0  0  0  0  0  0
  147.0709  140.8917  156.1064 C   0  0  0  0  0  0  0  0  0  0  0  0
  148.1525  141.7688  156.7602 C   0  0  0  0  0  0  0  0  0  0  0  0
  153.4434  142.5089  160.4251 H   0  0  0  0  0  0  0  0  0  0  0  0
  153.1824  140.8171  159.9883 H   0  0  0  0  0  0  0  0  0  0  0  0
  151.9512  141.6974  160.9100 H   0  0  0  0  0  0  0  0  0  0  0  0
  152.4109  143.0666  158.4515 H   0  0  0  0  0  0  0  0  0  0  0  0
  150.2292  143.1711  157.1343 H   0  0  0  0  0  0  0  0  0  0  0  0
  151.4200  142.2369  156.2594 H   0  0  0  0  0  0  0  0  0  0  0  0
  149.4220  142.6137  154.5669 H   0  0  0  0  0  0  0  0  0  0  0  0
  150.5788  141.3001  154.4844 H   0  0  0  0  0  0  0  0  0  0  0  0
  148.6332  140.8234  153.0278 H   0  0  0  0  0  0  0  0  0  0  0  0
  148.7870  139.6275  154.2937 H   0  0  0  0  0  0  0  0  0  0  0  0
  146.8760  142.0075  154.2680 H   0  0  0  0  0  0  0  0  0  0  0  0
  145.3719  140.4610  153.5129 H   0  0  0  0  0  0  0  0  0  0  0  0
  144.5506  138.7503  152.9975 H   0  0  0  0  0  0  0  0  0  0  0  0
  146.6934  136.1478  154.3308 H   0  0  0  0  0  0  0  0  0  0  0  0
  146.3895  133.7177  153.8378 H   0  0  0  0  0  0  0  0  0  0  0  0
  143.5997  131.2504  151.1421 H   0  0  0  0  0  0  0  0  0  0  0  0
  143.7863  132.7536  150.2444 H   0  0  0  0  0  0  0  0  0  0  0  0
  142.6168  132.6436  151.5794 H   0  0  0  0  0  0  0  0  0  0  0  0
  143.4733  136.9308  151.5381 H   0  0  0  0  0  0  0  0  0  0  0  0
  146.0882  141.1951  156.4696 H   0  0  0  0  0  0  0  0  0  0  0  0
  147.2084  139.8554  156.4195 H   0  0  0  0  0  0  0  0  0  0  0  0
  148.0733  141.6487  157.8404 H   0  0  0  0  0  0  0  0  0  0  0  0
  147.9660  142.8226  156.5458 H   0  0  0  0  0  0  0  0  0  0  0  0
  1  2  1  0  0  0  0
  1 24  1  0  0  0  0
  1 25  1  0  0  0  0
  1 26  1  0  0  0  0
  2  3  1  0  0  0  0
  2 27  1  0  0  0  0
  3  4  2  0  0  0  0
  3  5  1  0  0  0  0
  5  6  1  0  0  0  0
  5 28  1  0  0  0  0
  5 29  1  0  0  0  0
  6 23  1  0  0  0  0
  6  7  1  0  0  0  0
  7  8  1  0  0  0  0
  7 30  1  0  0  0  0
  7 31  1  0  0  0  0
  8  9  1  0  0  0  0
  8 32  1  0  0  0  0
  8 33  1  0  0  0  0
  9 10  1  0  0  0  0
  9 22  1  0  0  0  0
  9 34  1  0  0  0  0
 10 11  1  0  0  0  0
 10 35  1  0  0  0  0
 11 12  2  0  0  0  0
 11 13  1  0  0  0  0
 13 14  1  0  0  0  0
 13 36  1  0  0  0  0
 14 21  1  0  0  0  0
 14 15  2  0  0  0  0
 15 16  1  0  0  0  0
 15 37  1  0  0  0  0
 16 17  2  0  0  0  0
 16 38  1  0  0  0  0
 17 18  1  0  0  0  0
 17 20  1  0  0  0  0
 18 19  1  0  0  0  0
 19 39  1  0  0  0  0
 19 40  1  0  0  0  0
 19 41  1  0  0  0  0
 20 21  2  0  0  0  0
 21 42  1  0  0  0  0
 22 23  1  0  0  0  0
 22 43  1  0  0  0  0
 22 44  1  0  0  0  0
 23 45  1  0  0  0  0
 23 46  1  0  0  0  0
M  END
> <s_m_source_file>
AV-unprocessed.smi

> <i_m_source_file_index>
1396

> <i_lp_mmshare_version>
43012

> <i_f3d_flags>
0

> <s_epik_input>
W0NIM11bTkhdQyg9TylbQ0gyXU4xW0NIMl1bQ0gyXVtDSF0oW0NIMl1bQ0gyXTEpW05IXUMoPU8pW05IXWMyW2NIXVtjSF1jKE9bQ0gzXSluW2NIXTI=

> <s_epik_cmdline>
J2VwaWtfcHl0aG9uJywgJy1waCcsICc3LjAnLCAnLXRuJywgJzgnLCAnLW1hJywgJzIwMCcsICctbWV0YWxfYmluZGluZycsICctaW1hZScsICc8aW5maWxlLm1hZT4nLCAnLW9tYWUnLCAnPG91dGZpbGUubWFlPic=

> <r_lp_tautomer_probability>
1

> <r_epik_Ionization_Penalty>
0.16483

> <r_epik_Ionization_Penalty_Charging>
0

> <r_epik_Ionization_Penalty_Neutral>
0.16483

> <r_epik_State_Penalty>
0.154069

> <r_epik_Charging_Adjusted_Penalty>
0.154069

> <i_epik_Tot_Q>
0

> <i_epik_Tot_abs_Q>
0

> <r_epik_Metal_State_Penalty>
0.158584

> <b_epik_Metal_Only>
0

> <s_lp_Force_Field>
OPLS_2005

> <r_lp_Energy>
15.765

> <b_lp_Chiralities_Consistent>
1

> <s_lp_Variant>
AV-unprocessed.smi:1396-1

> <Gold.Version>
5.8.1

> <Gold.Id.Protein>
6NUR|6NUR_protein|mol2

> <Gold.PLP.Fitness>
36.6890

> <Gold.PLP.PLP>
-28.8183

> <Gold.PLP.part.hbond>
-2.0000

> <Gold.PLP.part.metal>
0.0000

> <Gold.PLP.part.buried>
-3.8553

> <Gold.PLP.part.nonpolar>
-23.1335

> <Gold.PLP.part.repulsive>
0.5424

> <Gold.PLP.ligand.clash>
0.0000

> <Gold.PLP.ligand.torsion>
0.5354

> <Gold.PLP.Chemscore.Hbond>
2.0000

> <Gold.PLP.Chemscore.CHOScore>
0.9711

> <Gold.PLP.Chemscore.Metal>
0.0000

> <Gold.Chemscore.Hbonds>
donor molecule, donor type, donor heavy atom, donor atom, acceptor molecule, acceptor atom, score
      L1  H    10    35       P1 10175  1.00
      L1  H    13    36       P1 10175  1.00
      L1  C    21    42       P1 10171  1.00

> <Gold.PLP.Chemscore.Internal.Correction>
0.0282

> <Gold.Rescore>
     Score         DG    S(hbond)    S(metal)    S(lipo)     H(rot)  DE(clash)    DE(int)     intcor
     10.76     -14.25       1.94        0.00      62.51       1.96       0.05       3.44       ----

> <Gold.Chemscore.Fitness>
10.7646

> <Gold.Chemscore.DG>
-14.2489

> <Gold.Chemscore.ZeroCoef>
-5.4800

> <Gold.Chemscore.Hbond>
1.9413

> <Gold.Chemscore.Metal>
0.0000

> <Gold.Chemscore.Lipo>
62.5129

> <Gold.Chemscore.Internal_Hbond>
0.0000

> <Gold.Chemscore.DEClash>
0.0465

> <Gold.Chemscore.DEInternal>
3.4378

> <Gold.Chemscore.Rot>
1.9645

> <Gold.Chemscore.Internal.Correction>
   9.000000E+99

> <Gold.Chemscore.Hbonds>
donor molecule, donor type, donor heavy atom, donor atom, acceptor molecule, acceptor atom, score
      L1  H    10    35       P1 10175  0.95
      L1  H    13    36       P1 10175  0.97

> <Gold.Chemscore.Hbond.Weighted>
-6.4839

> <Gold.Chemscore.Metal.Weighted>
-0.0000

> <Gold.Chemscore.Lipo.Weighted>
-7.3140

> <Gold.Chemscore.Internal_Hbond.Weighted>
0.0000

> <Gold.Chemscore.DEClash.Weighted>
0.0465

> <Gold.Chemscore.DEInternal.Weighted>
3.4378

> <Gold.Chemscore.Rot.Weighted>
5.0290

> <Gold.Chemscore.Internal.Correction.Weighted>
   9.000000E+99

> <Gold.Protein.RotatedTorsions>
[ 6907 6896 6895 6894 ] final -147.74 input  -60.11 | X-H torsion
[ 7974 7965 7964 7962 ] final  135.97 input  175.53 | X-H torsion
[ 8008 7997 7996 7995 ] final  115.20 input   59.86 | X-H torsion
[ 10167 10162 10161 10158 ] final -158.36 input  -65.29 | X-H torsion
[ 10718 10713 10712 10709 ] final  -30.46 input   66.30 | X-H torsion
[ 10763 10752 10751 10750 ] final -136.63 input  -60.55 | X-H torsion
[ 11005 11000 10999 10996 ] final -104.86 input  -57.11 | X-H torsion

> <Gold.Protein.ActiveResidues>
 VAL166  LYS551  ARG553  GLY616  TRP617  ASP618  TYR619  PRO620  LYS621  CYS622 
 ASP623  PHE694  ASN695  SER759  ASP760  ASP761  ALA762  ILE779  LEU786  VAL792 
 PHE793  MET794  SER795  GLU796  ALA797  LYS798  CYS799  TRP800  GLU811  SER814 

> <Gold.Protein.RotatedAtoms>
  151.1599  133.4851  159.2594 H   0  0  0  0  0  0  0  0  0  0  0  0  # atno 6907 bound_to 6896
  151.1465  135.0205  159.8659 H   0  0  0  0  0  0  0  0  0  0  0  0  # atno 6908 bound_to 6896
  152.5463  134.1488  159.8563 H   0  0  0  0  0  0  0  0  0  0  0  0  # atno 6909 bound_to 6896
  144.9611  139.4710  143.5479 H   0  0  0  0  0  0  0  0  0  0  0  0  # atno 7974 bound_to 7965
  156.2367  140.2943  156.0332 H   0  0  0  0  0  0  0  0  0  0  0  0  # atno 8008 bound_to 7997
  155.2071  140.0411  157.2944 H   0  0  0  0  0  0  0  0  0  0  0  0  # atno 8009 bound_to 7997
  154.6092  140.2447  155.7698 H   0  0  0  0  0  0  0  0  0  0  0  0  # atno 8010 bound_to 7997
  139.6698  143.9764  152.2277 H   0  0  0  0  0  0  0  0  0  0  0  0  # atno 10167 bound_to 10162
  156.3995  130.4387  149.7333 H   0  0  0  0  0  0  0  0  0  0  0  0  # atno 10718 bound_to 10713
  154.8679  135.3667  154.5092 H   0  0  0  0  0  0  0  0  0  0  0  0  # atno 10763 bound_to 10752
  153.5728  135.7020  153.5502 H   0  0  0  0  0  0  0  0  0  0  0  0  # atno 10764 bound_to 10752
  153.3526  135.4068  155.1621 H   0  0  0  0  0  0  0  0  0  0  0  0  # atno 10765 bound_to 10752
  141.1081  133.8758  157.1662 H   0  0  0  0  0  0  0  0  0  0  0  0  # atno 11005 bound_to 11000
  146.3353  139.8761  142.8832 LP  0  0  0  0  0  0  0  0  0  0  0  0  # atno 17320 bound_to 7965
  145.2699  141.0105  143.3778 LP  0  0  0  0  0  0  0  0  0  0  0  0  # atno 17321 bound_to 7965
  139.9526  144.6610  150.8157 LP  0  0  0  0  0  0  0  0  0  0  0  0  # atno 17342 bound_to 10162
  140.7614  143.3173  151.2704 LP  0  0  0  0  0  0  0  0  0  0  0  0  # atno 17343 bound_to 10162
  156.4355  130.7836  151.2856 LP  0  0  0  0  0  0  0  0  0  0  0  0  # atno 17370 bound_to 10713
  157.7503  131.0141  150.3450 LP  0  0  0  0  0  0  0  0  0  0  0  0  # atno 17371 bound_to 10713
  139.9961  135.0046  157.0085 LP  0  0  0  0  0  0  0  0  0  0  0  0  # atno 17394 bound_to 11000
  140.4849  134.1252  155.7223 LP  0  0  0  0  0  0  0  0  0  0  0  0  # atno 17395 bound_to 11000

$$$$
