AV-unprocessed.smi:346|AV-procd|sdf|2392|dock5
  -GOLD-   2262022323D 1   1.00000     0.00000
 Structure written by MMmdl.
 33 34  0  0  0  0  0  0  0  0  1 V2000
  148.5500  140.9616  153.9990 C   0  0  0  0  0  0  0  0  0  0  0  0
  148.6511  141.9255  155.0324 O   0  0  0  0  0  0  0  0  0  0  0  0
  149.3011  141.4196  156.1856 C   0  0  0  0  0  0  0  0  0  0  0  0
  150.4877  142.3306  156.5218 C   0  0  0  0  0  0  0  0  0  0  0  0
  151.4494  141.6634  157.3851 N   0  0  0  0  0  0  0  0  0  0  0  0
  152.1768  140.5498  157.1186 C   0  0  0  0  0  0  0  0  0  0  0  0
  152.0338  139.7101  155.5665 S   0  0  0  0  0  0  0  0  0  0  0  0
  151.1352  138.2149  156.0819 C   0  0  0  0  0  0  0  0  0  0  0  0
  150.8251  137.2852  154.9111 C   0  0  0  0  0  0  0  0  0  0  0  0
  150.0841  137.7820  153.9168 N   0  0  0  0  0  0  0  0  0  0  0  0
  151.2562  136.1345  154.8974 O   0  0  0  0  0  0  0  0  0  0  0  0
  152.9910  140.1527  158.0988 N   0  0  0  0  0  0  0  0  0  0  0  0
  152.7740  141.0948  159.0843 C   0  0  0  0  0  0  0  0  0  0  0  0
  153.3418  141.2247  160.3718 C   0  0  0  0  0  0  0  0  0  0  0  0
  152.9614  142.2891  161.2156 C   0  0  0  0  0  0  0  0  0  0  0  0
  153.6633  142.4316  162.7851 Cl  0  0  0  0  0  0  0  0  0  0  0  0
  152.0104  143.2367  160.7833 C   0  0  0  0  0  0  0  0  0  0  0  0
  151.4326  143.1248  159.5039 C   0  0  0  0  0  0  0  0  0  0  0  0
  151.8148  142.0588  158.6676 C   0  0  0  0  0  0  0  0  0  0  0  0
  148.0418  141.3987  153.1395 H   0  0  0  0  0  0  0  0  0  0  0  0
  147.9756  140.0931  154.3235 H   0  0  0  0  0  0  0  0  0  0  0  0
  149.5359  140.6275  153.6734 H   0  0  0  0  0  0  0  0  0  0  0  0
  148.6025  141.3841  157.0230 H   0  0  0  0  0  0  0  0  0  0  0  0
  149.6492  140.4018  156.0025 H   0  0  0  0  0  0  0  0  0  0  0  0
  150.9944  142.6366  155.6061 H   0  0  0  0  0  0  0  0  0  0  0  0
  150.1458  143.2478  157.0019 H   0  0  0  0  0  0  0  0  0  0  0  0
  151.7275  137.6697  156.8179 H   0  0  0  0  0  0  0  0  0  0  0  0
  150.2018  138.5054  156.5661 H   0  0  0  0  0  0  0  0  0  0  0  0
  149.8598  137.2062  153.1183 H   0  0  0  0  0  0  0  0  0  0  0  0
  149.7568  138.7359  153.9647 H   0  0  0  0  0  0  0  0  0  0  0  0
  154.0712  140.5037  160.7101 H   0  0  0  0  0  0  0  0  0  0  0  0
  151.7233  144.0502  161.4337 H   0  0  0  0  0  0  0  0  0  0  0  0
  150.7051  143.8497  159.1707 H   0  0  0  0  0  0  0  0  0  0  0  0
  1  2  1  0  0  0  0
  1 20  1  0  0  0  0
  1 21  1  0  0  0  0
  1 22  1  0  0  0  0
  2  3  1  0  0  0  0
  3  4  1  0  0  0  0
  3 23  1  0  0  0  0
  3 24  1  0  0  0  0
  4  5  1  0  0  0  0
  4 25  1  0  0  0  0
  4 26  1  0  0  0  0
  5 19  1  0  0  0  0
  5  6  1  0  0  0  0
  6  7  1  0  0  0  0
  6 12  2  0  0  0  0
  7  8  1  0  0  0  0
  8  9  1  0  0  0  0
  8 27  1  0  0  0  0
  8 28  1  0  0  0  0
  9 10  1  0  0  0  0
  9 11  2  0  0  0  0
 10 29  1  0  0  0  0
 10 30  1  0  0  0  0
 12 13  1  0  0  0  0
 13 19  2  0  0  0  0
 13 14  1  0  0  0  0
 14 15  2  0  0  0  0
 14 31  1  0  0  0  0
 15 16  1  0  0  0  0
 15 17  1  0  0  0  0
 17 18  2  0  0  0  0
 17 32  1  0  0  0  0
 18 19  1  0  0  0  0
 18 33  1  0  0  0  0
M  END
> <s_m_source_file>
AV-unprocessed.smi

> <i_m_source_file_index>
346

> <i_lp_mmshare_version>
43012

> <i_f3d_flags>
0

> <s_epik_input>
W2NIXTFjKENsKVtjSF1bY0hdYyhjMTIpbihbQ0gyXVtDSDJdT1tDSDNdKWMobjIpU1tDSDJdQyg9TylbTkgyXQ==

> <s_epik_cmdline>
J2VwaWtfcHl0aG9uJywgJy1waCcsICc3LjAnLCAnLXRuJywgJzgnLCAnLW1hJywgJzIwMCcsICctbWV0YWxfYmluZGluZycsICctaW1hZScsICc8aW5maWxlLm1hZT4nLCAnLW9tYWUnLCAnPG91dGZpbGUubWFlPic=

> <r_epik_Ionization_Penalty>
0.00801462

> <r_epik_Ionization_Penalty_Charging>
0

> <r_epik_Ionization_Penalty_Neutral>
0.00801462

> <r_epik_State_Penalty>
0.00601782

> <r_epik_Charging_Adjusted_Penalty>
0.00601782

> <i_epik_Tot_Q>
0

> <i_epik_Tot_abs_Q>
0

> <r_epik_Metal_State_Penalty>
0.00593415

> <b_epik_Metal_Only>
0

> <s_lp_Force_Field>
OPLS_2005

> <r_lp_Energy>
4.29965

> <b_lp_Chiralities_Consistent>
1

> <s_lp_Variant>
AV-unprocessed.smi:346-1

> <Gold.Version>
5.8.1

> <Gold.Id.Protein>
6NUR|6NUR_protein|mol2

> <Gold.PLP.Fitness>
45.9680

> <Gold.PLP.PLP>
-38.7044

> <Gold.PLP.part.hbond>
-3.2686

> <Gold.PLP.part.metal>
0.0000

> <Gold.PLP.part.buried>
-2.3090

> <Gold.PLP.part.nonpolar>
-31.1593

> <Gold.PLP.part.repulsive>
0.6880

> <Gold.PLP.ligand.clash>
0.0000

> <Gold.PLP.ligand.torsion>
0.5903

> <Gold.PLP.Chemscore.Hbond>
2.8064

> <Gold.PLP.Chemscore.CHOScore>
0.0000

> <Gold.PLP.Chemscore.Metal>
0.0000

> <Gold.Chemscore.Hbonds>
donor molecule, donor type, donor heavy atom, donor atom, acceptor molecule, acceptor atom, score
      L1  H    10    29       P1  7948  1.00
      P1  H  7997  8008       L1    12  0.83
      P1  H 10752 10764       L1    11  1.00

> <Gold.PLP.Chemscore.Internal.Correction>
0.0250

> <Gold.Rescore>
     Score         DG    S(hbond)    S(metal)    S(lipo)     H(rot)  DE(clash)    DE(int)     intcor
     16.96     -18.05       2.22        0.00     102.74       2.68       0.37       0.72       ----

> <Gold.Chemscore.Fitness>
16.9601

> <Gold.Chemscore.DG>
-18.0491

> <Gold.Chemscore.ZeroCoef>
-5.4800

> <Gold.Chemscore.Hbond>
2.2195

> <Gold.Chemscore.Metal>
0.0000

> <Gold.Chemscore.Lipo>
102.7363

> <Gold.Chemscore.Internal_Hbond>
0.0000

> <Gold.Chemscore.DEClash>
0.3701

> <Gold.Chemscore.DEInternal>
0.7189

> <Gold.Chemscore.Rot>
2.6814

> <Gold.Chemscore.Internal.Correction>
   9.000000E+99

> <Gold.Chemscore.Hbonds>
donor molecule, donor type, donor heavy atom, donor atom, acceptor molecule, acceptor atom, score
      L1  H    10    29       P1  7948  0.35
      P1  H  7997  8008       L1    12  0.24
      P1  H 10752 10764       L1    11  1.00

> <Gold.Chemscore.Hbond.Weighted>
-7.4133

> <Gold.Chemscore.Metal.Weighted>
-0.0000

> <Gold.Chemscore.Lipo.Weighted>
-12.0201

> <Gold.Chemscore.Internal_Hbond.Weighted>
0.0000

> <Gold.Chemscore.DEClash.Weighted>
0.3701

> <Gold.Chemscore.DEInternal.Weighted>
0.7189

> <Gold.Chemscore.Rot.Weighted>
6.8644

> <Gold.Chemscore.Internal.Correction.Weighted>
   9.000000E+99

> <Gold.Protein.RotatedTorsions>
[ 6907 6896 6895 6894 ] final   65.42 input  -60.11 | X-H torsion
[ 7974 7965 7964 7962 ] final   44.98 input  175.53 | X-H torsion
[ 8008 7997 7996 7995 ] final  -96.90 input   59.86 | X-H torsion
[ 10167 10162 10161 10158 ] final   20.89 input  -65.29 | X-H torsion
[ 10718 10713 10712 10709 ] final -104.53 input   66.30 | X-H torsion
[ 10763 10752 10751 10750 ] final  -64.80 input  -60.55 | X-H torsion
[ 11005 11000 10999 10996 ] final    4.40 input  -57.11 | X-H torsion

> <Gold.Protein.ActiveResidues>
 VAL166  LYS551  ARG553  GLY616  TRP617  ASP618  TYR619  PRO620  LYS621  CYS622 
 ASP623  PHE694  ASN695  SER759  ASP760  ASP761  ALA762  ILE779  LEU786  VAL792 
 PHE793  MET794  SER795  GLU796  ALA797  LYS798  CYS799  TRP800  GLU811  SER814 

> <Gold.Protein.RotatedAtoms>
  152.4406  134.5598  159.9890 H   0  0  0  0  0  0  0  0  0  0  0  0  # atno 6907 bound_to 6896
  151.5696  133.3386  159.2995 H   0  0  0  0  0  0  0  0  0  0  0  0  # atno 6908 bound_to 6896
  150.8312  134.7599  159.6919 H   0  0  0  0  0  0  0  0  0  0  0  0  # atno 6909 bound_to 6896
  146.0520  139.5014  142.9712 H   0  0  0  0  0  0  0  0  0  0  0  0  # atno 7974 bound_to 7965
  154.7806  140.0467  157.1124 H   0  0  0  0  0  0  0  0  0  0  0  0  # atno 8008 bound_to 7997
  154.9710  140.3089  155.4968 H   0  0  0  0  0  0  0  0  0  0  0  0  # atno 8009 bound_to 7997
  156.2936  140.2253  156.4802 H   0  0  0  0  0  0  0  0  0  0  0  0  # atno 8010 bound_to 7997
  140.5469  143.9579  150.6553 H   0  0  0  0  0  0  0  0  0  0  0  0  # atno 10167 bound_to 10162
  156.0308  130.5519  150.7409 H   0  0  0  0  0  0  0  0  0  0  0  0  # atno 10718 bound_to 10713
  154.3355  135.6167  153.5571 H   0  0  0  0  0  0  0  0  0  0  0  0  # atno 10763 bound_to 10752
  152.9808  135.5757  154.4913 H   0  0  0  0  0  0  0  0  0  0  0  0  # atno 10764 bound_to 10752
  154.4607  135.2856  155.1692 H   0  0  0  0  0  0  0  0  0  0  0  0  # atno 10765 bound_to 10752
  140.5824  134.0001  155.8053 H   0  0  0  0  0  0  0  0  0  0  0  0  # atno 11005 bound_to 11000
  145.6708  141.0217  143.1659 LP  0  0  0  0  0  0  0  0  0  0  0  0  # atno 17320 bound_to 7965
  144.7128  139.8308  143.7409 LP  0  0  0  0  0  0  0  0  0  0  0  0  # atno 17321 bound_to 7965
  140.2994  143.3270  152.0986 LP  0  0  0  0  0  0  0  0  0  0  0  0  # atno 17342 bound_to 10162
  139.5011  144.6706  151.6252 LP  0  0  0  0  0  0  0  0  0  0  0  0  # atno 17343 bound_to 10162
  157.4978  131.0916  151.0350 LP  0  0  0  0  0  0  0  0  0  0  0  0  # atno 17370 bound_to 10713
  157.0739  130.5875  149.5407 LP  0  0  0  0  0  0  0  0  0  0  0  0  # atno 17371 bound_to 10713
  141.0988  133.9801  157.3115 LP  0  0  0  0  0  0  0  0  0  0  0  0  # atno 17394 bound_to 11000
  139.9311  135.0200  156.8404 LP  0  0  0  0  0  0  0  0  0  0  0  0  # atno 17395 bound_to 11000

$$$$
