#       Name:                AV-unprocessed.smi:1628
#       Creating user name   scv26
#       Creation time:       Fri Mar 27 07:19:26 2020


#       File generated by GOLD software.
#

@<TRIPOS>MOLECULE
AV-unprocessed.smi:1628
    61    63     1
SMALL
NO_CHARGES


@<TRIPOS>ATOM
      1 ****         0.4174   1.0845  -0.0631 O.2            1 S1                 0.0000
      2 ****        -0.0848  -0.0022   0.2225 C.2            1 S1                 0.0000
      3 ****         0.6339  -1.1171   0.4106 N.am           1 S1                 0.0000
      4 ****         2.0836  -1.1877   0.2853 C.3            1 S1                 0.0000
      5 ****         2.5589  -2.6536   0.3191 C.3            1 S1                 0.0000
      6 ****         4.0306  -2.8114   0.1748 N.4            1 S1                 1.0000
      7 ****         4.7936  -2.2143   1.3029 C.3            1 S1                 0.0000
      8 ****         6.1650  -2.8740   1.5168 C.3            1 S1                 0.0000
      9 ****         7.1118  -2.8124   0.3057 C.3            1 S1                 0.0000
     10 ****         6.7163  -3.8022  -0.8022 C.3            1 S1                 0.0000
     11 ****         5.5860  -3.3417  -1.7421 C.3            1 S1                 0.0000
     12 ****         4.5389  -2.3799  -1.1538 C.3            1 S1                 0.0000
     13 ****        -1.3968  -0.2291   0.4065 N.am           1 S1                 0.0000
     14 ****        -2.4794   0.6769   0.2419 C.ar           1 S1                 0.0000
     15 ****        -3.6996   0.3774   0.8779 C.ar           1 S1                 0.0000
     16 ****        -4.7951   1.2454   0.7108 C.ar           1 S1                 0.0000
     17 ****        -4.6471   2.3959  -0.0991 C.ar           1 S1                 0.0000
     18 ****        -5.7316   3.2812  -0.2831 N.3            1 S1                 0.0000
     19 ****        -6.3734   3.7614   0.9382 C.3            1 S1                 0.0000
     20 ****        -7.7075   4.4523   0.6066 C.3            1 S1                 0.0000
     21 ****        -7.4927   5.4859  -0.3485 O.3            1 S1                 0.0000
     22 ****        -6.9722   4.9762  -1.5713 C.3            1 S1                 0.0000
     23 ****        -5.6106   4.3084  -1.3163 C.3            1 S1                 0.0000
     24 ****        -3.4781   2.6727  -0.7269 N.ar           1 S1                 0.0000
     25 ****        -2.4290   1.8399  -0.5621 C.ar           1 S1                 0.0000
     26 ****         0.1468  -1.9681   0.6510 H              1 S1                 0.0000
     27 ****         2.3866  -0.7086  -0.6470 H              1 S1                 0.0000
     28 ****         2.5289  -0.6159   1.1002 H              1 S1                 0.0000
     29 ****         2.2467  -3.1217   1.2537 H              1 S1                 0.0000
     30 ****         2.0695  -3.2204  -0.4744 H              1 S1                 0.0000
     31 ****         4.9062  -1.1384   1.1617 H              1 S1                 0.0000
     32 ****         4.2240  -2.3370   2.2251 H              1 S1                 0.0000
     33 ****         6.6495  -2.3762   2.3575 H              1 S1                 0.0000
     34 ****         6.0310  -3.9105   1.8293 H              1 S1                 0.0000
     35 ****         7.1947  -1.7964  -0.0821 H              1 S1                 0.0000
     36 ****         8.1106  -3.0803   0.6522 H              1 S1                 0.0000
     37 ****         7.5934  -4.0229  -1.4117 H              1 S1                 0.0000
     38 ****         6.4409  -4.7541  -0.3465 H              1 S1                 0.0000
     39 ****         6.0302  -2.8542  -2.6105 H              1 S1                 0.0000
     40 ****         5.0836  -4.2269  -2.1339 H              1 S1                 0.0000
     41 ****         3.7179  -2.3224  -1.8701 H              1 S1                 0.0000
     42 ****         4.9402  -1.3671  -1.0958 H              1 S1                 0.0000
     43 ****        -1.6497  -1.1495   0.7348 H              1 S1                 0.0000
     44 ****        -3.8001  -0.5080   1.4886 H              1 S1                 0.0000
     45 ****        -5.7342   1.0102   1.1887 H              1 S1                 0.0000
     46 ****        -6.5603   2.9520   1.6424 H              1 S1                 0.0000
     47 ****        -5.7025   4.4642   1.4340 H              1 S1                 0.0000
     48 ****        -8.4331   3.7328   0.2233 H              1 S1                 0.0000
     49 ****        -8.1382   4.8878   1.5084 H              1 S1                 0.0000
     50 ****        -7.6761   4.2688  -2.0125 H              1 S1                 0.0000
     51 ****        -6.8604   5.7972  -2.2796 H              1 S1                 0.0000
     52 ****        -4.8817   5.0558  -0.9996 H              1 S1                 0.0000
     53 ****        -5.2457   3.8687  -2.2453 H              1 S1                 0.0000
     54 ****        -1.5444   2.1156  -1.1146 H              1 S1                 0.0000
     55 ****         4.1868  -3.8082   0.2240 H              1 S1                 0.0000
     56 ****         1.4088   1.1657  -0.1656 LP             1 S1                 0.0000
     57 ****        -0.1660   1.8863  -0.1928 LP             1 S1                 0.0000
     58 ****        -6.3820   2.6421  -0.6935 LP             1 S1                 0.0000
     59 ****        -6.8435   6.1460   0.0294 LP             1 S1                 0.0000
     60 ****        -8.3631   5.9425  -0.5326 LP             1 S1                 0.0000
     61 ****        -3.3940   3.4842  -1.3052 LP             1 S1                 0.0000
@<TRIPOS>BOND
    1    1    2 2     
    2    2    3 am    
    3    2   13 am    
    4    3    4 1     
    5    3   26 1     
    6    4    5 1     
    7    4   27 1     
    8    4   28 1     
    9    5    6 1     
   10    5   29 1     
   11    5   30 1     
   12    6   12 1     
   13    6    7 1     
   14    6   55 1     
   15    7    8 1     
   16    7   31 1     
   17    7   32 1     
   18    8    9 1     
   19    8   33 1     
   20    8   34 1     
   21    9   10 1     
   22    9   35 1     
   23    9   36 1     
   24   10   11 1     
   25   10   37 1     
   26   10   38 1     
   27   11   12 1     
   28   11   39 1     
   29   11   40 1     
   30   12   41 1     
   31   12   42 1     
   32   13   14 1     
   33   13   43 1     
   34   14   25 ar    
   35   14   15 ar    
   36   15   16 ar    
   37   15   44 1     
   38   16   17 ar    
   39   16   45 1     
   40   17   18 1     
   41   17   24 ar    
   42   18   23 1     
   43   18   19 1     
   44   19   20 1     
   45   19   46 1     
   46   19   47 1     
   47   20   21 1     
   48   20   48 1     
   49   20   49 1     
   50   21   22 1     
   51   22   23 1     
   52   22   50 1     
   53   22   51 1     
   54   23   52 1     
   55   23   53 1     
   56   24   25 ar    
   57   25   54 1     
   58    1   56 1     
   59    1   57 1     
   60   18   58 1     
   61   21   59 1     
   62   21   60 1     
   63   24   61 1     
@<TRIPOS>SUBSTRUCTURE
      1 S1             1
@<TRIPOS>SET
LONE_PAIRS      STATIC     ATOMS    <user>   **** ""
6 56 57 58 59 60 61
DONOR_HYDROGENS      STATIC     ATOMS    <user>   **** ""
3 26 55 43
ATOM$BLUE        STATIC     ATOMS    COLORGROUP SYSTEM
6 56 57 58 59 60 61
ATOM$RED        STATIC     ATOMS    COLORGROUP SYSTEM
3 26 55 43
