AV-unprocessed.smi:264|AV-procd|sdf|2008|dock6
  -GOLD-   2262021203D 1   1.00000     0.00000
 Structure written by MMmdl.
 52 56  0  0  0  0  0  0  0  0  1 V2000
  145.4172  135.2227  150.6946 C   0  0  0  0  0  0  0  0  0  0  0  0
  144.7947  133.8834  151.1211 C   0  0  1  0  0  0  0  0  0  0  0  0
  144.0016  133.3436  150.0740 O   0  0  0  0  0  0  0  0  0  0  0  0
  143.7938  131.9758  150.3752 C   0  0  0  0  0  0  0  0  0  0  0  0
  145.1764  131.5151  150.8206 C   0  0  0  0  0  0  0  0  0  0  0  0
  145.7708  132.7436  151.5168 C   0  0  1  0  0  0  0  0  0  0  0  0
  147.0714  132.9599  150.9939 O   0  0  0  0  0  0  0  0  0  0  0  0
  145.8906  132.5446  153.0481 C   0  0  0  0  0  0  0  0  0  0  0  0
  146.6859  133.5696  153.7081 N   0  0  0  0  0  0  0  0  0  0  0  0
  146.2848  134.8482  154.0241 C   0  0  0  0  0  0  0  0  0  0  0  0
  147.1814  135.5811  154.6248 N   0  0  0  0  0  0  0  0  0  0  0  0
  148.2923  134.7513  154.7184 C   0  0  0  0  0  0  0  0  0  0  0  0
  149.6011  134.9042  155.2579 C   0  0  0  0  0  0  0  0  0  0  0  0
  150.0277  136.0585  155.8303 N   0  0  0  0  0  0  0  0  0  0  0  0
  150.5702  135.9151  157.1754 C   0  0  0  0  0  0  0  0  0  0  0  0
  151.3368  137.1860  157.5664 C   0  0  0  0  0  0  0  0  0  0  0  0
  150.4969  138.3312  157.4263 O   0  0  0  0  0  0  0  0  0  0  0  0
  149.9665  138.5193  156.1106 C   0  0  1  0  0  0  0  0  0  0  0  0
  149.0430  139.7330  156.1501 C   0  0  0  0  0  0  0  0  0  0  0  0
  149.2629  140.3837  154.7929 C   0  0  0  0  0  0  0  0  0  0  0  0
  150.6599  140.2442  154.6155 O   0  0  0  0  0  0  0  0  0  0  0  0
  151.0394  138.9556  155.0847 C   0  0  0  0  0  0  0  0  0  0  0  0
  149.1960  137.2492  155.6790 C   0  0  0  0  0  0  0  0  0  0  0  0
  150.4354  133.8325  155.1840 N   0  0  0  0  0  0  0  0  0  0  0  0
  150.0272  132.6960  154.6125 C   0  0  0  0  0  0  0  0  0  0  0  0
  148.8438  132.4166  154.0638 N   0  0  0  0  0  0  0  0  0  0  0  0
  147.9965  133.4820  154.1454 C   0  0  0  0  0  0  0  0  0  0  0  0
  146.0465  135.6337  151.4844 H   0  0  0  0  0  0  0  0  0  0  0  0
  144.6404  135.9557  150.4769 H   0  0  0  0  0  0  0  0  0  0  0  0
  146.0269  135.1142  149.7974 H   0  0  0  0  0  0  0  0  0  0  0  0
  144.1070  134.0707  151.9463 H   0  0  0  0  0  0  0  0  0  0  0  0
  143.0688  131.8811  151.1852 H   0  0  0  0  0  0  0  0  0  0  0  0
  143.4227  131.4239  149.5114 H   0  0  0  0  0  0  0  0  0  0  0  0
  145.1296  130.6324  151.4594 H   0  0  0  0  0  0  0  0  0  0  0  0
  145.7570  131.2456  149.9364 H   0  0  0  0  0  0  0  0  0  0  0  0
  147.4630  132.1207  150.8068 H   0  0  0  0  0  0  0  0  0  0  0  0
  144.8987  132.5358  153.5021 H   0  0  0  0  0  0  0  0  0  0  0  0
  146.3338  131.5731  153.2719 H   0  0  0  0  0  0  0  0  0  0  0  0
  145.2953  135.2204  153.8012 H   0  0  0  0  0  0  0  0  0  0  0  0
  149.7481  135.7465  157.8723 H   0  0  0  0  0  0  0  0  0  0  0  0
  151.2321  135.0535  157.2537 H   0  0  0  0  0  0  0  0  0  0  0  0
  151.6653  137.1182  158.6034 H   0  0  0  0  0  0  0  0  0  0  0  0
  152.2377  137.2889  156.9614 H   0  0  0  0  0  0  0  0  0  0  0  0
  147.9982  139.4852  156.3395 H   0  0  0  0  0  0  0  0  0  0  0  0
  149.3643  140.4253  156.9300 H   0  0  0  0  0  0  0  0  0  0  0  0
  148.7323  139.8457  154.0056 H   0  0  0  0  0  0  0  0  0  0  0  0
  148.9554  141.4292  154.7696 H   0  0  0  0  0  0  0  0  0  0  0  0
  152.0389  139.0208  155.5137 H   0  0  0  0  0  0  0  0  0  0  0  0
  151.0871  138.2673  154.2401 H   0  0  0  0  0  0  0  0  0  0  0  0
  148.8598  137.3484  154.6458 H   0  0  0  0  0  0  0  0  0  0  0  0
  148.3041  137.1297  156.2962 H   0  0  0  0  0  0  0  0  0  0  0  0
  150.7528  131.8964  154.5919 H   0  0  0  0  0  0  0  0  0  0  0  0
  1  2  1  0  0  0  0
  1 28  1  0  0  0  0
  1 29  1  0  0  0  0
  1 30  1  0  0  0  0
  2  6  1  0  0  0  0
  2  3  1  0  0  0  0
  2 31  1  0  0  0  0
  3  4  1  0  0  0  0
  4  5  1  0  0  0  0
  4 32  1  0  0  0  0
  4 33  1  0  0  0  0
  5  6  1  0  0  0  0
  5 34  1  0  0  0  0
  5 35  1  0  0  0  0
  6  7  1  0  0  0  0
  6  8  1  0  0  0  0
  7 36  1  0  0  0  0
  8  9  1  0  0  0  0
  8 37  1  0  0  0  0
  8 38  1  0  0  0  0
  9 27  1  0  0  0  0
  9 10  1  0  0  0  0
 10 11  2  0  0  0  0
 10 39  1  0  0  0  0
 11 12  1  0  0  0  0
 12 27  2  0  0  0  0
 12 13  1  0  0  0  0
 13 14  1  0  0  0  0
 13 24  2  0  0  0  0
 14 23  1  0  0  0  0
 14 15  1  0  0  0  0
 15 16  1  0  0  0  0
 15 40  1  0  0  0  0
 15 41  1  0  0  0  0
 16 17  1  0  0  0  0
 16 42  1  0  0  0  0
 16 43  1  0  0  0  0
 17 18  1  0  0  0  0
 18 22  1  0  0  0  0
 18 19  1  0  0  0  0
 18 23  1  0  0  0  0
 19 20  1  0  0  0  0
 19 44  1  0  0  0  0
 19 45  1  0  0  0  0
 20 21  1  0  0  0  0
 20 46  1  0  0  0  0
 20 47  1  0  0  0  0
 21 22  1  0  0  0  0
 22 48  1  0  0  0  0
 22 49  1  0  0  0  0
 23 50  1  0  0  0  0
 23 51  1  0  0  0  0
 24 25  1  0  0  0  0
 25 26  2  0  0  0  0
 25 52  1  0  0  0  0
 26 27  1  0  0  0  0
M  END
> <s_m_source_file>
AV-unprocessed.smi

> <i_m_source_file_index>
264

> <i_lp_mmshare_version>
43012

> <i_f3d_flags>
0

> <s_epik_input>
W0NIMl0xW0NIMl1PW0NAQEhdKFtDSDNdKVtDQEBdMShbT0hdKVtDSDJdbihbY0hdbjIpYyhjMjMpbltjSF1uYzNOKFtDSDJdNClbQ0gyXVtDSDJdT1tDQF00NVtDSDJdW0NIMl1PW0NIMl01

> <s_epik_cmdline>
J2VwaWtfcHl0aG9uJywgJy1waCcsICc3LjAnLCAnLXRuJywgJzgnLCAnLW1hJywgJzIwMCcsICctbWV0YWxfYmluZGluZycsICctaW1hZScsICc8aW5maWxlLm1hZT4nLCAnLW9tYWUnLCAnPG91dGZpbGUubWFlPic=

> <r_lp_tautomer_probability>
1

> <r_epik_Ionization_Penalty>
0.00539389

> <r_epik_Ionization_Penalty_Charging>
0

> <r_epik_Ionization_Penalty_Neutral>
0.00539389

> <r_epik_State_Penalty>
0.00375441

> <r_epik_Charging_Adjusted_Penalty>
0.00375441

> <i_epik_Tot_Q>
0

> <i_epik_Tot_abs_Q>
0

> <r_epik_Metal_State_Penalty>
-0

> <b_epik_Metal_Only>
0

> <s_lp_Force_Field>
OPLS_2005

> <r_lp_Energy>
54.8303

> <b_lp_Chiralities_Consistent>
1

> <s_lp_Variant>
AV-unprocessed.smi:264-2

> <Gold.Version>
5.8.1

> <Gold.Id.Protein>
6NUR|6NUR_protein|mol2

> <Gold.PLP.Fitness>
38.5291

> <Gold.PLP.PLP>
-33.2837

> <Gold.PLP.part.hbond>
-1.9326

> <Gold.PLP.part.metal>
0.0000

> <Gold.PLP.part.buried>
-7.1854

> <Gold.PLP.part.nonpolar>
-25.1882

> <Gold.PLP.part.repulsive>
0.5962

> <Gold.PLP.ligand.clash>
0.0000

> <Gold.PLP.ligand.torsion>
0.5104

> <Gold.PLP.Chemscore.Hbond>
1.9913

> <Gold.PLP.Chemscore.CHOScore>
0.0000

> <Gold.PLP.Chemscore.Metal>
0.0000

> <Gold.Chemscore.Hbonds>
donor molecule, donor type, donor heavy atom, donor atom, acceptor molecule, acceptor atom, score
      L1  H     7    36       P1 10747  0.98
      P1  H  7989  7998       L1    21  1.00

> <Gold.PLP.Chemscore.Internal.Correction>
0.2924

> <Gold.Rescore>
     Score         DG    S(hbond)    S(metal)    S(lipo)     H(rot)  DE(clash)    DE(int)     intcor
     12.90     -14.78       1.85        0.00      72.86       2.11       0.01       1.87       ----

> <Gold.Chemscore.Fitness>
12.8963

> <Gold.Chemscore.DG>
-14.7776

> <Gold.Chemscore.ZeroCoef>
-5.4800

> <Gold.Chemscore.Hbond>
1.8458

> <Gold.Chemscore.Metal>
0.0000

> <Gold.Chemscore.Lipo>
72.8627

> <Gold.Chemscore.Internal_Hbond>
0.0000

> <Gold.Chemscore.DEClash>
0.0085

> <Gold.Chemscore.DEInternal>
1.8727

> <Gold.Chemscore.Rot>
2.1063

> <Gold.Chemscore.Internal.Correction>
   9.000000E+99

> <Gold.Chemscore.Hbonds>
donor molecule, donor type, donor heavy atom, donor atom, acceptor molecule, acceptor atom, score
      L1  H     7    36       P1 10747  0.91
      P1  H  7989  7998       L1    21  0.89

> <Gold.Chemscore.Hbond.Weighted>
-6.1648

> <Gold.Chemscore.Metal.Weighted>
-0.0000

> <Gold.Chemscore.Lipo.Weighted>
-8.5249

> <Gold.Chemscore.Internal_Hbond.Weighted>
0.0000

> <Gold.Chemscore.DEClash.Weighted>
0.0085

> <Gold.Chemscore.DEInternal.Weighted>
1.8727

> <Gold.Chemscore.Rot.Weighted>
5.3921

> <Gold.Chemscore.Internal.Correction.Weighted>
   9.000000E+99

> <Gold.Protein.RotatedTorsions>
[ 6907 6896 6895 6894 ] final  151.48 input  -60.11 | X-H torsion
[ 7974 7965 7964 7962 ] final  -13.82 input  175.53 | X-H torsion
[ 8008 7997 7996 7995 ] final  -28.95 input   59.86 | X-H torsion
[ 10167 10162 10161 10158 ] final  -81.59 input  -65.29 | X-H torsion
[ 10718 10713 10712 10709 ] final   40.71 input   66.30 | X-H torsion
[ 10763 10752 10751 10750 ] final -178.24 input  -60.55 | X-H torsion
[ 11005 11000 10999 10996 ] final  111.22 input  -57.11 | X-H torsion

> <Gold.Protein.ActiveResidues>
 VAL166  LYS551  ARG553  GLY616  TRP617  ASP618  TYR619  PRO620  LYS621  CYS622 
 ASP623  PHE694  ASN695  SER759  ASP760  ASP761  ALA762  ILE779  LEU786  VAL792 
 PHE793  MET794  SER795  GLU796  ALA797  LYS798  CYS799  TRP800  GLU811  SER814 

> <Gold.Protein.RotatedAtoms>
  152.1000  133.4245  159.4582 H   0  0  0  0  0  0  0  0  0  0  0  0  # atno 6907 bound_to 6896
  150.6864  134.2771  159.4621 H   0  0  0  0  0  0  0  0  0  0  0  0  # atno 6908 bound_to 6896
  152.0630  134.9581  160.0625 H   0  0  0  0  0  0  0  0  0  0  0  0  # atno 6909 bound_to 6896
  146.2099  140.3259  142.8394 H   0  0  0  0  0  0  0  0  0  0  0  0  # atno 7974 bound_to 7965
  154.4310  140.1831  156.1170 H   0  0  0  0  0  0  0  0  0  0  0  0  # atno 8008 bound_to 7997
  156.0173  140.3344  155.6977 H   0  0  0  0  0  0  0  0  0  0  0  0  # atno 8009 bound_to 7997
  155.6026  140.0642  157.2719 H   0  0  0  0  0  0  0  0  0  0  0  0  # atno 8010 bound_to 7997
  140.4398  143.2519  151.8642 H   0  0  0  0  0  0  0  0  0  0  0  0  # atno 10167 bound_to 10162
  157.3853  130.7776  149.7225 H   0  0  0  0  0  0  0  0  0  0  0  0  # atno 10718 bound_to 10713
  154.5501  135.2812  155.1016 H   0  0  0  0  0  0  0  0  0  0  0  0  # atno 10763 bound_to 10752
  154.2465  135.6347  153.5229 H   0  0  0  0  0  0  0  0  0  0  0  0  # atno 10764 bound_to 10752
  153.0001  135.5572  154.6065 H   0  0  0  0  0  0  0  0  0  0  0  0  # atno 10765 bound_to 10752
  139.8899  134.9503  156.6399 H   0  0  0  0  0  0  0  0  0  0  0  0  # atno 11005 bound_to 11000
  144.8887  140.7495  143.5941 LP  0  0  0  0  0  0  0  0  0  0  0  0  # atno 17320 bound_to 7965
  145.3181  139.1797  143.4602 LP  0  0  0  0  0  0  0  0  0  0  0  0  # atno 17321 bound_to 7965
  139.4789  144.5242  151.8758 LP  0  0  0  0  0  0  0  0  0  0  0  0  # atno 17342 bound_to 10162
  140.4332  144.2087  150.5888 LP  0  0  0  0  0  0  0  0  0  0  0  0  # atno 17343 bound_to 10162
  155.9785  130.4050  150.3644 LP  0  0  0  0  0  0  0  0  0  0  0  0  # atno 17370 bound_to 10713
  157.1753  131.0379  151.2775 LP  0  0  0  0  0  0  0  0  0  0  0  0  # atno 17371 bound_to 10713
  140.7602  133.8824  155.8412 LP  0  0  0  0  0  0  0  0  0  0  0  0  # atno 17394 bound_to 11000
  140.9928  134.1255  157.4392 LP  0  0  0  0  0  0  0  0  0  0  0  0  # atno 17395 bound_to 11000

$$$$
