AV-unprocessed.smi:968|AV-procd|sdf|4289|dock8
  -GOLD-   22720 2193D 1   1.00000     0.00000
 Structure written by MMmdl.
 20 20  0  0  0  0  0  0  0  0  1 V2000
  151.8354  144.2987  157.7720 C   0  0  0  0  0  0  0  0  0  0  0  0
  150.7305  143.4005  157.4735 N   0  0  0  0  0  0  0  0  0  0  0  0
  150.6064  142.1634  157.9747 C   0  0  0  0  0  0  0  0  0  0  0  0
  151.4313  141.6651  158.7426 O   0  0  0  0  0  0  0  0  0  0  0  0
  149.3610  141.3865  157.5286 C   0  0  0  0  0  0  0  0  0  0  0  0
  149.3860  141.0327  156.1187 N   0  0  0  0  0  0  0  0  0  0  0  0
  149.5100  141.7992  155.0325 C   0  0  0  0  0  0  0  0  0  0  0  0
  149.4900  141.1212  153.8927 N   0  0  0  0  0  0  0  0  0  0  0  0
  149.3413  139.8567  154.3863 C   0  0  0  0  0  0  0  0  0  0  0  0
  149.2648  138.7473  153.5281 N   0  0  0  0  0  0  0  0  0  0  0  0
  149.2719  139.7456  155.7122 N   0  0  0  0  0  0  0  0  0  0  0  0
  151.7272  145.2222  157.2035 H   0  0  0  0  0  0  0  0  0  0  0  0
  152.7910  143.8451  157.5058 H   0  0  0  0  0  0  0  0  0  0  0  0
  151.8531  144.5516  158.8329 H   0  0  0  0  0  0  0  0  0  0  0  0
  150.0135  143.7413  156.8494 H   0  0  0  0  0  0  0  0  0  0  0  0
  149.2653  140.4768  158.1238 H   0  0  0  0  0  0  0  0  0  0  0  0
  148.4723  141.9901  157.7166 H   0  0  0  0  0  0  0  0  0  0  0  0
  149.6192  142.8729  155.0771 H   0  0  0  0  0  0  0  0  0  0  0  0
  149.3191  138.8716  152.5277 H   0  0  0  0  0  0  0  0  0  0  0  0
  149.1232  137.8209  153.9040 H   0  0  0  0  0  0  0  0  0  0  0  0
  1  2  1  0  0  0  0
  1 12  1  0  0  0  0
  1 13  1  0  0  0  0
  1 14  1  0  0  0  0
  2  3  1  0  0  0  0
  2 15  1  0  0  0  0
  3  4  2  0  0  0  0
  3  5  1  0  0  0  0
  5  6  1  0  0  0  0
  5 16  1  0  0  0  0
  5 17  1  0  0  0  0
  6 11  1  0  0  0  0
  6  7  1  0  0  0  0
  7  8  2  0  0  0  0
  7 18  1  0  0  0  0
  8  9  1  0  0  0  0
  9 10  1  0  0  0  0
  9 11  2  0  0  0  0
 10 19  1  0  0  0  0
 10 20  1  0  0  0  0
M  END
> <s_m_source_file>
AV-unprocessed.smi

> <i_m_source_file_index>
968

> <i_lp_mmshare_version>
43012

> <i_f3d_flags>
0

> <s_epik_input>
W0NIM11bTkhdQyg9TylbQ0gyXW4xW2NIXW5jKG4xKVtOSDJd

> <s_epik_cmdline>
J2VwaWtfcHl0aG9uJywgJy1waCcsICc3LjAnLCAnLXRuJywgJzgnLCAnLW1hJywgJzIwMCcsICctbWV0YWxfYmluZGluZycsICctaW1hZScsICc8aW5maWxlLm1hZT4nLCAnLW9tYWUnLCAnPG91dGZpbGUubWFlPic=

> <r_lp_tautomer_probability>
1

> <r_epik_Ionization_Penalty>
0.000377128

> <r_epik_Ionization_Penalty_Charging>
0

> <r_epik_Ionization_Penalty_Neutral>
0.000377128

> <r_epik_State_Penalty>
-0

> <r_epik_Charging_Adjusted_Penalty>
0

> <i_epik_Tot_Q>
0

> <i_epik_Tot_abs_Q>
0

> <r_epik_Metal_State_Penalty>
-0

> <b_epik_Metal_Only>
0

> <s_lp_Force_Field>
OPLS_2005

> <r_lp_Energy>
2.7463

> <b_lp_Chiralities_Consistent>
1

> <s_lp_Variant>
AV-unprocessed.smi:968-1

> <Gold.Version>
5.8.1

> <Gold.Id.Protein>
6NUR|6NUR_protein|mol2

> <Gold.PLP.Fitness>
31.5267

> <Gold.PLP.PLP>
-19.5744

> <Gold.PLP.part.hbond>
-5.0000

> <Gold.PLP.part.metal>
0.0000

> <Gold.PLP.part.buried>
-1.9583

> <Gold.PLP.part.nonpolar>
-13.5241

> <Gold.PLP.part.repulsive>
1.6880

> <Gold.PLP.ligand.clash>
0.0000

> <Gold.PLP.ligand.torsion>
0.0763

> <Gold.PLP.Chemscore.Hbond>
3.0350

> <Gold.PLP.Chemscore.CHOScore>
1.0000

> <Gold.PLP.Chemscore.Metal>
0.0000

> <Gold.Chemscore.Hbonds>
donor molecule, donor type, donor heavy atom, donor atom, acceptor molecule, acceptor atom, score
      L1  H     2    15       P1  8028  1.00
      L1  H    10    19       P1  7957  0.94
      P1  H  7989  7998       L1     8  0.18
      P1  H  8011  8017       L1     8  0.84
      L1  C     7    18       P1  8028  1.00

> <Gold.PLP.Chemscore.Internal.Correction>
0.0000

> <Gold.Rescore>
     Score         DG    S(hbond)    S(metal)    S(lipo)     H(rot)  DE(clash)    DE(int)     intcor
     10.81     -11.61       2.59        0.00      14.76       1.65       0.73       0.08       ----

> <Gold.Chemscore.Fitness>
10.8078

> <Gold.Chemscore.DG>
-11.6086

> <Gold.Chemscore.ZeroCoef>
-5.4800

> <Gold.Chemscore.Hbond>
2.5851

> <Gold.Chemscore.Metal>
0.0000

> <Gold.Chemscore.Lipo>
14.7614

> <Gold.Chemscore.Internal_Hbond>
0.0000

> <Gold.Chemscore.DEClash>
0.7253

> <Gold.Chemscore.DEInternal>
0.0754

> <Gold.Chemscore.Rot>
1.6534

> <Gold.Chemscore.Internal.Correction>
   9.000000E+99

> <Gold.Chemscore.Hbonds>
donor molecule, donor type, donor heavy atom, donor atom, acceptor molecule, acceptor atom, score
      L1  H     2    15       P1  8028  0.99
      L1  H    10    19       P1  7957  0.84
      P1  H  7989  7998       L1     8  0.01
      P1  H  8011  8017       L1     8  0.55

> <Gold.Chemscore.Hbond.Weighted>
-8.6342

> <Gold.Chemscore.Metal.Weighted>
-0.0000

> <Gold.Chemscore.Lipo.Weighted>
-1.7271

> <Gold.Chemscore.Internal_Hbond.Weighted>
0.0000

> <Gold.Chemscore.DEClash.Weighted>
0.7253

> <Gold.Chemscore.DEInternal.Weighted>
0.0754

> <Gold.Chemscore.Rot.Weighted>
4.2327

> <Gold.Chemscore.Internal.Correction.Weighted>
   9.000000E+99

> <Gold.Protein.RotatedTorsions>
[ 6907 6896 6895 6894 ] final   36.26 input  -60.11 | X-H torsion
[ 7974 7965 7964 7962 ] final  -20.38 input  175.53 | X-H torsion
[ 8008 7997 7996 7995 ] final  178.74 input   59.86 | X-H torsion
[ 10167 10162 10161 10158 ] final  143.67 input  -65.29 | X-H torsion
[ 10718 10713 10712 10709 ] final -123.15 input   66.30 | X-H torsion
[ 10763 10752 10751 10750 ] final    6.24 input  -60.55 | X-H torsion
[ 11005 11000 10999 10996 ] final -100.28 input  -57.11 | X-H torsion

> <Gold.Protein.ActiveResidues>
 VAL166  LYS551  ARG553  GLY616  TRP617  ASP618  TYR619  PRO620  LYS621  CYS622 
 ASP623  PHE694  ASN695  SER759  ASP760  ASP761  ALA762  ILE779  LEU786  VAL792 
 PHE793  MET794  SER795  GLU796  ALA797  LYS798  CYS799  TRP800  GLU811  SER814 

> <Gold.Protein.RotatedAtoms>
  152.1274  134.9161  160.0560 H   0  0  0  0  0  0  0  0  0  0  0  0  # atno 6907 bound_to 6896
  152.0278  133.3920  159.4293 H   0  0  0  0  0  0  0  0  0  0  0  0  # atno 6908 bound_to 6896
  150.6853  134.3475  159.4938 H   0  0  0  0  0  0  0  0  0  0  0  0  # atno 6909 bound_to 6896
  146.1791  140.4194  142.8502 H   0  0  0  0  0  0  0  0  0  0  0  0  # atno 7974 bound_to 7965
  156.0513  140.1326  157.0047 H   0  0  0  0  0  0  0  0  0  0  0  0  # atno 8008 bound_to 7997
  154.4436  140.1010  156.6451 H   0  0  0  0  0  0  0  0  0  0  0  0  # atno 8009 bound_to 7997
  155.5519  140.3463  155.4473 H   0  0  0  0  0  0  0  0  0  0  0  0  # atno 8010 bound_to 7997
  139.4964  144.6025  151.6451 H   0  0  0  0  0  0  0  0  0  0  0  0  # atno 10167 bound_to 10162
  156.1478  130.6513  150.9869 H   0  0  0  0  0  0  0  0  0  0  0  0  # atno 10718 bound_to 10713
  153.2500  135.6912  153.7689 H   0  0  0  0  0  0  0  0  0  0  0  0  # atno 10763 bound_to 10752
  153.6787  135.3332  155.3173 H   0  0  0  0  0  0  0  0  0  0  0  0  # atno 10764 bound_to 10752
  154.8390  135.4517  154.1454 H   0  0  0  0  0  0  0  0  0  0  0  0  # atno 10765 bound_to 10752
  141.1276  133.8387  157.1082 H   0  0  0  0  0  0  0  0  0  0  0  0  # atno 11005 bound_to 11000
  144.8285  140.6668  143.6306 LP  0  0  0  0  0  0  0  0  0  0  0  0  # atno 17320 bound_to 7965
  145.4128  139.1577  143.4117 LP  0  0  0  0  0  0  0  0  0  0  0  0  # atno 17321 bound_to 7965
  140.5678  144.0160  150.6201 LP  0  0  0  0  0  0  0  0  0  0  0  0  # atno 17342 bound_to 10162
  140.3268  143.3103  152.0728 LP  0  0  0  0  0  0  0  0  0  0  0  0  # atno 17343 bound_to 10162
  157.6631  131.0877  150.7791 LP  0  0  0  0  0  0  0  0  0  0  0  0  # atno 17370 bound_to 10713
  156.7861  130.4875  149.5392 LP  0  0  0  0  0  0  0  0  0  0  0  0  # atno 17371 bound_to 10713
  140.0291  134.9910  157.0745 LP  0  0  0  0  0  0  0  0  0  0  0  0  # atno 17394 bound_to 11000
  140.4314  134.1776  155.7168 LP  0  0  0  0  0  0  0  0  0  0  0  0  # atno 17395 bound_to 11000

$$$$
