#       Name:                AV-unprocessed.smi:562
#       Creating user name   scv26
#       Creation time:       Thu Mar 26 23:44:25 2020


#       File generated by GOLD software.
#

@<TRIPOS>MOLECULE
AV-unprocessed.smi:562
    49    51     1
SMALL
NO_CHARGES


@<TRIPOS>ATOM
      1 ****        -2.4228   2.6839   1.1436 C.3            1 S1                 0.0000
      2 ****        -1.9639   1.4932   0.5305 O.3            1 S1                 0.0000
      3 ****        -2.3989   0.3256   1.2067 C.3            1 S1                 0.0000
      4 ****        -1.8249  -0.9151   0.5092 C.3            1 S1                 0.0000
      5 ****        -0.3646  -0.9072   0.4906 N.pl3          1 S1                 0.0000
      6 ****         0.4662  -0.4647  -0.4896 C.2            1 S1                 0.0000
      7 ****        -0.0309   0.0845  -1.6904 N.pl3          1 S1                 0.0000
      8 ****        -0.6484  -0.7058  -2.5953 N.2            1 S1                 0.0000
      9 ****        -0.9725   0.1049  -3.5890 C.2            1 S1                 0.0000
     10 ****        -1.6964  -0.4443  -4.7824 C.3            1 S1                 0.0000
     11 ****        -0.5530   1.4436  -3.3510 C.2            1 S1                 0.0000
     12 ****         0.0563   1.3935  -2.1291 C.2            1 S1                 0.0000
     13 ****         0.7157   2.4747  -1.3361 C.3            1 S1                 0.0000
     14 ****         1.7691  -0.5619  -0.2108 N.2            1 S1                 0.0000
     15 ****         1.7702  -1.1201   1.0593 C.2            1 S1                 0.0000
     16 ****         0.5023  -1.3277   1.4988 C.2            1 S1                 0.0000
     17 ****         0.2073  -1.8859   2.8242 C.2            1 S1                 0.0000
     18 ****        -0.9334  -2.0698   3.2433 O.2            1 S1                 0.0000
     19 ****         1.3223  -2.1709   3.5399 N.am           1 S1                 0.0000
     20 ****         2.6238  -1.9907   3.1586 C.2            1 S1                 0.0000
     21 ****         3.5371  -2.2960   3.9252 O.2            1 S1                 0.0000
     22 ****         2.8567  -1.4644   1.9135 N.am           1 S1                 0.0000
     23 ****         4.2304  -1.2458   1.4568 C.3            1 S1                 0.0000
     24 ****         1.1760  -2.5578   4.4610 H              1 S1                 0.0000
     25 ****        -2.0601   3.5457   0.5837 H              1 S1                 0.0000
     26 ****        -2.0531   2.7669   2.1663 H              1 S1                 0.0000
     27 ****        -3.5126   2.7254   1.1587 H              1 S1                 0.0000
     28 ****        -2.0743   0.3529   2.2479 H              1 S1                 0.0000
     29 ****        -3.4889   0.2798   1.2062 H              1 S1                 0.0000
     30 ****        -2.1697  -1.8231   1.0025 H              1 S1                 0.0000
     31 ****        -2.2076  -0.9750  -0.5081 H              1 S1                 0.0000
     32 ****        -1.8983   0.3373  -5.5151 H              1 S1                 0.0000
     33 ****        -2.6519  -0.8831  -4.4942 H              1 S1                 0.0000
     34 ****        -1.1080  -1.2180  -5.2764 H              1 S1                 0.0000
     35 ****        -0.6760   2.3094  -3.9846 H              1 S1                 0.0000
     36 ****         0.4273   3.4589  -1.7056 H              1 S1                 0.0000
     37 ****         1.8006   2.3934  -1.4033 H              1 S1                 0.0000
     38 ****         0.4381   2.4190  -0.2834 H              1 S1                 0.0000
     39 ****         4.8001  -2.1755   1.4906 H              1 S1                 0.0000
     40 ****         4.7314  -0.5160   2.0940 H              1 S1                 0.0000
     41 ****         4.2787  -0.8744   0.4333 H              1 S1                 0.0000
     42 ****        -0.9640   1.5034   0.5209 LP             1 S1                 0.0000
     43 ****        -2.3059   1.4649  -0.4088 LP             1 S1                 0.0000
     44 ****        -0.8224  -1.6883  -2.5286 LP             1 S1                 0.0000
     45 ****         2.5499  -0.2978  -0.7771 LP             1 S1                 0.0000
     46 ****        -1.7199  -1.8356   2.6718 LP             1 S1                 0.0000
     47 ****        -1.0750  -2.4536   4.1558 LP             1 S1                 0.0000
     48 ****         3.3277  -2.6756   4.8263 LP             1 S1                 0.0000
     49 ****         4.4886  -2.1644   3.6469 LP             1 S1                 0.0000
@<TRIPOS>BOND
    1    1    2 1     
    2    1   25 1     
    3    1   26 1     
    4    1   27 1     
    5    2    3 1     
    6    3    4 1     
    7    3   28 1     
    8    3   29 1     
    9    4    5 1     
   10    4   30 1     
   11    4   31 1     
   12    5   16 1     
   13    5    6 1     
   14    6    7 1     
   15    6   14 2     
   16    7   12 1     
   17    7    8 1     
   18    8    9 2     
   19    9   10 1     
   20    9   11 1     
   21   10   32 1     
   22   10   33 1     
   23   10   34 1     
   24   11   12 2     
   25   11   35 1     
   26   12   13 1     
   27   13   36 1     
   28   13   37 1     
   29   13   38 1     
   30   14   15 1     
   31   15   22 1     
   32   15   16 2     
   33   16   17 1     
   34   17   18 2     
   35   17   19 1     
   36   19   24 1     
   37   19   20 1     
   38   20   21 2     
   39   20   22 1     
   40   22   23 1     
   41   23   39 1     
   42   23   40 1     
   43   23   41 1     
   44    2   42 1     
   45    2   43 1     
   46    8   44 1     
   47   14   45 1     
   48   18   46 1     
   49   18   47 1     
   50   21   48 1     
   51   21   49 1     
@<TRIPOS>SUBSTRUCTURE
      1 S1             1
@<TRIPOS>SET
LONE_PAIRS      STATIC     ATOMS    <user>   **** ""
8 42 43 44 45 46 47 48 49
DONOR_HYDROGENS      STATIC     ATOMS    <user>   **** ""
1 24
ATOM$BLUE        STATIC     ATOMS    COLORGROUP SYSTEM
8 42 43 44 45 46 47 48 49
ATOM$RED        STATIC     ATOMS    COLORGROUP SYSTEM
1 24
