#       Name:                AV-unprocessed.smi:1673
#       Creating user name   scv26
#       Creation time:       Fri Mar 27 07:45:33 2020


#       File generated by GOLD software.
#

@<TRIPOS>MOLECULE
AV-unprocessed.smi:1673
    44    45     1
SMALL
NO_CHARGES


@<TRIPOS>ATOM
      1 ****        -3.4735  -2.1502   0.3721 C.3            1 S1                 0.0000
      2 ****        -3.8507  -0.7933  -0.1547 C.2            1 S1                 0.0000
      3 ****        -5.1213  -0.5434  -0.4355 N.2            1 S1                 0.0000
      4 ****        -5.1697   0.7549  -0.9662 O.3            1 S1                 0.0000
      5 ****        -3.9114   1.2663  -0.9926 C.2            1 S1                 0.0000
      6 ****        -3.7496   2.6426  -1.5438 C.3            1 S1                 0.0000
      7 ****        -3.0525   0.3460  -0.4688 C.2            1 S1                 0.0000
      8 ****        -1.6502   0.5221  -0.3640 N.am           1 S1                 0.0000
      9 ****        -0.8503   0.0567   0.6070 C.2            1 S1                 0.0000
     10 ****        -1.2366  -0.5512   1.6048 O.2            1 S1                 0.0000
     11 ****         0.4339   0.3528   0.3613 N.am           1 S1                 0.0000
     12 ****         1.5783  -0.0058   1.2016 C.3            1 S1                 0.0000
     13 ****         2.4936   1.2212   1.3859 C.3            1 S1                 0.0000
     14 ****         3.2279   1.6005   0.0880 C.3            1 S1                 0.0000
     15 ****         4.0105   0.4062  -0.4781 C.3            1 S1                 0.0000
     16 ****         3.0996  -0.8147  -0.6840 C.3            1 S1                 0.0000
     17 ****         2.3707  -1.2049   0.6186 C.3            1 S1                 0.0000
     18 ****         1.5113  -2.4668   0.4294 C.3            1 S1                 0.0000
     19 ****        -2.4816  -2.4459   0.0305 H              1 S1                 0.0000
     20 ****        -4.1727  -2.9169   0.0369 H              1 S1                 0.0000
     21 ****        -3.4714  -2.1597   1.4621 H              1 S1                 0.0000
     22 ****        -2.6964   2.9070  -1.6368 H              1 S1                 0.0000
     23 ****        -4.2253   3.3760  -0.8931 H              1 S1                 0.0000
     24 ****        -4.2050   2.7195  -2.5311 H              1 S1                 0.0000
     25 ****        -1.2251   1.1184  -1.0588 H              1 S1                 0.0000
     26 ****         0.6443   0.8599  -0.4857 H              1 S1                 0.0000
     27 ****         1.2182  -0.2877   2.1927 H              1 S1                 0.0000
     28 ****         1.9165   2.0716   1.7512 H              1 S1                 0.0000
     29 ****         3.2312   1.0032   2.1594 H              1 S1                 0.0000
     30 ****         2.5109   1.9533  -0.6542 H              1 S1                 0.0000
     31 ****         3.9071   2.4323   0.2768 H              1 S1                 0.0000
     32 ****         4.4795   0.6839  -1.4223 H              1 S1                 0.0000
     33 ****         4.8211   0.1449   0.2034 H              1 S1                 0.0000
     34 ****         2.3723  -0.6002  -1.4682 H              1 S1                 0.0000
     35 ****         3.6958  -1.6545  -1.0421 H              1 S1                 0.0000
     36 ****         3.1386  -1.4615   1.3502 H              1 S1                 0.0000
     37 ****         0.7549  -2.3302  -0.3436 H              1 S1                 0.0000
     38 ****         0.9991  -2.7346   1.3540 H              1 S1                 0.0000
     39 ****         2.1273  -3.3174   0.1370 H              1 S1                 0.0000
     40 ****        -5.8958  -1.1605  -0.2962 LP             1 S1                 0.0000
     41 ****        -5.7539   1.3301  -0.3936 LP             1 S1                 0.0000
     42 ****        -5.5393   0.7244  -1.8949 LP             1 S1                 0.0000
     43 ****        -2.2118  -0.7298   1.7351 LP             1 S1                 0.0000
     44 ****        -0.5752  -0.8666   2.2854 LP             1 S1                 0.0000
@<TRIPOS>BOND
    1    1    2 1     
    2    1   19 1     
    3    1   20 1     
    4    1   21 1     
    5    2    7 1     
    6    2    3 2     
    7    3    4 1     
    8    4    5 1     
    9    5    6 1     
   10    5    7 2     
   11    6   22 1     
   12    6   23 1     
   13    6   24 1     
   14    7    8 1     
   15    8    9 am    
   16    8   25 1     
   17    9   10 2     
   18    9   11 am    
   19   11   12 1     
   20   11   26 1     
   21   12   17 1     
   22   12   13 1     
   23   12   27 1     
   24   13   14 1     
   25   13   28 1     
   26   13   29 1     
   27   14   15 1     
   28   14   30 1     
   29   14   31 1     
   30   15   16 1     
   31   15   32 1     
   32   15   33 1     
   33   16   17 1     
   34   16   34 1     
   35   16   35 1     
   36   17   18 1     
   37   17   36 1     
   38   18   37 1     
   39   18   38 1     
   40   18   39 1     
   41    3   40 1     
   42    4   41 1     
   43    4   42 1     
   44   10   43 1     
   45   10   44 1     
@<TRIPOS>SUBSTRUCTURE
      1 S1             1
@<TRIPOS>SET
LONE_PAIRS      STATIC     ATOMS    <user>   **** ""
5 40 41 42 43 44
DONOR_HYDROGENS      STATIC     ATOMS    <user>   **** ""
2 25 26
ATOM$BLUE        STATIC     ATOMS    COLORGROUP SYSTEM
5 40 41 42 43 44
ATOM$RED        STATIC     ATOMS    COLORGROUP SYSTEM
2 25 26
