AV-unprocessed.smi:36|AV-procd|sdf|299|dock1
  -GOLD-   2262016103D 1   1.00000     0.00000
 Structure written by MMmdl.
 63 66  0  0  0  0  0  0  0  0  2 V2000
  145.7960  134.1618  162.1540 C   0  0  0  0  0  0  0  0  0  0  0  0
  147.1151  134.0566  161.3711 C   0  0  0  0  0  0  0  0  0  0  0  0
  147.8661  135.3969  161.4427 C   0  0  0  0  0  0  0  0  0  0  0  0
  147.9867  132.9363  161.9622 C   0  0  0  0  0  0  0  0  0  0  0  0
  146.7274  133.6602  159.5427 Si  0  0  0  0  0  0  0  0  0  0  0  0
  145.5891  132.1424  159.4088 C   0  0  0  0  0  0  0  0  0  0  0  0
  145.9098  135.1405  158.6778 C   0  0  0  0  0  0  0  0  0  0  0  0
  148.1957  133.3430  158.7585 O   0  0  0  0  0  0  0  0  0  0  0  0
  148.3111  132.7272  157.4905 C   0  0  0  0  0  0  0  0  0  0  0  0
  149.3572  133.4846  156.6586 C   0  0  2  0  0  0  0  0  0  0  0  0
  148.7693  134.5490  155.9231 O   0  0  0  0  0  0  0  0  0  0  0  0
  149.6844  134.9882  154.9665 C   0  0  1  0  0  0  0  0  0  0  0  0
  150.5100  136.0882  155.5667 N   0  0  0  0  0  0  0  0  0  0  0  0
  151.3713  136.0385  156.6059 C   0  0  0  0  0  0  0  0  0  0  0  0
  151.9675  137.1730  156.9661 N   0  0  0  0  0  0  0  0  0  0  0  0
  151.4126  138.0759  156.0716 C   0  0  0  0  0  0  0  0  0  0  0  0
  151.5847  139.4756  155.8917 C   0  0  0  0  0  0  0  0  0  0  0  0
  152.4176  140.2064  156.6481 N   0  5  0  0  0  0  0  0  0  0  0  0
  152.1250  140.4245  157.9555 C   0  0  0  0  0  0  0  0  0  0  0  0
  151.8955  139.5865  158.8303 O   0  0  0  0  0  0  0  0  0  0  0  0
  152.0149  141.8844  158.3041 C   0  0  0  0  0  0  0  0  0  0  0  0
  152.5765  142.3595  159.5112 C   0  0  0  0  0  0  0  0  0  0  0  0
  152.5046  143.7258  159.8457 C   0  0  0  0  0  0  0  0  0  0  0  0
  151.8791  144.6336  158.9710 C   0  0  0  0  0  0  0  0  0  0  0  0
  151.3294  144.1748  157.7592 C   0  0  0  0  0  0  0  0  0  0  0  0
  151.3998  142.8082  157.4246 C   0  0  0  0  0  0  0  0  0  0  0  0
  150.8721  140.0595  154.8943 N   0  0  0  0  0  0  0  0  0  0  0  0
  150.0385  139.3305  154.1424 C   0  0  0  0  0  0  0  0  0  0  0  0
  149.7741  138.0218  154.2071 N   0  0  0  0  0  0  0  0  0  0  0  0
  150.4969  137.4219  155.1973 C   0  0  0  0  0  0  0  0  0  0  0  0
  150.5669  133.7749  154.6157 C   0  0  0  0  0  0  0  0  0  0  0  0
  150.0789  132.6888  155.5675 C   0  0  2  0  0  0  0  0  0  0  0  0
  149.2045  131.7966  154.9023 O   0  0  0  0  0  0  0  0  0  0  0  0
  145.9750  134.4072  163.2014 H   0  0  0  0  0  0  0  0  0  0  0  0
  145.2405  133.2242  162.1273 H   0  0  0  0  0  0  0  0  0  0  0  0
  145.1514  134.9379  161.7399 H   0  0  0  0  0  0  0  0  0  0  0  0
  147.2685  136.2068  161.0234 H   0  0  0  0  0  0  0  0  0  0  0  0
  148.8046  135.3604  160.8889 H   0  0  0  0  0  0  0  0  0  0  0  0
  148.1046  135.6645  162.4727 H   0  0  0  0  0  0  0  0  0  0  0  0
  148.2277  133.1318  163.0076 H   0  0  0  0  0  0  0  0  0  0  0  0
  148.9284  132.8378  161.4214 H   0  0  0  0  0  0  0  0  0  0  0  0
  147.4789  131.9725  161.9176 H   0  0  0  0  0  0  0  0  0  0  0  0
  144.6200  132.3290  159.8707 H   0  0  0  0  0  0  0  0  0  0  0  0
  146.0176  131.2703  159.9025 H   0  0  0  0  0  0  0  0  0  0  0  0
  145.4033  131.8707  158.3701 H   0  0  0  0  0  0  0  0  0  0  0  0
  144.9640  135.4075  159.1487 H   0  0  0  0  0  0  0  0  0  0  0  0
  145.7007  134.9253  157.6301 H   0  0  0  0  0  0  0  0  0  0  0  0
  146.5479  136.0233  158.7053 H   0  0  0  0  0  0  0  0  0  0  0  0
  148.6097  131.6864  157.6214 H   0  0  0  0  0  0  0  0  0  0  0  0
  147.3388  132.7264  156.9972 H   0  0  0  0  0  0  0  0  0  0  0  0
  150.1145  133.8998  157.3226 H   0  0  0  0  0  0  0  0  0  0  0  0
  149.1906  135.4511  154.1115 H   0  0  0  0  0  0  0  0  0  0  0  0
  151.5784  135.1179  157.1307 H   0  0  0  0  0  0  0  0  0  0  0  0
  153.0615  141.6752  160.1926 H   0  0  0  0  0  0  0  0  0  0  0  0
  152.9310  144.0765  160.7738 H   0  0  0  0  0  0  0  0  0  0  0  0
  151.8245  145.6812  159.2271 H   0  0  0  0  0  0  0  0  0  0  0  0
  150.8555  144.8712  157.0833 H   0  0  0  0  0  0  0  0  0  0  0  0
  150.9810  142.4772  156.4850 H   0  0  0  0  0  0  0  0  0  0  0  0
  149.5072  139.8753  153.3762 H   0  0  0  0  0  0  0  0  0  0  0  0
  150.4453  133.5074  153.5652 H   0  0  0  0  0  0  0  0  0  0  0  0
  151.6192  134.0019  154.7909 H   0  0  0  0  0  0  0  0  0  0  0  0
  150.9074  132.1114  155.9788 H   0  0  0  0  0  0  0  0  0  0  0  0
  148.3876  131.7651  155.3763 H   0  0  0  0  0  0  0  0  0  0  0  0
  1  2  1  0  0  0  0
  1 34  1  0  0  0  0
  1 35  1  0  0  0  0
  1 36  1  0  0  0  0
  2  3  1  0  0  0  0
  2  4  1  0  0  0  0
  2  5  1  0  0  0  0
  3 37  1  0  0  0  0
  3 38  1  0  0  0  0
  3 39  1  0  0  0  0
  4 40  1  0  0  0  0
  4 41  1  0  0  0  0
  4 42  1  0  0  0  0
  5  6  1  0  0  0  0
  5  7  1  0  0  0  0
  5  8  1  0  0  0  0
  6 43  1  0  0  0  0
  6 44  1  0  0  0  0
  6 45  1  0  0  0  0
  7 46  1  0  0  0  0
  7 47  1  0  0  0  0
  7 48  1  0  0  0  0
  8  9  1  0  0  0  0
  9 10  1  0  0  0  0
  9 49  1  0  0  0  0
  9 50  1  0  0  0  0
 10 32  1  0  0  0  0
 10 11  1  0  0  0  0
 10 51  1  0  0  0  0
 11 12  1  0  0  0  0
 12 13  1  0  0  0  0
 12 31  1  0  0  0  0
 12 52  1  0  0  0  0
 13 30  1  0  0  0  0
 13 14  1  0  0  0  0
 14 15  2  0  0  0  0
 14 53  1  0  0  0  0
 15 16  1  0  0  0  0
 16 30  2  0  0  0  0
 16 17  1  0  0  0  0
 17 18  1  0  0  0  0
 17 27  2  0  0  0  0
 18 19  1  0  0  0  0
 19 20  2  0  0  0  0
 19 21  1  0  0  0  0
 21 26  1  0  0  0  0
 21 22  2  0  0  0  0
 22 23  1  0  0  0  0
 22 54  1  0  0  0  0
 23 24  2  0  0  0  0
 23 55  1  0  0  0  0
 24 25  1  0  0  0  0
 24 56  1  0  0  0  0
 25 26  2  0  0  0  0
 25 57  1  0  0  0  0
 26 58  1  0  0  0  0
 27 28  1  0  0  0  0
 28 29  2  0  0  0  0
 28 59  1  0  0  0  0
 29 30  1  0  0  0  0
 31 32  1  0  0  0  0
 31 60  1  0  0  0  0
 31 61  1  0  0  0  0
 32 33  1  0  0  0  0
 32 62  1  0  0  0  0
 33 63  1  0  0  0  0
M  CHG  1  18  -1
M  END
> <s_m_source_file>
AV-unprocessed.smi

> <i_m_source_file_index>
36

> <i_lp_mmshare_version>
43012

> <i_f3d_flags>
0

> <s_epik_input>
W0NIM11DKFtDSDNdKShbQ0gzXSlbU2ldKFtDSDNdKShbQ0gzXSlPW0NIMl1bQ0BASF0xT1tDQEhdKFtDSDJdW0NASF0xW09IXSluKFtjSF1uMiljKGMyMyluW2NIXW5jM1tOSF1DKD1PKWM0W2NIXVtjSF1bY0hdW2NIXVtjSF00

> <s_epik_cmdline>
J2VwaWtfcHl0aG9uJywgJy1waCcsICc3LjAnLCAnLXRuJywgJzgnLCAnLW1hJywgJzIwMCcsICctbWV0YWxfYmluZGluZycsICctaW1hZScsICc8aW5maWxlLm1hZT4nLCAnLW9tYWUnLCAnPG91dGZpbGUubWFlPic=

> <r_lp_tautomer_probability>
1

> <r_epik_Ionization_Penalty>
4.75685

> <r_epik_Ionization_Penalty_Charging>
3.55822

> <r_epik_Ionization_Penalty_Neutral>
1.19863

> <r_epik_State_Penalty>
3.564

> <r_epik_Charging_Adjusted_Penalty>
7.12222

> <i_epik_Tot_Q>
-1

> <i_epik_Tot_abs_Q>
1

> <r_epik_Metal_State_Penalty>
0.523258

> <b_epik_Metal_Only>
1

> <s_epik_Chemistry_Notes>
This compound contains an acetal/aminal-like group ( X-CH(R)-Y where X, Y are N, S, or O) that may be acid/base labile, releasing an aldehyde.

> <s_lp_Force_Field>
OPLS_2005

> <r_lp_Energy>
31.8214

> <b_lp_Chiralities_Consistent>
1

> <s_lp_Variant>
AV-unprocessed.smi:36-21

> <Gold.Version>
5.8.1

> <Gold.Id.Protein>
6NUR|6NUR_protein|mol2

> <Gold.PLP.Fitness>
58.1726

> <Gold.PLP.PLP>
-50.8209

> <Gold.PLP.part.hbond>
-2.0000

> <Gold.PLP.part.metal>
0.0000

> <Gold.PLP.part.buried>
-6.3072

> <Gold.PLP.part.nonpolar>
-42.4757

> <Gold.PLP.part.repulsive>
0.2843

> <Gold.PLP.ligand.clash>
0.0000

> <Gold.PLP.ligand.torsion>
2.9313

> <Gold.PLP.Chemscore.Hbond>
2.8000

> <Gold.PLP.Chemscore.CHOScore>
1.0000

> <Gold.PLP.Chemscore.Metal>
0.0000

> <Gold.Chemscore.Hbonds>
donor molecule, donor type, donor heavy atom, donor atom, acceptor molecule, acceptor atom, score
      P1  H  7989  7998       L1    27  0.70
      P1  H  7997  8010       L1    18  2.00
      L1  C    28    59       P1  7957  1.00

> <Gold.PLP.Chemscore.Internal.Correction>
1.8143

> <Gold.Rescore>
     Score         DG    S(hbond)    S(metal)    S(lipo)     H(rot)  DE(clash)    DE(int)     intcor
     12.05     -15.76       0.92        0.00     119.98       2.67       0.03       3.69       ----

> <Gold.Chemscore.Fitness>
12.0471

> <Gold.Chemscore.DG>
-15.7616

> <Gold.Chemscore.ZeroCoef>
-5.4800

> <Gold.Chemscore.Hbond>
0.9220

> <Gold.Chemscore.Metal>
0.0000

> <Gold.Chemscore.Lipo>
119.9824

> <Gold.Chemscore.Internal_Hbond>
0.0000

> <Gold.Chemscore.DEClash>
0.0259

> <Gold.Chemscore.DEInternal>
3.6887

> <Gold.Chemscore.Rot>
2.6702

> <Gold.Chemscore.Internal.Correction>
   9.000000E+99

> <Gold.Chemscore.Hbonds>
donor molecule, donor type, donor heavy atom, donor atom, acceptor molecule, acceptor atom, score
      P1  H  7989  7998       L1    27  0.07
      P1  H  7997  8010       L1    18  0.74

> <Gold.Chemscore.Hbond.Weighted>
-3.0795

> <Gold.Chemscore.Metal.Weighted>
-0.0000

> <Gold.Chemscore.Lipo.Weighted>
-14.0379

> <Gold.Chemscore.Internal_Hbond.Weighted>
0.0000

> <Gold.Chemscore.DEClash.Weighted>
0.0259

> <Gold.Chemscore.DEInternal.Weighted>
3.6887

> <Gold.Chemscore.Rot.Weighted>
6.8358

> <Gold.Chemscore.Internal.Correction.Weighted>
   9.000000E+99

> <Gold.Protein.RotatedTorsions>
[ 6907 6896 6895 6894 ] final  -78.87 input  -60.11 | X-H torsion
[ 7974 7965 7964 7962 ] final  165.74 input  175.53 | X-H torsion
[ 8008 7997 7996 7995 ] final   76.09 input   59.86 | X-H torsion
[ 10167 10162 10161 10158 ] final -147.17 input  -65.29 | X-H torsion
[ 10718 10713 10712 10709 ] final   86.37 input   66.30 | X-H torsion
[ 10763 10752 10751 10750 ] final  -79.04 input  -60.55 | X-H torsion
[ 11005 11000 10999 10996 ] final  131.43 input  -57.11 | X-H torsion

> <Gold.Protein.ActiveResidues>
 VAL166  LYS551  ARG553  GLY616  TRP617  ASP618  TYR619  PRO620  LYS621  CYS622 
 ASP623  PHE694  ASN695  SER759  ASP760  ASP761  ALA762  ILE779  LEU786  VAL792 
 PHE793  MET794  SER795  GLU796  ALA797  LYS798  CYS799  TRP800  GLU811  SER814 

> <Gold.Protein.RotatedAtoms>
  150.6962  134.4207  159.5203 H   0  0  0  0  0  0  0  0  0  0  0  0  # atno 6907 bound_to 6896
  152.1950  134.8636  160.0523 H   0  0  0  0  0  0  0  0  0  0  0  0  # atno 6908 bound_to 6896
  151.9577  133.3650  159.4060 H   0  0  0  0  0  0  0  0  0  0  0  0  # atno 6909 bound_to 6896
  144.7490  139.8514  143.6372 H   0  0  0  0  0  0  0  0  0  0  0  0  # atno 7974 bound_to 7965
  155.8223  140.3469  155.5521 H   0  0  0  0  0  0  0  0  0  0  0  0  # atno 8008 bound_to 7997
  155.8330  140.0930  157.1801 H   0  0  0  0  0  0  0  0  0  0  0  0  # atno 8009 bound_to 7997
  154.4004  140.1409  156.3623 H   0  0  0  0  0  0  0  0  0  0  0  0  # atno 8010 bound_to 7997
  139.7646  143.8326  152.2613 H   0  0  0  0  0  0  0  0  0  0  0  0  # atno 10167 bound_to 10162
  157.6928  131.0213  150.2962 H   0  0  0  0  0  0  0  0  0  0  0  0  # atno 10718 bound_to 10713
  154.5336  135.5709  153.6779 H   0  0  0  0  0  0  0  0  0  0  0  0  # atno 10763 bound_to 10752
  152.9945  135.6210  154.2596 H   0  0  0  0  0  0  0  0  0  0  0  0  # atno 10764 bound_to 10752
  154.2524  135.2858  155.2791 H   0  0  0  0  0  0  0  0  0  0  0  0  # atno 10765 bound_to 10752
  139.9730  134.9572  156.9437 H   0  0  0  0  0  0  0  0  0  0  0  0  # atno 11005 bound_to 11000
  146.1413  139.4471  143.0107 LP  0  0  0  0  0  0  0  0  0  0  0  0  # atno 17320 bound_to 7965
  145.7014  141.0135  143.1502 LP  0  0  0  0  0  0  0  0  0  0  0  0  # atno 17321 bound_to 7965
  139.8343  144.7239  150.9411 LP  0  0  0  0  0  0  0  0  0  0  0  0  # atno 17342 bound_to 10162
  140.7810  143.4041  151.1100 LP  0  0  0  0  0  0  0  0  0  0  0  0  # atno 17343 bound_to 10162
  156.3485  130.3827  149.7349 LP  0  0  0  0  0  0  0  0  0  0  0  0  # atno 17370 bound_to 10713
  156.4834  130.8051  151.3065 LP  0  0  0  0  0  0  0  0  0  0  0  0  # atno 17371 bound_to 10713
  140.5254  134.0866  155.7302 LP  0  0  0  0  0  0  0  0  0  0  0  0  # atno 17394 bound_to 11000
  141.1409  133.9140  157.2329 LP  0  0  0  0  0  0  0  0  0  0  0  0  # atno 17395 bound_to 11000

$$$$
