AV-unprocessed.smi:2106|AV-procd|sdf|8594|dock1
  -GOLD-   2272011323D 1   1.00000     0.00000
 Structure written by MMmdl.
 47 48  0  0  0  0  0  0  0  0  1 V2000
  151.5726  145.1545  158.9876 C   0  0  0  0  0  0  0  0  0  0  0  0
  152.0915  143.8743  159.5725 C   0  0  0  0  0  0  0  0  0  0  0  0
  152.6677  143.6611  160.8558 C   0  0  0  0  0  0  0  0  0  0  0  0
  152.9660  142.3277  160.8744 C   0  0  0  0  0  0  0  0  0  0  0  0
  153.5907  141.4951  161.9453 C   0  0  0  0  0  0  0  0  0  0  0  0
  152.5770  141.8120  159.6504 N   0  0  0  0  0  0  0  0  0  0  0  0
  152.6711  140.4452  159.1564 C   0  0  0  0  0  0  0  0  0  0  0  0
  151.5261  140.0791  158.2039 C   0  0  0  0  0  0  0  0  0  0  0  0
  150.3586  140.3632  158.4760 O   0  0  0  0  0  0  0  0  0  0  0  0
  151.8813  139.4387  157.0796 N   0  0  0  0  0  0  0  0  0  0  0  0
  150.9592  138.9987  156.0398 C   0  0  0  0  0  0  0  0  0  0  0  0
  150.5929  140.1554  155.0910 C   0  0  0  0  0  0  0  0  0  0  0  0
  149.1623  140.3197  154.8398 N   0  0  0  0  0  0  0  0  0  0  0  0
  148.6696  139.4211  153.8000 C   0  0  0  0  0  0  0  0  0  0  0  0
  147.1615  139.6020  153.5482 C   0  0  2  0  0  0  0  0  0  0  0  0
  146.6621  138.7290  152.3920 C   0  0  0  0  0  0  0  0  0  0  0  0
  146.8913  140.9642  153.2221 O   0  0  0  0  0  0  0  0  0  0  0  0
  147.3614  141.9218  154.1719 C   0  0  1  0  0  0  0  0  0  0  0  0
  146.4930  141.9419  155.4414 C   0  0  0  0  0  0  0  0  0  0  0  0
  148.8593  141.6950  154.4578 C   0  0  0  0  0  0  0  0  0  0  0  0
  152.0382  142.7633  158.8567 N   0  0  0  0  0  0  0  0  0  0  0  0
  151.5850  145.9582  159.7240 H   0  0  0  0  0  0  0  0  0  0  0  0
  150.5458  145.0404  158.6387 H   0  0  0  0  0  0  0  0  0  0  0  0
  152.1803  145.4720  158.1402 H   0  0  0  0  0  0  0  0  0  0  0  0
  152.8365  144.3797  161.6439 H   0  0  0  0  0  0  0  0  0  0  0  0
  153.7746  142.0875  162.8417 H   0  0  0  0  0  0  0  0  0  0  0  0
  154.5451  141.0870  161.6123 H   0  0  0  0  0  0  0  0  0  0  0  0
  152.9426  140.6634  162.2215 H   0  0  0  0  0  0  0  0  0  0  0  0
  153.6310  140.3250  158.6524 H   0  0  0  0  0  0  0  0  0  0  0  0
  152.6668  139.7534  160.0002 H   0  0  0  0  0  0  0  0  0  0  0  0
  152.8608  139.2406  156.9344 H   0  0  0  0  0  0  0  0  0  0  0  0
  151.4009  138.1608  155.4995 H   0  0  0  0  0  0  0  0  0  0  0  0
  150.0596  138.6189  156.5246 H   0  0  0  0  0  0  0  0  0  0  0  0
  150.9783  141.0761  155.5314 H   0  0  0  0  0  0  0  0  0  0  0  0
  151.1191  140.0361  154.1428 H   0  0  0  0  0  0  0  0  0  0  0  0
  149.2184  139.5942  152.8728 H   0  0  0  0  0  0  0  0  0  0  0  0
  148.8496  138.3840  154.0802 H   0  0  0  0  0  0  0  0  0  0  0  0
  146.6077  139.3287  154.4468 H   0  0  0  0  0  0  0  0  0  0  0  0
  146.8313  137.6719  152.5973 H   0  0  0  0  0  0  0  0  0  0  0  0
  147.1735  138.9755  151.4612 H   0  0  0  0  0  0  0  0  0  0  0  0
  145.5929  138.8691  152.2316 H   0  0  0  0  0  0  0  0  0  0  0  0
  147.2560  142.8989  153.6997 H   0  0  0  0  0  0  0  0  0  0  0  0
  146.7963  142.7522  156.1049 H   0  0  0  0  0  0  0  0  0  0  0  0
  146.5702  141.0132  156.0063 H   0  0  0  0  0  0  0  0  0  0  0  0
  145.4430  142.0950  155.1914 H   0  0  0  0  0  0  0  0  0  0  0  0
  149.1878  142.3813  155.2394 H   0  0  0  0  0  0  0  0  0  0  0  0
  149.4291  141.9546  153.5643 H   0  0  0  0  0  0  0  0  0  0  0  0
  1  2  1  0  0  0  0
  1 22  1  0  0  0  0
  1 23  1  0  0  0  0
  1 24  1  0  0  0  0
  2 21  2  0  0  0  0
  2  3  1  0  0  0  0
  3  4  2  0  0  0  0
  3 25  1  0  0  0  0
  4  5  1  0  0  0  0
  4  6  1  0  0  0  0
  5 26  1  0  0  0  0
  5 27  1  0  0  0  0
  5 28  1  0  0  0  0
  6  7  1  0  0  0  0
  6 21  1  0  0  0  0
  7  8  1  0  0  0  0
  7 29  1  0  0  0  0
  7 30  1  0  0  0  0
  8  9  2  0  0  0  0
  8 10  1  0  0  0  0
 10 11  1  0  0  0  0
 10 31  1  0  0  0  0
 11 12  1  0  0  0  0
 11 32  1  0  0  0  0
 11 33  1  0  0  0  0
 12 13  1  0  0  0  0
 12 34  1  0  0  0  0
 12 35  1  0  0  0  0
 13 20  1  0  0  0  0
 13 14  1  0  0  0  0
 14 15  1  0  0  0  0
 14 36  1  0  0  0  0
 14 37  1  0  0  0  0
 15 16  1  0  0  0  0
 15 17  1  0  0  0  0
 15 38  1  0  0  0  0
 16 39  1  0  0  0  0
 16 40  1  0  0  0  0
 16 41  1  0  0  0  0
 17 18  1  0  0  0  0
 18 19  1  0  0  0  0
 18 20  1  0  0  0  0
 18 42  1  0  0  0  0
 19 43  1  0  0  0  0
 19 44  1  0  0  0  0
 19 45  1  0  0  0  0
 20 46  1  0  0  0  0
 20 47  1  0  0  0  0
M  END
> <s_m_source_file>
AV-unprocessed.smi

> <i_m_source_file_index>
2106

> <i_lp_mmshare_version>
43012

> <i_f3d_flags>
0

> <s_epik_input>
W0NIM11jMVtjSF1jKFtDSDNdKW4objEpW0NIMl1DKD1PKVtOSF1bQ0gyXVtDSDJdTjJbQ0gyXVtDQEBIXShbQ0gzXSlPW0NAQEhdKFtDSDNdKVtDSDJdMg==

> <s_epik_cmdline>
J2VwaWtfcHl0aG9uJywgJy1waCcsICc3LjAnLCAnLXRuJywgJzgnLCAnLW1hJywgJzIwMCcsICctbWV0YWxfYmluZGluZycsICctaW1hZScsICc8aW5maWxlLm1hZT4nLCAnLW9tYWUnLCAnPG91dGZpbGUubWFlPic=

> <r_lp_tautomer_probability>
1

> <r_epik_Ionization_Penalty>
0.197284

> <r_epik_Ionization_Penalty_Charging>
0

> <r_epik_Ionization_Penalty_Neutral>
0.197284

> <r_epik_State_Penalty>
0.186684

> <r_epik_Charging_Adjusted_Penalty>
0.186684

> <i_epik_Tot_Q>
0

> <i_epik_Tot_abs_Q>
0

> <r_epik_Metal_State_Penalty>
0.186634

> <b_epik_Metal_Only>
0

> <s_lp_Force_Field>
OPLS_2005

> <r_lp_Energy>
21.9362

> <b_lp_Chiralities_Consistent>
1

> <s_lp_Variant>
AV-unprocessed.smi:2106-2

> <Gold.Version>
5.8.1

> <Gold.Id.Protein>
6NUR|6NUR_protein|mol2

> <Gold.PLP.Fitness>
40.9024

> <Gold.PLP.PLP>
-43.4209

> <Gold.PLP.part.hbond>
0.0000

> <Gold.PLP.part.metal>
0.0000

> <Gold.PLP.part.buried>
-0.4157

> <Gold.PLP.part.nonpolar>
-42.5760

> <Gold.PLP.part.repulsive>
0.3891

> <Gold.PLP.ligand.clash>
0.0000

> <Gold.PLP.ligand.torsion>
1.2998

> <Gold.PLP.Chemscore.Hbond>
0.0000

> <Gold.PLP.Chemscore.CHOScore>
0.0000

> <Gold.PLP.Chemscore.Metal>
0.0000

> <Gold.PLP.Chemscore.Internal.Correction>
0.0810

> <Gold.Rescore>
     Score         DG    S(hbond)    S(metal)    S(lipo)     H(rot)  DE(clash)    DE(int)     intcor
     13.96     -15.13       0.00        0.00     118.93       1.67       0.18       0.99       ----

> <Gold.Chemscore.Fitness>
13.9606

> <Gold.Chemscore.DG>
-15.1302

> <Gold.Chemscore.ZeroCoef>
-5.4800

> <Gold.Chemscore.Hbond>
0.0000

> <Gold.Chemscore.Metal>
0.0000

> <Gold.Chemscore.Lipo>
118.9256

> <Gold.Chemscore.Internal_Hbond>
0.0000

> <Gold.Chemscore.DEClash>
0.1789

> <Gold.Chemscore.DEInternal>
0.9908

> <Gold.Chemscore.Rot>
1.6657

> <Gold.Chemscore.Internal.Correction>
   9.000000E+99

> <Gold.Chemscore.Hbond.Weighted>
-0.0000

> <Gold.Chemscore.Metal.Weighted>
-0.0000

> <Gold.Chemscore.Lipo.Weighted>
-13.9143

> <Gold.Chemscore.Internal_Hbond.Weighted>
0.0000

> <Gold.Chemscore.DEClash.Weighted>
0.1789

> <Gold.Chemscore.DEInternal.Weighted>
0.9908

> <Gold.Chemscore.Rot.Weighted>
4.2641

> <Gold.Chemscore.Internal.Correction.Weighted>
   9.000000E+99

> <Gold.Protein.RotatedTorsions>
[ 6907 6896 6895 6894 ] final   -8.18 input  -60.11 | X-H torsion
[ 7974 7965 7964 7962 ] final -133.76 input  175.53 | X-H torsion
[ 8008 7997 7996 7995 ] final  108.02 input   59.86 | X-H torsion
[ 10167 10162 10161 10158 ] final   58.34 input  -65.29 | X-H torsion
[ 10718 10713 10712 10709 ] final -163.06 input   66.30 | X-H torsion
[ 10763 10752 10751 10750 ] final   39.25 input  -60.55 | X-H torsion
[ 11005 11000 10999 10996 ] final  -12.81 input  -57.11 | X-H torsion

> <Gold.Protein.ActiveResidues>
 VAL166  LYS551  ARG553  GLY616  TRP617  ASP618  TYR619  PRO620  LYS621  CYS622 
 ASP623  PHE694  ASN695  SER759  ASP760  ASP761  ALA762  ILE779  LEU786  VAL792 
 PHE793  MET794  SER795  GLU796  ALA797  LYS798  CYS799  TRP800  GLU811  SER814 

> <Gold.Protein.RotatedAtoms>
  151.4377  135.1017  159.9660 H   0  0  0  0  0  0  0  0  0  0  0  0  # atno 6907 bound_to 6896
  152.4934  133.8558  159.7235 H   0  0  0  0  0  0  0  0  0  0  0  0  # atno 6908 bound_to 6896
  150.9110  133.6939  159.2882 H   0  0  0  0  0  0  0  0  0  0  0  0  # atno 6909 bound_to 6896
  144.9164  140.6959  143.4993 H   0  0  0  0  0  0  0  0  0  0  0  0  # atno 7974 bound_to 7965
  156.1870  140.3084  155.9257 H   0  0  0  0  0  0  0  0  0  0  0  0  # atno 8008 bound_to 7997
  155.3259  140.0458  157.3058 H   0  0  0  0  0  0  0  0  0  0  0  0  # atno 8009 bound_to 7997
  154.5407  140.2260  155.8655 H   0  0  0  0  0  0  0  0  0  0  0  0  # atno 8010 bound_to 7997
  140.1883  144.4112  150.6583 H   0  0  0  0  0  0  0  0  0  0  0  0  # atno 10167 bound_to 10162
  156.6193  130.8883  151.2954 H   0  0  0  0  0  0  0  0  0  0  0  0  # atno 10718 bound_to 10713
  152.9973  135.6226  154.2435 H   0  0  0  0  0  0  0  0  0  0  0  0  # atno 10763 bound_to 10752
  154.2175  135.2797  155.2938 H   0  0  0  0  0  0  0  0  0  0  0  0  # atno 10764 bound_to 10752
  154.5556  135.5720  153.7019 H   0  0  0  0  0  0  0  0  0  0  0  0  # atno 10765 bound_to 10752
  140.7696  133.8449  155.9195 H   0  0  0  0  0  0  0  0  0  0  0  0  # atno 11005 bound_to 11000
  145.3369  139.1743  143.4507 LP  0  0  0  0  0  0  0  0  0  0  0  0  # atno 17320 bound_to 7965
  146.3184  140.3405  142.8647 LP  0  0  0  0  0  0  0  0  0  0  0  0  # atno 17321 bound_to 7965
  140.6473  143.2216  151.6156 LP  0  0  0  0  0  0  0  0  0  0  0  0  # atno 17342 bound_to 10162
  139.5267  144.3039  152.1050 LP  0  0  0  0  0  0  0  0  0  0  0  0  # atno 17343 bound_to 10162
  157.7232  130.9587  150.1525 LP  0  0  0  0  0  0  0  0  0  0  0  0  # atno 17370 bound_to 10713
  156.2325  130.3683  149.8429 LP  0  0  0  0  0  0  0  0  0  0  0  0  # atno 17371 bound_to 10713
  140.9586  134.1685  157.4672 LP  0  0  0  0  0  0  0  0  0  0  0  0  # atno 17394 bound_to 11000
  139.8758  134.9936  156.5654 LP  0  0  0  0  0  0  0  0  0  0  0  0  # atno 17395 bound_to 11000

$$$$
