AV-unprocessed.smi:160|AV-procd|sdf|1345|dock8
  -GOLD-   2262019 43D 1   1.00000     0.00000
 Structure written by MMmdl.
 29 30  0  0  0  0  0  0  0  0  1 V2000
  148.9549  135.7521  158.4531 N   0  0  0  0  0  0  0  0  0  0  0  0
  149.5798  135.0230  157.5228 C   0  0  0  0  0  0  0  0  0  0  0  0
  149.7862  133.8183  157.6593 O   0  0  0  0  0  0  0  0  0  0  0  0
  150.0234  135.7597  156.2891 C   0  0  0  0  0  0  0  0  0  0  0  0
  150.8556  135.1736  155.3781 N   0  0  0  0  0  0  0  0  0  0  0  0
  150.9583  136.1762  154.5152 C   0  0  0  0  0  0  0  0  0  0  0  0
  150.2527  137.2619  154.8477 N   0  0  0  0  0  0  0  0  0  0  0  0
  150.1489  138.5827  154.1483 C   0  0  2  0  0  0  0  0  0  0  0  0
  150.8355  139.5254  154.9168 O   0  0  0  0  0  0  0  0  0  0  0  0
  149.9116  140.2890  155.6867 C   0  0  1  0  0  0  0  0  0  0  0  0
  150.5399  141.6092  156.1670 C   0  0  0  0  0  0  0  0  0  0  0  0
  149.6324  142.3048  156.9952 O   0  0  0  0  0  0  0  0  0  0  0  0
  148.7274  140.4274  154.7211 C   0  0  1  0  0  0  0  0  0  0  0  0
  148.9606  141.4811  153.7995 O   0  0  0  0  0  0  0  0  0  0  0  0
  148.6850  139.0553  154.0466 C   0  0  1  0  0  0  0  0  0  0  0  0
  148.2090  139.1225  152.7147 O   0  0  0  0  0  0  0  0  0  0  0  0
  149.6319  137.0081  156.0279 N   0  0  0  0  0  0  0  0  0  0  0  0
  150.6436  138.4342  153.1874 H   0  0  0  0  0  0  0  0  0  0  0  0
  149.5842  139.7035  156.5474 H   0  0  0  0  0  0  0  0  0  0  0  0
  147.7981  140.6414  155.2501 H   0  0  0  0  0  0  0  0  0  0  0  0
  148.0357  138.3881  154.6145 H   0  0  0  0  0  0  0  0  0  0  0  0
  148.6378  135.3154  159.3061 H   0  0  0  0  0  0  0  0  0  0  0  0
  148.8091  136.7389  158.2969 H   0  0  0  0  0  0  0  0  0  0  0  0
  151.5623  136.1181  153.6215 H   0  0  0  0  0  0  0  0  0  0  0  0
  151.4775  141.4363  156.6962 H   0  0  0  0  0  0  0  0  0  0  0  0
  150.7597  142.2519  155.3141 H   0  0  0  0  0  0  0  0  0  0  0  0
  149.3778  143.1028  156.5578 H   0  0  0  0  0  0  0  0  0  0  0  0
  149.1365  141.1003  152.9522 H   0  0  0  0  0  0  0  0  0  0  0  0
  148.9398  139.3024  152.1430 H   0  0  0  0  0  0  0  0  0  0  0  0
  1  2  1  0  0  0  0
  1 22  1  0  0  0  0
  1 23  1  0  0  0  0
  2  3  2  0  0  0  0
  2  4  1  0  0  0  0
  4 17  2  0  0  0  0
  4  5  1  0  0  0  0
  5  6  2  0  0  0  0
  6  7  1  0  0  0  0
  6 24  1  0  0  0  0
  7  8  1  0  0  0  0
  7 17  1  0  0  0  0
  8 18  1  0  0  0  0
  8 15  1  0  0  0  0
  8  9  1  0  0  0  0
  9 10  1  0  0  0  0
 10 19  1  0  0  0  0
 10 11  1  0  0  0  0
 10 13  1  0  0  0  0
 11 12  1  0  0  0  0
 11 25  1  0  0  0  0
 11 26  1  0  0  0  0
 12 27  1  0  0  0  0
 13 20  1  0  0  0  0
 13 14  1  0  0  0  0
 13 15  1  0  0  0  0
 14 28  1  0  0  0  0
 15 21  1  0  0  0  0
 15 16  1  0  0  0  0
 16 29  1  0  0  0  0
M  END
> <s_m_source_file>
AV-unprocessed.smi

> <i_m_source_file_index>
160

> <i_lp_mmshare_version>
43012

> <i_f3d_flags>
0

> <s_epik_input>
W05IMl1DKD1PKWMxbltjSF1uKG4xKVtDQEBIXTJPW0NASF0oW0NIMl1bT0hdKVtDQEBIXShbT0hdKVtDQEhdMltPSF0=

> <s_epik_cmdline>
J2VwaWtfcHl0aG9uJywgJy1waCcsICc3LjAnLCAnLXRuJywgJzgnLCAnLW1hJywgJzIwMCcsICctbWV0YWxfYmluZGluZycsICctaW1hZScsICc8aW5maWxlLm1hZT4nLCAnLW9tYWUnLCAnPG91dGZpbGUubWFlPic=

> <r_lp_tautomer_probability>
1

> <r_epik_Ionization_Penalty>
1.06932e-05

> <r_epik_Ionization_Penalty_Charging>
0

> <r_epik_Ionization_Penalty_Neutral>
1.06932e-05

> <r_epik_State_Penalty>
-0

> <r_epik_Charging_Adjusted_Penalty>
0

> <i_epik_Tot_Q>
0

> <i_epik_Tot_abs_Q>
0

> <r_epik_Metal_State_Penalty>
0.0142097

> <b_epik_Metal_Only>
0

> <s_epik_Chemistry_Notes>
This compound contains an acetal/aminal-like group ( X-CH(R)-Y where X, Y are N, S, or O) that may be acid/base labile, releasing an aldehyde.

> <s_lp_Force_Field>
OPLS_2005

> <r_lp_Energy>
41.9483

> <b_lp_Chiralities_Consistent>
1

> <s_lp_Variant>
AV-unprocessed.smi:160-3

> <Gold.Version>
5.8.1

> <Gold.Id.Protein>
6NUR|6NUR_protein|mol2

> <Gold.PLP.Fitness>
40.6087

> <Gold.PLP.PLP>
-23.3114

> <Gold.PLP.part.hbond>
-6.9576

> <Gold.PLP.part.metal>
0.0000

> <Gold.PLP.part.buried>
-4.2270

> <Gold.PLP.part.nonpolar>
-13.5443

> <Gold.PLP.part.repulsive>
0.2913

> <Gold.PLP.ligand.clash>
0.0000

> <Gold.PLP.ligand.torsion>
0.3111

> <Gold.PLP.Chemscore.Hbond>
4.9663

> <Gold.PLP.Chemscore.CHOScore>
1.0000

> <Gold.PLP.Chemscore.Metal>
0.0000

> <Gold.Chemscore.Hbonds>
donor molecule, donor type, donor heavy atom, donor atom, acceptor molecule, acceptor atom, score
      L1  H    12    27       P1  8028  1.00
      L1  H    14    28       P1  7957  0.76
      L1  H    16    29       P1  7957  0.63
      P1  H  6896  6909       L1     3  0.70
      P1  H  7989  7998       L1     9  0.80
      L1  C     6    24       P1  7949  1.00

> <Gold.PLP.Chemscore.Internal.Correction>
0.0207

> <Gold.Rescore>
     Score         DG    S(hbond)    S(metal)    S(lipo)     H(rot)  DE(clash)    DE(int)     intcor
     12.15     -12.66       4.36        0.00      25.86       4.06       0.03       0.48       ----

> <Gold.Chemscore.Fitness>
12.1499

> <Gold.Chemscore.DG>
-12.6591

> <Gold.Chemscore.ZeroCoef>
-5.4800

> <Gold.Chemscore.Hbond>
4.3555

> <Gold.Chemscore.Metal>
0.0000

> <Gold.Chemscore.Lipo>
25.8578

> <Gold.Chemscore.Internal_Hbond>
0.0000

> <Gold.Chemscore.DEClash>
0.0276

> <Gold.Chemscore.DEInternal>
0.4816

> <Gold.Chemscore.Rot>
4.0600

> <Gold.Chemscore.Internal.Correction>
   9.000000E+99

> <Gold.Chemscore.Hbonds>
donor molecule, donor type, donor heavy atom, donor atom, acceptor molecule, acceptor atom, score
      L1  H    12    27       P1  8028  1.00
      L1  H    14    28       P1  7957  0.75
      L1  H    16    29       P1  7957  0.63
      P1  H  6896  6909       L1     3  0.07
      P1  H  7989  7998       L1     9  0.19

> <Gold.Chemscore.Hbond.Weighted>
-14.5474

> <Gold.Chemscore.Metal.Weighted>
-0.0000

> <Gold.Chemscore.Lipo.Weighted>
-3.0254

> <Gold.Chemscore.Internal_Hbond.Weighted>
0.0000

> <Gold.Chemscore.DEClash.Weighted>
0.0276

> <Gold.Chemscore.DEInternal.Weighted>
0.4816

> <Gold.Chemscore.Rot.Weighted>
10.3936

> <Gold.Chemscore.Internal.Correction.Weighted>
   9.000000E+99

> <Gold.Protein.RotatedTorsions>
[ 6907 6896 6895 6894 ] final   16.21 input  -60.11 | X-H torsion
[ 7974 7965 7964 7962 ] final   33.27 input  175.53 | X-H torsion
[ 8008 7997 7996 7995 ] final  -95.43 input   59.86 | X-H torsion
[ 10167 10162 10161 10158 ] final   31.62 input  -65.29 | X-H torsion
[ 10718 10713 10712 10709 ] final    1.57 input   66.30 | X-H torsion
[ 10763 10752 10751 10750 ] final  151.36 input  -60.55 | X-H torsion
[ 11005 11000 10999 10996 ] final    8.03 input  -57.11 | X-H torsion

> <Gold.Protein.ActiveResidues>
 VAL166  LYS551  ARG553  GLY616  TRP617  ASP618  TYR619  PRO620  LYS621  CYS622 
 ASP623  PHE694  ASN695  SER759  ASP760  ASP761  ALA762  ILE779  LEU786  VAL792 
 PHE793  MET794  SER795  GLU796  ALA797  LYS798  CYS799  TRP800  GLU811  SER814 

> <Gold.Protein.RotatedAtoms>
  151.8304  135.0623  160.0435 H   0  0  0  0  0  0  0  0  0  0  0  0  # atno 6907 bound_to 6896
  152.2885  133.5534  159.5551 H   0  0  0  0  0  0  0  0  0  0  0  0  # atno 6908 bound_to 6896
  150.7219  134.0379  159.3798 H   0  0  0  0  0  0  0  0  0  0  0  0  # atno 6909 bound_to 6896
  146.1431  139.6418  142.9149 H   0  0  0  0  0  0  0  0  0  0  0  0  # atno 7974 bound_to 7965
  154.7612  140.0480  157.0975 H   0  0  0  0  0  0  0  0  0  0  0  0  # atno 8008 bound_to 7997
  154.9935  140.3116  155.4877 H   0  0  0  0  0  0  0  0  0  0  0  0  # atno 8009 bound_to 7997
  156.2904  140.2214  156.5042 H   0  0  0  0  0  0  0  0  0  0  0  0  # atno 8010 bound_to 7997
  140.4572  144.0960  150.6204 H   0  0  0  0  0  0  0  0  0  0  0  0  # atno 10167 bound_to 10162
  156.8502  130.5551  149.5670 H   0  0  0  0  0  0  0  0  0  0  0  0  # atno 10718 bound_to 10713
  154.1025  135.2844  155.3248 H   0  0  0  0  0  0  0  0  0  0  0  0  # atno 10763 bound_to 10752
  154.6545  135.5357  153.7945 H   0  0  0  0  0  0  0  0  0  0  0  0  # atno 10764 bound_to 10752
  153.0374  135.6518  154.1188 H   0  0  0  0  0  0  0  0  0  0  0  0  # atno 10765 bound_to 10752
  140.5416  134.0369  155.7906 H   0  0  0  0  0  0  0  0  0  0  0  0  # atno 11005 bound_to 11000
  145.4999  141.0437  143.2546 LP  0  0  0  0  0  0  0  0  0  0  0  0  # atno 17320 bound_to 7965
  144.7815  139.6515  143.7152 LP  0  0  0  0  0  0  0  0  0  0  0  0  # atno 17321 bound_to 7965
  140.4137  143.2644  151.9801 LP  0  0  0  0  0  0  0  0  0  0  0  0  # atno 17342 bound_to 10162
  139.4802  144.5893  151.7800 LP  0  0  0  0  0  0  0  0  0  0  0  0  # atno 17343 bound_to 10162
  156.0832  130.5837  150.9602 LP  0  0  0  0  0  0  0  0  0  0  0  0  # atno 17370 bound_to 10713
  157.6308  131.0921  150.8445 LP  0  0  0  0  0  0  0  0  0  0  0  0  # atno 17371 bound_to 10713
  141.1224  133.9440  157.2704 LP  0  0  0  0  0  0  0  0  0  0  0  0  # atno 17394 bound_to 11000
  139.9501  135.0177  156.8968 LP  0  0  0  0  0  0  0  0  0  0  0  0  # atno 17395 bound_to 11000

$$$$
