AV-unprocessed.smi:99|AV-procd|sdf|894|dock7
  -GOLD-   2262017383D 1   1.00000     0.00000
 Structure written by MMmdl.
 52 55  0  0  0  0  0  0  0  0  2 V2000
  144.1835  135.0993  154.1549 O   0  0  0  0  0  0  0  0  0  0  0  0
  145.2157  134.8807  153.5177 C   0  0  0  0  0  0  0  0  0  0  0  0
  146.4248  135.3587  153.8672 O   0  0  0  0  0  0  0  0  0  0  0  0
  146.6014  136.0606  155.0871 C   0  0  0  0  0  0  0  0  0  0  0  0
  147.6724  135.3408  155.9160 C   0  0  1  0  0  0  0  0  0  0  0  0
  148.8945  135.2597  155.1866 O   0  0  0  0  0  0  0  0  0  0  0  0
  149.9901  135.3114  156.0600 C   0  0  1  0  0  0  0  0  0  0  0  0
  150.8652  136.4906  155.6928 N   0  0  0  0  0  0  0  0  0  0  0  0
  150.5496  137.3074  154.6195 C   0  0  0  0  0  0  0  0  0  0  0  0
  151.3171  138.3678  154.2943 C   0  0  0  0  0  0  0  0  0  0  0  0
  152.5042  138.6649  155.0911 C   0  0  0  0  0  0  0  0  0  0  0  0
  153.2033  139.6276  154.7815 O   0  0  0  0  0  0  0  0  0  0  0  0
  152.7844  137.8552  156.1527 N   0  5  0  0  0  0  0  0  0  0  0  0
  152.0059  136.7854  156.4884 C   0  0  0  0  0  0  0  0  0  0  0  0
  152.2383  136.0615  157.4567 O   0  0  0  0  0  0  0  0  0  0  0  0
  149.4467  135.4813  157.4872 C   0  0  2  0  0  0  0  0  0  0  0  0
  149.3863  134.2254  158.1383 O   0  0  0  0  0  0  0  0  0  0  0  0
  148.0705  136.0595  157.2040 C   0  0  2  0  0  0  0  0  0  0  0  0
  147.1759  135.8654  158.2956 O   0  0  0  0  0  0  0  0  0  0  0  0
  147.4081  136.4315  159.5004 C   0  0  0  0  0  0  0  0  0  0  0  0
  148.0043  137.4992  159.6552 O   0  0  0  0  0  0  0  0  0  0  0  0
  146.8283  135.6476  160.6279 C   0  0  0  0  0  0  0  0  0  0  0  0
  147.4504  135.6969  161.8973 C   0  0  0  0  0  0  0  0  0  0  0  0
  146.9109  134.9889  162.9885 C   0  0  0  0  0  0  0  0  0  0  0  0
  145.7434  134.2212  162.8228 C   0  0  0  0  0  0  0  0  0  0  0  0
  145.1172  134.1613  161.5643 C   0  0  0  0  0  0  0  0  0  0  0  0
  145.6547  134.8696  160.4719 C   0  0  0  0  0  0  0  0  0  0  0  0
  145.2649  134.0387  152.2875 C   0  0  0  0  0  0  0  0  0  0  0  0
  146.5141  133.7620  151.6849 C   0  0  0  0  0  0  0  0  0  0  0  0
  146.5878  132.9883  150.5101 C   0  0  0  0  0  0  0  0  0  0  0  0
  145.4135  132.4820  149.9232 C   0  0  0  0  0  0  0  0  0  0  0  0
  144.1650  132.7465  150.5151 C   0  0  0  0  0  0  0  0  0  0  0  0
  144.0898  133.5174  151.6912 C   0  0  0  0  0  0  0  0  0  0  0  0
  146.9167  137.0800  154.8632 H   0  0  0  0  0  0  0  0  0  0  0  0
  145.6690  136.1194  155.6506 H   0  0  0  0  0  0  0  0  0  0  0  0
  147.3564  134.3198  156.1374 H   0  0  0  0  0  0  0  0  0  0  0  0
  150.6088  134.4240  155.9156 H   0  0  0  0  0  0  0  0  0  0  0  0
  149.6715  137.1075  154.0245 H   0  0  0  0  0  0  0  0  0  0  0  0
  151.0550  138.9946  153.4546 H   0  0  0  0  0  0  0  0  0  0  0  0
  150.0672  136.1563  158.0781 H   0  0  0  0  0  0  0  0  0  0  0  0
  149.7383  133.5700  157.5561 H   0  0  0  0  0  0  0  0  0  0  0  0
  148.2035  137.1200  156.9852 H   0  0  0  0  0  0  0  0  0  0  0  0
  148.3432  136.2860  162.0507 H   0  0  0  0  0  0  0  0  0  0  0  0
  147.3919  135.0387  163.9542 H   0  0  0  0  0  0  0  0  0  0  0  0
  145.3287  133.6794  163.6600 H   0  0  0  0  0  0  0  0  0  0  0  0
  144.2209  133.5724  161.4358 H   0  0  0  0  0  0  0  0  0  0  0  0
  145.1469  134.8055  159.5204 H   0  0  0  0  0  0  0  0  0  0  0  0
  147.4288  134.1452  152.1138 H   0  0  0  0  0  0  0  0  0  0  0  0
  147.5472  132.7859  150.0572 H   0  0  0  0  0  0  0  0  0  0  0  0
  145.4702  131.8923  149.0202 H   0  0  0  0  0  0  0  0  0  0  0  0
  143.2617  132.3626  150.0644 H   0  0  0  0  0  0  0  0  0  0  0  0
  143.1143  133.7064  152.1149 H   0  0  0  0  0  0  0  0  0  0  0  0
  1  2  2  0  0  0  0
  2  3  1  0  0  0  0
  2 28  1  0  0  0  0
  3  4  1  0  0  0  0
  4  5  1  0  0  0  0
  4 34  1  0  0  0  0
  4 35  1  0  0  0  0
  5 18  1  0  0  0  0
  5  6  1  0  0  0  0
  5 36  1  0  0  0  0
  6  7  1  0  0  0  0
  7  8  1  0  0  0  0
  7 16  1  0  0  0  0
  7 37  1  0  0  0  0
  8 14  1  0  0  0  0
  8  9  1  0  0  0  0
  9 10  2  0  0  0  0
  9 38  1  0  0  0  0
 10 11  1  0  0  0  0
 10 39  1  0  0  0  0
 11 12  2  0  0  0  0
 11 13  1  0  0  0  0
 13 14  1  0  0  0  0
 14 15  2  0  0  0  0
 16 17  1  0  0  0  0
 16 18  1  0  0  0  0
 16 40  1  0  0  0  0
 17 41  1  0  0  0  0
 18 19  1  0  0  0  0
 18 42  1  0  0  0  0
 19 20  1  0  0  0  0
 20 21  2  0  0  0  0
 20 22  1  0  0  0  0
 22 27  1  0  0  0  0
 22 23  2  0  0  0  0
 23 24  1  0  0  0  0
 23 43  1  0  0  0  0
 24 25  2  0  0  0  0
 24 44  1  0  0  0  0
 25 26  1  0  0  0  0
 25 45  1  0  0  0  0
 26 27  2  0  0  0  0
 26 46  1  0  0  0  0
 27 47  1  0  0  0  0
 28 33  1  0  0  0  0
 28 29  2  0  0  0  0
 29 30  1  0  0  0  0
 29 48  1  0  0  0  0
 30 31  2  0  0  0  0
 30 49  1  0  0  0  0
 31 32  1  0  0  0  0
 31 50  1  0  0  0  0
 32 33  2  0  0  0  0
 32 51  1  0  0  0  0
 33 52  1  0  0  0  0
M  CHG  1  13  -1
M  END
> <s_m_source_file>
AV-unprocessed.smi

> <i_m_source_file_index>
99

> <i_lp_mmshare_version>
43012

> <i_f3d_flags>
0

> <s_epik_input>
W2NIXTFbY0hdW2NIXVtjSF1bY0hdYzFDKD1PKU9bQ0gyXVtDQEBIXTJPW0NAQEhdKG4zW2NIXVtjSF1jKD1PKVtuSF1jMz1PKVtDQEBIXShbT0hdKVtDQEhdMk9DKD1PKWM0W2NIXVtjSF1bY0hdW2NIXVtjSF00

> <s_epik_cmdline>
J2VwaWtfcHl0aG9uJywgJy1waCcsICc3LjAnLCAnLXRuJywgJzgnLCAnLW1hJywgJzIwMCcsICctbWV0YWxfYmluZGluZycsICctaW1hZScsICc8aW5maWxlLm1hZT4nLCAnLW9tYWUnLCAnPG91dGZpbGUubWFlPic=

> <r_lp_tautomer_probability>
1

> <r_epik_Ionization_Penalty>
2.89159

> <r_epik_Ionization_Penalty_Charging>
2.1077e-08

> <r_epik_Ionization_Penalty_Neutral>
2.89159

> <r_epik_State_Penalty>
2.88671

> <r_epik_Charging_Adjusted_Penalty>
2.88671

> <i_epik_Tot_Q>
-1

> <i_epik_Tot_abs_Q>
1

> <r_epik_Metal_State_Penalty>
0.0727308

> <b_epik_Metal_Only>
1

> <s_epik_Chemistry_Notes>
This compound has an ester and may undergo hydrolysis at high or low pH. This compound contains an acetal/aminal-like group ( X-CH(R)-Y where X, Y are N, S, or O) that may be acid/base labile, releasing an aldehyde.

> <s_lp_Force_Field>
OPLS_2005

> <r_lp_Energy>
45.2634

> <b_lp_Chiralities_Consistent>
1

> <s_lp_Variant>
AV-unprocessed.smi:99-30

> <Gold.Version>
5.8.1

> <Gold.Id.Protein>
6NUR|6NUR_protein|mol2

> <Gold.PLP.Fitness>
54.2953

> <Gold.PLP.PLP>
-46.0990

> <Gold.PLP.part.hbond>
-4.8997

> <Gold.PLP.part.metal>
0.0000

> <Gold.PLP.part.buried>
-6.1736

> <Gold.PLP.part.nonpolar>
-36.0269

> <Gold.PLP.part.repulsive>
0.2950

> <Gold.PLP.ligand.clash>
0.0000

> <Gold.PLP.ligand.torsion>
1.2098

> <Gold.PLP.Chemscore.Hbond>
2.5054

> <Gold.PLP.Chemscore.CHOScore>
1.0000

> <Gold.PLP.Chemscore.Metal>
0.0000

> <Gold.Chemscore.Hbonds>
donor molecule, donor type, donor heavy atom, donor atom, acceptor molecule, acceptor atom, score
      P1  H  6896  6909       L1    17  1.00
      P1  H  6934  6947       L1    21  0.44
      P1  H  7989  7998       L1    12  0.08
      P1  H  7997  8010       L1    12  1.00
      L1  C     9    38       P1  7948  1.00

> <Gold.PLP.Chemscore.Internal.Correction>
0.0996

> <Gold.Rescore>
     Score         DG    S(hbond)    S(metal)    S(lipo)     H(rot)  DE(clash)    DE(int)     intcor
     13.13     -15.46       1.80        0.00     102.52       3.13       0.02       2.30       ----

> <Gold.Chemscore.Fitness>
13.1333

> <Gold.Chemscore.DG>
-15.4602

> <Gold.Chemscore.ZeroCoef>
-5.4800

> <Gold.Chemscore.Hbond>
1.7993

> <Gold.Chemscore.Metal>
0.0000

> <Gold.Chemscore.Lipo>
102.5232

> <Gold.Chemscore.Internal_Hbond>
0.0000

> <Gold.Chemscore.DEClash>
0.0234

> <Gold.Chemscore.DEInternal>
2.3034

> <Gold.Chemscore.Rot>
3.1346

> <Gold.Chemscore.Internal.Correction>
   9.000000E+99

> <Gold.Chemscore.Hbonds>
donor molecule, donor type, donor heavy atom, donor atom, acceptor molecule, acceptor atom, score
      P1  H  6896  6909       L1    17  0.15
      P1  H  6934  6947       L1    21  0.43
      P1  H  7989  7998       L1    12  0.02
      P1  H  7997  8010       L1    12  0.97

> <Gold.Chemscore.Hbond.Weighted>
-6.0095

> <Gold.Chemscore.Metal.Weighted>
-0.0000

> <Gold.Chemscore.Lipo.Weighted>
-11.9952

> <Gold.Chemscore.Internal_Hbond.Weighted>
0.0000

> <Gold.Chemscore.DEClash.Weighted>
0.0234

> <Gold.Chemscore.DEInternal.Weighted>
2.3034

> <Gold.Chemscore.Rot.Weighted>
8.0246

> <Gold.Chemscore.Internal.Correction.Weighted>
   9.000000E+99

> <Gold.Protein.RotatedTorsions>
[ 6907 6896 6895 6894 ] final   27.81 input  -60.11 | X-H torsion
[ 7974 7965 7964 7962 ] final  168.14 input  175.53 | X-H torsion
[ 8008 7997 7996 7995 ] final  102.25 input   59.86 | X-H torsion
[ 10167 10162 10161 10158 ] final  -84.55 input  -65.29 | X-H torsion
[ 10718 10713 10712 10709 ] final -139.09 input   66.30 | X-H torsion
[ 10763 10752 10751 10750 ] final  -76.64 input  -60.55 | X-H torsion
[ 11005 11000 10999 10996 ] final   37.79 input  -57.11 | X-H torsion

> <Gold.Protein.ActiveResidues>
 VAL166  LYS551  ARG553  GLY616  TRP617  ASP618  TYR619  PRO620  LYS621  CYS622 
 ASP623  PHE694  ASN695  SER759  ASP760  ASP761  ALA762  ILE779  LEU786  VAL792 
 PHE793  MET794  SER795  GLU796  ALA797  LYS798  CYS799  TRP800  GLU811  SER814 

> <Gold.Protein.RotatedAtoms>
  152.0077  134.9893  160.0566 H   0  0  0  0  0  0  0  0  0  0  0  0  # atno 6907 bound_to 6896
  152.1459  133.4487  159.4798 H   0  0  0  0  0  0  0  0  0  0  0  0  # atno 6908 bound_to 6896
  150.6870  134.2167  159.4423 H   0  0  0  0  0  0  0  0  0  0  0  0  # atno 6909 bound_to 6896
  144.7399  139.8864  143.6400 H   0  0  0  0  0  0  0  0  0  0  0  0  # atno 7974 bound_to 7965
  156.1375  140.3184  155.8443 H   0  0  0  0  0  0  0  0  0  0  0  0  # atno 8008 bound_to 7997
  155.4217  140.0512  157.3042 H   0  0  0  0  0  0  0  0  0  0  0  0  # atno 8009 bound_to 7997
  154.4949  140.2106  155.9482 H   0  0  0  0  0  0  0  0  0  0  0  0  # atno 8010 bound_to 7997
  140.4122  143.2618  151.9003 H   0  0  0  0  0  0  0  0  0  0  0  0  # atno 10167 bound_to 10162
  156.3068  130.7459  151.1525 H   0  0  0  0  0  0  0  0  0  0  0  0  # atno 10718 bound_to 10713
  154.5025  135.5791  153.6542 H   0  0  0  0  0  0  0  0  0  0  0  0  # atno 10763 bound_to 10752
  152.9881  135.6139  154.2984 H   0  0  0  0  0  0  0  0  0  0  0  0  # atno 10764 bound_to 10752
  154.2892  135.2849  155.2642 H   0  0  0  0  0  0  0  0  0  0  0  0  # atno 10765 bound_to 10752
  140.2191  134.3663  155.8013 H   0  0  0  0  0  0  0  0  0  0  0  0  # atno 11005 bound_to 11000
  146.1174  139.4186  143.0250 LP  0  0  0  0  0  0  0  0  0  0  0  0  # atno 17320 bound_to 7965
  145.7355  141.0027  143.1329 LP  0  0  0  0  0  0  0  0  0  0  0  0  # atno 17321 bound_to 7965
  139.4782  144.5525  151.8364 LP  0  0  0  0  0  0  0  0  0  0  0  0  # atno 17342 bound_to 10162
  140.4626  144.1701  150.5908 LP  0  0  0  0  0  0  0  0  0  0  0  0  # atno 17343 bound_to 10162
  157.7381  131.0544  150.5312 LP  0  0  0  0  0  0  0  0  0  0  0  0  # atno 17370 bound_to 10713
  156.5447  130.4216  149.6137 LP  0  0  0  0  0  0  0  0  0  0  0  0  # atno 17371 bound_to 10713
  141.2224  133.7184  156.8545 LP  0  0  0  0  0  0  0  0  0  0  0  0  # atno 17394 bound_to 11000
  140.1869  134.8993  157.3015 LP  0  0  0  0  0  0  0  0  0  0  0  0  # atno 17395 bound_to 11000

$$$$
