AV-unprocessed.smi:43|AV-procd|sdf|394|dock3
  -GOLD-   2262016253D 1   1.00000     0.00000
 Structure written by MMmdl.
 25 26  0  0  0  0  0  0  0  0  2 V2000
  152.5115  137.6416  158.8170 C   0  0  0  0  0  0  0  0  0  0  0  0
  151.0825  137.5275  158.5869 N   0  0  0  0  0  0  0  0  0  0  0  0
  150.4711  136.3339  158.7937 N   0  0  0  0  0  0  0  0  0  0  0  0
  149.2109  136.4985  158.5184 N   0  0  0  0  0  0  0  0  0  0  0  0
  148.9505  137.7943  158.1244 N   0  0  0  0  0  0  0  0  0  0  0  0
  150.1339  138.3951  158.1849 C   0  0  0  0  0  0  0  0  0  0  0  0
  150.3723  139.7395  157.8645 N   0  0  0  0  0  0  0  0  0  0  0  0
  149.4788  140.8932  157.9987 C   0  0  0  0  0  0  0  0  0  0  0  0
  150.1613  142.1097  157.3725 C   0  0  1  0  0  0  0  0  0  0  0  0
  149.7858  143.3212  157.9942 O   0  0  0  0  0  0  0  0  0  0  0  0
  151.6300  141.7859  157.5587 C   0  0  0  0  0  0  0  0  0  0  0  0
  151.6518  140.2651  157.3711 C   0  0  2  0  0  0  0  0  0  0  0  0
  151.9127  139.8599  155.9091 C   0  0  0  0  0  0  0  0  0  0  0  0
  151.0545  140.2063  155.0689 O   0  0  0  0  0  0  0  0  0  0  0  0
  152.9528  139.2120  155.6541 O   0  5  0  0  0  0  0  0  0  0  0  0
  149.9256  142.1652  156.3089 H   0  0  0  0  0  0  0  0  0  0  0  0
  152.4570  139.8494  157.9786 H   0  0  0  0  0  0  0  0  0  0  0  0
  152.6989  138.3206  159.6484 H   0  0  0  0  0  0  0  0  0  0  0  0
  153.0065  138.0097  157.9191 H   0  0  0  0  0  0  0  0  0  0  0  0
  152.9358  136.6682  159.0666 H   0  0  0  0  0  0  0  0  0  0  0  0
  148.5198  140.7169  157.5138 H   0  0  0  0  0  0  0  0  0  0  0  0
  149.2990  141.0591  159.0615 H   0  0  0  0  0  0  0  0  0  0  0  0
  149.3820  143.8766  157.3454 H   0  0  0  0  0  0  0  0  0  0  0  0
  152.2748  142.3265  156.8641 H   0  0  0  0  0  0  0  0  0  0  0  0
  151.9508  142.0319  158.5720 H   0  0  0  0  0  0  0  0  0  0  0  0
  1  2  1  0  0  0  0
  1 18  1  0  0  0  0
  1 19  1  0  0  0  0
  1 20  1  0  0  0  0
  2  6  1  0  0  0  0
  2  3  1  0  0  0  0
  3  4  2  0  0  0  0
  4  5  1  0  0  0  0
  5  6  2  0  0  0  0
  6  7  1  0  0  0  0
  7 12  1  0  0  0  0
  7  8  1  0  0  0  0
  8  9  1  0  0  0  0
  8 21  1  0  0  0  0
  8 22  1  0  0  0  0
  9 16  1  0  0  0  0
  9 10  1  0  0  0  0
  9 11  1  0  0  0  0
 10 23  1  0  0  0  0
 11 12  1  0  0  0  0
 11 24  1  0  0  0  0
 11 25  1  0  0  0  0
 12 17  1  0  0  0  0
 12 13  1  0  0  0  0
 13 14  2  0  0  0  0
 13 15  1  0  0  0  0
M  CHG  1  15  -1
M  END
> <s_m_source_file>
AV-unprocessed.smi

> <i_m_source_file_index>
43

> <i_lp_mmshare_version>
43012

> <i_f3d_flags>
0

> <s_epik_input>
W0NIM11uMW5ubmMxTjJbQ0gyXVtDQEhdKFtPSF0pW0NIMl1bQ0BIXTJDKD1PKVtPSF0=

> <s_epik_cmdline>
J2VwaWtfcHl0aG9uJywgJy1waCcsICc3LjAnLCAnLXRuJywgJzgnLCAnLW1hJywgJzIwMCcsICctbWV0YWxfYmluZGluZycsICctaW1hZScsICc8aW5maWxlLm1hZT4nLCAnLW9tYWUnLCAnPG91dGZpbGUubWFlPic=

> <r_lp_tautomer_probability>
1

> <r_epik_Ionization_Penalty>
0.000193127

> <r_epik_Ionization_Penalty_Charging>
0.000192933

> <r_epik_Ionization_Penalty_Neutral>
1.93728e-07

> <r_epik_State_Penalty>
-0

> <r_epik_Charging_Adjusted_Penalty>
0.000192933

> <i_epik_Tot_Q>
-1

> <i_epik_Tot_abs_Q>
1

> <r_epik_Metal_State_Penalty>
-0

> <b_epik_Metal_Only>
0

> <s_lp_Force_Field>
OPLS_2005

> <r_lp_Energy>
20.0951

> <b_lp_Chiralities_Consistent>
1

> <s_lp_Variant>
AV-unprocessed.smi:43-4

> <Gold.Version>
5.8.1

> <Gold.Id.Protein>
6NUR|6NUR_protein|mol2

> <Gold.PLP.Fitness>
35.0855

> <Gold.PLP.PLP>
-20.8204

> <Gold.PLP.part.hbond>
-4.1002

> <Gold.PLP.part.metal>
0.0000

> <Gold.PLP.part.buried>
-5.2697

> <Gold.PLP.part.nonpolar>
-11.1562

> <Gold.PLP.part.repulsive>
0.0429

> <Gold.PLP.ligand.clash>
0.0000

> <Gold.PLP.ligand.torsion>
0.3695

> <Gold.PLP.Chemscore.Hbond>
5.0000

> <Gold.PLP.Chemscore.CHOScore>
0.0000

> <Gold.PLP.Chemscore.Metal>
0.0000

> <Gold.Chemscore.Hbonds>
donor molecule, donor type, donor heavy atom, donor atom, acceptor molecule, acceptor atom, score
      L1  H    10    23       P1  8028  1.00
      P1  H  6896  6907       L1     3  1.00
      P1  H  7989  7998       L1    14  1.00
      P1  H  7997  8010       L1    15  2.00

> <Gold.PLP.Chemscore.Internal.Correction>
0.0041

> <Gold.Rescore>
     Score         DG    S(hbond)    S(metal)    S(lipo)     H(rot)  DE(clash)    DE(int)     intcor
     15.45     -15.83       3.47        0.00      26.27       1.69       0.01       0.37       ----

> <Gold.Chemscore.Fitness>
15.4479

> <Gold.Chemscore.DG>
-15.8250

> <Gold.Chemscore.ZeroCoef>
-5.4800

> <Gold.Chemscore.Hbond>
3.4714

> <Gold.Chemscore.Metal>
0.0000

> <Gold.Chemscore.Lipo>
26.2705

> <Gold.Chemscore.Internal_Hbond>
0.0000

> <Gold.Chemscore.DEClash>
0.0110

> <Gold.Chemscore.DEInternal>
0.3661

> <Gold.Chemscore.Rot>
1.6887

> <Gold.Chemscore.Internal.Correction>
   9.000000E+99

> <Gold.Chemscore.Hbonds>
donor molecule, donor type, donor heavy atom, donor atom, acceptor molecule, acceptor atom, score
      L1  H    10    23       P1  8028  0.39
      P1  H  6896  6907       L1     3  0.95
      P1  H  7989  7998       L1    14  0.95
      P1  H  7997  8010       L1    15  0.78

> <Gold.Chemscore.Hbond.Weighted>
-11.5946

> <Gold.Chemscore.Metal.Weighted>
-0.0000

> <Gold.Chemscore.Lipo.Weighted>
-3.0737

> <Gold.Chemscore.Internal_Hbond.Weighted>
0.0000

> <Gold.Chemscore.DEClash.Weighted>
0.0110

> <Gold.Chemscore.DEInternal.Weighted>
0.3661

> <Gold.Chemscore.Rot.Weighted>
4.3232

> <Gold.Chemscore.Internal.Correction.Weighted>
   9.000000E+99

> <Gold.Protein.RotatedTorsions>
[ 6907 6896 6895 6894 ] final  -39.02 input  -60.11 | X-H torsion
[ 7974 7965 7964 7962 ] final  105.21 input  175.53 | X-H torsion
[ 8008 7997 7996 7995 ] final   95.02 input   59.86 | X-H torsion
[ 10167 10162 10161 10158 ] final   17.68 input  -65.29 | X-H torsion
[ 10718 10713 10712 10709 ] final  -54.64 input   66.30 | X-H torsion
[ 10763 10752 10751 10750 ] final  153.20 input  -60.55 | X-H torsion
[ 11005 11000 10999 10996 ] final  -78.20 input  -57.11 | X-H torsion

> <Gold.Protein.ActiveResidues>
 VAL166  LYS551  ARG553  GLY616  TRP617  ASP618  TYR619  PRO620  LYS621  CYS622 
 ASP623  PHE694  ASN695  SER759  ASP760  ASP761  ALA762  ILE779  LEU786  VAL792 
 PHE793  MET794  SER795  GLU796  ALA797  LYS798  CYS799  TRP800  GLU811  SER814 

> <Gold.Protein.RotatedAtoms>
  150.9954  134.9279  159.7923 H   0  0  0  0  0  0  0  0  0  0  0  0  # atno 6907 bound_to 6896
  152.5263  134.3226  159.9163 H   0  0  0  0  0  0  0  0  0  0  0  0  # atno 6908 bound_to 6896
  151.3231  133.3990  159.2690 H   0  0  0  0  0  0  0  0  0  0  0  0  # atno 6909 bound_to 6896
  145.3226  139.2508  143.3704 H   0  0  0  0  0  0  0  0  0  0  0  0  # atno 7974 bound_to 7965
  156.0643  140.3292  155.7499 H   0  0  0  0  0  0  0  0  0  0  0  0  # atno 8008 bound_to 7997
  155.5406  140.0601  157.2888 H   0  0  0  0  0  0  0  0  0  0  0  0  # atno 8009 bound_to 7997
  154.4497  140.1911  156.0575 H   0  0  0  0  0  0  0  0  0  0  0  0  # atno 8010 bound_to 7997
  140.5708  143.9164  150.6712 H   0  0  0  0  0  0  0  0  0  0  0  0  # atno 10167 bound_to 10162
  156.1434  130.4153  150.0065 H   0  0  0  0  0  0  0  0  0  0  0  0  # atno 10718 bound_to 10713
  154.1323  135.2826  155.3182 H   0  0  0  0  0  0  0  0  0  0  0  0  # atno 10763 bound_to 10752
  154.6347  135.5423  153.7723 H   0  0  0  0  0  0  0  0  0  0  0  0  # atno 10764 bound_to 10752
  153.0277  135.6471  154.1473 H   0  0  0  0  0  0  0  0  0  0  0  0  # atno 10765 bound_to 10752
  141.1664  133.7053  156.7936 H   0  0  0  0  0  0  0  0  0  0  0  0  # atno 11005 bound_to 11000
  146.3076  140.3787  142.8681 LP  0  0  0  0  0  0  0  0  0  0  0  0  # atno 17320 bound_to 7965
  144.8927  140.7544  143.5916 LP  0  0  0  0  0  0  0  0  0  0  0  0  # atno 17321 bound_to 7965
  140.2639  143.3504  152.1298 LP  0  0  0  0  0  0  0  0  0  0  0  0  # atno 17342 bound_to 10162
  139.5117  144.6904  151.5774 LP  0  0  0  0  0  0  0  0  0  0  0  0  # atno 17343 bound_to 10162
  156.7944  130.9268  151.3646 LP  0  0  0  0  0  0  0  0  0  0  0  0  # atno 17370 bound_to 10713
  157.6595  130.8954  149.9800 LP  0  0  0  0  0  0  0  0  0  0  0  0  # atno 17371 bound_to 10713
  140.2307  134.8688  157.3474 LP  0  0  0  0  0  0  0  0  0  0  0  0  # atno 17394 bound_to 11000
  140.1894  134.4391  155.7725 LP  0  0  0  0  0  0  0  0  0  0  0  0  # atno 17395 bound_to 11000

$$$$
