AV-unprocessed.smi:1015|AV-procd|sdf|4436|dock1
  -GOLD-   22720 2393D 1   1.00000     0.00000
 Structure written by MMmdl.
 42 43  0  0  0  0  0  0  0  0  1 V2000
  152.5529  143.4676  159.9913 C   0  0  0  0  0  0  0  0  0  0  0  0
  152.7456  143.5086  158.5884 O   0  0  0  0  0  0  0  0  0  0  0  0
  151.6400  142.9841  157.8707 C   0  0  0  0  0  0  0  0  0  0  0  0
  151.4870  141.4794  158.1501 C   0  0  0  0  0  0  0  0  0  0  0  0
  150.6342  140.7442  157.2138 N   0  0  0  0  0  0  0  0  0  0  0  0
  151.2566  140.6870  155.8909 C   0  0  0  0  0  0  0  0  0  0  0  0
  150.4434  139.8519  154.8880 C   0  0  0  0  0  0  0  0  0  0  0  0
  149.0138  140.4045  154.7481 C   0  0  0  0  0  0  0  0  0  0  0  0
  148.1701  139.5459  153.7820 C   0  0  0  0  0  0  0  0  0  0  0  0
  148.2752  138.1238  154.0850 N   0  0  0  0  0  0  0  0  0  0  0  0
  147.7674  137.5271  155.1742 C   0  0  0  0  0  0  0  0  0  0  0  0
  147.0529  138.1015  155.9951 O   0  0  0  0  0  0  0  0  0  0  0  0
  148.1554  136.0648  155.3874 C   0  0  0  0  0  0  0  0  0  0  0  0
  149.5556  135.9624  155.7551 N   0  0  0  0  0  0  0  0  0  0  0  0
  150.6659  136.2050  155.0551 C   0  0  0  0  0  0  0  0  0  0  0  0
  151.7556  135.9556  155.7650 N   0  0  0  0  0  0  0  0  0  0  0  0
  151.2483  135.5324  156.9824 N   0  0  0  0  0  0  0  0  0  0  0  0
  149.9435  135.5342  156.9824 N   0  0  0  0  0  0  0  0  0  0  0  0
  148.3818  140.5260  156.1507 C   0  0  0  0  0  0  0  0  0  0  0  0
  149.2923  141.3210  157.1011 C   0  0  0  0  0  0  0  0  0  0  0  0
  153.4312  143.8734  160.4931 H   0  0  0  0  0  0  0  0  0  0  0  0
  152.4076  142.4446  160.3408 H   0  0  0  0  0  0  0  0  0  0  0  0
  151.6899  144.0653  160.2873 H   0  0  0  0  0  0  0  0  0  0  0  0
  150.7368  143.5025  158.1961 H   0  0  0  0  0  0  0  0  0  0  0  0
  151.7464  143.1635  156.7994 H   0  0  0  0  0  0  0  0  0  0  0  0
  152.4705  141.0120  158.2163 H   0  0  0  0  0  0  0  0  0  0  0  0
  151.0499  141.3888  159.1454 H   0  0  0  0  0  0  0  0  0  0  0  0
  151.3887  141.6973  155.5002 H   0  0  0  0  0  0  0  0  0  0  0  0
  152.2553  140.2567  155.9732 H   0  0  0  0  0  0  0  0  0  0  0  0
  150.9425  139.8524  153.9184 H   0  0  0  0  0  0  0  0  0  0  0  0
  150.4115  138.8136  155.2212 H   0  0  0  0  0  0  0  0  0  0  0  0
  149.0906  141.4094  154.3296 H   0  0  0  0  0  0  0  0  0  0  0  0
  147.1238  139.8549  153.8099 H   0  0  0  0  0  0  0  0  0  0  0  0
  148.5084  139.6968  152.7565 H   0  0  0  0  0  0  0  0  0  0  0  0
  148.8461  137.5685  153.4639 H   0  0  0  0  0  0  0  0  0  0  0  0
  147.5505  135.6257  156.1816 H   0  0  0  0  0  0  0  0  0  0  0  0
  147.9709  135.4883  154.4793 H   0  0  0  0  0  0  0  0  0  0  0  0
  150.6749  136.5520  154.0323 H   0  0  0  0  0  0  0  0  0  0  0  0
  147.4097  141.0172  156.0938 H   0  0  0  0  0  0  0  0  0  0  0  0
  148.2037  139.5324  156.5643 H   0  0  0  0  0  0  0  0  0  0  0  0
  148.8105  141.3432  158.0774 H   0  0  0  0  0  0  0  0  0  0  0  0
  149.3600  142.3564  156.7633 H   0  0  0  0  0  0  0  0  0  0  0  0
  1  2  1  0  0  0  0
  1 21  1  0  0  0  0
  1 22  1  0  0  0  0
  1 23  1  0  0  0  0
  2  3  1  0  0  0  0
  3  4  1  0  0  0  0
  3 24  1  0  0  0  0
  3 25  1  0  0  0  0
  4  5  1  0  0  0  0
  4 26  1  0  0  0  0
  4 27  1  0  0  0  0
  5 20  1  0  0  0  0
  5  6  1  0  0  0  0
  6  7  1  0  0  0  0
  6 28  1  0  0  0  0
  6 29  1  0  0  0  0
  7  8  1  0  0  0  0
  7 30  1  0  0  0  0
  7 31  1  0  0  0  0
  8  9  1  0  0  0  0
  8 19  1  0  0  0  0
  8 32  1  0  0  0  0
  9 10  1  0  0  0  0
  9 33  1  0  0  0  0
  9 34  1  0  0  0  0
 10 11  1  0  0  0  0
 10 35  1  0  0  0  0
 11 12  2  0  0  0  0
 11 13  1  0  0  0  0
 13 14  1  0  0  0  0
 13 36  1  0  0  0  0
 13 37  1  0  0  0  0
 14 18  1  0  0  0  0
 14 15  1  0  0  0  0
 15 16  2  0  0  0  0
 15 38  1  0  0  0  0
 16 17  1  0  0  0  0
 17 18  2  0  0  0  0
 19 20  1  0  0  0  0
 19 39  1  0  0  0  0
 19 40  1  0  0  0  0
 20 41  1  0  0  0  0
 20 42  1  0  0  0  0
M  END
> <s_m_source_file>
AV-unprocessed.smi

> <i_m_source_file_index>
1015

> <i_lp_mmshare_version>
43012

> <i_f3d_flags>
0

> <s_epik_input>
W0NIM11PW0NIMl1bQ0gyXU4xW0NIMl1bQ0gyXVtDSF0oW0NIMl1bQ0gyXTEpW0NIMl1bTkhdQyg9TylbQ0gyXW4yW2NIXW5ubjI=

> <s_epik_cmdline>
J2VwaWtfcHl0aG9uJywgJy1waCcsICc3LjAnLCAnLXRuJywgJzgnLCAnLW1hJywgJzIwMCcsICctbWV0YWxfYmluZGluZycsICctaW1hZScsICc8aW5maWxlLm1hZT4nLCAnLW9tYWUnLCAnPG91dGZpbGUubWFlPic=

> <r_lp_tautomer_probability>
1

> <r_epik_Ionization_Penalty>
2.39972

> <r_epik_Ionization_Penalty_Charging>
0

> <r_epik_Ionization_Penalty_Neutral>
2.39972

> <r_epik_State_Penalty>
2.55755

> <r_epik_Charging_Adjusted_Penalty>
2.55755

> <i_epik_Tot_Q>
0

> <i_epik_Tot_abs_Q>
0

> <r_epik_Metal_State_Penalty>
2.55755

> <b_epik_Metal_Only>
0

> <s_lp_Force_Field>
OPLS_2005

> <r_lp_Energy>
27.1713

> <b_lp_Chiralities_Consistent>
1

> <s_lp_Variant>
AV-unprocessed.smi:1015-3

> <Gold.Version>
5.8.1

> <Gold.Id.Protein>
6NUR|6NUR_protein|mol2

> <Gold.PLP.Fitness>
34.1374

> <Gold.PLP.PLP>
-25.8557

> <Gold.PLP.part.hbond>
-2.0000

> <Gold.PLP.part.metal>
0.0000

> <Gold.PLP.part.buried>
-1.8969

> <Gold.PLP.part.nonpolar>
-21.3330

> <Gold.PLP.part.repulsive>
0.0764

> <Gold.PLP.ligand.clash>
0.0000

> <Gold.PLP.ligand.torsion>
0.3864

> <Gold.PLP.Chemscore.Hbond>
1.9920

> <Gold.PLP.Chemscore.CHOScore>
0.9168

> <Gold.PLP.Chemscore.Metal>
0.0000

> <Gold.Chemscore.Hbonds>
donor molecule, donor type, donor heavy atom, donor atom, acceptor molecule, acceptor atom, score
      L1  H    10    35       P1  7948  0.89
      P1  H 10752 10763       L1    16  1.00
      L1  C    15    38       P1  7948  0.23
      L1  C    15    38       P1  7949  0.49

> <Gold.PLP.Chemscore.Internal.Correction>
0.3280

> <Gold.Rescore>
     Score         DG    S(hbond)    S(metal)    S(lipo)     H(rot)  DE(clash)    DE(int)     intcor
      9.61     -11.40       1.98        0.00      62.30       3.12       0.06       1.72       ----

> <Gold.Chemscore.Fitness>
9.6137

> <Gold.Chemscore.DG>
-11.3986

> <Gold.Chemscore.ZeroCoef>
-5.4800

> <Gold.Chemscore.Hbond>
1.9812

> <Gold.Chemscore.Metal>
0.0000

> <Gold.Chemscore.Lipo>
62.2969

> <Gold.Chemscore.Internal_Hbond>
0.0000

> <Gold.Chemscore.DEClash>
0.0617

> <Gold.Chemscore.DEInternal>
1.7232

> <Gold.Chemscore.Rot>
3.1201

> <Gold.Chemscore.Internal.Correction>
   9.000000E+99

> <Gold.Chemscore.Hbonds>
donor molecule, donor type, donor heavy atom, donor atom, acceptor molecule, acceptor atom, score
      L1  H    10    35       P1  7948  0.82
      P1  H 10752 10763       L1    16  0.81

> <Gold.Chemscore.Hbond.Weighted>
-6.6172

> <Gold.Chemscore.Metal.Weighted>
-0.0000

> <Gold.Chemscore.Lipo.Weighted>
-7.2887

> <Gold.Chemscore.Internal_Hbond.Weighted>
0.0000

> <Gold.Chemscore.DEClash.Weighted>
0.0617

> <Gold.Chemscore.DEInternal.Weighted>
1.7232

> <Gold.Chemscore.Rot.Weighted>
7.9874

> <Gold.Chemscore.Internal.Correction.Weighted>
   9.000000E+99

> <Gold.Protein.RotatedTorsions>
[ 6907 6896 6895 6894 ] final   74.52 input  -60.11 | X-H torsion
[ 7974 7965 7964 7962 ] final   85.31 input  175.53 | X-H torsion
[ 8008 7997 7996 7995 ] final  169.34 input   59.86 | X-H torsion
[ 10167 10162 10161 10158 ] final   88.17 input  -65.29 | X-H torsion
[ 10718 10713 10712 10709 ] final   62.88 input   66.30 | X-H torsion
[ 10763 10752 10751 10750 ] final   72.88 input  -60.55 | X-H torsion
[ 11005 11000 10999 10996 ] final  168.35 input  -57.11 | X-H torsion

> <Gold.Protein.ActiveResidues>
 VAL166  LYS551  ARG553  GLY616  TRP617  ASP618  TYR619  PRO620  LYS621  CYS622 
 ASP623  PHE694  ASN695  SER759  ASP760  ASP761  ALA762  ILE779  LEU786  VAL792 
 PHE793  MET794  SER795  GLU796  ALA797  LYS798  CYS799  TRP800  GLU811  SER814 

> <Gold.Protein.RotatedAtoms>
  152.4980  134.4259  159.9495 H   0  0  0  0  0  0  0  0  0  0  0  0  # atno 6907 bound_to 6896
  151.4235  133.3685  159.2767 H   0  0  0  0  0  0  0  0  0  0  0  0  # atno 6908 bound_to 6896
  150.9206  134.8646  159.7546 H   0  0  0  0  0  0  0  0  0  0  0  0  # atno 6909 bound_to 6896
  145.5871  139.2333  143.2320 H   0  0  0  0  0  0  0  0  0  0  0  0  # atno 7974 bound_to 7965
  156.1466  140.1567  156.8837 H   0  0  0  0  0  0  0  0  0  0  0  0  # atno 8008 bound_to 7997
  154.5034  140.0819  156.7881 H   0  0  0  0  0  0  0  0  0  0  0  0  # atno 8009 bound_to 7997
  155.3977  140.3413  155.4257 H   0  0  0  0  0  0  0  0  0  0  0  0  # atno 8010 bound_to 7997
  139.8700  144.6498  150.8960 H   0  0  0  0  0  0  0  0  0  0  0  0  # atno 10167 bound_to 10162
  157.5932  130.9074  149.9644 H   0  0  0  0  0  0  0  0  0  0  0  0  # atno 10718 bound_to 10713
  153.0486  135.5083  154.7811 H   0  0  0  0  0  0  0  0  0  0  0  0  # atno 10763 bound_to 10752
  154.6690  135.2950  154.9769 H   0  0  0  0  0  0  0  0  0  0  0  0  # atno 10764 bound_to 10752
  154.0593  135.6693  153.4862 H   0  0  0  0  0  0  0  0  0  0  0  0  # atno 10765 bound_to 10752
  140.2863  134.7709  157.3801 H   0  0  0  0  0  0  0  0  0  0  0  0  # atno 11005 bound_to 11000
  146.1674  140.6698  142.9249 LP  0  0  0  0  0  0  0  0  0  0  0  0  # atno 17320 bound_to 7965
  144.7367  140.4830  143.6898 LP  0  0  0  0  0  0  0  0  0  0  0  0  # atno 17321 bound_to 7965
  140.7762  143.3672  151.1717 LP  0  0  0  0  0  0  0  0  0  0  0  0  # atno 17342 bound_to 10162
  139.7293  143.9098  152.3014 LP  0  0  0  0  0  0  0  0  0  0  0  0  # atno 17343 bound_to 10162
  156.0990  130.3657  150.0253 LP  0  0  0  0  0  0  0  0  0  0  0  0  # atno 17370 bound_to 10713
  156.8371  130.9413  151.3634 LP  0  0  0  0  0  0  0  0  0  0  0  0  # atno 17371 bound_to 10713
  140.1236  134.5187  155.8163 LP  0  0  0  0  0  0  0  0  0  0  0  0  # atno 17394 bound_to 11000
  141.2154  133.6765  156.6911 LP  0  0  0  0  0  0  0  0  0  0  0  0  # atno 17395 bound_to 11000

$$$$
