#       Name:                AV-unprocessed.smi:1701
#       Creating user name   scv26
#       Creation time:       Fri Mar 27 08:00:14 2020


#       File generated by GOLD software.
#

@<TRIPOS>MOLECULE
AV-unprocessed.smi:1701
    57    59     1
SMALL
NO_CHARGES


@<TRIPOS>ATOM
      1 ****        -6.0899  -1.5342   0.4623 C.3            1 S1                 0.0000
      2 ****        -5.6644  -0.5231   1.5350 C.3            1 S1                 0.0000
      3 ****        -5.0029   0.6451   0.9594 N.pl3          1 S1                 0.0000
      4 ****        -5.8126   1.8016   0.5786 C.3            1 S1                 0.0000
      5 ****        -6.0206   2.7735   1.7473 C.3            1 S1                 0.0000
      6 ****        -3.5965   0.6750   0.8117 C.ar           1 S1                 0.0000
      7 ****        -2.7702  -0.4636   0.9819 C.ar           1 S1                 0.0000
      8 ****        -1.3747  -0.3509   0.8181 C.ar           1 S1                 0.0000
      9 ****        -0.8055   0.8930   0.4762 C.ar           1 S1                 0.0000
     10 ****         0.6062   0.9568   0.3312 N.am           1 S1                 0.0000
     11 ****         1.3468   1.8831  -0.3089 C.2            1 S1                 0.0000
     12 ****         0.8917   2.8729  -0.8766 O.2            1 S1                 0.0000
     13 ****         2.6672   1.6229  -0.3214 N.am           1 S1                 0.0000
     14 ****         3.7492   2.4094  -0.9220 C.3            1 S1                 0.0000
     15 ****         4.9673   1.5478  -1.3071 C.3            1 S1                 0.0000
     16 ****         6.1818   2.4039  -0.9352 C.3            1 S1                 0.0000
     17 ****         5.7168   3.1319   0.2507 N.4            1 S1                 1.0000
     18 ****         6.5366   4.2493   0.7613 C.3            1 S1                 0.0000
     19 ****         5.9411   4.7143   2.1077 C.3            1 S1                 0.0000
     20 ****         4.4292   5.0205   2.0060 C.3            1 S1                 0.0000
     21 ****         3.6506   3.8641   1.3418 C.3            1 S1                 0.0000
     22 ****         4.3180   3.5189  -0.0023 C.3            1 S1                 0.0000
     23 ****        -1.6685   2.0039   0.3271 C.ar           1 S1                 0.0000
     24 ****        -2.9994   1.8502   0.4945 N.pl3          1 S1                 1.0000
     25 ****        -6.5930  -2.3885   0.9154 H              1 S1                 0.0000
     26 ****        -5.2317  -1.9120  -0.0937 H              1 S1                 0.0000
     27 ****        -6.7800  -1.0853  -0.2527 H              1 S1                 0.0000
     28 ****        -6.5501  -0.1877   2.0753 H              1 S1                 0.0000
     29 ****        -5.0318  -0.9973   2.2850 H              1 S1                 0.0000
     30 ****        -5.3724   2.3193  -0.2740 H              1 S1                 0.0000
     31 ****        -6.7841   1.4458   0.2342 H              1 S1                 0.0000
     32 ****        -6.6367   3.6189   1.4408 H              1 S1                 0.0000
     33 ****        -5.0714   3.1698   2.1090 H              1 S1                 0.0000
     34 ****        -6.5208   2.2858   2.5843 H              1 S1                 0.0000
     35 ****        -3.1822  -1.4300   1.2288 H              1 S1                 0.0000
     36 ****        -0.7486  -1.2217   0.9483 H              1 S1                 0.0000
     37 ****         1.1137   0.1649   0.6972 H              1 S1                 0.0000
     38 ****         2.9477   0.7475   0.0975 H              1 S1                 0.0000
     39 ****         3.3859   2.8756  -1.8398 H              1 S1                 0.0000
     40 ****         4.9830   0.6295  -0.7176 H              1 S1                 0.0000
     41 ****         4.9657   1.2619  -2.3595 H              1 S1                 0.0000
     42 ****         7.0704   1.8074  -0.7268 H              1 S1                 0.0000
     43 ****         6.4152   3.1091  -1.7345 H              1 S1                 0.0000
     44 ****         7.5666   3.9188   0.8991 H              1 S1                 0.0000
     45 ****         6.5514   5.0663   0.0382 H              1 S1                 0.0000
     46 ****         6.0944   3.9334   2.8540 H              1 S1                 0.0000
     47 ****         6.4768   5.5922   2.4700 H              1 S1                 0.0000
     48 ****         4.0214   5.2255   2.9963 H              1 S1                 0.0000
     49 ****         4.2873   5.9310   1.4225 H              1 S1                 0.0000
     50 ****         3.6423   2.9924   1.9978 H              1 S1                 0.0000
     51 ****         2.6131   4.1633   1.1956 H              1 S1                 0.0000
     52 ****         4.3355   4.4294  -0.6056 H              1 S1                 0.0000
     53 ****        -1.3565   3.0103   0.0928 H              1 S1                 0.0000
     54 ****         5.6836   2.4431   0.9889 H              1 S1                 0.0000
     55 ****        -3.5917   2.6726   0.3783 H              1 S1                 0.0000
     56 ****        -0.0951   3.0352  -0.8846 LP             1 S1                 0.0000
     57 ****         1.5079   3.5164  -1.3308 LP             1 S1                 0.0000
@<TRIPOS>BOND
    1    1    2 1     
    2    1   25 1     
    3    1   26 1     
    4    1   27 1     
    5    2    3 1     
    6    2   28 1     
    7    2   29 1     
    8    3    4 1     
    9    3    6 1     
   10    4    5 1     
   11    4   30 1     
   12    4   31 1     
   13    5   32 1     
   14    5   33 1     
   15    5   34 1     
   16    6   24 ar    
   17    6    7 ar    
   18    7    8 ar    
   19    7   35 1     
   20    8    9 ar    
   21    8   36 1     
   22    9   10 1     
   23    9   23 ar    
   24   10   11 am    
   25   10   37 1     
   26   11   12 2     
   27   11   13 am    
   28   13   14 1     
   29   13   38 1     
   30   14   22 1     
   31   14   15 1     
   32   14   39 1     
   33   15   16 1     
   34   15   40 1     
   35   15   41 1     
   36   16   17 1     
   37   16   42 1     
   38   16   43 1     
   39   17   22 1     
   40   17   18 1     
   41   17   54 1     
   42   18   19 1     
   43   18   44 1     
   44   18   45 1     
   45   19   20 1     
   46   19   46 1     
   47   19   47 1     
   48   20   21 1     
   49   20   48 1     
   50   20   49 1     
   51   21   22 1     
   52   21   50 1     
   53   21   51 1     
   54   22   52 1     
   55   23   24 ar    
   56   23   53 1     
   57   24   55 1     
   58   12   56 1     
   59   12   57 1     
@<TRIPOS>SUBSTRUCTURE
      1 S1             1
@<TRIPOS>SET
LONE_PAIRS      STATIC     ATOMS    <user>   **** ""
2 56 57
DONOR_HYDROGENS      STATIC     ATOMS    <user>   **** ""
4 37 38 54 55
ATOM$BLUE        STATIC     ATOMS    COLORGROUP SYSTEM
2 56 57
ATOM$RED        STATIC     ATOMS    COLORGROUP SYSTEM
4 37 38 54 55
