#       Name:                AV-unprocessed.smi:287
#       Creating user name   scv26
#       Creation time:       Thu Mar 26 21:59:47 2020


#       File generated by GOLD software.
#

@<TRIPOS>MOLECULE
AV-unprocessed.smi:287
    70    73     1
SMALL
NO_CHARGES


@<TRIPOS>ATOM
      1 ****        -0.0133   4.7343   4.0589 C.3            1 S1                 0.0000
      2 ****        -0.4895   4.6646   2.6485 C.2            1 S1                 0.0000
      3 ****        -1.0745   3.6874   1.8972 C.2            1 S1                 0.0000
      4 ****        -1.2902   4.2244   0.5923 C.2            1 S1                 0.0000
      5 ****        -1.9253   3.5055  -0.5907 C.3            1 S1                 0.0000
      6 ****        -3.4555   3.6266  -0.5068 C.3            1 S1                 0.0000
      7 ****        -1.5665   4.0814  -1.8322 O.3            1 S1                 0.0000
      8 ****        -1.5152   2.0172  -0.6797 C.3            1 S1                 0.0000
      9 ****        -0.0820   1.8126  -0.5124 N.pl3          1 S1                 0.0000
     10 ****         0.4275   0.5765  -0.3301 C.ar           1 S1                 0.0000
     11 ****         1.7392   0.5342   0.0002 N.ar           1 S1                 0.0000
     12 ****         2.3395  -0.6393   0.2065 C.ar           1 S1                 0.0000
     13 ****         1.8176  -1.8635   0.1358 N.ar           1 S1                 0.0000
     14 ****         0.4949  -1.8406  -0.2004 C.ar           1 S1                 0.0000
     15 ****        -0.2701  -0.6626  -0.4520 C.ar           1 S1                 0.0000
     16 ****        -1.5719  -1.0217  -0.7769 N.2            1 S1                 0.0000
     17 ****        -1.5712  -2.3240  -0.7206 C.2            1 S1                 0.0000
     18 ****        -0.3757  -2.9073  -0.3667 N.pl3          1 S1                 0.0000
     19 ****        -0.1212  -4.3881  -0.2660 C.3            1 S1                 0.0000
     20 ****         0.4300  -4.8216  -1.4676 O.3            1 S1                 0.0000
     21 ****         1.8464  -4.8408  -1.3663 C.3            1 S1                 0.0000
     22 ****         2.4262  -5.8100  -2.4077 C.3            1 S1                 0.0000
     23 ****         2.5061  -5.1767  -3.6668 O.3            1 S1                 0.0000
     24 ****         2.0815  -5.2908   0.0846 C.3            1 S1                 0.0000
     25 ****         3.2686  -4.7148   0.5914 O.3            1 S1                 0.0000
     26 ****         0.8577  -4.7822   0.8540 C.3            1 S1                 0.0000
     27 ****         0.3246  -5.8172   1.6557 O.3            1 S1                 0.0000
     28 ****        -0.8304   5.5168   0.6660 C.2            1 S1                 0.0000
     29 ****        -0.7710   6.6492  -0.3053 C.3            1 S1                 0.0000
     30 ****        -0.3367   5.7899   1.9059 O.3            1 S1                 0.0000
     31 ****        -1.1177  -4.8128  -0.1356 H              1 S1                 0.0000
     32 ****         2.2353  -3.8350  -1.5258 H              1 S1                 0.0000
     33 ****         2.1480  -6.3791   0.1348 H              1 S1                 0.0000
     34 ****         1.0704  -3.9317   1.5008 H              1 S1                 0.0000
     35 ****        -0.0279   3.7481   4.5232 H              1 S1                 0.0000
     36 ****        -0.6485   5.3953   4.6485 H              1 S1                 0.0000
     37 ****         1.0077   5.1136   4.1054 H              1 S1                 0.0000
     38 ****        -1.3146   2.6928   2.2431 H              1 S1                 0.0000
     39 ****        -3.8365   3.1776   0.4112 H              1 S1                 0.0000
     40 ****        -3.9436   3.1254  -1.3434 H              1 S1                 0.0000
     41 ****        -3.7723   4.6705  -0.5164 H              1 S1                 0.0000
     42 ****        -1.9857   3.5909  -2.5226 H              1 S1                 0.0000
     43 ****        -2.0193   1.4735   0.1203 H              1 S1                 0.0000
     44 ****        -1.8500   1.5791  -1.6211 H              1 S1                 0.0000
     45 ****         0.4697   2.6542  -0.4269 H              1 S1                 0.0000
     46 ****         3.3864  -0.5911   0.4671 H              1 S1                 0.0000
     47 ****        -2.4565  -2.9028  -0.9405 H              1 S1                 0.0000
     48 ****         3.4378  -6.1022  -2.1242 H              1 S1                 0.0000
     49 ****         1.8319  -6.7216  -2.4771 H              1 S1                 0.0000
     50 ****         2.8788  -5.7844  -4.2869 H              1 S1                 0.0000
     51 ****         3.3565  -4.9601   1.4999 H              1 S1                 0.0000
     52 ****         0.1163  -6.5511   1.0979 H              1 S1                 0.0000
     53 ****        -1.7374   6.7956  -0.7878 H              1 S1                 0.0000
     54 ****        -0.0308   6.4531  -1.0810 H              1 S1                 0.0000
     55 ****        -0.5000   7.5818   0.1905 H              1 S1                 0.0000
     56 ****        -0.5738   4.0443  -1.9470 LP             1 S1                 0.0000
     57 ****        -1.8702   5.0337  -1.8627 LP             1 S1                 0.0000
     58 ****         2.2593   1.3837   0.0897 LP             1 S1                 0.0000
     59 ****         2.3350  -2.7015   0.3089 LP             1 S1                 0.0000
     60 ****        -2.3364  -0.4180  -1.0029 LP             1 S1                 0.0000
     61 ****         0.1579  -4.1994  -2.2016 LP             1 S1                 0.0000
     62 ****         0.0990  -5.7429  -1.6718 LP             1 S1                 0.0000
     63 ****         3.0869  -4.3654  -3.5996 LP             1 S1                 0.0000
     64 ****         1.5911  -4.9076  -3.9672 LP             1 S1                 0.0000
     65 ****         3.2202  -3.7190   0.5139 LP             1 S1                 0.0000
     66 ****         4.0549  -5.0516   0.0734 LP             1 S1                 0.0000
     67 ****        -0.5040  -5.4960   2.1142 LP             1 S1                 0.0000
     68 ****         0.9984  -6.0945   2.3406 LP             1 S1                 0.0000
     69 ****         0.6315   6.0325   1.8446 LP             1 S1                 0.0000
     70 ****        -0.8442   6.5460   2.3191 LP             1 S1                 0.0000
@<TRIPOS>BOND
    1    1    2 1     
    2    1   35 1     
    3    1   36 1     
    4    1   37 1     
    5    2   30 1     
    6    2    3 2     
    7    3    4 1     
    8    3   38 1     
    9    4    5 1     
   10    4   28 2     
   11    5    6 1     
   12    5    7 1     
   13    5    8 1     
   14    6   39 1     
   15    6   40 1     
   16    6   41 1     
   17    7   42 1     
   18    8    9 1     
   19    8   43 1     
   20    8   44 1     
   21    9   10 1     
   22    9   45 1     
   23   10   15 ar    
   24   10   11 ar    
   25   11   12 ar    
   26   12   13 ar    
   27   12   46 1     
   28   13   14 ar    
   29   14   18 1     
   30   14   15 ar    
   31   15   16 1     
   32   16   17 2     
   33   17   18 1     
   34   17   47 1     
   35   18   19 1     
   36   19   31 1     
   37   19   26 1     
   38   19   20 1     
   39   20   21 1     
   40   21   32 1     
   41   21   22 1     
   42   21   24 1     
   43   22   23 1     
   44   22   48 1     
   45   22   49 1     
   46   23   50 1     
   47   24   33 1     
   48   24   25 1     
   49   24   26 1     
   50   25   51 1     
   51   26   34 1     
   52   26   27 1     
   53   27   52 1     
   54   28   29 1     
   55   28   30 1     
   56   29   53 1     
   57   29   54 1     
   58   29   55 1     
   59    7   56 1     
   60    7   57 1     
   61   11   58 1     
   62   13   59 1     
   63   16   60 1     
   64   20   61 1     
   65   20   62 1     
   66   23   63 1     
   67   23   64 1     
   68   25   65 1     
   69   25   66 1     
   70   27   67 1     
   71   27   68 1     
   72   30   69 1     
   73   30   70 1     
@<TRIPOS>SUBSTRUCTURE
      1 S1             1
@<TRIPOS>SET
LONE_PAIRS      STATIC     ATOMS    <user>   **** ""
15 56 57 58 59 60 61 62 63 64 65 66 67 68 69 70
DONOR_HYDROGENS      STATIC     ATOMS    <user>   **** ""
5 42 45 50 51 52
ATOM$BLUE        STATIC     ATOMS    COLORGROUP SYSTEM
15 56 57 58 59 60 61 62 63 64 65 66 67 68 69 70
ATOM$RED        STATIC     ATOMS    COLORGROUP SYSTEM
5 42 45 50 51 52
