AV-unprocessed.smi:1816|AV-procd|sdf|7367|dock3
  -GOLD-   22720 9 33D 1   1.00000     0.00000
 Structure written by MMmdl.
 35 36  0  0  0  0  0  0  0  0  3 V2000
  146.1996  142.0552  155.2958 C   0  0  0  0  0  0  0  0  0  0  0  0
  147.1114  141.5662  154.1473 C   0  0  1  0  0  0  0  0  0  0  0  0
  148.4889  141.1212  154.6923 C   0  0  0  0  0  0  0  0  0  0  0  0
  149.1805  142.2100  155.3709 N   0  0  0  0  0  0  0  0  0  0  0  0
  150.2444  142.0672  156.1713 C   0  0  0  0  0  0  0  0  0  0  0  0
  150.7115  140.9446  156.3760 O   0  0  0  0  0  0  0  0  0  0  0  0
  150.6971  143.2333  156.6834 N   0  5  0  0  0  0  0  0  0  0  0  0
  151.4361  143.2326  157.8050 C   0  0  0  0  0  0  0  0  0  0  0  0
  151.9721  142.1222  158.3245 N   0  0  0  0  0  0  0  0  0  0  0  0
  152.7069  142.3530  159.4890 C   0  0  0  0  0  0  0  0  0  0  0  0
  152.7395  143.6715  159.8588 C   0  0  0  0  0  0  0  0  0  0  0  0
  151.8415  144.6682  158.7500 S   0  0  0  0  0  0  0  0  0  0  0  0
  146.4682  140.4597  153.3815 N   0  3  0  0  0  0  0  0  0  0  0  0
  147.0392  140.1849  152.0446 C   0  0  0  0  0  0  0  0  0  0  0  0
  146.5801  138.7728  151.7012 C   0  0  0  0  0  0  0  0  0  0  0  0
  146.6442  138.0560  153.0446 C   0  0  0  0  0  0  0  0  0  0  0  0
  146.4006  139.1550  154.0885 C   0  0  0  0  0  0  0  0  0  0  0  0
  146.6654  142.8578  155.8678 H   0  0  0  0  0  0  0  0  0  0  0  0
  145.9728  141.2465  155.9912 H   0  0  0  0  0  0  0  0  0  0  0  0
  145.2551  142.4553  154.9280 H   0  0  0  0  0  0  0  0  0  0  0  0
  147.2647  142.4010  153.4612 H   0  0  0  0  0  0  0  0  0  0  0  0
  148.3631  140.2875  155.3854 H   0  0  0  0  0  0  0  0  0  0  0  0
  149.1367  140.7701  153.8884 H   0  0  0  0  0  0  0  0  0  0  0  0
  148.8279  143.1449  155.2273 H   0  0  0  0  0  0  0  0  0  0  0  0
  153.1756  141.5189  159.9895 H   0  0  0  0  0  0  0  0  0  0  0  0
  153.2340  144.1153  160.7095 H   0  0  0  0  0  0  0  0  0  0  0  0
  146.7105  140.9117  151.3011 H   0  0  0  0  0  0  0  0  0  0  0  0
  148.1290  140.2151  152.0958 H   0  0  0  0  0  0  0  0  0  0  0  0
  145.5508  138.7946  151.3400 H   0  0  0  0  0  0  0  0  0  0  0  0
  147.1967  138.2992  150.9366 H   0  0  0  0  0  0  0  0  0  0  0  0
  145.9230  137.2413  153.1161 H   0  0  0  0  0  0  0  0  0  0  0  0
  147.6388  137.6308  153.1859 H   0  0  0  0  0  0  0  0  0  0  0  0
  147.1522  139.0825  154.8761 H   0  0  0  0  0  0  0  0  0  0  0  0
  145.4202  139.0502  154.5542 H   0  0  0  0  0  0  0  0  0  0  0  0
  145.5103  140.7359  153.2185 H   0  0  0  0  0  0  0  0  0  0  0  0
  1  2  1  0  0  0  0
  1 18  1  0  0  0  0
  1 19  1  0  0  0  0
  1 20  1  0  0  0  0
  2  3  1  0  0  0  0
  2 13  1  0  0  0  0
  2 21  1  0  0  0  0
  3  4  1  0  0  0  0
  3 22  1  0  0  0  0
  3 23  1  0  0  0  0
  4  5  1  0  0  0  0
  4 24  1  0  0  0  0
  5  6  2  0  0  0  0
  5  7  1  0  0  0  0
  7  8  1  0  0  0  0
  8 12  1  0  0  0  0
  8  9  2  0  0  0  0
  9 10  1  0  0  0  0
 10 11  2  0  0  0  0
 10 25  1  0  0  0  0
 11 12  1  0  0  0  0
 11 26  1  0  0  0  0
 13 17  1  0  0  0  0
 13 14  1  0  0  0  0
 13 35  1  0  0  0  0
 14 15  1  0  0  0  0
 14 27  1  0  0  0  0
 14 28  1  0  0  0  0
 15 16  1  0  0  0  0
 15 29  1  0  0  0  0
 15 30  1  0  0  0  0
 16 17  1  0  0  0  0
 16 31  1  0  0  0  0
 16 32  1  0  0  0  0
 17 33  1  0  0  0  0
 17 34  1  0  0  0  0
M  CHG  1   7  -1
M  CHG  1  13   1
M  END
> <s_m_source_file>
AV-unprocessed.smi

> <i_m_source_file_index>
1816

> <i_lp_mmshare_version>
43012

> <i_f3d_flags>
0

> <s_epik_input>
W0NIMl0xW0NIMl1bQ0gyXVtDSDJdTjFbQ0BIXShbQ0gzXSlbQ0gyXVtOSF1DKD1PKVtOSF1jMm5bY0hdW2NIXXMy

> <s_epik_cmdline>
J2VwaWtfcHl0aG9uJywgJy1waCcsICc3LjAnLCAnLXRuJywgJzgnLCAnLW1hJywgJzIwMCcsICctbWV0YWxfYmluZGluZycsICctaW1hZScsICc8aW5maWxlLm1hZT4nLCAnLW9tYWUnLCAnPG91dGZpbGUubWFlPic=

> <r_lp_tautomer_probability>
0.999

> <r_epik_Ionization_Penalty>
6.21769

> <r_epik_Ionization_Penalty_Charging>
5.38662

> <r_epik_Ionization_Penalty_Neutral>
0.831074

> <r_epik_State_Penalty>
5.38626

> <r_epik_Charging_Adjusted_Penalty>
10.7729

> <i_epik_Tot_Q>
0

> <i_epik_Tot_abs_Q>
2

> <r_epik_Metal_State_Penalty>
1.41347

> <b_epik_Metal_Only>
1

> <s_lp_Force_Field>
OPLS_2005

> <r_lp_Energy>
20.95

> <b_lp_Chiralities_Consistent>
1

> <s_lp_Variant>
AV-unprocessed.smi:1816-4

> <Gold.Version>
5.8.1

> <Gold.Id.Protein>
6NUR|6NUR_protein|mol2

> <Gold.PLP.Fitness>
41.7866

> <Gold.PLP.PLP>
-33.5637

> <Gold.PLP.part.hbond>
-2.0000

> <Gold.PLP.part.metal>
0.0000

> <Gold.PLP.part.buried>
-2.2807

> <Gold.PLP.part.nonpolar>
-33.4208

> <Gold.PLP.part.repulsive>
2.4503

> <Gold.PLP.ligand.clash>
0.0000

> <Gold.PLP.ligand.torsion>
0.4111

> <Gold.PLP.Chemscore.Hbond>
3.0000

> <Gold.PLP.Chemscore.CHOScore>
0.0000

> <Gold.PLP.Chemscore.Metal>
0.0000

> <Gold.Chemscore.Hbonds>
donor molecule, donor type, donor heavy atom, donor atom, acceptor molecule, acceptor atom, score
      L1  H     4    24       P1  8028  0.98
      L1  H    13    35       P1 10175  2.00

> <Gold.PLP.Chemscore.Internal.Correction>
0.0450

> <Gold.Rescore>
     Score         DG    S(hbond)    S(metal)    S(lipo)     H(rot)  DE(clash)    DE(int)     intcor
     13.09     -16.69       1.78        0.00      79.51       1.57       1.34       2.26       ----

> <Gold.Chemscore.Fitness>
13.0934

> <Gold.Chemscore.DG>
-16.6913

> <Gold.Chemscore.ZeroCoef>
-5.4800

> <Gold.Chemscore.Hbond>
1.7757

> <Gold.Chemscore.Metal>
0.0000

> <Gold.Chemscore.Lipo>
79.5072

> <Gold.Chemscore.Internal_Hbond>
0.0000

> <Gold.Chemscore.DEClash>
1.3365

> <Gold.Chemscore.DEInternal>
2.2613

> <Gold.Chemscore.Rot>
1.5710

> <Gold.Chemscore.Internal.Correction>
   9.000000E+99

> <Gold.Chemscore.Hbonds>
donor molecule, donor type, donor heavy atom, donor atom, acceptor molecule, acceptor atom, score
      L1  H     4    24       P1  8028  0.93
      L1  H    13    35       P1 10175  0.74

> <Gold.Chemscore.Hbond.Weighted>
-5.9308

> <Gold.Chemscore.Metal.Weighted>
-0.0000

> <Gold.Chemscore.Lipo.Weighted>
-9.3023

> <Gold.Chemscore.Internal_Hbond.Weighted>
0.0000

> <Gold.Chemscore.DEClash.Weighted>
1.3365

> <Gold.Chemscore.DEInternal.Weighted>
2.2613

> <Gold.Chemscore.Rot.Weighted>
4.0219

> <Gold.Chemscore.Internal.Correction.Weighted>
   9.000000E+99

> <Gold.Protein.RotatedTorsions>
[ 6907 6896 6895 6894 ] final  169.41 input  -60.11 | X-H torsion
[ 7974 7965 7964 7962 ] final  112.68 input  175.53 | X-H torsion
[ 8008 7997 7996 7995 ] final  166.70 input   59.86 | X-H torsion
[ 10167 10162 10161 10158 ] final   -8.14 input  -65.29 | X-H torsion
[ 10718 10713 10712 10709 ] final  -71.23 input   66.30 | X-H torsion
[ 10763 10752 10751 10750 ] final   34.68 input  -60.55 | X-H torsion
[ 11005 11000 10999 10996 ] final -155.05 input  -57.11 | X-H torsion

> <Gold.Protein.ActiveResidues>
 VAL166  LYS551  ARG553  GLY616  TRP617  ASP618  TYR619  PRO620  LYS621  CYS622 
 ASP623  PHE694  ASN695  SER759  ASP760  ASP761  ALA762  ILE779  LEU786  VAL792 
 PHE793  MET794  SER795  GLU796  ALA797  LYS798  CYS799  TRP800  GLU811  SER814 

> <Gold.Protein.RotatedAtoms>
  151.8324  133.3410  159.3617 H   0  0  0  0  0  0  0  0  0  0  0  0  # atno 6907 bound_to 6896
  150.7260  134.5470  159.5785 H   0  0  0  0  0  0  0  0  0  0  0  0  # atno 6908 bound_to 6896
  152.2926  134.7704  160.0426 H   0  0  0  0  0  0  0  0  0  0  0  0  # atno 6909 bound_to 6896
  145.2264  139.2839  143.4191 H   0  0  0  0  0  0  0  0  0  0  0  0  # atno 7974 bound_to 7965
  156.1696  140.1636  156.8470 H   0  0  0  0  0  0  0  0  0  0  0  0  # atno 8008 bound_to 7997
  154.5243  140.0771  156.8264 H   0  0  0  0  0  0  0  0  0  0  0  0  # atno 8009 bound_to 7997
  155.3539  140.3391  155.4242 H   0  0  0  0  0  0  0  0  0  0  0  0  # atno 8010 bound_to 7997
  140.7050  143.6002  150.8805 H   0  0  0  0  0  0  0  0  0  0  0  0  # atno 10167 bound_to 10162
  156.0372  130.4347  150.2412 H   0  0  0  0  0  0  0  0  0  0  0  0  # atno 10718 bound_to 10713
  153.0153  135.6354  154.1706 H   0  0  0  0  0  0  0  0  0  0  0  0  # atno 10763 bound_to 10752
  154.1446  135.2832  155.3153 H   0  0  0  0  0  0  0  0  0  0  0  0  # atno 10764 bound_to 10752
  154.6099  135.5560  153.7523 H   0  0  0  0  0  0  0  0  0  0  0  0  # atno 10765 bound_to 10752
  140.6907  134.4044  157.5219 H   0  0  0  0  0  0  0  0  0  0  0  0  # atno 11005 bound_to 11000
  146.3363  140.2586  142.8601 LP  0  0  0  0  0  0  0  0  0  0  0  0  # atno 17320 bound_to 7965
  144.9717  140.8375  143.5451 LP  0  0  0  0  0  0  0  0  0  0  0  0  # atno 17321 bound_to 7965
  139.9727  143.6039  152.2968 LP  0  0  0  0  0  0  0  0  0  0  0  0  # atno 17342 bound_to 10162
  139.6631  144.7662  151.1924 LP  0  0  0  0  0  0  0  0  0  0  0  0  # atno 17343 bound_to 10162
  157.0511  131.0063  151.3253 LP  0  0  0  0  0  0  0  0  0  0  0  0  # atno 17370 bound_to 10713
  157.5140  130.7956  149.7736 LP  0  0  0  0  0  0  0  0  0  0  0  0  # atno 17371 bound_to 10713
  139.8924  134.8755  156.2272 LP  0  0  0  0  0  0  0  0  0  0  0  0  # atno 17394 bound_to 11000
  141.0243  133.7024  156.1321 LP  0  0  0  0  0  0  0  0  0  0  0  0  # atno 17395 bound_to 11000

$$$$
