AV-unprocessed.smi:82|AV-procd|sdf|794|dock9
  -GOLD-   2262017173D 1   1.00000     0.00000
 Structure written by MMmdl.
 59 62  0  0  0  0  0  0  0  0  2 V2000
  147.7989  144.8791  160.8419 C   0  0  0  0  0  0  0  0  0  0  0  0
  147.8820  143.5708  160.3038 O   0  0  0  0  0  0  0  0  0  0  0  0
  147.8070  143.5589  158.8878 C   0  0  0  0  0  0  0  0  0  0  0  0
  148.7933  142.5109  158.3500 C   0  0  0  0  0  0  0  0  0  0  0  0
  148.6409  142.2926  156.8834 N   0  3  2  0  0  0  0  0  0  0  0  0
  147.2058  142.1359  156.5102 C   0  0  0  0  0  0  0  0  0  0  0  0
  147.0156  141.9647  154.9970 C   0  0  0  0  0  0  0  0  0  0  0  0
  147.8096  140.8437  154.5153 N   0  0  0  0  0  0  0  0  0  0  0  0
  147.2209  139.6190  154.5686 C   0  0  0  0  0  0  0  0  0  0  0  0
  147.0490  139.0020  155.7680 N   0  0  0  0  0  0  0  0  0  0  0  0
  146.4614  137.8041  155.8361 C   0  0  0  0  0  0  0  0  0  0  0  0
  145.9814  137.0541  154.8434 N   0  0  0  0  0  0  0  0  0  0  0  0
  146.1600  137.6582  153.6337 C   0  0  0  0  0  0  0  0  0  0  0  0
  146.7651  138.9279  153.4091 C   0  0  0  0  0  0  0  0  0  0  0  0
  146.7867  139.2046  152.0471 N   0  0  0  0  0  0  0  0  0  0  0  0
  146.2219  138.1635  151.4995 C   0  0  0  0  0  0  0  0  0  0  0  0
  145.8085  137.1880  152.3791 N   0  0  0  0  0  0  0  0  0  0  0  0
  145.1783  135.9421  152.0441 C   0  0  0  0  0  0  0  0  0  0  0  0
  145.7743  134.6156  152.5212 C   0  0  0  0  0  0  0  0  0  0  0  0
  145.3818  133.9446  151.1850 C   0  0  0  0  0  0  0  0  0  0  0  0
  146.4976  133.1005  150.5496 C   0  0  0  0  0  0  0  0  0  0  0  0
  146.5979  131.8307  151.1618 O   0  0  0  0  0  0  0  0  0  0  0  0
  144.1077  133.0715  151.2095 C   0  0  0  0  0  0  0  0  0  0  0  0
  143.5587  132.8491  149.9265 O   0  0  0  0  0  0  0  0  0  0  0  0
  145.2424  135.3774  150.6224 C   0  0  0  0  0  0  0  0  0  0  0  0
  149.2307  140.9707  154.8227 C   0  0  0  0  0  0  0  0  0  0  0  0
  149.5013  141.1963  156.3315 C   0  0  1  0  0  0  0  0  0  0  0  0
  151.0085  141.4735  156.5071 C   0  0  0  0  0  0  0  0  0  0  0  0
  147.8709  144.8341  161.9286 H   0  0  0  0  0  0  0  0  0  0  0  0
  146.8489  145.3509  160.5873 H   0  0  0  0  0  0  0  0  0  0  0  0
  148.6119  145.5081  160.4769 H   0  0  0  0  0  0  0  0  0  0  0  0
  146.7951  143.2898  158.5808 H   0  0  0  0  0  0  0  0  0  0  0  0
  148.0079  144.5505  158.4821 H   0  0  0  0  0  0  0  0  0  0  0  0
  149.7911  142.8528  158.6109 H   0  0  0  0  0  0  0  0  0  0  0  0
  148.6644  141.5638  158.8761 H   0  0  0  0  0  0  0  0  0  0  0  0
  146.7910  141.2694  157.0281 H   0  0  0  0  0  0  0  0  0  0  0  0
  146.6299  143.0005  156.8375 H   0  0  0  0  0  0  0  0  0  0  0  0
  145.9571  141.8426  154.7714 H   0  0  0  0  0  0  0  0  0  0  0  0
  147.3367  142.8675  154.4762 H   0  0  0  0  0  0  0  0  0  0  0  0
  146.3607  137.3874  156.8277 H   0  0  0  0  0  0  0  0  0  0  0  0
  146.0949  138.0773  150.4300 H   0  0  0  0  0  0  0  0  0  0  0  0
  144.1382  136.0217  152.3621 H   0  0  0  0  0  0  0  0  0  0  0  0
  146.8538  134.6743  152.6686 H   0  0  0  0  0  0  0  0  0  0  0  0
  145.2877  134.1997  153.4042 H   0  0  0  0  0  0  0  0  0  0  0  0
  146.3074  132.9398  149.4876 H   0  0  0  0  0  0  0  0  0  0  0  0
  147.4627  133.6039  150.6167 H   0  0  0  0  0  0  0  0  0  0  0  0
  147.5102  131.5881  151.2053 H   0  0  0  0  0  0  0  0  0  0  0  0
  144.3111  132.0946  151.6485 H   0  0  0  0  0  0  0  0  0  0  0  0
  143.3346  133.5349  151.8235 H   0  0  0  0  0  0  0  0  0  0  0  0
  142.8673  133.4768  149.7809 H   0  0  0  0  0  0  0  0  0  0  0  0
  144.3411  135.5487  150.0327 H   0  0  0  0  0  0  0  0  0  0  0  0
  146.1285  135.7026  150.0752 H   0  0  0  0  0  0  0  0  0  0  0  0
  149.7790  140.1013  154.4568 H   0  0  0  0  0  0  0  0  0  0  0  0
  149.6113  141.8204  154.2545 H   0  0  0  0  0  0  0  0  0  0  0  0
  149.2555  140.2808  156.8707 H   0  0  0  0  0  0  0  0  0  0  0  0
  151.6013  140.7440  155.9544 H   0  0  0  0  0  0  0  0  0  0  0  0
  151.3374  141.4023  157.5421 H   0  0  0  0  0  0  0  0  0  0  0  0
  151.2763  142.4624  156.1331 H   0  0  0  0  0  0  0  0  0  0  0  0
  148.9647  143.1384  156.4361 H   0  0  0  0  0  0  0  0  0  0  0  0
  1  2  1  0  0  0  0
  1 29  1  0  0  0  0
  1 30  1  0  0  0  0
  1 31  1  0  0  0  0
  2  3  1  0  0  0  0
  3  4  1  0  0  0  0
  3 32  1  0  0  0  0
  3 33  1  0  0  0  0
  4  5  1  0  0  0  0
  4 34  1  0  0  0  0
  4 35  1  0  0  0  0
  5 27  1  0  0  0  0
  5  6  1  0  0  0  0
  5 59  1  0  0  0  0
  6  7  1  0  0  0  0
  6 36  1  0  0  0  0
  6 37  1  0  0  0  0
  7  8  1  0  0  0  0
  7 38  1  0  0  0  0
  7 39  1  0  0  0  0
  8  9  1  0  0  0  0
  8 26  1  0  0  0  0
  9 14  1  0  0  0  0
  9 10  2  0  0  0  0
 10 11  1  0  0  0  0
 11 12  2  0  0  0  0
 11 40  1  0  0  0  0
 12 13  1  0  0  0  0
 13 17  1  0  0  0  0
 13 14  2  0  0  0  0
 14 15  1  0  0  0  0
 15 16  2  0  0  0  0
 16 17  1  0  0  0  0
 16 41  1  0  0  0  0
 17 18  1  0  0  0  0
 18 25  1  0  0  0  0
 18 19  1  0  0  0  0
 18 42  1  0  0  0  0
 19 20  1  0  0  0  0
 19 43  1  0  0  0  0
 19 44  1  0  0  0  0
 20 21  1  0  0  0  0
 20 23  1  0  0  0  0
 20 25  1  0  0  0  0
 21 22  1  0  0  0  0
 21 45  1  0  0  0  0
 21 46  1  0  0  0  0
 22 47  1  0  0  0  0
 23 24  1  0  0  0  0
 23 48  1  0  0  0  0
 23 49  1  0  0  0  0
 24 50  1  0  0  0  0
 25 51  1  0  0  0  0
 25 52  1  0  0  0  0
 26 27  1  0  0  0  0
 26 53  1  0  0  0  0
 26 54  1  0  0  0  0
 27 28  1  0  0  0  0
 27 55  1  0  0  0  0
 28 56  1  0  0  0  0
 28 57  1  0  0  0  0
 28 58  1  0  0  0  0
M  CHG  1   5   1
M  END
> <s_m_source_file>
AV-unprocessed.smi

> <i_m_source_file_index>
82

> <i_lp_mmshare_version>
43012

> <i_f3d_flags>
0

> <s_epik_input>
W0NIM11PW0NIMl1bQ0gyXU4xW0NIMl1bQ0gyXU4oW0NIMl1bQ0BIXTFbQ0gzXSljKG5bY0hdbjIpYyhjMjMpbltjSF1uM1tDSF0oW0NIMl00KVtDSDJdQzQoW0NIMl1bT0hdKVtDSDJdW09IXQ==

> <s_epik_cmdline>
J2VwaWtfcHl0aG9uJywgJy1waCcsICc3LjAnLCAnLXRuJywgJzgnLCAnLW1hJywgJzIwMCcsICctbWV0YWxfYmluZGluZycsICctaW1hZScsICc8aW5maWxlLm1hZT4nLCAnLW9tYWUnLCAnPG91dGZpbGUubWFlPic=

> <r_lp_tautomer_probability>
1

> <r_epik_Ionization_Penalty>
0.304275

> <r_epik_Ionization_Penalty_Charging>
0.304214

> <r_epik_Ionization_Penalty_Neutral>
6.13137e-05

> <r_epik_State_Penalty>
0.300354

> <r_epik_Charging_Adjusted_Penalty>
0.604567

> <i_epik_Tot_Q>
1

> <i_epik_Tot_abs_Q>
1

> <r_epik_Metal_State_Penalty>
0.301147

> <b_epik_Metal_Only>
0

> <s_lp_Force_Field>
OPLS_2005

> <r_lp_Energy>
58.1086

> <b_lp_Chiralities_Consistent>
1

> <s_lp_Variant>
AV-unprocessed.smi:82-1

> <Gold.Version>
5.8.1

> <Gold.Id.Protein>
6NUR|6NUR_protein|mol2

> <Gold.PLP.Fitness>
56.0923

> <Gold.PLP.PLP>
-40.3823

> <Gold.PLP.part.hbond>
-4.0000

> <Gold.PLP.part.metal>
0.0000

> <Gold.PLP.part.buried>
-3.7851

> <Gold.PLP.part.nonpolar>
-34.0794

> <Gold.PLP.part.repulsive>
1.1968

> <Gold.PLP.ligand.clash>
0.0000

> <Gold.PLP.ligand.torsion>
1.0748

> <Gold.PLP.Chemscore.Hbond>
5.0000

> <Gold.PLP.Chemscore.CHOScore>
0.6327

> <Gold.PLP.Chemscore.Metal>
0.0000

> <Gold.Chemscore.Hbonds>
donor molecule, donor type, donor heavy atom, donor atom, acceptor molecule, acceptor atom, score
      L1  H     5    59       P1  8028  2.00
      L1  H    22    47       P1 10747  0.91
      L1  H    24    50       P1 10186  0.83
      P1  H  6933  6944       L1     2  1.00
      L1  C    16    41       P1 10171  0.63

> <Gold.PLP.Chemscore.Internal.Correction>
0.9615

> <Gold.Rescore>
     Score         DG    S(hbond)    S(metal)    S(lipo)     H(rot)  DE(clash)    DE(int)     intcor
     14.56     -16.33       3.70        0.00      72.49       3.91       0.61       1.16       ----

> <Gold.Chemscore.Fitness>
14.5570

> <Gold.Chemscore.DG>
-16.3276

> <Gold.Chemscore.ZeroCoef>
-5.4800

> <Gold.Chemscore.Hbond>
3.7018

> <Gold.Chemscore.Metal>
0.0000

> <Gold.Chemscore.Lipo>
72.4918

> <Gold.Chemscore.Internal_Hbond>
0.0000

> <Gold.Chemscore.DEClash>
0.6101

> <Gold.Chemscore.DEInternal>
1.1605

> <Gold.Chemscore.Rot>
3.9055

> <Gold.Chemscore.Internal.Correction>
   9.000000E+99

> <Gold.Chemscore.Hbonds>
donor molecule, donor type, donor heavy atom, donor atom, acceptor molecule, acceptor atom, score
      L1  H     5    59       P1  8028  0.98
      L1  H    22    47       P1 10747  0.89
      L1  H    24    50       P1 10186  0.82
      P1  H  6933  6944       L1     2  0.87

> <Gold.Chemscore.Hbond.Weighted>
-12.3642

> <Gold.Chemscore.Metal.Weighted>
-0.0000

> <Gold.Chemscore.Lipo.Weighted>
-8.4815

> <Gold.Chemscore.Internal_Hbond.Weighted>
0.0000

> <Gold.Chemscore.DEClash.Weighted>
0.6101

> <Gold.Chemscore.DEInternal.Weighted>
1.1605

> <Gold.Chemscore.Rot.Weighted>
9.9980

> <Gold.Chemscore.Internal.Correction.Weighted>
   9.000000E+99

> <Gold.Protein.RotatedTorsions>
[ 6907 6896 6895 6894 ] final   96.16 input  -60.11 | X-H torsion
[ 7974 7965 7964 7962 ] final -128.29 input  175.53 | X-H torsion
[ 8008 7997 7996 7995 ] final    3.41 input   59.86 | X-H torsion
[ 10167 10162 10161 10158 ] final  -38.97 input  -65.29 | X-H torsion
[ 10718 10713 10712 10709 ] final  -18.98 input   66.30 | X-H torsion
[ 10763 10752 10751 10750 ] final -151.68 input  -60.55 | X-H torsion
[ 11005 11000 10999 10996 ] final  167.80 input  -57.11 | X-H torsion

> <Gold.Protein.ActiveResidues>
 VAL166  LYS551  ARG553  GLY616  TRP617  ASP618  TYR619  PRO620  LYS621  CYS622 
 ASP623  PHE694  ASN695  SER759  ASP760  ASP761  ALA762  ILE779  LEU786  VAL792 
 PHE793  MET794  SER795  GLU796  ALA797  LYS798  CYS799  TRP800  GLU811  SER814 

> <Gold.Protein.RotatedAtoms>
  152.5437  134.0929  159.8284 H   0  0  0  0  0  0  0  0  0  0  0  0  # atno 6907 bound_to 6896
  151.1016  133.5232  159.2617 H   0  0  0  0  0  0  0  0  0  0  0  0  # atno 6908 bound_to 6896
  151.1985  135.0441  159.8916 H   0  0  0  0  0  0  0  0  0  0  0  0  # atno 6909 bound_to 6896
  144.9686  140.7521  143.4685 H   0  0  0  0  0  0  0  0  0  0  0  0  # atno 7974 bound_to 7965
  154.7034  140.2677  155.6698 H   0  0  0  0  0  0  0  0  0  0  0  0  # atno 8008 bound_to 7997
  156.2772  140.2767  156.1575 H   0  0  0  0  0  0  0  0  0  0  0  0  # atno 8009 bound_to 7997
  155.0734  140.0372  157.2606 H   0  0  0  0  0  0  0  0  0  0  0  0  # atno 8010 bound_to 7997
  140.7077  143.3243  151.2717 H   0  0  0  0  0  0  0  0  0  0  0  0  # atno 10167 bound_to 10162
  156.5520  130.4704  149.6447 H   0  0  0  0  0  0  0  0  0  0  0  0  # atno 10718 bound_to 10713
  154.8042  135.3254  154.7473 H   0  0  0  0  0  0  0  0  0  0  0  0  # atno 10763 bound_to 10752
  153.8135  135.6893  153.4842 H   0  0  0  0  0  0  0  0  0  0  0  0  # atno 10764 bound_to 10752
  153.1777  135.4598  154.9931 H   0  0  0  0  0  0  0  0  0  0  0  0  # atno 10765 bound_to 10752
  140.2805  134.7754  157.3754 H   0  0  0  0  0  0  0  0  0  0  0  0  # atno 11005 bound_to 11000
  145.2593  139.1999  143.4900 LP  0  0  0  0  0  0  0  0  0  0  0  0  # atno 17320 bound_to 7965
  146.3375  140.2520  142.8599 LP  0  0  0  0  0  0  0  0  0  0  0  0  # atno 17321 bound_to 7965
  139.6707  144.0026  152.2751 LP  0  0  0  0  0  0  0  0  0  0  0  0  # atno 17342 bound_to 10162
  139.9623  144.6549  150.8067 LP  0  0  0  0  0  0  0  0  0  0  0  0  # atno 17343 bound_to 10162
  156.2876  130.7106  151.1947 LP  0  0  0  0  0  0  0  0  0  0  0  0  # atno 17370 bound_to 10713
  157.7386  131.0539  150.5287 LP  0  0  0  0  0  0  0  0  0  0  0  0  # atno 17371 bound_to 10713
  140.1288  134.5123  155.8123 LP  0  0  0  0  0  0  0  0  0  0  0  0  # atno 17394 bound_to 11000
  141.2163  133.6782  156.7000 LP  0  0  0  0  0  0  0  0  0  0  0  0  # atno 17395 bound_to 11000

$$$$
