AV-unprocessed.smi:1790|AV-procd|sdf|7217|dock8
  -GOLD-   22720 8463D 1   1.00000     0.00000
 Structure written by MMmdl.
 32 33  0  0  0  0  0  0  0  0  2 V2000
  153.1500  139.3508  155.7102 O   0  0  0  0  0  0  0  0  0  0  0  0
  151.9287  139.4459  155.8238 C   0  0  0  0  0  0  0  0  0  0  0  0
  151.0329  138.7734  154.7845 C   0  0  0  0  0  0  0  0  0  0  0  0
  149.9635  139.6469  154.4578 O   0  0  0  0  0  0  0  0  0  0  0  0
  148.7448  138.9598  154.2365 C   0  0  0  0  0  0  0  0  0  0  0  0
  147.6499  139.9738  153.9844 C   0  0  0  0  0  0  0  0  0  0  0  0
  147.9678  141.4503  153.9193 C   0  0  0  0  0  0  0  0  0  0  0  0
  147.1949  140.8990  155.0903 C   0  0  0  0  0  0  0  0  0  0  0  0
  151.2799  140.0797  156.8210 N   0  0  0  0  0  0  0  0  0  0  0  0
  151.7884  140.7965  157.9183 C   0  0  0  0  0  0  0  0  0  0  0  0
  151.5717  142.1201  158.1571 C   0  0  0  0  0  0  0  0  0  0  0  0
  152.1218  142.8036  159.3213 C   0  0  0  0  0  0  0  0  0  0  0  0
  151.8358  144.2560  159.6604 C   0  0  0  0  0  0  0  0  0  0  0  0
  152.3689  145.0742  158.7527 F   0  0  0  0  0  0  0  0  0  0  0  0
  150.5205  144.4654  159.6863 F   0  0  0  0  0  0  0  0  0  0  0  0
  152.3315  144.5748  160.8562 F   0  0  0  0  0  0  0  0  0  0  0  0
  152.8414  141.9524  160.1372 C   0  0  0  0  0  0  0  0  0  0  0  0
  153.1103  140.6392  159.9702 N   0  5  0  0  0  0  0  0  0  0  0  0
  152.5972  140.0118  158.8744 C   0  0  0  0  0  0  0  0  0  0  0  0
  152.7943  138.8137  158.6677 O   0  0  0  0  0  0  0  0  0  0  0  0
  151.6142  138.5338  153.8923 H   0  0  0  0  0  0  0  0  0  0  0  0
  150.6507  137.8381  155.1966 H   0  0  0  0  0  0  0  0  0  0  0  0
  148.8308  138.3052  153.3683 H   0  0  0  0  0  0  0  0  0  0  0  0
  148.4873  138.3439  155.0997 H   0  0  0  0  0  0  0  0  0  0  0  0
  146.8682  139.6193  153.3151 H   0  0  0  0  0  0  0  0  0  0  0  0
  148.9975  141.7555  154.0955 H   0  0  0  0  0  0  0  0  0  0  0  0
  147.4231  142.0482  153.1914 H   0  0  0  0  0  0  0  0  0  0  0  0
  146.1334  141.1313  155.1459 H   0  0  0  0  0  0  0  0  0  0  0  0
  147.7095  140.8385  156.0472 H   0  0  0  0  0  0  0  0  0  0  0  0
  150.2720  140.0214  156.7977 H   0  0  0  0  0  0  0  0  0  0  0  0
  150.9681  142.7136  157.4915 H   0  0  0  0  0  0  0  0  0  0  0  0
  153.2604  142.3925  161.0671 H   0  0  0  0  0  0  0  0  0  0  0  0
  1  2  2  0  0  0  0
  2  3  1  0  0  0  0
  2  9  1  0  0  0  0
  3  4  1  0  0  0  0
  3 21  1  0  0  0  0
  3 22  1  0  0  0  0
  4  5  1  0  0  0  0
  5  6  1  0  0  0  0
  5 23  1  0  0  0  0
  5 24  1  0  0  0  0
  6  8  1  0  0  0  0
  6  7  1  0  0  0  0
  6 25  1  0  0  0  0
  7  8  1  0  0  0  0
  7 26  1  0  0  0  0
  7 27  1  0  0  0  0
  8 28  1  0  0  0  0
  8 29  1  0  0  0  0
  9 10  1  0  0  0  0
  9 30  1  0  0  0  0
 10 19  1  0  0  0  0
 10 11  2  0  0  0  0
 11 12  1  0  0  0  0
 11 31  1  0  0  0  0
 12 13  1  0  0  0  0
 12 17  2  0  0  0  0
 13 14  1  0  0  0  0
 13 15  1  0  0  0  0
 13 16  1  0  0  0  0
 17 18  1  0  0  0  0
 17 32  1  0  0  0  0
 18 19  1  0  0  0  0
 19 20  2  0  0  0  0
M  CHG  1  18  -1
M  END
> <s_m_source_file>
AV-unprocessed.smi

> <i_m_source_file_index>
1790

> <i_lp_mmshare_version>
43012

> <i_f3d_flags>
0

> <s_epik_input>
W0NIMl0xW0NIMl1bQ0hdMVtDSDJdT1tDSDJdQyg9TylbTkhdYzJbY0hdYyhDKEYpKEYpRilbY0hdW25IXWMyPU8=

> <s_epik_cmdline>
J2VwaWtfcHl0aG9uJywgJy1waCcsICc3LjAnLCAnLXRuJywgJzgnLCAnLW1hJywgJzIwMCcsICctbWV0YWxfYmluZGluZycsICctaW1hZScsICc8aW5maWxlLm1hZT4nLCAnLW9tYWUnLCAnPG91dGZpbGUubWFlPic=

> <r_epik_Ionization_Penalty>
2.6027

> <r_epik_Ionization_Penalty_Charging>
0.0561891

> <r_epik_Ionization_Penalty_Neutral>
2.54651

> <r_epik_State_Penalty>
2.71477

> <r_epik_Charging_Adjusted_Penalty>
2.77096

> <i_epik_Tot_Q>
-1

> <i_epik_Tot_abs_Q>
1

> <r_epik_Metal_State_Penalty>
0.521168

> <b_epik_Metal_Only>
0

> <s_lp_Force_Field>
OPLS_2005

> <r_lp_Energy>
28.814

> <b_lp_Chiralities_Consistent>
1

> <s_lp_Variant>
AV-unprocessed.smi:1790-2

> <Gold.Version>
5.8.1

> <Gold.Id.Protein>
6NUR|6NUR_protein|mol2

> <Gold.PLP.Fitness>
44.6030

> <Gold.PLP.PLP>
-43.6821

> <Gold.PLP.part.hbond>
-1.4689

> <Gold.PLP.part.metal>
0.0000

> <Gold.PLP.part.buried>
-7.3029

> <Gold.PLP.part.nonpolar>
-36.1840

> <Gold.PLP.part.repulsive>
0.2253

> <Gold.PLP.ligand.clash>
0.0000

> <Gold.PLP.ligand.torsion>
1.5502

> <Gold.PLP.Chemscore.Hbond>
1.1235

> <Gold.PLP.Chemscore.CHOScore>
0.0000

> <Gold.PLP.Chemscore.Metal>
0.0000

> <Gold.Chemscore.Hbonds>
donor molecule, donor type, donor heavy atom, donor atom, acceptor molecule, acceptor atom, score
      P1  H  7989  7998       L1     4  0.06
      P1  H  7997  8010       L1     1  1.00

> <Gold.PLP.Chemscore.Internal.Correction>
0.6508

> <Gold.Rescore>
     Score         DG    S(hbond)    S(metal)    S(lipo)     H(rot)  DE(clash)    DE(int)     intcor
     11.24     -12.96       0.98        0.00      76.12       1.83       0.07       1.65       ----

> <Gold.Chemscore.Fitness>
11.2378

> <Gold.Chemscore.DG>
-12.9556

> <Gold.Chemscore.ZeroCoef>
-5.4800

> <Gold.Chemscore.Hbond>
0.9764

> <Gold.Chemscore.Metal>
0.0000

> <Gold.Chemscore.Lipo>
76.1192

> <Gold.Chemscore.Internal_Hbond>
0.0000

> <Gold.Chemscore.DEClash>
0.0650

> <Gold.Chemscore.DEInternal>
1.6528

> <Gold.Chemscore.Rot>
1.8326

> <Gold.Chemscore.Internal.Correction>
   9.000000E+99

> <Gold.Chemscore.Hbonds>
donor molecule, donor type, donor heavy atom, donor atom, acceptor molecule, acceptor atom, score
      P1  H  7997  8010       L1     1  0.94

> <Gold.Chemscore.Hbond.Weighted>
-3.2612

> <Gold.Chemscore.Metal.Weighted>
-0.0000

> <Gold.Chemscore.Lipo.Weighted>
-8.9059

> <Gold.Chemscore.Internal_Hbond.Weighted>
0.0000

> <Gold.Chemscore.DEClash.Weighted>
0.0650

> <Gold.Chemscore.DEInternal.Weighted>
1.6528

> <Gold.Chemscore.Rot.Weighted>
4.6916

> <Gold.Chemscore.Internal.Correction.Weighted>
   9.000000E+99

> <Gold.Protein.RotatedTorsions>
[ 6907 6896 6895 6894 ] final   60.61 input  -60.11 | X-H torsion
[ 7974 7965 7964 7962 ] final   85.60 input  175.53 | X-H torsion
[ 8008 7997 7996 7995 ] final   74.39 input   59.86 | X-H torsion
[ 10167 10162 10161 10158 ] final  -20.81 input  -65.29 | X-H torsion
[ 10718 10713 10712 10709 ] final  -40.62 input   66.30 | X-H torsion
[ 10763 10752 10751 10750 ] final -169.79 input  -60.55 | X-H torsion
[ 11005 11000 10999 10996 ] final   29.38 input  -57.11 | X-H torsion

> <Gold.Protein.ActiveResidues>
 VAL166  LYS551  ARG553  GLY616  TRP617  ASP618  TYR619  PRO620  LYS621  CYS622 
 ASP623  PHE694  ASN695  SER759  ASP760  ASP761  ALA762  ILE779  LEU786  VAL792 
 PHE793  MET794  SER795  GLU796  ALA797  LYS798  CYS799  TRP800  GLU811  SER814 

> <Gold.Protein.RotatedAtoms>
  152.4018  134.6274  160.0066 H   0  0  0  0  0  0  0  0  0  0  0  0  # atno 6907 bound_to 6896
  151.6477  133.3317  159.3152 H   0  0  0  0  0  0  0  0  0  0  0  0  # atno 6908 bound_to 6896
  150.7917  134.6988  159.6583 H   0  0  0  0  0  0  0  0  0  0  0  0  # atno 6909 bound_to 6896
  145.5834  139.2328  143.2340 H   0  0  0  0  0  0  0  0  0  0  0  0  # atno 7974 bound_to 7965
  155.7976  140.3477  155.5384 H   0  0  0  0  0  0  0  0  0  0  0  0  # atno 8008 bound_to 7997
  155.8570  140.0965  157.1658 H   0  0  0  0  0  0  0  0  0  0  0  0  # atno 8009 bound_to 7997
  154.4010  140.1365  156.3902 H   0  0  0  0  0  0  0  0  0  0  0  0  # atno 8010 bound_to 7997
  140.7278  143.4687  151.0277 H   0  0  0  0  0  0  0  0  0  0  0  0  # atno 10167 bound_to 10162
  156.2794  130.4215  149.8353 H   0  0  0  0  0  0  0  0  0  0  0  0  # atno 10718 bound_to 10713
  154.6485  135.2908  155.0016 H   0  0  0  0  0  0  0  0  0  0  0  0  # atno 10763 bound_to 10752
  154.1118  135.6561  153.4890 H   0  0  0  0  0  0  0  0  0  0  0  0  # atno 10764 bound_to 10752
  153.0364  135.5267  154.7383 H   0  0  0  0  0  0  0  0  0  0  0  0  # atno 10765 bound_to 10752
  140.3055  134.2708  155.7745 H   0  0  0  0  0  0  0  0  0  0  0  0  # atno 11005 bound_to 11000
  146.1700  140.6660  142.9238 LP  0  0  0  0  0  0  0  0  0  0  0  0  # atno 17320 bound_to 7965
  144.7384  140.4873  143.6887 LP  0  0  0  0  0  0  0  0  0  0  0  0  # atno 17321 bound_to 7965
  139.8377  143.7605  152.3180 LP  0  0  0  0  0  0  0  0  0  0  0  0  # atno 17342 bound_to 10162
  139.7743  144.7466  151.0179 LP  0  0  0  0  0  0  0  0  0  0  0  0  # atno 17343 bound_to 10162
  156.5806  130.8464  151.3382 LP  0  0  0  0  0  0  0  0  0  0  0  0  # atno 17370 bound_to 10713
  157.7309  130.9693  150.1857 LP  0  0  0  0  0  0  0  0  0  0  0  0  # atno 17371 bound_to 10713
  141.2119  133.7674  156.9830 LP  0  0  0  0  0  0  0  0  0  0  0  0  # atno 17394 bound_to 11000
  140.1071  134.9500  157.2010 LP  0  0  0  0  0  0  0  0  0  0  0  0  # atno 17395 bound_to 11000

$$$$
