AV-unprocessed.smi:813|AV-procd|sdf|3817|dock7
  -GOLD-   22720 1253D 1   1.00000     0.00000
 Structure written by MMmdl.
 36 37  0  0  0  0  0  0  0  0  1 V2000
  150.3899  133.5377  155.3677 C   0  0  0  0  0  0  0  0  0  0  0  0
  149.5356  134.8100  155.2422 C   0  0  2  0  0  0  0  0  0  0  0  0
  148.7865  134.7323  153.9884 N   0  0  0  0  0  0  0  0  0  0  0  0
  147.6433  134.0530  153.8103 C   0  0  0  0  0  0  0  0  0  0  0  0
  147.1081  133.3827  154.6939 O   0  0  0  0  0  0  0  0  0  0  0  0
  147.1747  134.2102  152.5600 N   0  0  0  0  0  0  0  0  0  0  0  0
  145.9891  133.6754  151.9902 C   0  0  0  0  0  0  0  0  0  0  0  0
  145.5477  132.4290  152.2220 N   0  0  0  0  0  0  0  0  0  0  0  0
  144.3655  132.1618  151.5436 N   0  0  0  0  0  0  0  0  0  0  0  0
  143.9626  133.2155  150.8277 C   0  0  0  0  0  0  0  0  0  0  0  0
  144.9885  134.6372  150.9114 S   0  0  0  0  0  0  0  0  0  0  0  0
  150.4781  136.0245  155.2393 C   0  0  0  0  0  0  0  0  0  0  0  0
  151.4278  136.0849  156.0223 O   0  0  0  0  0  0  0  0  0  0  0  0
  150.1923  136.9910  154.3542 N   0  0  0  0  0  0  0  0  0  0  0  0
  150.9674  138.2142  154.1692 C   0  0  0  0  0  0  0  0  0  0  0  0
  152.4713  137.8952  154.0946 C   0  0  0  0  0  0  0  0  0  0  0  0
  153.0676  138.3749  155.4178 C   0  0  0  0  0  0  0  0  0  0  0  0
  152.2034  139.5720  155.8014 C   0  0  0  0  0  0  0  0  0  0  0  0
  150.7921  139.1793  155.3603 C   0  0  0  0  0  0  0  0  0  0  0  0
  150.9754  133.5421  156.2881 H   0  0  0  0  0  0  0  0  0  0  0  0
  151.0839  133.4297  154.5324 H   0  0  0  0  0  0  0  0  0  0  0  0
  149.7603  132.6477  155.3899 H   0  0  0  0  0  0  0  0  0  0  0  0
  148.8437  134.8713  156.0848 H   0  0  0  0  0  0  0  0  0  0  0  0
  149.1534  135.2597  153.2101 H   0  0  0  0  0  0  0  0  0  0  0  0
  147.7242  134.7930  151.9462 H   0  0  0  0  0  0  0  0  0  0  0  0
  143.0543  133.1553  150.2465 H   0  0  0  0  0  0  0  0  0  0  0  0
  149.3930  136.8613  153.7511 H   0  0  0  0  0  0  0  0  0  0  0  0
  150.6661  138.7016  153.2399 H   0  0  0  0  0  0  0  0  0  0  0  0
  152.6836  136.8421  153.9051 H   0  0  0  0  0  0  0  0  0  0  0  0
  152.9172  138.4626  153.2765 H   0  0  0  0  0  0  0  0  0  0  0  0
  152.9683  137.5928  156.1718 H   0  0  0  0  0  0  0  0  0  0  0  0
  154.1248  138.6281  155.3353 H   0  0  0  0  0  0  0  0  0  0  0  0
  152.2601  139.8082  156.8643 H   0  0  0  0  0  0  0  0  0  0  0  0
  152.5301  140.4524  155.2464 H   0  0  0  0  0  0  0  0  0  0  0  0
  150.1912  140.0503  155.0974 H   0  0  0  0  0  0  0  0  0  0  0  0
  150.2872  138.6806  156.1894 H   0  0  0  0  0  0  0  0  0  0  0  0
  1  2  1  0  0  0  0
  1 20  1  0  0  0  0
  1 21  1  0  0  0  0
  1 22  1  0  0  0  0
  2  3  1  0  0  0  0
  2 12  1  0  0  0  0
  2 23  1  0  0  0  0
  3  4  1  0  0  0  0
  3 24  1  0  0  0  0
  4  5  2  0  0  0  0
  4  6  1  0  0  0  0
  6  7  1  0  0  0  0
  6 25  1  0  0  0  0
  7 11  1  0  0  0  0
  7  8  2  0  0  0  0
  8  9  1  0  0  0  0
  9 10  2  0  0  0  0
 10 11  1  0  0  0  0
 10 26  1  0  0  0  0
 12 13  2  0  0  0  0
 12 14  1  0  0  0  0
 14 15  1  0  0  0  0
 14 27  1  0  0  0  0
 15 19  1  0  0  0  0
 15 16  1  0  0  0  0
 15 28  1  0  0  0  0
 16 17  1  0  0  0  0
 16 29  1  0  0  0  0
 16 30  1  0  0  0  0
 17 18  1  0  0  0  0
 17 31  1  0  0  0  0
 17 32  1  0  0  0  0
 18 19  1  0  0  0  0
 18 33  1  0  0  0  0
 18 34  1  0  0  0  0
 19 35  1  0  0  0  0
 19 36  1  0  0  0  0
M  END
> <s_m_source_file>
AV-unprocessed.smi

> <i_m_source_file_index>
813

> <i_lp_mmshare_version>
43012

> <i_f3d_flags>
0

> <s_epik_input>
W0NIMl0xW0NIMl1bQ0gyXVtDSDJdW0NIXTFbTkhdQyg9TylbQ0BIXShbQ0gzXSlbTkhdQyg9TylbTkhdYzJubltjSF1zMg==

> <s_epik_cmdline>
J2VwaWtfcHl0aG9uJywgJy1waCcsICc3LjAnLCAnLXRuJywgJzgnLCAnLW1hJywgJzIwMCcsICctbWV0YWxfYmluZGluZycsICctaW1hZScsICc8aW5maWxlLm1hZT4nLCAnLW9tYWUnLCAnPG91dGZpbGUubWFlPic=

> <r_lp_tautomer_probability>
1

> <r_epik_Ionization_Penalty>
0.00321247

> <r_epik_Ionization_Penalty_Charging>
0

> <r_epik_Ionization_Penalty_Neutral>
0.00321247

> <r_epik_State_Penalty>
-0

> <r_epik_Charging_Adjusted_Penalty>
0

> <i_epik_Tot_Q>
0

> <i_epik_Tot_abs_Q>
0

> <r_epik_Metal_State_Penalty>
0.363968

> <b_epik_Metal_Only>
0

> <s_lp_Force_Field>
OPLS_2005

> <r_lp_Energy>
16.3209

> <b_lp_Chiralities_Consistent>
1

> <s_lp_Variant>
AV-unprocessed.smi:813-1

> <Gold.Version>
5.8.1

> <Gold.Id.Protein>
6NUR|6NUR_protein|mol2

> <Gold.PLP.Fitness>
41.0570

> <Gold.PLP.PLP>
-29.9491

> <Gold.PLP.part.hbond>
-4.3558

> <Gold.PLP.part.metal>
0.0000

> <Gold.PLP.part.buried>
-1.9083

> <Gold.PLP.part.nonpolar>
-23.1592

> <Gold.PLP.part.repulsive>
0.4093

> <Gold.PLP.ligand.clash>
0.0000

> <Gold.PLP.ligand.torsion>
1.2399

> <Gold.PLP.Chemscore.Hbond>
3.5235

> <Gold.PLP.Chemscore.CHOScore>
1.0000

> <Gold.PLP.Chemscore.Metal>
0.0000

> <Gold.Chemscore.Hbonds>
donor molecule, donor type, donor heavy atom, donor atom, acceptor molecule, acceptor atom, score
      L1  H     3    24       P1  7948  0.95
      L1  H     6    25       P1  7948  0.93
      L1  H    14    27       P1  7948  0.77
      P1  H 10752 10765       L1    13  0.93
      L1  C    10    26       P1 10186  1.00

> <Gold.PLP.Chemscore.Internal.Correction>
0.0173

> <Gold.Rescore>
     Score         DG    S(hbond)    S(metal)    S(lipo)     H(rot)  DE(clash)    DE(int)     intcor
     11.76     -16.55       2.48        0.00      61.83       1.74       0.92       3.87       ----

> <Gold.Chemscore.Fitness>
11.7626

> <Gold.Chemscore.DG>
-16.5490

> <Gold.Chemscore.ZeroCoef>
-5.4800

> <Gold.Chemscore.Hbond>
2.4843

> <Gold.Chemscore.Metal>
0.0000

> <Gold.Chemscore.Lipo>
61.8292

> <Gold.Chemscore.Internal_Hbond>
0.0000

> <Gold.Chemscore.DEClash>
0.9151

> <Gold.Chemscore.DEInternal>
3.8713

> <Gold.Chemscore.Rot>
1.7433

> <Gold.Chemscore.Internal.Correction>
   9.000000E+99

> <Gold.Chemscore.Hbonds>
donor molecule, donor type, donor heavy atom, donor atom, acceptor molecule, acceptor atom, score
      L1  H     3    24       P1  7948  0.21
      L1  H     6    25       P1  7948  0.50
      L1  H    14    27       P1  7948  0.68
      P1  H 10752 10765       L1    13  0.27

> <Gold.Chemscore.Hbond.Weighted>
-8.2977

> <Gold.Chemscore.Metal.Weighted>
-0.0000

> <Gold.Chemscore.Lipo.Weighted>
-7.2340

> <Gold.Chemscore.Internal_Hbond.Weighted>
0.0000

> <Gold.Chemscore.DEClash.Weighted>
0.9151

> <Gold.Chemscore.DEInternal.Weighted>
3.8713

> <Gold.Chemscore.Rot.Weighted>
4.4628

> <Gold.Chemscore.Internal.Correction.Weighted>
   9.000000E+99

> <Gold.Protein.RotatedTorsions>
[ 6907 6896 6895 6894 ] final  -11.24 input  -60.11 | X-H torsion
[ 7974 7965 7964 7962 ] final    2.92 input  175.53 | X-H torsion
[ 8008 7997 7996 7995 ] final   20.05 input   59.86 | X-H torsion
[ 10167 10162 10161 10158 ] final   64.90 input  -65.29 | X-H torsion
[ 10718 10713 10712 10709 ] final   34.64 input   66.30 | X-H torsion
[ 10763 10752 10751 10750 ] final -169.63 input  -60.55 | X-H torsion
[ 11005 11000 10999 10996 ] final   30.22 input  -57.11 | X-H torsion

> <Gold.Protein.ActiveResidues>
 VAL166  LYS551  ARG553  GLY616  TRP617  ASP618  TYR619  PRO620  LYS621  CYS622 
 ASP623  PHE694  ASN695  SER759  ASP760  ASP761  ALA762  ILE779  LEU786  VAL792 
 PHE793  MET794  SER795  GLU796  ALA797  LYS798  CYS799  TRP800  GLU811  SER814 

> <Gold.Protein.RotatedAtoms>
  151.3894  135.0953  159.9521 H   0  0  0  0  0  0  0  0  0  0  0  0  # atno 6907 bound_to 6896
  152.5084  133.8995  159.7444 H   0  0  0  0  0  0  0  0  0  0  0  0  # atno 6908 bound_to 6896
  150.9445  133.6563  159.2813 H   0  0  0  0  0  0  0  0  0  0  0  0  # atno 6909 bound_to 6896
  146.2444  140.0763  142.8359 H   0  0  0  0  0  0  0  0  0  0  0  0  # atno 7974 bound_to 7965
  154.9298  140.3038  155.5174 H   0  0  0  0  0  0  0  0  0  0  0  0  # atno 8008 bound_to 7997
  156.3004  140.2356  156.4293 H   0  0  0  0  0  0  0  0  0  0  0  0  # atno 8009 bound_to 7997
  154.8249  140.0421  157.1425 H   0  0  0  0  0  0  0  0  0  0  0  0  # atno 8010 bound_to 7997
  140.1172  144.4764  150.6942 H   0  0  0  0  0  0  0  0  0  0  0  0  # atno 10167 bound_to 10162
  157.3128  130.7408  149.6736 H   0  0  0  0  0  0  0  0  0  0  0  0  # atno 10718 bound_to 10713
  154.6502  135.2910  154.9996 H   0  0  0  0  0  0  0  0  0  0  0  0  # atno 10763 bound_to 10752
  154.1091  135.6565  153.4886 H   0  0  0  0  0  0  0  0  0  0  0  0  # atno 10764 bound_to 10752
  153.0372  135.5261  154.7407 H   0  0  0  0  0  0  0  0  0  0  0  0  # atno 10765 bound_to 10752
  140.2966  134.2804  155.7763 H   0  0  0  0  0  0  0  0  0  0  0  0  # atno 11005 bound_to 11000
  145.0772  140.9196  143.4847 LP  0  0  0  0  0  0  0  0  0  0  0  0  # atno 17320 bound_to 7965
  145.0908  139.2891  143.5736 LP  0  0  0  0  0  0  0  0  0  0  0  0  # atno 17321 bound_to 7965
  140.6893  143.2367  151.5176 LP  0  0  0  0  0  0  0  0  0  0  0  0  # atno 17342 bound_to 10162
  139.5588  144.2209  152.1657 LP  0  0  0  0  0  0  0  0  0  0  0  0  # atno 17343 bound_to 10162
  155.9679  130.4246  150.4616 LP  0  0  0  0  0  0  0  0  0  0  0  0  # atno 17370 bound_to 10713
  157.2618  131.0568  151.2316 LP  0  0  0  0  0  0  0  0  0  0  0  0  # atno 17371 bound_to 10713
  141.2136  133.7619  156.9705 LP  0  0  0  0  0  0  0  0  0  0  0  0  # atno 17394 bound_to 11000
  140.1147  134.9455  157.2116 LP  0  0  0  0  0  0  0  0  0  0  0  0  # atno 17395 bound_to 11000

$$$$
