AV-unprocessed.smi:1360|AV-procd|sdf|5551|dock1
  -GOLD-   22720 5143D 1   1.00000     0.00000
 Structure written by MMmdl.
 36 37  0  0  0  0  0  0  0  0  1 V2000
  152.8056  138.6423  155.1502 C   0  0  0  0  0  0  0  0  0  0  0  0
  151.3299  138.9043  155.4878 C   0  0  2  0  0  0  0  0  0  0  0  0
  150.4638  138.9777  154.2155 C   0  0  0  0  0  0  0  0  0  0  0  0
  149.3823  139.9395  154.3397 N   0  0  0  0  0  0  0  0  0  0  0  0
  148.0747  139.7115  154.7130 C   0  0  0  0  0  0  0  0  0  0  0  0
  147.4314  140.9157  154.6952 C   0  0  0  0  0  0  0  0  0  0  0  0
  148.4422  141.8329  154.2929 C   0  0  0  0  0  0  0  0  0  0  0  0
  149.6088  141.2457  154.0797 N   0  0  0  0  0  0  0  0  0  0  0  0
  151.2076  140.1449  156.2498 N   0  0  0  0  0  0  0  0  0  0  0  0
  151.9461  140.4808  157.3186 C   0  0  0  0  0  0  0  0  0  0  0  0
  152.8426  139.7685  157.7717 O   0  0  0  0  0  0  0  0  0  0  0  0
  151.6184  141.8266  157.9783 C   0  0  2  0  0  0  0  0  0  0  0  0
  151.6578  142.9787  156.9477 C   0  0  0  0  0  0  0  0  0  0  0  0
  151.5974  144.3437  157.6104 C   0  0  0  0  0  0  0  0  0  0  0  0
  151.8235  144.5403  158.9207 C   0  0  0  0  0  0  0  0  0  0  0  0
  152.1706  143.4205  159.8862 C   0  0  0  0  0  0  0  0  0  0  0  0
  152.5679  142.1232  159.1565 C   0  0  0  0  0  0  0  0  0  0  0  0
  152.9215  137.7081  154.6001 H   0  0  0  0  0  0  0  0  0  0  0  0
  153.4106  138.5663  156.0543 H   0  0  0  0  0  0  0  0  0  0  0  0
  153.2206  139.4431  154.5373 H   0  0  0  0  0  0  0  0  0  0  0  0
  150.9678  138.0706  156.0927 H   0  0  0  0  0  0  0  0  0  0  0  0
  151.0729  139.2310  153.3460 H   0  0  0  0  0  0  0  0  0  0  0  0
  150.0193  138.0033  154.0092 H   0  0  0  0  0  0  0  0  0  0  0  0
  147.7166  138.7228  154.9596 H   0  0  0  0  0  0  0  0  0  0  0  0
  146.3968  141.1119  154.9344 H   0  0  0  0  0  0  0  0  0  0  0  0
  148.3629  142.9006  154.1503 H   0  0  0  0  0  0  0  0  0  0  0  0
  150.4884  140.7891  155.9538 H   0  0  0  0  0  0  0  0  0  0  0  0
  150.6050  141.7692  158.3808 H   0  0  0  0  0  0  0  0  0  0  0  0
  152.5638  142.9404  156.3409 H   0  0  0  0  0  0  0  0  0  0  0  0
  150.8138  142.8881  156.2628 H   0  0  0  0  0  0  0  0  0  0  0  0
  151.3712  145.1856  156.9723 H   0  0  0  0  0  0  0  0  0  0  0  0
  151.7516  145.5354  159.3344 H   0  0  0  0  0  0  0  0  0  0  0  0
  152.9835  143.7444  160.5364 H   0  0  0  0  0  0  0  0  0  0  0  0
  151.3041  143.2440  160.5239 H   0  0  0  0  0  0  0  0  0  0  0  0
  152.5782  141.2933  159.8646 H   0  0  0  0  0  0  0  0  0  0  0  0
  153.5891  142.2229  158.7849 H   0  0  0  0  0  0  0  0  0  0  0  0
  1  2  1  0  0  0  0
  1 18  1  0  0  0  0
  1 19  1  0  0  0  0
  1 20  1  0  0  0  0
  2  3  1  0  0  0  0
  2  9  1  0  0  0  0
  2 21  1  0  0  0  0
  3  4  1  0  0  0  0
  3 22  1  0  0  0  0
  3 23  1  0  0  0  0
  4  8  1  0  0  0  0
  4  5  1  0  0  0  0
  5  6  2  0  0  0  0
  5 24  1  0  0  0  0
  6  7  1  0  0  0  0
  6 25  1  0  0  0  0
  7  8  2  0  0  0  0
  7 26  1  0  0  0  0
  9 10  1  0  0  0  0
  9 27  1  0  0  0  0
 10 11  2  0  0  0  0
 10 12  1  0  0  0  0
 12 17  1  0  0  0  0
 12 13  1  0  0  0  0
 12 28  1  0  0  0  0
 13 14  1  0  0  0  0
 13 29  1  0  0  0  0
 13 30  1  0  0  0  0
 14 15  2  0  0  0  0
 14 31  1  0  0  0  0
 15 16  1  0  0  0  0
 15 32  1  0  0  0  0
 16 17  1  0  0  0  0
 16 33  1  0  0  0  0
 16 34  1  0  0  0  0
 17 35  1  0  0  0  0
 17 36  1  0  0  0  0
M  END
> <s_m_source_file>
AV-unprocessed.smi

> <i_m_source_file_index>
1360

> <i_lp_mmshare_version>
43012

> <i_f3d_flags>
0

> <s_epik_input>
bjFbY0hdW2NIXVtjSF1uMVtDSDJdW0NAQEhdKFtDSDNdKVtOSF1DKD1PKVtDQEBIXTJbQ0gyXVtDSF09W0NIXVtDSDJdW0NIMl0y

> <s_epik_cmdline>
J2VwaWtfcHl0aG9uJywgJy1waCcsICc3LjAnLCAnLXRuJywgJzgnLCAnLW1hJywgJzIwMCcsICctbWV0YWxfYmluZGluZycsICctaW1hZScsICc8aW5maWxlLm1hZT4nLCAnLW9tYWUnLCAnPG91dGZpbGUubWFlPic=

> <r_lp_tautomer_probability>
1

> <r_epik_Ionization_Penalty>
0.000315076

> <r_epik_Ionization_Penalty_Charging>
0

> <r_epik_Ionization_Penalty_Neutral>
0.000315076

> <r_epik_State_Penalty>
-0

> <r_epik_Charging_Adjusted_Penalty>
0

> <i_epik_Tot_Q>
0

> <i_epik_Tot_abs_Q>
0

> <r_epik_Metal_State_Penalty>
-0

> <b_epik_Metal_Only>
0

> <s_lp_Force_Field>
OPLS_2005

> <r_lp_Energy>
8.39031

> <b_lp_Chiralities_Consistent>
1

> <s_lp_Variant>
AV-unprocessed.smi:1360-1

> <Gold.Version>
5.8.1

> <Gold.Id.Protein>
6NUR|6NUR_protein|mol2

> <Gold.PLP.Fitness>
43.9061

> <Gold.PLP.PLP>
-38.4891

> <Gold.PLP.part.hbond>
-3.0000

> <Gold.PLP.part.metal>
0.0000

> <Gold.PLP.part.buried>
-3.1548

> <Gold.PLP.part.nonpolar>
-32.6271

> <Gold.PLP.part.repulsive>
0.2923

> <Gold.PLP.ligand.clash>
0.0000

> <Gold.PLP.ligand.torsion>
0.9680

> <Gold.PLP.Chemscore.Hbond>
1.4406

> <Gold.PLP.Chemscore.CHOScore>
1.0000

> <Gold.PLP.Chemscore.Metal>
0.0000

> <Gold.Chemscore.Hbonds>
donor molecule, donor type, donor heavy atom, donor atom, acceptor molecule, acceptor atom, score
      P1  H  7989  7998       L1     8  0.20
      P1  H  7997  8010       L1    11  1.00
      P1  H  8011  8017       L1     8  0.24
      L1  C     7    26       P1  8028  1.00

> <Gold.PLP.Chemscore.Internal.Correction>
0.0313

> <Gold.Rescore>
     Score         DG    S(hbond)    S(metal)    S(lipo)     H(rot)  DE(clash)    DE(int)     intcor
     14.07     -17.39       0.94        0.00     107.79       1.51       1.27       2.06       ----

> <Gold.Chemscore.Fitness>
14.0676

> <Gold.Chemscore.DG>
-17.3906

> <Gold.Chemscore.ZeroCoef>
-5.4800

> <Gold.Chemscore.Hbond>
0.9443

> <Gold.Chemscore.Metal>
0.0000

> <Gold.Chemscore.Lipo>
107.7878

> <Gold.Chemscore.Internal_Hbond>
0.0000

> <Gold.Chemscore.DEClash>
1.2658

> <Gold.Chemscore.DEInternal>
2.0572

> <Gold.Chemscore.Rot>
1.5057

> <Gold.Chemscore.Internal.Correction>
   9.000000E+99

> <Gold.Chemscore.Hbonds>
donor molecule, donor type, donor heavy atom, donor atom, acceptor molecule, acceptor atom, score
      P1  H  7989  7998       L1     8  0.02
      P1  H  7997  8010       L1    11  0.87
      P1  H  8011  8017       L1     8  0.01

> <Gold.Chemscore.Hbond.Weighted>
-3.1540

> <Gold.Chemscore.Metal.Weighted>
-0.0000

> <Gold.Chemscore.Lipo.Weighted>
-12.6112

> <Gold.Chemscore.Internal_Hbond.Weighted>
0.0000

> <Gold.Chemscore.DEClash.Weighted>
1.2658

> <Gold.Chemscore.DEInternal.Weighted>
2.0572

> <Gold.Chemscore.Rot.Weighted>
3.8546

> <Gold.Chemscore.Internal.Correction.Weighted>
   9.000000E+99

> <Gold.Protein.RotatedTorsions>
[ 6907 6896 6895 6894 ] final  139.33 input  -60.11 | X-H torsion
[ 7974 7965 7964 7962 ] final  -43.55 input  175.53 | X-H torsion
[ 8008 7997 7996 7995 ] final   38.64 input   59.86 | X-H torsion
[ 10167 10162 10161 10158 ] final  170.90 input  -65.29 | X-H torsion
[ 10718 10713 10712 10709 ] final   33.89 input   66.30 | X-H torsion
[ 10763 10752 10751 10750 ] final -152.01 input  -60.55 | X-H torsion
[ 11005 11000 10999 10996 ] final  167.60 input  -57.11 | X-H torsion

> <Gold.Protein.ActiveResidues>
 VAL166  LYS551  ARG553  GLY616  TRP617  ASP618  TYR619  PRO620  LYS621  CYS622 
 ASP623  PHE694  ASN695  SER759  ASP760  ASP761  ALA762  ILE779  LEU786  VAL792 
 PHE793  MET794  SER795  GLU796  ALA797  LYS798  CYS799  TRP800  GLU811  SER814 

> <Gold.Protein.RotatedAtoms>
  152.2562  133.5257  159.5354 H   0  0  0  0  0  0  0  0  0  0  0  0  # atno 6907 bound_to 6896
  150.7110  134.0892  159.3935 H   0  0  0  0  0  0  0  0  0  0  0  0  # atno 6908 bound_to 6896
  151.8811  135.0453  160.0539 H   0  0  0  0  0  0  0  0  0  0  0  0  # atno 6909 bound_to 6896
  146.0008  140.7076  142.9271 H   0  0  0  0  0  0  0  0  0  0  0  0  # atno 7974 bound_to 7965
  155.2235  140.3333  155.4312 H   0  0  0  0  0  0  0  0  0  0  0  0  # atno 8008 bound_to 7997
  156.2323  140.1856  156.7256 H   0  0  0  0  0  0  0  0  0  0  0  0  # atno 8009 bound_to 7997
  154.6000  140.0624  156.9340 H   0  0  0  0  0  0  0  0  0  0  0  0  # atno 8010 bound_to 7997
  139.5031  144.3545  151.9889 H   0  0  0  0  0  0  0  0  0  0  0  0  # atno 10167 bound_to 10162
  157.3035  130.7363  149.6681 H   0  0  0  0  0  0  0  0  0  0  0  0  # atno 10718 bound_to 10713
  154.8021  135.3246  154.7522 H   0  0  0  0  0  0  0  0  0  0  0  0  # atno 10763 bound_to 10752
  153.8188  135.6889  153.4834 H   0  0  0  0  0  0  0  0  0  0  0  0  # atno 10764 bound_to 10752
  153.1745  135.4610  154.9890 H   0  0  0  0  0  0  0  0  0  0  0  0  # atno 10765 bound_to 10752
  140.2784  134.7770  157.3737 H   0  0  0  0  0  0  0  0  0  0  0  0  # atno 11005 bound_to 11000
  144.6919  140.3230  143.7229 LP  0  0  0  0  0  0  0  0  0  0  0  0  # atno 17320 bound_to 7965
  145.7490  139.1788  143.2332 LP  0  0  0  0  0  0  0  0  0  0  0  0  # atno 17321 bound_to 7965
  140.2981  144.3677  150.6068 LP  0  0  0  0  0  0  0  0  0  0  0  0  # atno 17342 bound_to 10162
  140.5894  143.2168  151.7281 LP  0  0  0  0  0  0  0  0  0  0  0  0  # atno 17343 bound_to 10162
  155.9673  130.4272  150.4736 LP  0  0  0  0  0  0  0  0  0  0  0  0  # atno 17370 bound_to 10713
  157.2721  131.0589  151.2253 LP  0  0  0  0  0  0  0  0  0  0  0  0  # atno 17371 bound_to 10713
  140.1306  134.5100  155.8109 LP  0  0  0  0  0  0  0  0  0  0  0  0  # atno 17394 bound_to 11000
  141.2166  133.6788  156.7032 LP  0  0  0  0  0  0  0  0  0  0  0  0  # atno 17395 bound_to 11000

$$$$
