#       Name:                AV-unprocessed.smi:1005
#       Creating user name   scv26
#       Creation time:       Fri Mar 27 02:30:43 2020


#       File generated by GOLD software.
#

@<TRIPOS>MOLECULE
AV-unprocessed.smi:1005
    62    64     1
SMALL
NO_CHARGES


@<TRIPOS>ATOM
      1 ****        -5.7048   1.9256  -5.1061 C.3            1 S1                 0.0000
      2 ****        -4.7126   1.8326  -3.9593 C.ar           1 S1                 0.0000
      3 ****        -5.2117   1.7632  -2.6392 C.ar           1 S1                 0.0000
      4 ****        -4.2796   1.6773  -1.6121 C.ar           1 S1                 0.0000
      5 ****        -4.4504   1.5932  -0.2291 N.pl3          1 S1                 1.0000
      6 ****        -3.2327   1.5245   0.3761 C.2            1 S1                 0.0000
      7 ****        -2.2846   1.5626  -0.5998 N.pl3          1 S1                 0.0000
      8 ****        -0.8190   1.5156  -0.4854 C.3            1 S1                 0.0000
      9 ****        -0.2693   0.0765  -0.4120 C.3            1 S1                 0.0000
     10 ****        -0.6112  -0.6240  -1.5925 O.3            1 S1                 0.0000
     11 ****         1.2642   0.0515  -0.2483 C.3            1 S1                 0.0000
     12 ****         1.7940  -1.3302  -0.0879 N.4            1 S1                 1.0000
     13 ****         3.1971  -1.4907  -0.5406 C.3            1 S1                 0.0000
     14 ****         4.1847  -0.9653   0.5146 C.3            1 S1                 0.0000
     15 ****         3.9622  -1.6462   1.7434 O.3            1 S1                 0.0000
     16 ****         2.6614  -1.4091   2.2728 C.3            1 S1                 0.0000
     17 ****         2.5541  -2.1504   3.6197 C.3            1 S1                 0.0000
     18 ****         3.5417  -1.6806   4.6260 N.4            1 S1                 1.0000
     19 ****         3.7526  -2.6757   5.7010 C.3            1 S1                 0.0000
     20 ****         3.2332  -0.3422   5.1810 C.3            1 S1                 0.0000
     21 ****         1.6083  -1.9217   1.2628 C.3            1 S1                 0.0000
     22 ****        -2.8925   1.6611  -1.8584 C.ar           1 S1                 0.0000
     23 ****        -2.3847   1.7314  -3.1541 C.ar           1 S1                 0.0000
     24 ****        -3.3168   1.8163  -4.2131 C.ar           1 S1                 0.0000
     25 ****        -2.7912   1.8894  -5.6367 C.3            1 S1                 0.0000
     26 ****        -6.7339   1.9189  -4.7454 H              1 S1                 0.0000
     27 ****        -5.5857   1.0821  -5.7865 H              1 S1                 0.0000
     28 ****        -5.5549   2.8480  -5.6678 H              1 S1                 0.0000
     29 ****        -6.2731   1.7748  -2.4380 H              1 S1                 0.0000
     30 ****        -3.0537   1.4516   1.4391 H              1 S1                 0.0000
     31 ****        -0.3744   2.0724  -1.3105 H              1 S1                 0.0000
     32 ****        -0.5547   2.0579   0.4233 H              1 S1                 0.0000
     33 ****        -0.7458  -0.4296   0.4271 H              1 S1                 0.0000
     34 ****        -0.2548  -0.1616  -2.3359 H              1 S1                 0.0000
     35 ****         1.7088   0.5154  -1.1303 H              1 S1                 0.0000
     36 ****         1.5662   0.6684   0.5981 H              1 S1                 0.0000
     37 ****         3.3831  -2.5524  -0.7089 H              1 S1                 0.0000
     38 ****         3.3544  -0.9991  -1.5013 H              1 S1                 0.0000
     39 ****         5.2095  -1.1495   0.1915 H              1 S1                 0.0000
     40 ****         4.0842   0.1124   0.6519 H              1 S1                 0.0000
     41 ****         2.5212  -0.3400   2.4292 H              1 S1                 0.0000
     42 ****         1.5475  -2.0559   4.0299 H              1 S1                 0.0000
     43 ****         2.7108  -3.2145   3.4359 H              1 S1                 0.0000
     44 ****         2.8379  -2.8316   6.2743 H              1 S1                 0.0000
     45 ****         4.5334  -2.3451   6.3867 H              1 S1                 0.0000
     46 ****         4.0656  -3.6348   5.2873 H              1 S1                 0.0000
     47 ****         2.2643  -0.3389   5.6817 H              1 S1                 0.0000
     48 ****         3.2213   0.4217   4.4050 H              1 S1                 0.0000
     49 ****         3.9898  -0.0464   5.9086 H              1 S1                 0.0000
     50 ****         0.6006  -1.7393   1.6344 H              1 S1                 0.0000
     51 ****         1.7012  -3.0042   1.1636 H              1 S1                 0.0000
     52 ****        -1.3237   1.7176  -3.3520 H              1 S1                 0.0000
     53 ****        -1.7016   1.8609  -5.6623 H              1 S1                 0.0000
     54 ****        -3.1114   2.8148  -6.1159 H              1 S1                 0.0000
     55 ****        -3.1594   1.0487  -6.2250 H              1 S1                 0.0000
     56 ****         4.4273  -1.6022   4.1461 H              1 S1                 0.0000
     57 ****         1.2397  -1.8877  -0.7231 H              1 S1                 0.0000
     58 ****        -5.3326   1.5830   0.2672 H              1 S1                 0.0000
     59 ****        -1.6063  -0.6770  -1.6754 LP             1 S1                 0.0000
     60 ****        -0.2300  -1.5478  -1.5573 LP             1 S1                 0.0000
     61 ****         4.6406  -1.3355   2.4092 LP             1 S1                 0.0000
     62 ****         4.0714  -2.6283   1.5898 LP             1 S1                 0.0000
@<TRIPOS>BOND
    1    1    2 1     
    2    1   26 1     
    3    1   27 1     
    4    1   28 1     
    5    2   24 ar    
    6    2    3 ar    
    7    3    4 ar    
    8    3   29 1     
    9    4   22 ar    
   10    4    5 1     
   11    5    6 2     
   12    5   58 1     
   13    6    7 1     
   14    6   30 1     
   15    7    8 1     
   16    7   22 1     
   17    8    9 1     
   18    8   31 1     
   19    8   32 1     
   20    9   10 1     
   21    9   11 1     
   22    9   33 1     
   23   10   34 1     
   24   11   12 1     
   25   11   35 1     
   26   11   36 1     
   27   12   21 1     
   28   12   13 1     
   29   12   57 1     
   30   13   14 1     
   31   13   37 1     
   32   13   38 1     
   33   14   15 1     
   34   14   39 1     
   35   14   40 1     
   36   15   16 1     
   37   16   17 1     
   38   16   21 1     
   39   16   41 1     
   40   17   18 1     
   41   17   42 1     
   42   17   43 1     
   43   18   19 1     
   44   18   20 1     
   45   18   56 1     
   46   19   44 1     
   47   19   45 1     
   48   19   46 1     
   49   20   47 1     
   50   20   48 1     
   51   20   49 1     
   52   21   50 1     
   53   21   51 1     
   54   22   23 ar    
   55   23   24 ar    
   56   23   52 1     
   57   24   25 1     
   58   25   53 1     
   59   25   54 1     
   60   25   55 1     
   61   10   59 1     
   62   10   60 1     
   63   15   61 1     
   64   15   62 1     
@<TRIPOS>SUBSTRUCTURE
      1 S1             1
@<TRIPOS>SET
LONE_PAIRS      STATIC     ATOMS    <user>   **** ""
4 59 60 61 62
DONOR_HYDROGENS      STATIC     ATOMS    <user>   **** ""
4 58 34 57 56
ATOM$BLUE        STATIC     ATOMS    COLORGROUP SYSTEM
4 59 60 61 62
ATOM$RED        STATIC     ATOMS    COLORGROUP SYSTEM
4 58 34 57 56
