AV-unprocessed.smi:1158|AV-procd|sdf|4913|dock8
  -GOLD-   22720 3493D 1   1.00000     0.00000
 Structure written by MMmdl.
 43 44  0  0  0  0  0  0  0  0  2 V2000
  154.7972  140.8022  160.3615 C   0  0  0  0  0  0  0  0  0  0  0  0
  153.7328  140.8776  159.4194 O   0  0  0  0  0  0  0  0  0  0  0  0
  152.8852  141.9682  159.4673 C   0  0  0  0  0  0  0  0  0  0  0  0
  153.0920  142.9042  160.4272 N   0  0  0  0  0  0  0  0  0  0  0  0
  152.2618  143.9659  160.4787 C   0  0  0  0  0  0  0  0  0  0  0  0
  151.1866  144.1466  159.5898 C   0  0  0  0  0  0  0  0  0  0  0  0
  150.9707  143.1780  158.5922 C   0  0  0  0  0  0  0  0  0  0  0  0
  151.8429  142.0647  158.5156 C   0  0  0  0  0  0  0  0  0  0  0  0
  151.7120  141.0178  157.5615 N   0  0  0  0  0  0  0  0  0  0  0  0
  150.9754  140.9852  156.4385 C   0  0  0  0  0  0  0  0  0  0  0  0
  150.2449  141.8890  156.0343 O   0  0  0  0  0  0  0  0  0  0  0  0
  151.1453  139.8259  155.7873 N   0  0  0  0  0  0  0  0  0  0  0  0
  150.5168  139.4641  154.5172 C   0  0  2  0  0  0  0  0  0  0  0  0
  149.0755  138.9559  154.7102 C   0  0  0  0  0  0  0  0  0  0  0  0
  149.0398  137.5860  155.4097 C   0  0  0  0  0  0  0  0  0  0  0  0
  149.8468  136.5769  154.6741 N   0  3  2  0  0  0  0  0  0  0  0  0
  149.7138  135.2235  155.2751 C   0  0  0  0  0  0  0  0  0  0  0  0
  150.5238  134.1422  154.5378 C   0  0  0  0  0  0  0  0  0  0  0  0
  150.8506  133.1316  155.3419 F   0  0  0  0  0  0  0  0  0  0  0  0
  149.7996  133.6579  153.5298 F   0  0  0  0  0  0  0  0  0  0  0  0
  151.2577  137.0202  154.5116 C   0  0  0  0  0  0  0  0  0  0  0  0
  151.3442  138.3845  153.8011 C   0  0  0  0  0  0  0  0  0  0  0  0
  155.3637  139.8866  160.1926 H   0  0  0  0  0  0  0  0  0  0  0  0
  154.4229  140.7746  161.3859 H   0  0  0  0  0  0  0  0  0  0  0  0
  155.4856  141.6416  160.2537 H   0  0  0  0  0  0  0  0  0  0  0  0
  152.4570  144.6894  161.2563 H   0  0  0  0  0  0  0  0  0  0  0  0
  150.5387  145.0065  159.6741 H   0  0  0  0  0  0  0  0  0  0  0  0
  150.1359  143.3032  157.9207 H   0  0  0  0  0  0  0  0  0  0  0  0
  152.3132  140.2223  157.7190 H   0  0  0  0  0  0  0  0  0  0  0  0
  151.7764  139.1493  156.1910 H   0  0  0  0  0  0  0  0  0  0  0  0
  150.4979  140.3540  153.8856 H   0  0  0  0  0  0  0  0  0  0  0  0
  148.4832  139.6787  155.2724 H   0  0  0  0  0  0  0  0  0  0  0  0
  148.5944  138.8696  153.7350 H   0  0  0  0  0  0  0  0  0  0  0  0
  149.4082  137.6733  156.4331 H   0  0  0  0  0  0  0  0  0  0  0  0
  148.0037  137.2520  155.4765 H   0  0  0  0  0  0  0  0  0  0  0  0
  149.9688  135.2481  156.3357 H   0  0  0  0  0  0  0  0  0  0  0  0
  148.6639  134.9318  155.2213 H   0  0  0  0  0  0  0  0  0  0  0  0
  151.4420  134.5415  154.1059 H   0  0  0  0  0  0  0  0  0  0  0  0
  151.7407  137.0688  155.4887 H   0  0  0  0  0  0  0  0  0  0  0  0
  151.8160  136.2972  153.9204 H   0  0  0  0  0  0  0  0  0  0  0  0
  150.9816  138.2761  152.7780 H   0  0  0  0  0  0  0  0  0  0  0  0
  152.3856  138.6988  153.7198 H   0  0  0  0  0  0  0  0  0  0  0  0
  149.4483  136.5200  153.7476 H   0  0  0  0  0  0  0  0  0  0  0  0
  1  2  1  0  0  0  0
  1 23  1  0  0  0  0
  1 24  1  0  0  0  0
  1 25  1  0  0  0  0
  2  3  1  0  0  0  0
  3  8  1  0  0  0  0
  3  4  2  0  0  0  0
  4  5  1  0  0  0  0
  5  6  2  0  0  0  0
  5 26  1  0  0  0  0
  6  7  1  0  0  0  0
  6 27  1  0  0  0  0
  7  8  2  0  0  0  0
  7 28  1  0  0  0  0
  8  9  1  0  0  0  0
  9 10  1  0  0  0  0
  9 29  1  0  0  0  0
 10 11  2  0  0  0  0
 10 12  1  0  0  0  0
 12 13  1  0  0  0  0
 12 30  1  0  0  0  0
 13 22  1  0  0  0  0
 13 14  1  0  0  0  0
 13 31  1  0  0  0  0
 14 15  1  0  0  0  0
 14 32  1  0  0  0  0
 14 33  1  0  0  0  0
 15 16  1  0  0  0  0
 15 34  1  0  0  0  0
 15 35  1  0  0  0  0
 16 17  1  0  0  0  0
 16 21  1  0  0  0  0
 16 43  1  0  0  0  0
 17 18  1  0  0  0  0
 17 36  1  0  0  0  0
 17 37  1  0  0  0  0
 18 19  1  0  0  0  0
 18 20  1  0  0  0  0
 18 38  1  0  0  0  0
 21 22  1  0  0  0  0
 21 39  1  0  0  0  0
 21 40  1  0  0  0  0
 22 41  1  0  0  0  0
 22 42  1  0  0  0  0
M  CHG  1  16   1
M  END
> <s_m_source_file>
AV-unprocessed.smi

> <i_m_source_file_index>
1158

> <i_lp_mmshare_version>
43012

> <i_f3d_flags>
0

> <s_epik_input>
W0NIM11PYzFuW2NIXVtjSF1bY0hdYzFbTkhdQyg9TylbTkhdW0NIXTJbQ0gyXVtDSDJdTihbQ0gyXVtDSF0oRilGKVtDSDJdW0NIMl0y

> <s_epik_cmdline>
J2VwaWtfcHl0aG9uJywgJy1waCcsICc3LjAnLCAnLXRuJywgJzgnLCAnLW1hJywgJzIwMCcsICctbWV0YWxfYmluZGluZycsICctaW1hZScsICc8aW5maWxlLm1hZT4nLCAnLW9tYWUnLCAnPG91dGZpbGUubWFlPic=

> <r_lp_tautomer_probability>
1

> <r_epik_Ionization_Penalty>
0.802109

> <r_epik_Ionization_Penalty_Charging>
0.802031

> <r_epik_Ionization_Penalty_Neutral>
7.83352e-05

> <r_epik_State_Penalty>
0.833408

> <r_epik_Charging_Adjusted_Penalty>
1.63544

> <i_epik_Tot_Q>
1

> <i_epik_Tot_abs_Q>
1

> <r_epik_Metal_State_Penalty>
0.833416

> <b_epik_Metal_Only>
0

> <s_lp_Force_Field>
OPLS_2005

> <r_lp_Energy>
20.396

> <b_lp_Chiralities_Consistent>
1

> <s_lp_Variant>
AV-unprocessed.smi:1158-3

> <Gold.Version>
5.8.1

> <Gold.Id.Protein>
6NUR|6NUR_protein|mol2

> <Gold.PLP.Fitness>
44.6664

> <Gold.PLP.PLP>
-39.9908

> <Gold.PLP.part.hbond>
-1.0000

> <Gold.PLP.part.metal>
0.0000

> <Gold.PLP.part.buried>
-5.5115

> <Gold.PLP.part.nonpolar>
-33.6775

> <Gold.PLP.part.repulsive>
0.3068

> <Gold.PLP.ligand.clash>
0.0000

> <Gold.PLP.ligand.torsion>
0.6754

> <Gold.PLP.Chemscore.Hbond>
2.0000

> <Gold.PLP.Chemscore.CHOScore>
0.0000

> <Gold.PLP.Chemscore.Metal>
0.0000

> <Gold.Chemscore.Hbonds>
donor molecule, donor type, donor heavy atom, donor atom, acceptor molecule, acceptor atom, score
      L1  H    16    43       P1  7948  2.00

> <Gold.PLP.Chemscore.Internal.Correction>
0.0264

> <Gold.Rescore>
     Score         DG    S(hbond)    S(metal)    S(lipo)     H(rot)  DE(clash)    DE(int)     intcor
     14.11     -14.94       0.96        0.00      88.01       1.58       0.03       0.80       ----

> <Gold.Chemscore.Fitness>
14.1078

> <Gold.Chemscore.DG>
-14.9441

> <Gold.Chemscore.ZeroCoef>
-5.4800

> <Gold.Chemscore.Hbond>
0.9592

> <Gold.Chemscore.Metal>
0.0000

> <Gold.Chemscore.Lipo>
88.0134

> <Gold.Chemscore.Internal_Hbond>
0.0000

> <Gold.Chemscore.DEClash>
0.0330

> <Gold.Chemscore.DEInternal>
0.8032

> <Gold.Chemscore.Rot>
1.5770

> <Gold.Chemscore.Internal.Correction>
   9.000000E+99

> <Gold.Chemscore.Hbonds>
donor molecule, donor type, donor heavy atom, donor atom, acceptor molecule, acceptor atom, score
      L1  H    16    43       P1  7948  0.81

> <Gold.Chemscore.Hbond.Weighted>
-3.2036

> <Gold.Chemscore.Metal.Weighted>
-0.0000

> <Gold.Chemscore.Lipo.Weighted>
-10.2976

> <Gold.Chemscore.Internal_Hbond.Weighted>
0.0000

> <Gold.Chemscore.DEClash.Weighted>
0.0330

> <Gold.Chemscore.DEInternal.Weighted>
0.8032

> <Gold.Chemscore.Rot.Weighted>
4.0371

> <Gold.Chemscore.Internal.Correction.Weighted>
   9.000000E+99

> <Gold.Protein.RotatedTorsions>
[ 6907 6896 6895 6894 ] final  148.47 input  -60.11 | X-H torsion
[ 7974 7965 7964 7962 ] final  145.55 input  175.53 | X-H torsion
[ 8008 7997 7996 7995 ] final  -95.89 input   59.86 | X-H torsion
[ 10167 10162 10161 10158 ] final  146.75 input  -65.29 | X-H torsion
[ 10718 10713 10712 10709 ] final  162.28 input   66.30 | X-H torsion
[ 10763 10752 10751 10750 ] final -148.17 input  -60.55 | X-H torsion
[ 11005 11000 10999 10996 ] final   57.12 input  -57.11 | X-H torsion

> <Gold.Protein.ActiveResidues>
 VAL166  LYS551  ARG553  GLY616  TRP617  ASP618  TYR619  PRO620  LYS621  CYS622 
 ASP623  PHE694  ASN695  SER759  ASP760  ASP761  ALA762  ILE779  LEU786  VAL792 
 PHE793  MET794  SER795  GLU796  ALA797  LYS798  CYS799  TRP800  GLU811  SER814 

> <Gold.Protein.RotatedAtoms>
  152.1411  133.4464  159.4766 H   0  0  0  0  0  0  0  0  0  0  0  0  # atno 6907 bound_to 6896
  150.6886  134.2305  159.4441 H   0  0  0  0  0  0  0  0  0  0  0  0  # atno 6908 bound_to 6896
  152.0195  134.9830  160.0621 H   0  0  0  0  0  0  0  0  0  0  0  0  # atno 6909 bound_to 6896
  144.8743  139.5797  143.5872 H   0  0  0  0  0  0  0  0  0  0  0  0  # atno 7974 bound_to 7965
  154.7672  140.0476  157.1022 H   0  0  0  0  0  0  0  0  0  0  0  0  # atno 8008 bound_to 7997
  154.9865  140.3108  155.4905 H   0  0  0  0  0  0  0  0  0  0  0  0  # atno 8009 bound_to 7997
  156.2915  140.2226  156.4967 H   0  0  0  0  0  0  0  0  0  0  0  0  # atno 8010 bound_to 7997
  139.4902  144.5806  151.6878 H   0  0  0  0  0  0  0  0  0  0  0  0  # atno 10167 bound_to 10162
  157.1248  131.0501  151.2399 H   0  0  0  0  0  0  0  0  0  0  0  0  # atno 10718 bound_to 10713
  154.8247  135.3341  154.6932 H   0  0  0  0  0  0  0  0  0  0  0  0  # atno 10763 bound_to 10752
  153.7560  135.6936  153.4940 H   0  0  0  0  0  0  0  0  0  0  0  0  # atno 10764 bound_to 10752
  153.2143  135.4471  155.0366 H   0  0  0  0  0  0  0  0  0  0  0  0  # atno 10765 bound_to 10752
  140.0477  134.5782  155.9302 H   0  0  0  0  0  0  0  0  0  0  0  0  # atno 11005 bound_to 11000
  146.2952  139.7256  142.9132 LP  0  0  0  0  0  0  0  0  0  0  0  0  # atno 17320 bound_to 7965
  145.4072  141.0392  143.3037 LP  0  0  0  0  0  0  0  0  0  0  0  0  # atno 17321 bound_to 7965
  140.5412  144.0577  150.6089 LP  0  0  0  0  0  0  0  0  0  0  0  0  # atno 17342 bound_to 10162
  140.3599  143.2914  152.0395 LP  0  0  0  0  0  0  0  0  0  0  0  0  # atno 17343 bound_to 10162
  157.4445  130.7563  149.7097 LP  0  0  0  0  0  0  0  0  0  0  0  0  # atno 17370 bound_to 10713
  155.9820  130.4013  150.3437 LP  0  0  0  0  0  0  0  0  0  0  0  0  # atno 17371 bound_to 10713
  141.1915  133.6572  156.5459 LP  0  0  0  0  0  0  0  0  0  0  0  0  # atno 17394 bound_to 11000
  140.3967  134.7392  157.4755 LP  0  0  0  0  0  0  0  0  0  0  0  0  # atno 17395 bound_to 11000

$$$$
