#       Name:                AV-unprocessed.smi:1202
#       Creating user name   scv26
#       Creation time:       Fri Mar 27 04:05:17 2020


#       File generated by GOLD software.
#

@<TRIPOS>MOLECULE
AV-unprocessed.smi:1202
    51    52     1
SMALL
NO_CHARGES


@<TRIPOS>ATOM
      1 ****        -4.3521   2.5885  -4.9769 C.3            1 S1                 0.0000
      2 ****        -3.6236   1.4982  -4.3460 N.am           1 S1                 0.0000
      3 ****        -2.3226   1.5461  -4.0269 C.2            1 S1                 0.0000
      4 ****        -1.6088   2.5252  -4.2475 O.2            1 S1                 0.0000
      5 ****        -1.7385   0.2885  -3.3746 C.3            1 S1                 0.0000
      6 ****        -0.4743   0.5470  -2.6380 N.4            1 S1                 1.0000
      7 ****         0.3618  -0.6734  -2.5046 C.3            1 S1                 0.0000
      8 ****         1.7252  -0.3506  -1.8656 C.3            1 S1                 0.0000
      9 ****         1.5761   0.3613  -0.5099 C.3            1 S1                 0.0000
     10 ****         1.0837  -0.5693   0.5051 N.am           1 S1                 0.0000
     11 ****         1.2138  -0.4108   1.8312 C.2            1 S1                 0.0000
     12 ****         1.7562   0.5698   2.3419 O.2            1 S1                 0.0000
     13 ****         0.6158  -1.5234   2.7038 C.3            1 S1                 0.0000
     14 ****         1.2309  -1.6075   4.0390 N.am           1 S1                 0.0000
     15 ****         0.5504  -0.9786   5.1006 C.2            1 S1                 0.0000
     16 ****         1.0265  -0.9913   6.3556 C.2            1 S1                 0.0000
     17 ****         2.2735  -1.6748   6.6060 C.2            1 S1                 0.0000
     18 ****         2.9336  -2.2777   5.5971 C.2            1 S1                 0.0000
     19 ****         2.4179  -2.2642   4.2232 C.2            1 S1                 0.0000
     20 ****         3.0152  -2.8091   3.2942 O.2            1 S1                 0.0000
     21 ****         0.6493   1.5833  -0.6651 C.3            1 S1                 0.0000
     22 ****        -0.6899   1.2089  -1.3234 C.3            1 S1                 0.0000
     23 ****        -5.3768   2.2799  -5.1837 H              1 S1                 0.0000
     24 ****        -3.8866   2.8753  -5.9208 H              1 S1                 0.0000
     25 ****        -4.3846   3.4618  -4.3244 H              1 S1                 0.0000
     26 ****        -4.1426   0.6562  -4.1411 H              1 S1                 0.0000
     27 ****        -2.4703  -0.1745  -2.7103 H              1 S1                 0.0000
     28 ****        -1.5544  -0.4218  -4.1818 H              1 S1                 0.0000
     29 ****        -0.1712  -1.4179  -1.9112 H              1 S1                 0.0000
     30 ****         0.5273  -1.1142  -3.4884 H              1 S1                 0.0000
     31 ****         2.3119  -1.2632  -1.7517 H              1 S1                 0.0000
     32 ****         2.2914   0.2897  -2.5437 H              1 S1                 0.0000
     33 ****         2.5644   0.7053  -0.1990 H              1 S1                 0.0000
     34 ****         0.6269  -1.4072   0.1751 H              1 S1                 0.0000
     35 ****        -0.4575  -1.3484   2.7867 H              1 S1                 0.0000
     36 ****         0.7089  -2.4813   2.1880 H              1 S1                 0.0000
     37 ****        -0.3708  -0.4837   4.8291 H              1 S1                 0.0000
     38 ****         0.4930  -0.5000   7.1559 H              1 S1                 0.0000
     39 ****         2.6794  -1.7022   7.6066 H              1 S1                 0.0000
     40 ****         3.8655  -2.7834   5.8033 H              1 S1                 0.0000
     41 ****         0.4719   2.0584   0.3004 H              1 S1                 0.0000
     42 ****         1.1488   2.3334  -1.2798 H              1 S1                 0.0000
     43 ****        -1.2863   2.1126  -1.4506 H              1 S1                 0.0000
     44 ****        -1.2609   0.5479  -0.6696 H              1 S1                 0.0000
     45 ****         0.0536   1.1923  -3.2091 H              1 S1                 0.0000
     46 ****        -1.9951   3.3371  -4.6853 LP             1 S1                 0.0000
     47 ****        -0.6430   2.5083  -3.9888 LP             1 S1                 0.0000
     48 ****         2.1251   1.2959   1.7617 LP             1 S1                 0.0000
     49 ****         1.8277   0.6400   3.3369 LP             1 S1                 0.0000
     50 ****         2.6347  -2.7803   2.3699 LP             1 S1                 0.0000
     51 ****         3.8806  -3.2804   3.4642 LP             1 S1                 0.0000
@<TRIPOS>BOND
    1    1    2 1     
    2    1   23 1     
    3    1   24 1     
    4    1   25 1     
    5    2    3 am    
    6    2   26 1     
    7    3    4 2     
    8    3    5 1     
    9    5    6 1     
   10    5   27 1     
   11    5   28 1     
   12    6   22 1     
   13    6    7 1     
   14    6   45 1     
   15    7    8 1     
   16    7   29 1     
   17    7   30 1     
   18    8    9 1     
   19    8   31 1     
   20    8   32 1     
   21    9   10 1     
   22    9   21 1     
   23    9   33 1     
   24   10   11 am    
   25   10   34 1     
   26   11   12 2     
   27   11   13 1     
   28   13   14 1     
   29   13   35 1     
   30   13   36 1     
   31   14   19 am    
   32   14   15 1     
   33   15   16 2     
   34   15   37 1     
   35   16   17 1     
   36   16   38 1     
   37   17   18 2     
   38   17   39 1     
   39   18   19 1     
   40   18   40 1     
   41   19   20 2     
   42   21   22 1     
   43   21   41 1     
   44   21   42 1     
   45   22   43 1     
   46   22   44 1     
   47    4   46 1     
   48    4   47 1     
   49   12   48 1     
   50   12   49 1     
   51   20   50 1     
   52   20   51 1     
@<TRIPOS>SUBSTRUCTURE
      1 S1             1
@<TRIPOS>SET
LONE_PAIRS      STATIC     ATOMS    <user>   **** ""
6 46 47 48 49 50 51
DONOR_HYDROGENS      STATIC     ATOMS    <user>   **** ""
3 26 45 34
ATOM$BLUE        STATIC     ATOMS    COLORGROUP SYSTEM
6 46 47 48 49 50 51
ATOM$RED        STATIC     ATOMS    COLORGROUP SYSTEM
3 26 45 34
