AV-unprocessed.smi:2579|AV-procd|sdf|10125|dock9
  -GOLD-   2272014143D 1   1.00000     0.00000
 Structure written by MMmdl.
 38 40  0  0  0  0  0  0  0  0  1 V2000
  151.3671  136.4101  154.2315 O   0  0  0  0  0  0  0  0  0  0  0  0
  151.2609  137.8178  154.2295 C   0  0  0  0  0  0  0  0  0  0  0  0
  151.4504  138.3633  155.6507 C   0  0  0  0  0  0  0  0  0  0  0  0
  151.0283  139.7471  155.7550 N   0  0  0  0  0  0  0  0  0  0  0  0
  151.3268  140.7448  156.6739 C   0  0  0  0  0  0  0  0  0  0  0  0
  152.1327  140.5758  157.7206 N   0  0  0  0  0  0  0  0  0  0  0  0
  152.1014  141.8224  158.3176 C   0  0  0  0  0  0  0  0  0  0  0  0
  152.7487  142.2994  159.4800 C   0  0  0  0  0  0  0  0  0  0  0  0
  152.5619  143.6309  159.9061 C   0  0  0  0  0  0  0  0  0  0  0  0
  151.7262  144.5030  159.1788 C   0  0  0  0  0  0  0  0  0  0  0  0
  151.0717  144.0493  158.0176 C   0  0  0  0  0  0  0  0  0  0  0  0
  151.2626  142.7202  157.5946 C   0  0  0  0  0  0  0  0  0  0  0  0
  150.7789  141.9735  156.5244 N   0  0  0  0  0  0  0  0  0  0  0  0
  149.8690  142.4340  155.4858 C   0  0  0  0  0  0  0  0  0  0  0  0
  148.6368  141.5239  155.3639 C   0  0  2  0  0  0  0  0  0  0  0  0
  148.6582  140.6146  154.1351 C   0  0  0  0  0  0  0  0  0  0  0  0
  147.1831  140.4120  153.8740 C   0  0  0  0  0  0  0  0  0  0  0  0
  146.6270  141.7944  154.1955 C   0  0  0  0  0  0  0  0  0  0  0  0
  147.4410  142.2952  155.2510 O   0  0  0  0  0  0  0  0  0  0  0  0
  151.0097  136.0801  153.4213 H   0  0  0  0  0  0  0  0  0  0  0  0
  152.0466  138.2062  153.5811 H   0  0  0  0  0  0  0  0  0  0  0  0
  150.3074  138.1291  153.8008 H   0  0  0  0  0  0  0  0  0  0  0  0
  150.9217  137.7523  156.3831 H   0  0  0  0  0  0  0  0  0  0  0  0
  152.5081  138.3252  155.9129 H   0  0  0  0  0  0  0  0  0  0  0  0
  150.3760  140.0222  155.0353 H   0  0  0  0  0  0  0  0  0  0  0  0
  153.3892  141.6388  160.0454 H   0  0  0  0  0  0  0  0  0  0  0  0
  153.0610  143.9842  160.7965 H   0  0  0  0  0  0  0  0  0  0  0  0
  151.5866  145.5205  159.5138 H   0  0  0  0  0  0  0  0  0  0  0  0
  150.4282  144.7139  157.4604 H   0  0  0  0  0  0  0  0  0  0  0  0
  149.5636  143.4536  155.7226 H   0  0  0  0  0  0  0  0  0  0  0  0
  150.4026  142.4873  154.5362 H   0  0  0  0  0  0  0  0  0  0  0  0
  148.5400  140.9069  156.2587 H   0  0  0  0  0  0  0  0  0  0  0  0
  149.1167  141.1225  153.2854 H   0  0  0  0  0  0  0  0  0  0  0  0
  149.1958  139.6816  154.3056 H   0  0  0  0  0  0  0  0  0  0  0  0
  146.9657  140.0904  152.8551 H   0  0  0  0  0  0  0  0  0  0  0  0
  146.7760  139.6718  154.5642 H   0  0  0  0  0  0  0  0  0  0  0  0
  146.7317  142.4554  153.3342 H   0  0  0  0  0  0  0  0  0  0  0  0
  145.5747  141.7688  154.4790 H   0  0  0  0  0  0  0  0  0  0  0  0
  1  2  1  0  0  0  0
  1 20  1  0  0  0  0
  2  3  1  0  0  0  0
  2 21  1  0  0  0  0
  2 22  1  0  0  0  0
  3  4  1  0  0  0  0
  3 23  1  0  0  0  0
  3 24  1  0  0  0  0
  4  5  1  0  0  0  0
  4 25  1  0  0  0  0
  5 13  1  0  0  0  0
  5  6  2  0  0  0  0
  6  7  1  0  0  0  0
  7 12  2  0  0  0  0
  7  8  1  0  0  0  0
  8  9  2  0  0  0  0
  8 26  1  0  0  0  0
  9 10  1  0  0  0  0
  9 27  1  0  0  0  0
 10 11  2  0  0  0  0
 10 28  1  0  0  0  0
 11 12  1  0  0  0  0
 11 29  1  0  0  0  0
 12 13  1  0  0  0  0
 13 14  1  0  0  0  0
 14 15  1  0  0  0  0
 14 30  1  0  0  0  0
 14 31  1  0  0  0  0
 15 19  1  0  0  0  0
 15 16  1  0  0  0  0
 15 32  1  0  0  0  0
 16 17  1  0  0  0  0
 16 33  1  0  0  0  0
 16 34  1  0  0  0  0
 17 18  1  0  0  0  0
 17 35  1  0  0  0  0
 17 36  1  0  0  0  0
 18 19  1  0  0  0  0
 18 37  1  0  0  0  0
 18 38  1  0  0  0  0
M  END
> <s_m_source_file>
AV-unprocessed.smi

> <i_m_source_file_index>
2579

> <i_lp_mmshare_version>
43012

> <i_f3d_flags>
0

> <s_epik_input>
W09IXVtDSDJdW0NIMl1bTkhdYyhuMSluKGMoYzEyKVtjSF1bY0hdW2NIXVtjSF0yKVtDSDJdW0NAQEhdM1tDSDJdW0NIMl1bQ0gyXU8z

> <s_epik_cmdline>
J2VwaWtfcHl0aG9uJywgJy1waCcsICc3LjAnLCAnLXRuJywgJzgnLCAnLW1hJywgJzIwMCcsICctbWV0YWxfYmluZGluZycsICctaW1hZScsICc8aW5maWxlLm1hZT4nLCAnLW9tYWUnLCAnPG91dGZpbGUubWFlPic=

> <r_epik_Ionization_Penalty>
1.27244

> <r_epik_Ionization_Penalty_Charging>
0

> <r_epik_Ionization_Penalty_Neutral>
1.27244

> <r_epik_State_Penalty>
1.34401

> <r_epik_Charging_Adjusted_Penalty>
1.34401

> <i_epik_Tot_Q>
0

> <i_epik_Tot_abs_Q>
0

> <r_epik_Metal_State_Penalty>
0.00511131

> <b_epik_Metal_Only>
0

> <s_lp_Force_Field>
OPLS_2005

> <r_lp_Energy>
20.4938

> <b_lp_Chiralities_Consistent>
1

> <s_lp_Variant>
AV-unprocessed.smi:2579-3

> <Gold.Version>
5.8.1

> <Gold.Id.Protein>
6NUR|6NUR_protein|mol2

> <Gold.PLP.Fitness>
41.9472

> <Gold.PLP.PLP>
-37.7138

> <Gold.PLP.part.hbond>
-2.1648

> <Gold.PLP.part.metal>
0.0000

> <Gold.PLP.part.buried>
-0.0832

> <Gold.PLP.part.nonpolar>
-37.5423

> <Gold.PLP.part.repulsive>
2.0334

> <Gold.PLP.ligand.clash>
0.0308

> <Gold.PLP.ligand.torsion>
0.8724

> <Gold.PLP.Chemscore.Hbond>
2.0000

> <Gold.PLP.Chemscore.CHOScore>
0.0000

> <Gold.PLP.Chemscore.Metal>
0.0000

> <Gold.Chemscore.Hbonds>
donor molecule, donor type, donor heavy atom, donor atom, acceptor molecule, acceptor atom, score
      L1  H     1    20       P1  7949  0.86
      P1  H 10752 10764       L1     1  0.85

> <Gold.PLP.Chemscore.Internal.Correction>
0.0089

> <Gold.Rescore>
     Score         DG    S(hbond)    S(metal)    S(lipo)     H(rot)  DE(clash)    DE(int)     intcor
     13.23     -16.42       1.13        0.00     108.74       2.17       2.43       0.76       ----

> <Gold.Chemscore.Fitness>
13.2305

> <Gold.Chemscore.DG>
-16.4173

> <Gold.Chemscore.ZeroCoef>
-5.4800

> <Gold.Chemscore.Hbond>
1.1277

> <Gold.Chemscore.Metal>
0.0000

> <Gold.Chemscore.Lipo>
108.7432

> <Gold.Chemscore.Internal_Hbond>
0.0000

> <Gold.Chemscore.DEClash>
2.4301

> <Gold.Chemscore.DEInternal>
0.7567

> <Gold.Chemscore.Rot>
2.1688

> <Gold.Chemscore.Internal.Correction>
   9.000000E+99

> <Gold.Chemscore.Hbonds>
donor molecule, donor type, donor heavy atom, donor atom, acceptor molecule, acceptor atom, score
      L1  H     1    20       P1  7949  0.16
      P1  H 10752 10764       L1     1  0.14

> <Gold.Chemscore.Hbond.Weighted>
-3.7665

> <Gold.Chemscore.Metal.Weighted>
-0.0000

> <Gold.Chemscore.Lipo.Weighted>
-12.7230

> <Gold.Chemscore.Internal_Hbond.Weighted>
0.0000

> <Gold.Chemscore.DEClash.Weighted>
2.4301

> <Gold.Chemscore.DEInternal.Weighted>
0.7567

> <Gold.Chemscore.Rot.Weighted>
5.5522

> <Gold.Chemscore.Internal.Correction.Weighted>
   9.000000E+99

> <Gold.Protein.RotatedTorsions>
[ 6907 6896 6895 6894 ] final  135.61 input  -60.11 | X-H torsion
[ 7974 7965 7964 7962 ] final   28.87 input  175.53 | X-H torsion
[ 8008 7997 7996 7995 ] final  112.22 input   59.86 | X-H torsion
[ 10167 10162 10161 10158 ] final -156.19 input  -65.29 | X-H torsion
[ 10718 10713 10712 10709 ] final   73.57 input   66.30 | X-H torsion
[ 10763 10752 10751 10750 ] final  -90.62 input  -60.55 | X-H torsion
[ 11005 11000 10999 10996 ] final -127.68 input  -57.11 | X-H torsion

> <Gold.Protein.ActiveResidues>
 VAL166  LYS551  ARG553  GLY616  TRP617  ASP618  TYR619  PRO620  LYS621  CYS622 
 ASP623  PHE694  ASN695  SER759  ASP760  ASP761  ALA762  ILE779  LEU786  VAL792 
 PHE793  MET794  SER795  GLU796  ALA797  LYS798  CYS799  TRP800  GLU811  SER814 

> <Gold.Protein.RotatedAtoms>
  152.2985  133.5631  159.5602 H   0  0  0  0  0  0  0  0  0  0  0  0  # atno 6907 bound_to 6896
  150.7267  134.0326  159.3747 H   0  0  0  0  0  0  0  0  0  0  0  0  # atno 6908 bound_to 6896
  151.8227  135.0647  160.0478 H   0  0  0  0  0  0  0  0  0  0  0  0  # atno 6909 bound_to 6896
  146.1704  139.6997  142.8972 H   0  0  0  0  0  0  0  0  0  0  0  0  # atno 7974 bound_to 7965
  156.2177  140.3004  155.9879 H   0  0  0  0  0  0  0  0  0  0  0  0  # atno 8008 bound_to 7997
  155.2562  140.0428  157.3009 H   0  0  0  0  0  0  0  0  0  0  0  0  # atno 8009 bound_to 7997
  154.5793  140.2370  155.8085 H   0  0  0  0  0  0  0  0  0  0  0  0  # atno 8010 bound_to 7997
  139.6870  143.9485  152.2366 H   0  0  0  0  0  0  0  0  0  0  0  0  # atno 10167 bound_to 10162
  157.6553  130.9635  150.1088 H   0  0  0  0  0  0  0  0  0  0  0  0  # atno 10718 bound_to 10713
  154.6676  135.5298  153.8097 H   0  0  0  0  0  0  0  0  0  0  0  0  # atno 10763 bound_to 10752
  153.0481  135.6521  154.0775 H   0  0  0  0  0  0  0  0  0  0  0  0  # atno 10764 bound_to 10752
  154.0677  135.2956  155.3293 H   0  0  0  0  0  0  0  0  0  0  0  0  # atno 10765 bound_to 10752
  140.9579  134.0976  157.3997 H   0  0  0  0  0  0  0  0  0  0  0  0  # atno 11005 bound_to 11000
  145.4356  141.0418  143.2886 LP  0  0  0  0  0  0  0  0  0  0  0  0  # atno 17320 bound_to 7965
  144.8154  139.5886  143.7010 LP  0  0  0  0  0  0  0  0  0  0  0  0  # atno 17321 bound_to 7965
  139.9290  144.6753  150.8382 LP  0  0  0  0  0  0  0  0  0  0  0  0  # atno 17342 bound_to 10162
  140.7671  143.3321  151.2387 LP  0  0  0  0  0  0  0  0  0  0  0  0  # atno 17343 bound_to 10162
  156.1990  130.3659  149.8812 LP  0  0  0  0  0  0  0  0  0  0  0  0  # atno 17370 bound_to 10713
  156.6721  130.8824  151.3563 LP  0  0  0  0  0  0  0  0  0  0  0  0  # atno 17371 bound_to 10713
  139.8868  135.0085  156.6523 LP  0  0  0  0  0  0  0  0  0  0  0  0  # atno 17394 bound_to 11000
  140.7509  133.8898  155.8346 LP  0  0  0  0  0  0  0  0  0  0  0  0  # atno 17395 bound_to 11000

$$$$
