AV-unprocessed.smi:1033|AV-procd|sdf|4501|dock5
  -GOLD-   22720 2493D 1   1.00000     0.00000
 Structure written by MMmdl.
 57 59  0  0  0  0  0  0  0  0  3 V2000
  151.6297  143.9941  160.0680 C   0  0  0  0  0  0  0  0  0  0  0  0
  151.5220  142.9241  158.9948 C   0  0  0  0  0  0  0  0  0  0  0  0
  150.5006  143.0423  158.0251 C   0  0  0  0  0  0  0  0  0  0  0  0
  150.4285  142.0489  157.0558 C   0  0  0  0  0  0  0  0  0  0  0  0
  149.5499  141.8772  155.9839 N   0  3  0  0  0  0  0  0  0  0  0  0
  149.8744  140.7407  155.3073 C   0  0  0  0  0  0  0  0  0  0  0  0
  150.9560  140.1908  155.9247 N   0  0  0  0  0  0  0  0  0  0  0  0
  151.7047  138.9669  155.6113 C   0  0  0  0  0  0  0  0  0  0  0  0
  150.8747  137.9259  154.8316 C   0  0  1  0  0  0  0  0  0  0  0  0
  151.7856  137.1297  154.1011 O   0  0  0  0  0  0  0  0  0  0  0  0
  150.0238  137.0158  155.7454 C   0  0  0  0  0  0  0  0  0  0  0  0
  149.4625  135.8384  155.0347 N   0  3  0  0  0  0  0  0  0  0  0  0
  148.0940  135.4663  155.4856 C   0  0  0  0  0  0  0  0  0  0  0  0
  147.5684  134.2669  154.6704 C   0  0  0  0  0  0  0  0  0  0  0  0
  148.4436  133.0933  154.7319 N   0  0  0  0  0  0  0  0  0  0  0  0
  148.4603  132.4071  156.0292 C   0  0  0  0  0  0  0  0  0  0  0  0
  147.3069  131.4128  156.2691 C   0  0  1  0  0  0  0  0  0  0  0  0
  147.3834  130.7245  157.6394 C   0  0  0  0  0  0  0  0  0  0  0  0
  146.0913  132.1275  156.2040 O   0  0  0  0  0  0  0  0  0  0  0  0
  149.7786  133.4875  154.2839 C   0  0  0  0  0  0  0  0  0  0  0  0
  150.3691  134.6624  155.0898 C   0  0  0  0  0  0  0  0  0  0  0  0
  151.3289  140.9664  157.0276 C   0  0  0  0  0  0  0  0  0  0  0  0
  152.3377  140.8315  157.9782 C   0  0  0  0  0  0  0  0  0  0  0  0
  152.4276  141.8316  158.9727 C   0  0  0  0  0  0  0  0  0  0  0  0
  153.5186  141.7123  160.0233 C   0  0  0  0  0  0  0  0  0  0  0  0
  150.8867  144.7795  159.9248 H   0  0  0  0  0  0  0  0  0  0  0  0
  152.6147  144.4611  160.0469 H   0  0  0  0  0  0  0  0  0  0  0  0
  151.4715  143.5619  161.0562 H   0  0  0  0  0  0  0  0  0  0  0  0
  149.8050  143.8688  158.0393 H   0  0  0  0  0  0  0  0  0  0  0  0
  149.3673  140.3497  154.4368 H   0  0  0  0  0  0  0  0  0  0  0  0
  152.6000  139.2496  155.0554 H   0  0  0  0  0  0  0  0  0  0  0  0
  152.0484  138.5454  156.5573 H   0  0  0  0  0  0  0  0  0  0  0  0
  150.2422  138.4507  154.1173 H   0  0  0  0  0  0  0  0  0  0  0  0
  151.4609  137.0155  153.2211 H   0  0  0  0  0  0  0  0  0  0  0  0
  150.6492  136.6806  156.5745 H   0  0  0  0  0  0  0  0  0  0  0  0
  149.2006  137.5718  156.1951 H   0  0  0  0  0  0  0  0  0  0  0  0
  148.0991  135.2380  156.5522 H   0  0  0  0  0  0  0  0  0  0  0  0
  147.4121  136.3051  155.3521 H   0  0  0  0  0  0  0  0  0  0  0  0
  146.5596  134.0111  154.9915 H   0  0  0  0  0  0  0  0  0  0  0  0
  147.4669  134.5737  153.6284 H   0  0  0  0  0  0  0  0  0  0  0  0
  149.3979  131.8574  156.1236 H   0  0  0  0  0  0  0  0  0  0  0  0
  148.4696  133.1379  156.8375 H   0  0  0  0  0  0  0  0  0  0  0  0
  147.2744  130.6612  155.4814 H   0  0  0  0  0  0  0  0  0  0  0  0
  148.2924  130.1295  157.7299 H   0  0  0  0  0  0  0  0  0  0  0  0
  146.5375  130.0531  157.7900 H   0  0  0  0  0  0  0  0  0  0  0  0
  147.3805  131.4516  158.4520 H   0  0  0  0  0  0  0  0  0  0  0  0
  145.3919  131.5186  156.0208 H   0  0  0  0  0  0  0  0  0  0  0  0
  150.4524  132.6313  154.3285 H   0  0  0  0  0  0  0  0  0  0  0  0
  149.7304  133.7704  153.2314 H   0  0  0  0  0  0  0  0  0  0  0  0
  151.3398  134.9306  154.6706 H   0  0  0  0  0  0  0  0  0  0  0  0
  150.5446  134.3752  156.1274 H   0  0  0  0  0  0  0  0  0  0  0  0
  153.0245  139.9980  157.9635 H   0  0  0  0  0  0  0  0  0  0  0  0
  154.1052  140.8030  159.8891 H   0  0  0  0  0  0  0  0  0  0  0  0
  153.0859  141.6836  161.0236 H   0  0  0  0  0  0  0  0  0  0  0  0
  154.2010  142.5606  159.9640 H   0  0  0  0  0  0  0  0  0  0  0  0
  149.3955  136.0911  154.0592 H   0  0  0  0  0  0  0  0  0  0  0  0
  148.7808  142.4863  155.7342 H   0  0  0  0  0  0  0  0  0  0  0  0
  1  2  1  0  0  0  0
  1 26  1  0  0  0  0
  1 27  1  0  0  0  0
  1 28  1  0  0  0  0
  2 24  1  0  0  0  0
  2  3  2  0  0  0  0
  3  4  1  0  0  0  0
  3 29  1  0  0  0  0
  4 22  2  0  0  0  0
  4  5  1  0  0  0  0
  5  6  2  0  0  0  0
  5 57  1  0  0  0  0
  6  7  1  0  0  0  0
  6 30  1  0  0  0  0
  7  8  1  0  0  0  0
  7 22  1  0  0  0  0
  8  9  1  0  0  0  0
  8 31  1  0  0  0  0
  8 32  1  0  0  0  0
  9 10  1  0  0  0  0
  9 11  1  0  0  0  0
  9 33  1  0  0  0  0
 10 34  1  0  0  0  0
 11 12  1  0  0  0  0
 11 35  1  0  0  0  0
 11 36  1  0  0  0  0
 12 21  1  0  0  0  0
 12 13  1  0  0  0  0
 12 56  1  0  0  0  0
 13 14  1  0  0  0  0
 13 37  1  0  0  0  0
 13 38  1  0  0  0  0
 14 15  1  0  0  0  0
 14 39  1  0  0  0  0
 14 40  1  0  0  0  0
 15 16  1  0  0  0  0
 15 20  1  0  0  0  0
 16 17  1  0  0  0  0
 16 41  1  0  0  0  0
 16 42  1  0  0  0  0
 17 18  1  0  0  0  0
 17 19  1  0  0  0  0
 17 43  1  0  0  0  0
 18 44  1  0  0  0  0
 18 45  1  0  0  0  0
 18 46  1  0  0  0  0
 19 47  1  0  0  0  0
 20 21  1  0  0  0  0
 20 48  1  0  0  0  0
 20 49  1  0  0  0  0
 21 50  1  0  0  0  0
 21 51  1  0  0  0  0
 22 23  1  0  0  0  0
 23 24  2  0  0  0  0
 23 52  1  0  0  0  0
 24 25  1  0  0  0  0
 25 53  1  0  0  0  0
 25 54  1  0  0  0  0
 25 55  1  0  0  0  0
M  CHG  1   5   1
M  CHG  1  12   1
M  END
> <s_m_source_file>
AV-unprocessed.smi

> <i_m_source_file_index>
1033

> <i_lp_mmshare_version>
43012

> <i_f3d_flags>
0

> <s_epik_input>
W0NIM11jKFtjSF0xKWMoW0NIM10pW2NIXWMoYzEyKW4oW2NIXW4yKVtDSDJdW0NASF0oW09IXSlbQ0gyXU4zW0NIMl1bQ0gyXU4oW0NIMl1bQ0gyXTMpW0NIMl1bQ0BIXShbQ0gzXSlbT0hd

> <s_epik_cmdline>
J2VwaWtfcHl0aG9uJywgJy1waCcsICc3LjAnLCAnLXRuJywgJzgnLCAnLW1hJywgJzIwMCcsICctbWV0YWxfYmluZGluZycsICctaW1hZScsICc8aW5maWxlLm1hZT4nLCAnLW9tYWUnLCAnPG91dGZpbGUubWFlPic=

> <r_epik_Ionization_Penalty>
1.22049

> <r_epik_Ionization_Penalty_Charging>
1.17952

> <r_epik_Ionization_Penalty_Neutral>
0.0409743

> <r_epik_State_Penalty>
1.61468

> <r_epik_Charging_Adjusted_Penalty>
2.7942

> <i_epik_Tot_Q>
2

> <i_epik_Tot_abs_Q>
2

> <r_epik_Metal_State_Penalty>
5.63169

> <b_epik_Metal_Only>
0

> <s_lp_Force_Field>
OPLS_2005

> <r_lp_Energy>
46.1755

> <b_lp_Chiralities_Consistent>
1

> <s_lp_Variant>
AV-unprocessed.smi:1033-12

> <Gold.Version>
5.8.1

> <Gold.Id.Protein>
6NUR|6NUR_protein|mol2

> <Gold.PLP.Fitness>
62.0677

> <Gold.PLP.PLP>
-43.7934

> <Gold.PLP.part.hbond>
-5.0000

> <Gold.PLP.part.metal>
0.0000

> <Gold.PLP.part.buried>
-3.7104

> <Gold.PLP.part.nonpolar>
-34.8640

> <Gold.PLP.part.repulsive>
0.2026

> <Gold.PLP.ligand.clash>
0.0000

> <Gold.PLP.ligand.torsion>
1.4261

> <Gold.PLP.Chemscore.Hbond>
6.9520

> <Gold.PLP.Chemscore.CHOScore>
0.0000

> <Gold.PLP.Chemscore.Metal>
0.0000

> <Gold.Chemscore.Hbonds>
donor molecule, donor type, donor heavy atom, donor atom, acceptor molecule, acceptor atom, score
      L1  H     5    57       P1  8028  0.52
      L1  H    10    34       P1  7949  0.99
      L1  H    12    56       P1  7948  1.04
      P1  H 10752 10764       L1    10  1.00

> <Gold.PLP.Chemscore.Internal.Correction>
0.2704

> <Gold.Rescore>
     Score         DG    S(hbond)    S(metal)    S(lipo)     H(rot)  DE(clash)    DE(int)     intcor
     22.31     -24.28       4.23        0.00     108.85       3.15       0.51       1.47       ----

> <Gold.Chemscore.Fitness>
22.3075

> <Gold.Chemscore.DG>
-24.2824

> <Gold.Chemscore.ZeroCoef>
-5.4800

> <Gold.Chemscore.Hbond>
4.2297

> <Gold.Chemscore.Metal>
0.0000

> <Gold.Chemscore.Lipo>
108.8459

> <Gold.Chemscore.Internal_Hbond>
0.0000

> <Gold.Chemscore.DEClash>
0.5075

> <Gold.Chemscore.DEInternal>
1.4674

> <Gold.Chemscore.Rot>
3.1483

> <Gold.Chemscore.Internal.Correction>
   9.000000E+99

> <Gold.Chemscore.Hbonds>
donor molecule, donor type, donor heavy atom, donor atom, acceptor molecule, acceptor atom, score
      L1  H     5    57       P1  8028  0.26
      L1  H    10    34       P1  7949  0.77
      L1  H    12    56       P1  7948  0.41
      P1  H 10752 10764       L1    10  0.47

> <Gold.Chemscore.Hbond.Weighted>
-14.1271

> <Gold.Chemscore.Metal.Weighted>
-0.0000

> <Gold.Chemscore.Lipo.Weighted>
-12.7350

> <Gold.Chemscore.Internal_Hbond.Weighted>
0.0000

> <Gold.Chemscore.DEClash.Weighted>
0.5075

> <Gold.Chemscore.DEInternal.Weighted>
1.4674

> <Gold.Chemscore.Rot.Weighted>
8.0597

> <Gold.Chemscore.Internal.Correction.Weighted>
   9.000000E+99

> <Gold.Protein.RotatedTorsions>
[ 6907 6896 6895 6894 ] final   49.86 input  -60.11 | X-H torsion
[ 7974 7965 7964 7962 ] final  177.95 input  175.53 | X-H torsion
[ 8008 7997 7996 7995 ] final  135.65 input   59.86 | X-H torsion
[ 10167 10162 10161 10158 ] final  124.32 input  -65.29 | X-H torsion
[ 10718 10713 10712 10709 ] final -153.30 input   66.30 | X-H torsion
[ 10763 10752 10751 10750 ] final  -69.82 input  -60.55 | X-H torsion
[ 11005 11000 10999 10996 ] final   96.48 input  -57.11 | X-H torsion

> <Gold.Protein.ActiveResidues>
 VAL166  LYS551  ARG553  GLY616  TRP617  ASP618  TYR619  PRO620  LYS621  CYS622 
 ASP623  PHE694  ASN695  SER759  ASP760  ASP761  ALA762  ILE779  LEU786  VAL792 
 PHE793  MET794  SER795  GLU796  ALA797  LYS798  CYS799  TRP800  GLU811  SER814 

> <Gold.Protein.RotatedAtoms>
  152.2955  134.7672  160.0368 H   0  0  0  0  0  0  0  0  0  0  0  0  # atno 6907 bound_to 6896
  151.8203  133.3388  159.3590 H   0  0  0  0  0  0  0  0  0  0  0  0  # atno 6908 bound_to 6896
  150.7249  134.5509  159.5838 H   0  0  0  0  0  0  0  0  0  0  0  0  # atno 6909 bound_to 6896
  144.7162  140.0324  143.6439 H   0  0  0  0  0  0  0  0  0  0  0  0  # atno 7974 bound_to 7965
  156.3003  140.2465  156.3616 H   0  0  0  0  0  0  0  0  0  0  0  0  # atno 8008 bound_to 7997
  154.8872  140.0410  157.1836 H   0  0  0  0  0  0  0  0  0  0  0  0  # atno 8009 bound_to 7997
  154.8635  140.2924  155.5528 H   0  0  0  0  0  0  0  0  0  0  0  0  # atno 8010 bound_to 7997
  139.5748  144.6958  151.3682 H   0  0  0  0  0  0  0  0  0  0  0  0  # atno 10167 bound_to 10162
  156.4840  130.8316  151.2542 H   0  0  0  0  0  0  0  0  0  0  0  0  # atno 10718 bound_to 10713
  154.4089  135.6013  153.5941 H   0  0  0  0  0  0  0  0  0  0  0  0  # atno 10763 bound_to 10752
  152.9790  135.5924  154.4094 H   0  0  0  0  0  0  0  0  0  0  0  0  # atno 10764 bound_to 10752
  154.3904  135.2842  155.2136 H   0  0  0  0  0  0  0  0  0  0  0  0  # atno 10765 bound_to 10752
  139.8781  134.8953  156.4166 H   0  0  0  0  0  0  0  0  0  0  0  0  # atno 11005 bound_to 11000
  146.0091  139.3155  143.0881 LP  0  0  0  0  0  0  0  0  0  0  0  0  # atno 17320 bound_to 7965
  145.8703  140.9424  143.0654 LP  0  0  0  0  0  0  0  0  0  0  0  0  # atno 17321 bound_to 7965
  140.7031  143.7581  150.7436 LP  0  0  0  0  0  0  0  0  0  0  0  0  # atno 17342 bound_to 10162
  140.1098  143.4710  152.2377 LP  0  0  0  0  0  0  0  0  0  0  0  0  # atno 17343 bound_to 10162
  157.7480  131.0035  150.3042 LP  0  0  0  0  0  0  0  0  0  0  0  0  # atno 17370 bound_to 10713
  156.3493  130.3828  149.7343 LP  0  0  0  0  0  0  0  0  0  0  0  0  # atno 17371 bound_to 10713
  140.9163  133.7676  155.9852 LP  0  0  0  0  0  0  0  0  0  0  0  0  # atno 17394 bound_to 11000
  140.8490  134.2977  157.5283 LP  0  0  0  0  0  0  0  0  0  0  0  0  # atno 17395 bound_to 11000

$$$$
