#       Name:                AV-unprocessed.smi:3067
#       Creating user name   scv26
#       Creation time:       Fri Mar 27 17:09:53 2020


#       File generated by GOLD software.
#

@<TRIPOS>MOLECULE
AV-unprocessed.smi:3067
    38    39     1
SMALL
NO_CHARGES


@<TRIPOS>ATOM
      1 ****         0.0526  -2.4219   1.8227 C.3            1 S1                 0.0000
      2 ****        -0.1562  -1.9640   0.4961 O.3            1 S1                 0.0000
      3 ****        -0.8306  -0.7121   0.4059 C.3            1 S1                 0.0000
      4 ****        -2.3568  -0.9108   0.5244 C.3            1 S1                 0.0000
      5 ****        -2.9177  -1.7314  -0.6492 C.3            1 S1                 0.0000
      6 ****        -2.5467  -1.0997  -1.9995 C.3            1 S1                 0.0000
      7 ****        -1.0282  -0.8977  -2.1246 C.3            1 S1                 0.0000
      8 ****        -0.4776  -0.0610  -0.9538 C.3            1 S1                 0.0000
      9 ****         0.9584   0.1522  -1.1021 N.pl3          1 S1                 0.0000
     10 ****         1.6498   1.1146  -0.3501 C.ar           1 S1                 0.0000
     11 ****         1.0167   2.1591   0.3637 C.ar           1 S1                 0.0000
     12 ****         1.8087   3.0708   1.0877 C.ar           1 S1                 0.0000
     13 ****         3.2100   2.9118   1.0733 C.ar           1 S1                 0.0000
     14 ****         4.0445   3.8422   1.8142 C.1            1 S1                 0.0000
     15 ****         4.7086   4.5835   2.4046 N.1            1 S1                 0.0000
     16 ****         3.8244   1.9205   0.3925 N.ar           1 S1                 0.0000
     17 ****         3.0583   1.0501  -0.2991 C.ar           1 S1                 0.0000
     18 ****         0.5893  -3.3702   1.7975 H              1 S1                 0.0000
     19 ****        -0.8873  -2.5864   2.3492 H              1 S1                 0.0000
     20 ****         0.6550  -1.7137   2.3931 H              1 S1                 0.0000
     21 ****        -0.4951  -0.0572   1.2112 H              1 S1                 0.0000
     22 ****        -2.6163  -1.3873   1.4691 H              1 S1                 0.0000
     23 ****        -2.8424   0.0658   0.5405 H              1 S1                 0.0000
     24 ****        -2.5297  -2.7498  -0.6027 H              1 S1                 0.0000
     25 ****        -4.0016  -1.8108  -0.5626 H              1 S1                 0.0000
     26 ****        -2.9070  -1.7272  -2.8152 H              1 S1                 0.0000
     27 ****        -3.0513  -0.1383  -2.1033 H              1 S1                 0.0000
     28 ****        -0.5322  -1.8689  -2.1586 H              1 S1                 0.0000
     29 ****        -0.8059  -0.4052  -3.0719 H              1 S1                 0.0000
     30 ****        -0.9674   0.9109  -1.0116 H              1 S1                 0.0000
     31 ****         1.4931  -0.5938  -1.5240 H              1 S1                 0.0000
     32 ****        -0.0559   2.2773   0.3703 H              1 S1                 0.0000
     33 ****         1.3443   3.8748   1.6404 H              1 S1                 0.0000
     34 ****         3.5907   0.2730  -0.8282 H              1 S1                 0.0000
     35 ****        -0.7004  -2.6483   0.0108 LP             1 S1                 0.0000
     36 ****         0.7355  -1.8718   0.0529 LP             1 S1                 0.0000
     37 ****         5.2825   5.2241   2.9148 LP             1 S1                 0.0000
     38 ****         4.8206   1.8334   0.4004 LP             1 S1                 0.0000
@<TRIPOS>BOND
    1    1    2 1     
    2    1   18 1     
    3    1   19 1     
    4    1   20 1     
    5    2    3 1     
    6    3    8 1     
    7    3    4 1     
    8    3   21 1     
    9    4    5 1     
   10    4   22 1     
   11    4   23 1     
   12    5    6 1     
   13    5   24 1     
   14    5   25 1     
   15    6    7 1     
   16    6   26 1     
   17    6   27 1     
   18    7    8 1     
   19    7   28 1     
   20    7   29 1     
   21    8    9 1     
   22    8   30 1     
   23    9   10 1     
   24    9   31 1     
   25   10   17 ar    
   26   10   11 ar    
   27   11   12 ar    
   28   11   32 1     
   29   12   13 ar    
   30   12   33 1     
   31   13   14 1     
   32   13   16 ar    
   33   14   15 3     
   34   16   17 ar    
   35   17   34 1     
   36    2   35 1     
   37    2   36 1     
   38   15   37 1     
   39   16   38 1     
@<TRIPOS>SUBSTRUCTURE
      1 S1             1
@<TRIPOS>SET
LONE_PAIRS      STATIC     ATOMS    <user>   **** ""
4 35 36 37 38
DONOR_HYDROGENS      STATIC     ATOMS    <user>   **** ""
1 31
ATOM$BLUE        STATIC     ATOMS    COLORGROUP SYSTEM
4 35 36 37 38
ATOM$RED        STATIC     ATOMS    COLORGROUP SYSTEM
1 31
