AV-unprocessed.smi:2172|AV-procd|sdf|8835|dock5
  -GOLD-   2272012 23D 1   1.00000     0.00000
 Structure written by MMmdl.
 36 38  0  0  0  0  0  0  0  0  1 V2000
  153.2145  138.9539  155.8300 O   0  0  0  0  0  0  0  0  0  0  0  0
  151.9855  139.2079  156.4761 C   0  0  0  0  0  0  0  0  0  0  0  0
  152.0252  140.4364  157.3332 C   0  0  0  0  0  0  0  0  0  0  0  0
  152.8140  140.5226  158.4048 N   0  0  0  0  0  0  0  0  0  0  0  0
  152.5494  141.7939  158.8757 C   0  0  0  0  0  0  0  0  0  0  0  0
  153.0734  142.4875  159.9900 C   0  0  0  0  0  0  0  0  0  0  0  0
  152.6464  143.8001  160.2792 C   0  0  0  0  0  0  0  0  0  0  0  0
  151.6916  144.4370  159.4600 C   0  0  0  0  0  0  0  0  0  0  0  0
  151.1571  143.7637  158.3445 C   0  0  0  0  0  0  0  0  0  0  0  0
  151.5868  142.4535  158.0601 C   0  0  0  0  0  0  0  0  0  0  0  0
  151.2698  141.5317  157.0667 N   0  0  0  0  0  0  0  0  0  0  0  0
  150.3248  141.7286  155.9756 C   0  0  0  0  0  0  0  0  0  0  0  0
  148.9056  141.2284  156.3123 C   0  0  1  0  0  0  0  0  0  0  0  0
  148.1073  142.3023  156.7717 O   0  0  0  0  0  0  0  0  0  0  0  0
  148.2843  140.5080  155.1256 C   0  0  0  0  0  0  0  0  0  0  0  0
  148.1047  139.1067  155.1409 C   0  0  0  0  0  0  0  0  0  0  0  0
  147.5160  138.4544  154.0400 C   0  0  0  0  0  0  0  0  0  0  0  0
  147.0992  139.1990  152.9196 C   0  0  0  0  0  0  0  0  0  0  0  0
  146.3763  138.4000  151.5720 Cl  0  0  0  0  0  0  0  0  0  0  0  0
  147.2709  140.5966  152.9012 C   0  0  0  0  0  0  0  0  0  0  0  0
  147.8609  141.2488  154.0012 C   0  0  0  0  0  0  0  0  0  0  0  0
  153.0881  139.0457  154.8980 H   0  0  0  0  0  0  0  0  0  0  0  0
  151.1967  139.2985  155.7303 H   0  0  0  0  0  0  0  0  0  0  0  0
  151.7327  138.3456  157.0942 H   0  0  0  0  0  0  0  0  0  0  0  0
  153.8058  142.0087  160.6230 H   0  0  0  0  0  0  0  0  0  0  0  0
  153.0529  144.3206  161.1338 H   0  0  0  0  0  0  0  0  0  0  0  0
  151.3694  145.4423  159.6885 H   0  0  0  0  0  0  0  0  0  0  0  0
  150.4232  144.2470  157.7168 H   0  0  0  0  0  0  0  0  0  0  0  0
  150.3016  142.7896  155.7235 H   0  0  0  0  0  0  0  0  0  0  0  0
  150.7043  141.2196  155.0893 H   0  0  0  0  0  0  0  0  0  0  0  0
  148.9646  140.5202  157.1389 H   0  0  0  0  0  0  0  0  0  0  0  0
  148.5803  143.1083  156.6319 H   0  0  0  0  0  0  0  0  0  0  0  0
  148.4142  138.5267  155.9980 H   0  0  0  0  0  0  0  0  0  0  0  0
  147.3829  137.3826  154.0575 H   0  0  0  0  0  0  0  0  0  0  0  0
  146.9487  141.1706  152.0448 H   0  0  0  0  0  0  0  0  0  0  0  0
  147.9844  142.3218  153.9798 H   0  0  0  0  0  0  0  0  0  0  0  0
  1  2  1  0  0  0  0
  1 22  1  0  0  0  0
  2  3  1  0  0  0  0
  2 23  1  0  0  0  0
  2 24  1  0  0  0  0
  3 11  1  0  0  0  0
  3  4  2  0  0  0  0
  4  5  1  0  0  0  0
  5 10  2  0  0  0  0
  5  6  1  0  0  0  0
  6  7  2  0  0  0  0
  6 25  1  0  0  0  0
  7  8  1  0  0  0  0
  7 26  1  0  0  0  0
  8  9  2  0  0  0  0
  8 27  1  0  0  0  0
  9 10  1  0  0  0  0
  9 28  1  0  0  0  0
 10 11  1  0  0  0  0
 11 12  1  0  0  0  0
 12 13  1  0  0  0  0
 12 29  1  0  0  0  0
 12 30  1  0  0  0  0
 13 14  1  0  0  0  0
 13 15  1  0  0  0  0
 13 31  1  0  0  0  0
 14 32  1  0  0  0  0
 15 21  1  0  0  0  0
 15 16  2  0  0  0  0
 16 17  1  0  0  0  0
 16 33  1  0  0  0  0
 17 18  2  0  0  0  0
 17 34  1  0  0  0  0
 18 19  1  0  0  0  0
 18 20  1  0  0  0  0
 20 21  2  0  0  0  0
 20 35  1  0  0  0  0
 21 36  1  0  0  0  0
M  END
> <s_m_source_file>
AV-unprocessed.smi

> <i_m_source_file_index>
2172

> <i_lp_mmshare_version>
43012

> <i_f3d_flags>
0

> <s_epik_input>
W2NIXTFbY0hdW2NIXVtjSF1jKGMxMiluKGMobjIpW0NIMl1bT0hdKVtDSDJdW0NASF0oW09IXSljM1tjSF1bY0hdYyhDbClbY0hdW2NIXTM=

> <s_epik_cmdline>
J2VwaWtfcHl0aG9uJywgJy1waCcsICc3LjAnLCAnLXRuJywgJzgnLCAnLW1hJywgJzIwMCcsICctbWV0YWxfYmluZGluZycsICctaW1hZScsICc8aW5maWxlLm1hZT4nLCAnLW9tYWUnLCAnPG91dGZpbGUubWFlPic=

> <r_epik_Ionization_Penalty>
0.0634726

> <r_epik_Ionization_Penalty_Charging>
0

> <r_epik_Ionization_Penalty_Neutral>
0.0634726

> <r_epik_State_Penalty>
0.0551572

> <r_epik_Charging_Adjusted_Penalty>
0.0551572

> <i_epik_Tot_Q>
0

> <i_epik_Tot_abs_Q>
0

> <r_epik_Metal_State_Penalty>
5.78034e-05

> <b_epik_Metal_Only>
0

> <s_lp_Force_Field>
OPLS_2005

> <r_lp_Energy>
11.6759

> <b_lp_Chiralities_Consistent>
1

> <s_lp_Variant>
AV-unprocessed.smi:2172-2

> <Gold.Version>
5.8.1

> <Gold.Id.Protein>
6NUR|6NUR_protein|mol2

> <Gold.PLP.Fitness>
46.4123

> <Gold.PLP.PLP>
-42.6001

> <Gold.PLP.part.hbond>
-2.6388

> <Gold.PLP.part.metal>
0.0000

> <Gold.PLP.part.buried>
-2.2319

> <Gold.PLP.part.nonpolar>
-38.3094

> <Gold.PLP.part.repulsive>
0.0000

> <Gold.PLP.ligand.clash>
0.0000

> <Gold.PLP.ligand.torsion>
1.1132

> <Gold.PLP.Chemscore.Hbond>
2.0000

> <Gold.PLP.Chemscore.CHOScore>
0.0000

> <Gold.PLP.Chemscore.Metal>
0.0000

> <Gold.Chemscore.Hbonds>
donor molecule, donor type, donor heavy atom, donor atom, acceptor molecule, acceptor atom, score
      L1  H    14    32       P1  8028  1.00
      P1  H  7997  8009       L1     1  1.00

> <Gold.PLP.Chemscore.Internal.Correction>
0.0385

> <Gold.Rescore>
     Score         DG    S(hbond)    S(metal)    S(lipo)     H(rot)  DE(clash)    DE(int)     intcor
     17.30     -18.61       1.65        0.00     122.44       2.62       0.02       1.29       ----

> <Gold.Chemscore.Fitness>
17.3002

> <Gold.Chemscore.DG>
-18.6074

> <Gold.Chemscore.ZeroCoef>
-5.4800

> <Gold.Chemscore.Hbond>
1.6519

> <Gold.Chemscore.Metal>
0.0000

> <Gold.Chemscore.Lipo>
122.4392

> <Gold.Chemscore.Internal_Hbond>
0.0000

> <Gold.Chemscore.DEClash>
0.0222

> <Gold.Chemscore.DEInternal>
1.2850

> <Gold.Chemscore.Rot>
2.6232

> <Gold.Chemscore.Internal.Correction>
   9.000000E+99

> <Gold.Chemscore.Hbonds>
donor molecule, donor type, donor heavy atom, donor atom, acceptor molecule, acceptor atom, score
      L1  H    14    32       P1  8028  0.71
      P1  H  7997  8009       L1     1  0.39

> <Gold.Chemscore.Hbond.Weighted>
-5.5175

> <Gold.Chemscore.Metal.Weighted>
-0.0000

> <Gold.Chemscore.Lipo.Weighted>
-14.3254

> <Gold.Chemscore.Internal_Hbond.Weighted>
0.0000

> <Gold.Chemscore.DEClash.Weighted>
0.0222

> <Gold.Chemscore.DEInternal.Weighted>
1.2850

> <Gold.Chemscore.Rot.Weighted>
6.7154

> <Gold.Chemscore.Internal.Correction.Weighted>
   9.000000E+99

> <Gold.Protein.RotatedTorsions>
[ 6907 6896 6895 6894 ] final   43.70 input  -60.11 | X-H torsion
[ 7974 7965 7964 7962 ] final  108.94 input  175.53 | X-H torsion
[ 8008 7997 7996 7995 ] final -156.58 input   59.86 | X-H torsion
[ 10167 10162 10161 10158 ] final  152.50 input  -65.29 | X-H torsion
[ 10718 10713 10712 10709 ] final  -20.52 input   66.30 | X-H torsion
[ 10763 10752 10751 10750 ] final  -54.09 input  -60.55 | X-H torsion
[ 11005 11000 10999 10996 ] final  -71.65 input  -57.11 | X-H torsion

> <Gold.Protein.ActiveResidues>
 VAL166  LYS551  ARG553  GLY616  TRP617  ASP618  TYR619  PRO620  LYS621  CYS622 
 ASP623  PHE694  ASN695  SER759  ASP760  ASP761  ALA762  ILE779  LEU786  VAL792 
 PHE793  MET794  SER795  GLU796  ALA797  LYS798  CYS799  TRP800  GLU811  SER814 

> <Gold.Protein.RotatedAtoms>
  152.2235  134.8390  160.0482 H   0  0  0  0  0  0  0  0  0  0  0  0  # atno 6907 bound_to 6896
  151.9165  133.3569  159.3890 H   0  0  0  0  0  0  0  0  0  0  0  0  # atno 6908 bound_to 6896
  150.7006  134.4604  159.5422 H   0  0  0  0  0  0  0  0  0  0  0  0  # atno 6909 bound_to 6896
  145.2742  139.2656  143.3950 H   0  0  0  0  0  0  0  0  0  0  0  0  # atno 7974 bound_to 7965
  155.7194  140.0788  157.2337 H   0  0  0  0  0  0  0  0  0  0  0  0  # atno 8008 bound_to 7997
  154.4047  140.1615  156.2439 H   0  0  0  0  0  0  0  0  0  0  0  0  # atno 8009 bound_to 7997
  155.9210  140.3397  155.6176 H   0  0  0  0  0  0  0  0  0  0  0  0  # atno 8010 bound_to 7997
  139.4832  144.5353  151.7656 H   0  0  0  0  0  0  0  0  0  0  0  0  # atno 10167 bound_to 10162
  156.5307  130.4654  149.6548 H   0  0  0  0  0  0  0  0  0  0  0  0  # atno 10718 bound_to 10713
  154.1693  135.6462  153.5005 H   0  0  0  0  0  0  0  0  0  0  0  0  # atno 10763 bound_to 10752
  153.0089  135.5379  154.6629 H   0  0  0  0  0  0  0  0  0  0  0  0  # atno 10764 bound_to 10752
  154.5964  135.2939  155.0553 H   0  0  0  0  0  0  0  0  0  0  0  0  # atno 10765 bound_to 10752
  141.1596  133.6823  156.6938 H   0  0  0  0  0  0  0  0  0  0  0  0  # atno 11005 bound_to 11000
  146.3237  140.3192  142.8632 LP  0  0  0  0  0  0  0  0  0  0  0  0  # atno 17320 bound_to 7965
  144.9309  140.7974  143.5690 LP  0  0  0  0  0  0  0  0  0  0  0  0  # atno 17321 bound_to 7965
  140.4884  144.1346  150.5945 LP  0  0  0  0  0  0  0  0  0  0  0  0  # atno 17342 bound_to 10162
  140.4199  143.2617  151.9729 LP  0  0  0  0  0  0  0  0  0  0  0  0  # atno 17343 bound_to 10162
  156.3063  130.7204  151.2087 LP  0  0  0  0  0  0  0  0  0  0  0  0  # atno 17370 bound_to 10713
  157.7422  131.0493  150.5041 LP  0  0  0  0  0  0  0  0  0  0  0  0  # atno 17371 bound_to 10713
  140.3010  134.8163  157.4098 LP  0  0  0  0  0  0  0  0  0  0  0  0  # atno 17394 bound_to 11000
  140.1261  134.5155  155.8143 LP  0  0  0  0  0  0  0  0  0  0  0  0  # atno 17395 bound_to 11000

$$$$
