AV-unprocessed.smi:3181|AV-procd|sdf|12149|dock7
  -GOLD-   2272017583D 1   1.00000     0.00000
 Structure written by MMmdl.
 42 43  0  0  0  0  0  0  0  0  2 V2000
  148.8350  134.7958  154.9805 C   0  0  0  0  0  0  0  0  0  0  0  0
  148.0199  133.8551  154.0769 C   0  0  2  0  0  0  0  0  0  0  0  0
  148.9023  132.9304  153.2146 C   0  0  0  0  0  0  0  0  0  0  0  0
  149.2065  131.6707  153.8679 N   0  0  0  0  0  0  0  0  0  0  0  0
  148.9519  130.4163  153.4923 C   0  0  0  0  0  0  0  0  0  0  0  0
  149.3813  129.5030  154.3514 N   0  0  0  0  0  0  0  0  0  0  0  0
  149.9337  130.3204  155.2968 C   0  0  0  0  0  0  0  0  0  0  0  0
  149.8563  131.6292  155.0544 N   0  0  0  0  0  0  0  0  0  0  0  0
  147.1320  134.6479  153.1962 N   0  3  0  0  0  0  0  0  0  0  0  0
  146.1536  133.8739  152.3998 C   0  0  1  0  0  0  0  0  0  0  0  0
  144.8966  134.7092  152.0827 C   0  0  0  0  0  0  0  0  0  0  0  0
  143.9067  133.9283  151.2036 C   0  0  0  0  0  0  0  0  0  0  0  0
  144.5716  133.4281  149.9056 C   0  0  2  0  0  0  0  0  0  0  0  0
  143.5660  132.7135  148.9879 C   0  0  0  0  0  0  0  0  0  0  0  0
  145.8397  132.5865  150.2012 C   0  0  2  0  0  0  0  0  0  0  0  0
  145.5497  131.1879  150.7831 C   0  0  0  0  0  0  0  0  0  0  0  0
  146.8119  133.3860  151.0944 C   0  0  0  0  0  0  0  0  0  0  0  0
  149.4399  134.2392  155.6964 H   0  0  0  0  0  0  0  0  0  0  0  0
  148.1827  135.4537  155.5552 H   0  0  0  0  0  0  0  0  0  0  0  0
  149.5074  135.4235  154.3949 H   0  0  0  0  0  0  0  0  0  0  0  0
  147.4126  133.2203  154.7243 H   0  0  0  0  0  0  0  0  0  0  0  0
  148.4003  132.7060  152.2724 H   0  0  0  0  0  0  0  0  0  0  0  0
  149.8388  133.4285  152.9571 H   0  0  0  0  0  0  0  0  0  0  0  0
  148.4405  130.1662  152.5741 H   0  0  0  0  0  0  0  0  0  0  0  0
  150.4063  129.9398  156.1905 H   0  0  0  0  0  0  0  0  0  0  0  0
  146.6371  135.3301  153.7528 H   0  0  0  0  0  0  0  0  0  0  0  0
  145.8675  132.9988  152.9847 H   0  0  0  0  0  0  0  0  0  0  0  0
  144.3949  135.0129  153.0018 H   0  0  0  0  0  0  0  0  0  0  0  0
  145.1845  135.6293  151.5719 H   0  0  0  0  0  0  0  0  0  0  0  0
  143.4994  133.0878  151.7663 H   0  0  0  0  0  0  0  0  0  0  0  0
  143.0586  134.5694  150.9610 H   0  0  0  0  0  0  0  0  0  0  0  0
  144.9038  134.3128  149.3600 H   0  0  0  0  0  0  0  0  0  0  0  0
  143.1038  131.8582  149.4810 H   0  0  0  0  0  0  0  0  0  0  0  0
  144.0482  132.3566  148.0775 H   0  0  0  0  0  0  0  0  0  0  0  0
  142.7635  133.3889  148.6905 H   0  0  0  0  0  0  0  0  0  0  0  0
  146.3486  132.4205  149.2505 H   0  0  0  0  0  0  0  0  0  0  0  0
  144.9748  131.2354  151.7074 H   0  0  0  0  0  0  0  0  0  0  0  0
  146.4773  130.6583  151.0015 H   0  0  0  0  0  0  0  0  0  0  0  0
  144.9920  130.5705  150.0794 H   0  0  0  0  0  0  0  0  0  0  0  0
  147.1792  134.2474  150.5341 H   0  0  0  0  0  0  0  0  0  0  0  0
  147.6900  132.7798  151.3211 H   0  0  0  0  0  0  0  0  0  0  0  0
  147.7247  135.1435  152.5457 H   0  0  0  0  0  0  0  0  0  0  0  0
  1  2  1  0  0  0  0
  1 18  1  0  0  0  0
  1 19  1  0  0  0  0
  1 20  1  0  0  0  0
  2  3  1  0  0  0  0
  2  9  1  0  0  0  0
  2 21  1  0  0  0  0
  3  4  1  0  0  0  0
  3 22  1  0  0  0  0
  3 23  1  0  0  0  0
  4  8  1  0  0  0  0
  4  5  1  0  0  0  0
  5  6  2  0  0  0  0
  5 24  1  0  0  0  0
  6  7  1  0  0  0  0
  7  8  2  0  0  0  0
  7 25  1  0  0  0  0
  9 10  1  0  0  0  0
  9 26  1  0  0  0  0
  9 42  1  0  0  0  0
 10 17  1  0  0  0  0
 10 11  1  0  0  0  0
 10 27  1  0  0  0  0
 11 12  1  0  0  0  0
 11 28  1  0  0  0  0
 11 29  1  0  0  0  0
 12 13  1  0  0  0  0
 12 30  1  0  0  0  0
 12 31  1  0  0  0  0
 13 14  1  0  0  0  0
 13 15  1  0  0  0  0
 13 32  1  0  0  0  0
 14 33  1  0  0  0  0
 14 34  1  0  0  0  0
 14 35  1  0  0  0  0
 15 16  1  0  0  0  0
 15 17  1  0  0  0  0
 15 36  1  0  0  0  0
 16 37  1  0  0  0  0
 16 38  1  0  0  0  0
 16 39  1  0  0  0  0
 17 40  1  0  0  0  0
 17 41  1  0  0  0  0
M  CHG  1   9   1
M  END
> <s_m_source_file>
AV-unprocessed.smi

> <i_m_source_file_index>
3181

> <i_lp_mmshare_version>
43012

> <i_f3d_flags>
0

> <s_epik_input>
bjFbY0hdbltjSF1uMVtDSDJdW0NAQEhdKFtDSDNdKVtOSF1bQ0BASF0yW0NIMl1bQ0gyXVtDQEBIXShbQ0gzXSlbQ0BASF0oW0NIM10pW0NIMl0y

> <s_epik_cmdline>
J2VwaWtfcHl0aG9uJywgJy1waCcsICc3LjAnLCAnLXRuJywgJzgnLCAnLW1hJywgJzIwMCcsICctbWV0YWxfYmluZGluZycsICctaW1hZScsICc8aW5maWxlLm1hZT4nLCAnLW9tYWUnLCAnPG91dGZpbGUubWFlPic=

> <r_lp_tautomer_probability>
1

> <r_epik_Ionization_Penalty>
0.000617007

> <r_epik_Ionization_Penalty_Charging>
0.000616215

> <r_epik_Ionization_Penalty_Neutral>
7.92544e-07

> <r_epik_State_Penalty>
0.000388807

> <r_epik_Charging_Adjusted_Penalty>
0.00100502

> <i_epik_Tot_Q>
1

> <i_epik_Tot_abs_Q>
1

> <r_epik_Metal_State_Penalty>
-0

> <b_epik_Metal_Only>
0

> <s_lp_Force_Field>
OPLS_2005

> <r_lp_Energy>
22.4909

> <b_lp_Chiralities_Consistent>
1

> <s_lp_Variant>
AV-unprocessed.smi:3181-15

> <Gold.Version>
5.8.1

> <Gold.Id.Protein>
6NUR|6NUR_protein|mol2

> <Gold.PLP.Fitness>
40.1277

> <Gold.PLP.PLP>
-32.5920

> <Gold.PLP.part.hbond>
-1.0000

> <Gold.PLP.part.metal>
0.0000

> <Gold.PLP.part.buried>
-2.8460

> <Gold.PLP.part.nonpolar>
-28.0803

> <Gold.PLP.part.repulsive>
0.0817

> <Gold.PLP.ligand.clash>
0.0000

> <Gold.PLP.ligand.torsion>
0.7285

> <Gold.PLP.Chemscore.Hbond>
2.0000

> <Gold.PLP.Chemscore.CHOScore>
0.9921

> <Gold.PLP.Chemscore.Metal>
0.0000

> <Gold.Chemscore.Hbonds>
donor molecule, donor type, donor heavy atom, donor atom, acceptor molecule, acceptor atom, score
      L1  H     9    42       P1  7948  2.00
      L1  C     5    24       P1 10747  0.97

> <Gold.PLP.Chemscore.Internal.Correction>
0.0165

> <Gold.Rescore>
     Score         DG    S(hbond)    S(metal)    S(lipo)     H(rot)  DE(clash)    DE(int)     intcor
     11.59     -12.48       0.95        0.00      78.81       2.11       0.02       0.87       ----

> <Gold.Chemscore.Fitness>
11.5906

> <Gold.Chemscore.DG>
-12.4841

> <Gold.Chemscore.ZeroCoef>
-5.4800

> <Gold.Chemscore.Hbond>
0.9533

> <Gold.Chemscore.Metal>
0.0000

> <Gold.Chemscore.Lipo>
78.8063

> <Gold.Chemscore.Internal_Hbond>
0.0000

> <Gold.Chemscore.DEClash>
0.0199

> <Gold.Chemscore.DEInternal>
0.8736

> <Gold.Chemscore.Rot>
2.1095

> <Gold.Chemscore.Internal.Correction>
   9.000000E+99

> <Gold.Chemscore.Hbonds>
donor molecule, donor type, donor heavy atom, donor atom, acceptor molecule, acceptor atom, score
      L1  H     9    42       P1  7948  0.99

> <Gold.Chemscore.Hbond.Weighted>
-3.1841

> <Gold.Chemscore.Metal.Weighted>
-0.0000

> <Gold.Chemscore.Lipo.Weighted>
-9.2203

> <Gold.Chemscore.Internal_Hbond.Weighted>
0.0000

> <Gold.Chemscore.DEClash.Weighted>
0.0199

> <Gold.Chemscore.DEInternal.Weighted>
0.8736

> <Gold.Chemscore.Rot.Weighted>
5.4003

> <Gold.Chemscore.Internal.Correction.Weighted>
   9.000000E+99

> <Gold.Protein.RotatedTorsions>
[ 6907 6896 6895 6894 ] final -129.93 input  -60.11 | X-H torsion
[ 7974 7965 7964 7962 ] final -138.76 input  175.53 | X-H torsion
[ 8008 7997 7996 7995 ] final   44.93 input   59.86 | X-H torsion
[ 10167 10162 10161 10158 ] final -131.57 input  -65.29 | X-H torsion
[ 10718 10713 10712 10709 ] final  -69.58 input   66.30 | X-H torsion
[ 10763 10752 10751 10750 ] final   45.36 input  -60.55 | X-H torsion
[ 11005 11000 10999 10996 ] final  -21.82 input  -57.11 | X-H torsion

> <Gold.Protein.ActiveResidues>
 VAL166  LYS551  ARG553  GLY616  TRP617  ASP618  TYR619  PRO620  LYS621  CYS622 
 ASP623  PHE694  ASN695  SER759  ASP760  ASP761  ALA762  ILE779  LEU786  VAL792 
 PHE793  MET794  SER795  GLU796  ALA797  LYS798  CYS799  TRP800  GLU811  SER814 

> <Gold.Protein.RotatedAtoms>
  150.9341  133.6733  159.2804 H   0  0  0  0  0  0  0  0  0  0  0  0  # atno 6907 bound_to 6896
  151.4144  135.0988  159.9605 H   0  0  0  0  0  0  0  0  0  0  0  0  # atno 6908 bound_to 6896
  152.5039  133.8806  159.7399 H   0  0  0  0  0  0  0  0  0  0  0  0  # atno 6909 bound_to 6896
  144.8732  140.6398  143.5253 H   0  0  0  0  0  0  0  0  0  0  0  0  # atno 7974 bound_to 7965
  155.3274  140.3400  155.4240 H   0  0  0  0  0  0  0  0  0  0  0  0  # atno 8008 bound_to 7997
  156.1878  140.1687  156.8187 H   0  0  0  0  0  0  0  0  0  0  0  0  # atno 8009 bound_to 7997
  154.5407  140.0725  156.8488 H   0  0  0  0  0  0  0  0  0  0  0  0  # atno 8010 bound_to 7997
  139.9176  143.6420  152.2561 H   0  0  0  0  0  0  0  0  0  0  0  0  # atno 10167 bound_to 10162
  156.0448  130.4315  150.2169 H   0  0  0  0  0  0  0  0  0  0  0  0  # atno 10718 bound_to 10713
  152.9826  135.6042  154.3424 H   0  0  0  0  0  0  0  0  0  0  0  0  # atno 10763 bound_to 10752
  154.3120  135.2771  155.2563 H   0  0  0  0  0  0  0  0  0  0  0  0  # atno 10764 bound_to 10752
  154.4768  135.5927  153.6417 H   0  0  0  0  0  0  0  0  0  0  0  0  # atno 10765 bound_to 10752
  140.8598  133.7796  156.0061 H   0  0  0  0  0  0  0  0  0  0  0  0  # atno 11005 bound_to 11000
  145.4091  139.1583  143.4136 LP  0  0  0  0  0  0  0  0  0  0  0  0  # atno 17320 bound_to 7965
  146.2945  140.4193  142.8727 LP  0  0  0  0  0  0  0  0  0  0  0  0  # atno 17321 bound_to 7965
  139.6889  144.7649  151.1474 LP  0  0  0  0  0  0  0  0  0  0  0  0  # atno 17342 bound_to 10162
  140.7670  143.5617  150.9092 LP  0  0  0  0  0  0  0  0  0  0  0  0  # atno 17343 bound_to 10162
  157.0260  130.9993  151.3326 LP  0  0  0  0  0  0  0  0  0  0  0  0  # atno 17370 bound_to 10713
  157.5311  130.8059  149.7918 LP  0  0  0  0  0  0  0  0  0  0  0  0  # atno 17371 bound_to 10713
  140.8696  134.2742  157.5197 LP  0  0  0  0  0  0  0  0  0  0  0  0  # atno 17394 bound_to 11000
  139.8706  134.9560  156.4225 LP  0  0  0  0  0  0  0  0  0  0  0  0  # atno 17395 bound_to 11000

$$$$
