AV-unprocessed.smi:2562|AV-procd|sdf|10042|dock3
  -GOLD-   2272014 83D 1   1.00000     0.00000
 Structure written by MMmdl.
 31 32  0  0  0  0  0  0  0  0  2 V2000
  152.1016  144.4456  160.0274 C   0  0  0  0  0  0  0  0  0  0  0  0
  151.6016  143.2641  159.1891 C   0  0  0  0  0  0  0  0  0  0  0  0
  151.3134  143.6551  157.7326 C   0  0  0  0  0  0  0  0  0  0  0  0
  150.9920  142.4749  156.8751 C   0  0  0  0  0  0  0  0  0  0  0  0
  149.9911  142.4860  155.9923 N   0  0  0  0  0  0  0  0  0  0  0  0
  149.9442  141.2967  155.3551 N   0  0  0  0  0  0  0  0  0  0  0  0
  150.9694  140.6463  155.9039 C   0  0  0  0  0  0  0  0  0  0  0  0
  151.2759  139.2335  155.5148 C   0  0  2  0  0  0  0  0  0  0  0  0
  150.3548  138.7255  154.3895 C   0  0  0  0  0  0  0  0  0  0  0  0
  150.6335  137.3021  154.1168 N   0  3  0  0  0  0  0  0  0  0  0  0
  150.5272  136.4854  155.3425 C   0  0  0  0  0  0  0  0  0  0  0  0
  151.4297  137.0645  156.4467 C   0  0  0  0  0  0  0  0  0  0  0  0
  151.0930  138.4288  156.6779 O   0  0  0  0  0  0  0  0  0  0  0  0
  151.6562  141.3241  156.8744 N   0  0  0  0  0  0  0  0  0  0  0  0
  149.3453  143.2400  155.8042 H   0  0  0  0  0  0  0  0  0  0  0  0
  152.2937  144.1385  161.0556 H   0  0  0  0  0  0  0  0  0  0  0  0
  151.3655  145.2496  160.0523 H   0  0  0  0  0  0  0  0  0  0  0  0
  153.0292  144.8515  159.6228 H   0  0  0  0  0  0  0  0  0  0  0  0
  152.3453  142.4669  159.2137 H   0  0  0  0  0  0  0  0  0  0  0  0
  150.6977  142.8584  159.6449 H   0  0  0  0  0  0  0  0  0  0  0  0
  150.4747  144.3514  157.6923 H   0  0  0  0  0  0  0  0  0  0  0  0
  152.1715  144.1777  157.3078 H   0  0  0  0  0  0  0  0  0  0  0  0
  152.3201  139.1758  155.2004 H   0  0  0  0  0  0  0  0  0  0  0  0
  149.3072  138.8349  154.6745 H   0  0  0  0  0  0  0  0  0  0  0  0
  150.5030  139.3043  153.4774 H   0  0  0  0  0  0  0  0  0  0  0  0
  149.9820  136.9579  153.4257 H   0  0  0  0  0  0  0  0  0  0  0  0
  149.4883  136.4707  155.6750 H   0  0  0  0  0  0  0  0  0  0  0  0
  150.8075  135.4562  155.1171 H   0  0  0  0  0  0  0  0  0  0  0  0
  151.2963  136.5052  157.3728 H   0  0  0  0  0  0  0  0  0  0  0  0
  152.4827  136.9803  156.1736 H   0  0  0  0  0  0  0  0  0  0  0  0
  151.5728  137.2207  153.7542 H   0  0  0  0  0  0  0  0  0  0  0  0
  1  2  1  0  0  0  0
  1 16  1  0  0  0  0
  1 17  1  0  0  0  0
  1 18  1  0  0  0  0
  2  3  1  0  0  0  0
  2 19  1  0  0  0  0
  2 20  1  0  0  0  0
  3 21  1  0  0  0  0
  3 22  1  0  0  0  0
  3  4  1  0  0  0  0
  4 14  2  0  0  0  0
  4  5  1  0  0  0  0
  5  6  1  0  0  0  0
  5 15  1  0  0  0  0
  6  7  2  0  0  0  0
  7 14  1  0  0  0  0
  7  8  1  0  0  0  0
  8 13  1  0  0  0  0
  8  9  1  0  0  0  0
  8 23  1  0  0  0  0
  9 10  1  0  0  0  0
  9 24  1  0  0  0  0
  9 25  1  0  0  0  0
 10 11  1  0  0  0  0
 10 26  1  0  0  0  0
 10 31  1  0  0  0  0
 11 12  1  0  0  0  0
 11 27  1  0  0  0  0
 11 28  1  0  0  0  0
 12 13  1  0  0  0  0
 12 29  1  0  0  0  0
 12 30  1  0  0  0  0
M  CHG  1  10   1
M  END
> <s_m_source_file>
AV-unprocessed.smi

> <i_m_source_file_index>
2562

> <i_lp_mmshare_version>
43012

> <i_f3d_flags>
0

> <s_epik_input>
W0NIM11bQ0gyXVtDSDJdYzFuW25IXWMobjEpW0NAQEhdMltDSDJdW05IXVtDSDJdW0NIMl1PMg==

> <s_epik_cmdline>
J2VwaWtfcHl0aG9uJywgJy1waCcsICc3LjAnLCAnLXRuJywgJzgnLCAnLW1hJywgJzIwMCcsICctbWV0YWxfYmluZGluZycsICctaW1hZScsICc8aW5maWxlLm1hZT4nLCAnLW9tYWUnLCAnPG91dGZpbGUubWFlPic=

> <r_lp_tautomer_probability>
0.948284

> <r_epik_Ionization_Penalty>
0.10647

> <r_epik_Ionization_Penalty_Charging>
0.100865

> <r_epik_Ionization_Penalty_Neutral>
0.0056057

> <r_epik_State_Penalty>
0.375056

> <r_epik_Charging_Adjusted_Penalty>
0.47592

> <i_epik_Tot_Q>
1

> <i_epik_Tot_abs_Q>
1

> <r_epik_Metal_State_Penalty>
0.497514

> <b_epik_Metal_Only>
0

> <s_lp_Force_Field>
OPLS_2005

> <r_lp_Energy>
10.3016

> <b_lp_Chiralities_Consistent>
1

> <s_lp_Variant>
AV-unprocessed.smi:2562-1

> <Gold.Version>
5.8.1

> <Gold.Id.Protein>
6NUR|6NUR_protein|mol2

> <Gold.PLP.Fitness>
34.8535

> <Gold.PLP.PLP>
-26.3040

> <Gold.PLP.part.hbond>
-3.3316

> <Gold.PLP.part.metal>
0.0000

> <Gold.PLP.part.buried>
-3.2530

> <Gold.PLP.part.nonpolar>
-21.3591

> <Gold.PLP.part.repulsive>
0.3370

> <Gold.PLP.ligand.clash>
0.0000

> <Gold.PLP.ligand.torsion>
0.2327

> <Gold.PLP.Chemscore.Hbond>
3.0000

> <Gold.PLP.Chemscore.CHOScore>
0.0000

> <Gold.PLP.Chemscore.Metal>
0.0000

> <Gold.Chemscore.Hbonds>
donor molecule, donor type, donor heavy atom, donor atom, acceptor molecule, acceptor atom, score
      L1  H     5    15       P1  8028  1.00
      L1  H    10    26       P1  7948  2.00

> <Gold.PLP.Chemscore.Internal.Correction>
0.0148

> <Gold.Rescore>
     Score         DG    S(hbond)    S(metal)    S(lipo)     H(rot)  DE(clash)    DE(int)     intcor
     14.28     -14.41       1.89        0.00      55.51       1.51       0.11       0.02       ----

> <Gold.Chemscore.Fitness>
14.2775

> <Gold.Chemscore.DG>
-14.4094

> <Gold.Chemscore.ZeroCoef>
-5.4800

> <Gold.Chemscore.Hbond>
1.8876

> <Gold.Chemscore.Metal>
0.0000

> <Gold.Chemscore.Lipo>
55.5068

> <Gold.Chemscore.Internal_Hbond>
0.0000

> <Gold.Chemscore.DEClash>
0.1113

> <Gold.Chemscore.DEInternal>
0.0206

> <Gold.Chemscore.Rot>
1.5115

> <Gold.Chemscore.Internal.Correction>
   9.000000E+99

> <Gold.Chemscore.Hbonds>
donor molecule, donor type, donor heavy atom, donor atom, acceptor molecule, acceptor atom, score
      L1  H     5    15       P1  8028  0.95
      L1  H    10    26       P1  7948  0.25

> <Gold.Chemscore.Hbond.Weighted>
-6.3045

> <Gold.Chemscore.Metal.Weighted>
-0.0000

> <Gold.Chemscore.Lipo.Weighted>
-6.4943

> <Gold.Chemscore.Internal_Hbond.Weighted>
0.0000

> <Gold.Chemscore.DEClash.Weighted>
0.1113

> <Gold.Chemscore.DEInternal.Weighted>
0.0206

> <Gold.Chemscore.Rot.Weighted>
3.8695

> <Gold.Chemscore.Internal.Correction.Weighted>
   9.000000E+99

> <Gold.Protein.RotatedTorsions>
[ 6907 6896 6895 6894 ] final  174.37 input  -60.11 | X-H torsion
[ 7974 7965 7964 7962 ] final  -53.51 input  175.53 | X-H torsion
[ 8008 7997 7996 7995 ] final   13.76 input   59.86 | X-H torsion
[ 10167 10162 10161 10158 ] final   48.90 input  -65.29 | X-H torsion
[ 10718 10713 10712 10709 ] final  169.99 input   66.30 | X-H torsion
[ 10763 10752 10751 10750 ] final  105.30 input  -60.55 | X-H torsion
[ 11005 11000 10999 10996 ] final -145.97 input  -57.11 | X-H torsion

> <Gold.Protein.ActiveResidues>
 VAL166  LYS551  ARG553  GLY616  TRP617  ASP618  TYR619  PRO620  LYS621  CYS622 
 ASP623  PHE694  ASN695  SER759  ASP760  ASP761  ALA762  ILE779  LEU786  VAL792 
 PHE793  MET794  SER795  GLU796  ALA797  LYS798  CYS799  TRP800  GLU811  SER814 

> <Gold.Protein.RotatedAtoms>
  151.7533  133.3329  159.3397 H   0  0  0  0  0  0  0  0  0  0  0  0  # atno 6907 bound_to 6896
  150.7526  134.6172  159.6126 H   0  0  0  0  0  0  0  0  0  0  0  0  # atno 6908 bound_to 6896
  152.3454  134.7081  160.0303 H   0  0  0  0  0  0  0  0  0  0  0  0  # atno 6909 bound_to 6896
  145.8960  140.8033  142.9767 H   0  0  0  0  0  0  0  0  0  0  0  0  # atno 7974 bound_to 7965
  154.8389  140.2911  155.5672 H   0  0  0  0  0  0  0  0  0  0  0  0  # atno 8008 bound_to 7997
  156.3010  140.2518  156.3259 H   0  0  0  0  0  0  0  0  0  0  0  0  # atno 8009 bound_to 7997
  154.9147  140.0387  157.1955 H   0  0  0  0  0  0  0  0  0  0  0  0  # atno 8010 bound_to 7997
  140.2884  144.3074  150.6246 H   0  0  0  0  0  0  0  0  0  0  0  0  # atno 10167 bound_to 10162
  157.0147  131.0214  151.2793 H   0  0  0  0  0  0  0  0  0  0  0  0  # atno 10718 bound_to 10713
  153.3775  135.3914  155.1833 H   0  0  0  0  0  0  0  0  0  0  0  0  # atno 10763 bound_to 10752
  154.8703  135.3717  154.4899 H   0  0  0  0  0  0  0  0  0  0  0  0  # atno 10764 bound_to 10752
  153.5373  135.7085  153.5715 H   0  0  0  0  0  0  0  0  0  0  0  0  # atno 10765 bound_to 10752
  140.7868  134.3015  157.5027 H   0  0  0  0  0  0  0  0  0  0  0  0  # atno 11005 bound_to 11000
  144.6733  140.1602  143.7423 LP  0  0  0  0  0  0  0  0  0  0  0  0  # atno 17320 bound_to 7965
  145.8850  139.2344  143.1583 LP  0  0  0  0  0  0  0  0  0  0  0  0  # atno 17321 bound_to 7965
  140.5753  143.2177  151.7527 LP  0  0  0  0  0  0  0  0  0  0  0  0  # atno 17342 bound_to 10162
  139.4944  144.4159  152.0031 LP  0  0  0  0  0  0  0  0  0  0  0  0  # atno 17343 bound_to 10162
  157.5294  130.8049  149.7900 LP  0  0  0  0  0  0  0  0  0  0  0  0  # atno 17370 bound_to 10713
  156.0123  130.3828  150.2222 LP  0  0  0  0  0  0  0  0  0  0  0  0  # atno 17371 bound_to 10713
  139.8736  134.9351  156.3624 LP  0  0  0  0  0  0  0  0  0  0  0  0  # atno 17394 bound_to 11000
  140.9429  133.7502  156.0170 LP  0  0  0  0  0  0  0  0  0  0  0  0  # atno 17395 bound_to 11000

$$$$
