#       Name:                AV-unprocessed.smi:2995
#       Creating user name   scv26
#       Creation time:       Fri Mar 27 16:33:05 2020


#       File generated by GOLD software.
#

@<TRIPOS>MOLECULE
AV-unprocessed.smi:2995
    52    54     1
SMALL
NO_CHARGES


@<TRIPOS>ATOM
      1 ****        -4.5438  -3.8285   0.9696 C.3            1 S1                 0.0000
      2 ****        -5.4146  -2.6561   0.5536 C.ar           1 S1                 0.0000
      3 ****        -6.7800  -2.8628   0.2674 C.ar           1 S1                 0.0000
      4 ****        -7.5654  -1.7584  -0.1143 C.ar           1 S1                 0.0000
      5 ****        -7.0796  -0.5043  -0.2139 N.ar           1 S1                 0.0000
      6 ****        -5.7720  -0.3084   0.0580 C.ar           1 S1                 0.0000
      7 ****        -4.8856  -1.3482   0.4352 C.ar           1 S1                 0.0000
      8 ****        -3.5148  -1.1227   0.7412 N.am           1 S1                 0.0000
      9 ****        -2.7034  -0.1741   0.2438 C.2            1 S1                 0.0000
     10 ****        -3.0292   0.6771  -0.5837 O.2            1 S1                 0.0000
     11 ****        -1.4636  -0.2811   0.7438 N.am           1 S1                 0.0000
     12 ****        -0.3387   0.5756   0.3793 C.3            1 S1                 0.0000
     13 ****         0.3087   0.1010  -0.9318 C.3            1 S1                 0.0000
     14 ****         1.5444   0.9466  -1.2788 C.3            1 S1                 0.0000
     15 ****         2.5489   0.9318  -0.1788 N.4            1 S1                 1.0000
     16 ****         3.8044   1.6554  -0.5349 C.3            1 S1                 0.0000
     17 ****         4.5180   1.0821  -1.7691 C.3            1 S1                 0.0000
     18 ****         5.9734   1.5518  -1.6619 C.3            1 S1                 0.0000
     19 ****         6.1981   1.9239  -0.1904 C.3            1 S1                 0.0000
     20 ****         4.8993   1.5704   0.5386 C.3            1 S1                 0.0000
     21 ****         1.9467   1.4029   1.1003 C.3            1 S1                 0.0000
     22 ****         0.7174   0.5654   1.4930 C.3            1 S1                 0.0000
     23 ****        -5.1113  -4.7594   0.9836 H              1 S1                 0.0000
     24 ****        -4.1379  -3.6653   1.9682 H              1 S1                 0.0000
     25 ****        -3.7134  -3.9512   0.2737 H              1 S1                 0.0000
     26 ****        -7.2217  -3.8460   0.3375 H              1 S1                 0.0000
     27 ****        -8.6141  -1.8851  -0.3395 H              1 S1                 0.0000
     28 ****        -5.4453   0.7177  -0.0104 H              1 S1                 0.0000
     29 ****        -3.0842  -1.8117   1.3401 H              1 S1                 0.0000
     30 ****        -1.2841  -1.0110   1.4180 H              1 S1                 0.0000
     31 ****        -0.6950   1.6001   0.2540 H              1 S1                 0.0000
     32 ****         0.5982  -0.9476  -0.8463 H              1 S1                 0.0000
     33 ****        -0.4106   0.1564  -1.7499 H              1 S1                 0.0000
     34 ****         1.9752   0.5510  -2.1978 H              1 S1                 0.0000
     35 ****         1.2474   1.9759  -1.4864 H              1 S1                 0.0000
     36 ****         3.5717   2.7064  -0.7175 H              1 S1                 0.0000
     37 ****         4.4902  -0.0084  -1.7418 H              1 S1                 0.0000
     38 ****         4.0629   1.4012  -2.7073 H              1 S1                 0.0000
     39 ****         6.6620   0.7732  -1.9926 H              1 S1                 0.0000
     40 ****         6.1408   2.4239  -2.2952 H              1 S1                 0.0000
     41 ****         7.0560   1.4060   0.2397 H              1 S1                 0.0000
     42 ****         6.3897   2.9947  -0.1093 H              1 S1                 0.0000
     43 ****         4.7214   2.2368   1.3833 H              1 S1                 0.0000
     44 ****         4.9664   0.5520   0.9247 H              1 S1                 0.0000
     45 ****         2.6701   1.3377   1.9121 H              1 S1                 0.0000
     46 ****         1.6703   2.4544   1.0066 H              1 S1                 0.0000
     47 ****         0.2888   0.9544   2.4175 H              1 S1                 0.0000
     48 ****         1.0289  -0.4591   1.7029 H              1 S1                 0.0000
     49 ****         2.8075  -0.0342  -0.0364 H              1 S1                 0.0000
     50 ****        -7.6700   0.2572  -0.4810 LP             1 S1                 0.0000
     51 ****        -3.9638   0.6973  -0.9386 LP             1 S1                 0.0000
     52 ****        -2.3592   1.3482  -0.9009 LP             1 S1                 0.0000
@<TRIPOS>BOND
    1    1    2 1     
    2    1   23 1     
    3    1   24 1     
    4    1   25 1     
    5    2    7 ar    
    6    2    3 ar    
    7    3    4 ar    
    8    3   26 1     
    9    4    5 ar    
   10    4   27 1     
   11    5    6 ar    
   12    6    7 ar    
   13    6   28 1     
   14    7    8 1     
   15    8    9 am    
   16    8   29 1     
   17    9   10 2     
   18    9   11 am    
   19   11   12 1     
   20   11   30 1     
   21   12   22 1     
   22   12   13 1     
   23   12   31 1     
   24   13   14 1     
   25   13   32 1     
   26   13   33 1     
   27   14   15 1     
   28   14   34 1     
   29   14   35 1     
   30   15   16 1     
   31   15   21 1     
   32   15   49 1     
   33   16   20 1     
   34   16   17 1     
   35   16   36 1     
   36   17   18 1     
   37   17   37 1     
   38   17   38 1     
   39   18   19 1     
   40   18   39 1     
   41   18   40 1     
   42   19   20 1     
   43   19   41 1     
   44   19   42 1     
   45   20   43 1     
   46   20   44 1     
   47   21   22 1     
   48   21   45 1     
   49   21   46 1     
   50   22   47 1     
   51   22   48 1     
   52    5   50 1     
   53   10   51 1     
   54   10   52 1     
@<TRIPOS>SUBSTRUCTURE
      1 S1             1
@<TRIPOS>SET
LONE_PAIRS      STATIC     ATOMS    <user>   **** ""
3 50 51 52
DONOR_HYDROGENS      STATIC     ATOMS    <user>   **** ""
3 29 30 49
ATOM$BLUE        STATIC     ATOMS    COLORGROUP SYSTEM
3 50 51 52
ATOM$RED        STATIC     ATOMS    COLORGROUP SYSTEM
3 29 30 49
