AV-unprocessed.smi:37|AV-procd|sdf|317|dock2
  -GOLD-   2262016133D 1   1.00000     0.00000
 Structure written by MMmdl.
 44 45  0  0  0  0  0  0  0  0  1 V2000
  147.5557  135.6515  162.3206 C   0  0  0  0  0  0  0  0  0  0  0  0
  146.5929  135.8105  161.1340 C   0  0  0  0  0  0  0  0  0  0  0  0
  147.0235  136.8858  160.1340 C   0  0  0  0  0  0  0  0  0  0  0  0
  146.3795  137.9219  159.9589 O   0  0  0  0  0  0  0  0  0  0  0  0
  148.1553  136.5512  159.4956 O   0  0  0  0  0  0  0  0  0  0  0  0
  148.8439  137.5239  158.7246 C   0  0  0  0  0  0  0  0  0  0  0  0
  149.8648  136.8354  157.8029 C   0  0  2  0  0  0  0  0  0  0  0  0
  150.9440  136.3903  158.6252 O   0  0  0  0  0  0  0  0  0  0  0  0
  152.1550  136.7424  158.0357 C   0  0  2  0  0  0  0  0  0  0  0  0
  153.2233  136.8942  159.0931 N   0  0  0  0  0  0  0  0  0  0  0  0
  153.0226  136.4997  160.4109 C   0  0  0  0  0  0  0  0  0  0  0  0
  153.9682  136.6360  161.3703 C   0  0  0  0  0  0  0  0  0  0  0  0
  153.7012  136.2384  162.6260 F   0  0  0  0  0  0  0  0  0  0  0  0
  155.2707  137.2164  161.0562 C   0  0  0  0  0  0  0  0  0  0  0  0
  156.1909  137.3765  161.8555 O   0  0  0  0  0  0  0  0  0  0  0  0
  155.4238  137.6043  159.7218 N   0  0  0  0  0  0  0  0  0  0  0  0
  154.4566  137.4724  158.7240 C   0  0  0  0  0  0  0  0  0  0  0  0
  154.6931  137.8548  157.5787 O   0  0  0  0  0  0  0  0  0  0  0  0
  151.8846  138.0410  157.2767 C   0  0  2  0  0  0  0  0  0  0  0  0
  151.8174  139.6190  158.5056 Br  0  0  0  0  0  0  0  0  0  0  0  0
  150.5018  137.7335  156.7206 C   0  0  2  0  0  0  0  0  0  0  0  0
  149.7463  138.9012  156.4168 O   0  0  0  0  0  0  0  0  0  0  0  0
  150.1848  139.7773  155.4985 C   0  0  0  0  0  0  0  0  0  0  0  0
  151.1716  139.6267  154.7760 O   0  0  0  0  0  0  0  0  0  0  0  0
  149.3069  141.0286  155.4427 C   0  0  0  0  0  0  0  0  0  0  0  0
  148.5622  141.1968  154.1102 C   0  0  0  0  0  0  0  0  0  0  0  0
  156.3076  138.0162  159.4598 H   0  0  0  0  0  0  0  0  0  0  0  0
  147.2055  134.8712  162.9965 H   0  0  0  0  0  0  0  0  0  0  0  0
  147.6342  136.5746  162.8964 H   0  0  0  0  0  0  0  0  0  0  0  0
  148.5562  135.3735  161.9875 H   0  0  0  0  0  0  0  0  0  0  0  0
  146.5043  134.8616  160.6046 H   0  0  0  0  0  0  0  0  0  0  0  0
  145.5972  136.0608  161.5011 H   0  0  0  0  0  0  0  0  0  0  0  0
  148.1490  138.1261  158.1379 H   0  0  0  0  0  0  0  0  0  0  0  0
  149.3585  138.2006  159.4078 H   0  0  0  0  0  0  0  0  0  0  0  0
  149.4053  135.9636  157.3355 H   0  0  0  0  0  0  0  0  0  0  0  0
  152.4744  135.9223  157.3881 H   0  0  0  0  0  0  0  0  0  0  0  0
  152.0748  136.0753  160.7080 H   0  0  0  0  0  0  0  0  0  0  0  0
  152.6372  138.2254  156.5095 H   0  0  0  0  0  0  0  0  0  0  0  0
  150.6178  137.1204  155.8249 H   0  0  0  0  0  0  0  0  0  0  0  0
  148.5886  140.9829  156.2618 H   0  0  0  0  0  0  0  0  0  0  0  0
  149.9363  141.9002  155.6240 H   0  0  0  0  0  0  0  0  0  0  0  0
  147.9513  142.0994  154.1242 H   0  0  0  0  0  0  0  0  0  0  0  0
  147.8992  140.3530  153.9152 H   0  0  0  0  0  0  0  0  0  0  0  0
  149.2574  141.2820  153.2742 H   0  0  0  0  0  0  0  0  0  0  0  0
  1  2  1  0  0  0  0
  1 28  1  0  0  0  0
  1 29  1  0  0  0  0
  1 30  1  0  0  0  0
  2  3  1  0  0  0  0
  2 31  1  0  0  0  0
  2 32  1  0  0  0  0
  3  4  2  0  0  0  0
  3  5  1  0  0  0  0
  5  6  1  0  0  0  0
  6  7  1  0  0  0  0
  6 33  1  0  0  0  0
  6 34  1  0  0  0  0
  7 21  1  0  0  0  0
  7  8  1  0  0  0  0
  7 35  1  0  0  0  0
  8  9  1  0  0  0  0
  9 10  1  0  0  0  0
  9 19  1  0  0  0  0
  9 36  1  0  0  0  0
 10 17  1  0  0  0  0
 10 11  1  0  0  0  0
 11 12  2  0  0  0  0
 11 37  1  0  0  0  0
 12 13  1  0  0  0  0
 12 14  1  0  0  0  0
 14 15  2  0  0  0  0
 14 16  1  0  0  0  0
 16 27  1  0  0  0  0
 16 17  1  0  0  0  0
 17 18  2  0  0  0  0
 19 20  1  0  0  0  0
 19 21  1  0  0  0  0
 19 38  1  0  0  0  0
 21 22  1  0  0  0  0
 21 39  1  0  0  0  0
 22 23  1  0  0  0  0
 23 24  2  0  0  0  0
 23 25  1  0  0  0  0
 25 26  1  0  0  0  0
 25 40  1  0  0  0  0
 25 41  1  0  0  0  0
 26 42  1  0  0  0  0
 26 43  1  0  0  0  0
 26 44  1  0  0  0  0
M  END
> <s_m_source_file>
AV-unprocessed.smi

> <i_m_source_file_index>
37

> <i_lp_mmshare_version>
43012

> <i_f3d_flags>
0

> <s_epik_input>
W0NIM11bQ0gyXUMoPU8pT1tDSDJdW0NAQEhdMU9bQ0BASF0objJbY0hdYyhGKWMoPU8pW25IXWMyPU8pW0NAQEhdKEJyKVtDQEhdMU9DKD1PKVtDSDJdW0NIM10=

> <s_epik_cmdline>
J2VwaWtfcHl0aG9uJywgJy1waCcsICc3LjAnLCAnLXRuJywgJzgnLCAnLW1hJywgJzIwMCcsICctbWV0YWxfYmluZGluZycsICctaW1hZScsICc8aW5maWxlLm1hZT4nLCAnLW9tYWUnLCAnPG91dGZpbGUubWFlPic=

> <r_lp_tautomer_probability>
0.999537

> <r_epik_Ionization_Penalty>
0.104106

> <r_epik_Ionization_Penalty_Charging>
0.104106

> <r_epik_Ionization_Penalty_Neutral>
3.94675e-16

> <r_epik_State_Penalty>
0.0940182

> <r_epik_Charging_Adjusted_Penalty>
0.198124

> <i_epik_Tot_Q>
0

> <i_epik_Tot_abs_Q>
0

> <r_epik_Metal_State_Penalty>
3.05314

> <b_epik_Metal_Only>
0

> <s_epik_Chemistry_Notes>
This compound has an ester and may undergo hydrolysis at high or low pH. This compound contains an acetal/aminal-like group ( X-CH(R)-Y where X, Y are N, S, or O) that may be acid/base labile, releasing an aldehyde.

> <s_lp_Force_Field>
OPLS_2005

> <r_lp_Energy>
26.9129

> <b_lp_Chiralities_Consistent>
1

> <s_lp_Variant>
AV-unprocessed.smi:37-15

> <Gold.Version>
5.8.1

> <Gold.Id.Protein>
6NUR|6NUR_protein|mol2

> <Gold.PLP.Fitness>
48.1567

> <Gold.PLP.PLP>
-37.0510

> <Gold.PLP.part.hbond>
-3.9382

> <Gold.PLP.part.metal>
0.0000

> <Gold.PLP.part.buried>
-5.8050

> <Gold.PLP.part.nonpolar>
-27.4156

> <Gold.PLP.part.repulsive>
0.0783

> <Gold.PLP.ligand.clash>
0.0000

> <Gold.PLP.ligand.torsion>
0.5377

> <Gold.PLP.Chemscore.Hbond>
3.9920

> <Gold.PLP.Chemscore.CHOScore>
0.0000

> <Gold.PLP.Chemscore.Metal>
0.0000

> <Gold.Chemscore.Hbonds>
donor molecule, donor type, donor heavy atom, donor atom, acceptor molecule, acceptor atom, score
      P1  H  6896  6908       L1     8  0.82
      P1  H  6934  6947       L1     4  0.99
      P1  H  7989  7998       L1    24  1.00
      P1  H  7997  8008       L1    18  0.39

> <Gold.PLP.Chemscore.Internal.Correction>
0.2052

> <Gold.Rescore>
     Score         DG    S(hbond)    S(metal)    S(lipo)     H(rot)  DE(clash)    DE(int)     intcor
     15.34     -17.16       3.88        0.00      61.90       3.33       0.01       1.80       ----

> <Gold.Chemscore.Fitness>
15.3447

> <Gold.Chemscore.DG>
-17.1603

> <Gold.Chemscore.ZeroCoef>
-5.4800

> <Gold.Chemscore.Hbond>
3.8813

> <Gold.Chemscore.Metal>
0.0000

> <Gold.Chemscore.Lipo>
61.9001

> <Gold.Chemscore.Internal_Hbond>
0.0000

> <Gold.Chemscore.DEClash>
0.0126

> <Gold.Chemscore.DEInternal>
1.8030

> <Gold.Chemscore.Rot>
3.3303

> <Gold.Chemscore.Internal.Correction>
   9.000000E+99

> <Gold.Chemscore.Hbonds>
donor molecule, donor type, donor heavy atom, donor atom, acceptor molecule, acceptor atom, score
      P1  H  6896  6908       L1     8  0.61
      P1  H  6934  6947       L1     4  0.42
      P1  H  7989  7998       L1    24  0.99
      P1  H  7997  8008       L1    18  0.38

> <Gold.Chemscore.Hbond.Weighted>
-12.9636

> <Gold.Chemscore.Metal.Weighted>
-0.0000

> <Gold.Chemscore.Lipo.Weighted>
-7.2423

> <Gold.Chemscore.Internal_Hbond.Weighted>
0.0000

> <Gold.Chemscore.DEClash.Weighted>
0.0126

> <Gold.Chemscore.DEInternal.Weighted>
1.8030

> <Gold.Chemscore.Rot.Weighted>
8.5256

> <Gold.Chemscore.Internal.Correction.Weighted>
   9.000000E+99

> <Gold.Protein.RotatedTorsions>
[ 6907 6896 6895 6894 ] final -143.72 input  -60.11 | X-H torsion
[ 7974 7965 7964 7962 ] final   69.38 input  175.53 | X-H torsion
[ 8008 7997 7996 7995 ] final -113.05 input   59.86 | X-H torsion
[ 10167 10162 10161 10158 ] final   72.69 input  -65.29 | X-H torsion
[ 10718 10713 10712 10709 ] final  -32.56 input   66.30 | X-H torsion
[ 10763 10752 10751 10750 ] final -135.92 input  -60.55 | X-H torsion
[ 11005 11000 10999 10996 ] final   62.12 input  -57.11 | X-H torsion

> <Gold.Protein.ActiveResidues>
 VAL166  LYS551  ARG553  GLY616  TRP617  ASP618  TYR619  PRO620  LYS621  CYS622 
 ASP623  PHE694  ASN695  SER759  ASP760  ASP761  ALA762  ILE779  LEU786  VAL792 
 PHE793  MET794  SER795  GLU796  ALA797  LYS798  CYS799  TRP800  GLU811  SER814 

> <Gold.Protein.RotatedAtoms>
  151.1043  133.5220  159.2608 H   0  0  0  0  0  0  0  0  0  0  0  0  # atno 6907 bound_to 6896
  151.2039  135.0453  159.8893 H   0  0  0  0  0  0  0  0  0  0  0  0  # atno 6908 bound_to 6896
  152.5445  134.0868  159.8313 H   0  0  0  0  0  0  0  0  0  0  0  0  # atno 6909 bound_to 6896
  145.7911  139.2934  143.1210 H   0  0  0  0  0  0  0  0  0  0  0  0  # atno 7974 bound_to 7965
  155.0147  140.0393  157.2413 H   0  0  0  0  0  0  0  0  0  0  0  0  # atno 8008 bound_to 7997
  154.7429  140.2752  155.6334 H   0  0  0  0  0  0  0  0  0  0  0  0  # atno 8009 bound_to 7997
  156.2868  140.2662  156.2162 H   0  0  0  0  0  0  0  0  0  0  0  0  # atno 8010 bound_to 7997
  140.0326  144.5454  150.7495 H   0  0  0  0  0  0  0  0  0  0  0  0  # atno 10167 bound_to 10162
  156.3733  130.4343  149.7527 H   0  0  0  0  0  0  0  0  0  0  0  0  # atno 10718 bound_to 10713
  154.8694  135.3688  154.4977 H   0  0  0  0  0  0  0  0  0  0  0  0  # atno 10763 bound_to 10752
  153.5620  135.7022  153.5548 H   0  0  0  0  0  0  0  0  0  0  0  0  # atno 10764 bound_to 10752
  153.3619  135.4044  155.1688 H   0  0  0  0  0  0  0  0  0  0  0  0  # atno 10765 bound_to 10752
  140.0114  134.6290  155.9775 H   0  0  0  0  0  0  0  0  0  0  0  0  # atno 11005 bound_to 11000
  145.9976  140.8549  143.0035 LP  0  0  0  0  0  0  0  0  0  0  0  0  # atno 17320 bound_to 7965
  144.6781  140.2305  143.7356 LP  0  0  0  0  0  0  0  0  0  0  0  0  # atno 17321 bound_to 7965
  140.7295  143.2674  151.4001 LP  0  0  0  0  0  0  0  0  0  0  0  0  # atno 17342 bound_to 10162
  139.6066  144.1184  152.2255 LP  0  0  0  0  0  0  0  0  0  0  0  0  # atno 17343 bound_to 10162
  156.4646  130.7968  151.2987 LP  0  0  0  0  0  0  0  0  0  0  0  0  # atno 17370 bound_to 10713
  157.7486  131.0055  150.3116 LP  0  0  0  0  0  0  0  0  0  0  0  0  # atno 17371 bound_to 10713
  141.1713  133.6537  156.4664 LP  0  0  0  0  0  0  0  0  0  0  0  0  # atno 17394 bound_to 11000
  140.4547  134.6896  157.5057 LP  0  0  0  0  0  0  0  0  0  0  0  0  # atno 17395 bound_to 11000

$$$$
