AV-unprocessed.smi:711|AV-procd|sdf|3465|dock7
  -GOLD-   22720 0453D 1   1.00000     0.00000
 Structure written by MMmdl.
 29 30  0  0  0  0  0  0  0  0  1 V2000
  147.2048  139.3027  152.8778 O   0  0  0  0  0  0  0  0  0  0  0  0
  148.1776  139.6785  153.5289 C   0  0  0  0  0  0  0  0  0  0  0  0
  149.2487  138.8064  153.7460 N   0  0  0  0  0  0  0  0  0  0  0  0
  150.4086  139.1052  154.4615 C   0  0  0  0  0  0  0  0  0  0  0  0
  151.2834  138.2491  154.5920 O   0  0  0  0  0  0  0  0  0  0  0  0
  150.5035  140.4078  155.0038 N   0  0  0  0  0  0  0  0  0  0  0  0
  151.6858  140.7522  155.7568 C   0  0  0  0  0  0  0  0  0  0  0  0
  151.7466  140.0771  157.1440 C   0  0  1  0  0  0  0  0  0  0  0  0
  152.7906  139.1226  157.1545 O   0  0  0  0  0  0  0  0  0  0  0  0
  151.9359  141.1205  158.2385 C   0  0  0  0  0  0  0  0  0  0  0  0
  151.4062  142.4219  158.0856 C   0  0  0  0  0  0  0  0  0  0  0  0
  151.5657  143.3806  159.1048 C   0  0  0  0  0  0  0  0  0  0  0  0
  152.2522  143.0442  160.2866 C   0  0  0  0  0  0  0  0  0  0  0  0
  152.4042  143.9649  161.2677 F   0  0  0  0  0  0  0  0  0  0  0  0
  152.7772  141.7482  160.4487 C   0  0  0  0  0  0  0  0  0  0  0  0
  152.6181  140.7872  159.4310 C   0  0  0  0  0  0  0  0  0  0  0  0
  153.1194  139.5414  159.6105 F   0  0  0  0  0  0  0  0  0  0  0  0
  149.4601  141.3028  154.8219 C   0  0  0  0  0  0  0  0  0  0  0  0
  148.3358  141.0029  154.1280 C   0  0  0  0  0  0  0  0  0  0  0  0
  147.0800  142.1745  153.9440 Cl  0  0  0  0  0  0  0  0  0  0  0  0
  149.1764  137.8797  153.3518 H   0  0  0  0  0  0  0  0  0  0  0  0
  152.5740  140.5832  155.1442 H   0  0  0  0  0  0  0  0  0  0  0  0
  151.6180  141.8356  155.8736 H   0  0  0  0  0  0  0  0  0  0  0  0
  150.8171  139.5382  157.3316 H   0  0  0  0  0  0  0  0  0  0  0  0
  152.4401  138.2906  156.8752 H   0  0  0  0  0  0  0  0  0  0  0  0
  150.8701  142.6899  157.1869 H   0  0  0  0  0  0  0  0  0  0  0  0
  151.1588  144.3733  158.9806 H   0  0  0  0  0  0  0  0  0  0  0  0
  153.2999  141.4886  161.3573 H   0  0  0  0  0  0  0  0  0  0  0  0
  149.5446  142.2895  155.2559 H   0  0  0  0  0  0  0  0  0  0  0  0
  1  2  2  0  0  0  0
  2 19  1  0  0  0  0
  2  3  1  0  0  0  0
  3 21  1  0  0  0  0
  3  4  1  0  0  0  0
  4  5  2  0  0  0  0
  4  6  1  0  0  0  0
  6  7  1  0  0  0  0
  6 18  1  0  0  0  0
  7  8  1  0  0  0  0
  7 22  1  0  0  0  0
  7 23  1  0  0  0  0
  8  9  1  0  0  0  0
  8 10  1  0  0  0  0
  8 24  1  0  0  0  0
  9 25  1  0  0  0  0
 10 16  1  0  0  0  0
 10 11  2  0  0  0  0
 11 12  1  0  0  0  0
 11 26  1  0  0  0  0
 12 13  2  0  0  0  0
 12 27  1  0  0  0  0
 13 14  1  0  0  0  0
 13 15  1  0  0  0  0
 15 16  2  0  0  0  0
 15 28  1  0  0  0  0
 16 17  1  0  0  0  0
 18 19  2  0  0  0  0
 18 29  1  0  0  0  0
 19 20  1  0  0  0  0
M  END
> <s_m_source_file>
AV-unprocessed.smi

> <i_m_source_file_index>
711

> <i_lp_mmshare_version>
43012

> <i_f3d_flags>
0

> <s_epik_input>
Tz1jMVtuSF1jKD1PKW4oW2NIXWMxQ2wpW0NIMl1bQ0BIXShbT0hdKWMyW2NIXVtjSF1jKEYpW2NIXWMyRg==

> <s_epik_cmdline>
J2VwaWtfcHl0aG9uJywgJy1waCcsICc3LjAnLCAnLXRuJywgJzgnLCAnLW1hJywgJzIwMCcsICctbWV0YWxfYmluZGluZycsICctaW1hZScsICc8aW5maWxlLm1hZT4nLCAnLW9tYWUnLCAnPG91dGZpbGUubWFlPic=

> <r_lp_tautomer_probability>
0.999537

> <r_epik_Ionization_Penalty>
0.0292058

> <r_epik_Ionization_Penalty_Charging>
0.0292057

> <r_epik_Ionization_Penalty_Neutral>
9.07348e-08

> <r_epik_State_Penalty>
0.0240115

> <r_epik_Charging_Adjusted_Penalty>
0.0532172

> <i_epik_Tot_Q>
0

> <i_epik_Tot_abs_Q>
0

> <r_epik_Metal_State_Penalty>
2.21956

> <b_epik_Metal_Only>
0

> <s_lp_Force_Field>
OPLS_2005

> <r_lp_Energy>
13.2316

> <b_lp_Chiralities_Consistent>
1

> <s_lp_Variant>
AV-unprocessed.smi:711-2

> <Gold.Version>
5.8.1

> <Gold.Id.Protein>
6NUR|6NUR_protein|mol2

> <Gold.PLP.Fitness>
46.8738

> <Gold.PLP.PLP>
-42.2711

> <Gold.PLP.part.hbond>
-2.5819

> <Gold.PLP.part.metal>
0.0000

> <Gold.PLP.part.buried>
-1.3256

> <Gold.PLP.part.nonpolar>
-37.4873

> <Gold.PLP.part.repulsive>
0.4753

> <Gold.PLP.ligand.clash>
0.0000

> <Gold.PLP.ligand.torsion>
1.6154

> <Gold.PLP.Chemscore.Hbond>
1.6175

> <Gold.PLP.Chemscore.CHOScore>
0.9881

> <Gold.PLP.Chemscore.Metal>
0.0000

> <Gold.Chemscore.Hbonds>
donor molecule, donor type, donor heavy atom, donor atom, acceptor molecule, acceptor atom, score
      L1  H     3    21       P1  7948  0.55
      P1  H  7997  8009       L1     9  1.00
      L1  C    18    29       P1  8028  0.96

> <Gold.PLP.Chemscore.Internal.Correction>
0.0166

> <Gold.Rescore>
     Score         DG    S(hbond)    S(metal)    S(lipo)     H(rot)  DE(clash)    DE(int)     intcor
     12.18     -15.71       1.72        0.00      90.19       2.37       0.32       3.20       ----

> <Gold.Chemscore.Fitness>
12.1842

> <Gold.Chemscore.DG>
-15.7058

> <Gold.Chemscore.ZeroCoef>
-5.4800

> <Gold.Chemscore.Hbond>
1.7152

> <Gold.Chemscore.Metal>
0.0000

> <Gold.Chemscore.Lipo>
90.1860

> <Gold.Chemscore.Internal_Hbond>
0.0000

> <Gold.Chemscore.DEClash>
0.3224

> <Gold.Chemscore.DEInternal>
3.1993

> <Gold.Chemscore.Rot>
2.3652

> <Gold.Chemscore.Internal.Correction>
   9.000000E+99

> <Gold.Chemscore.Hbonds>
donor molecule, donor type, donor heavy atom, donor atom, acceptor molecule, acceptor atom, score
      L1  H     3    21       P1  7948  0.56
      P1  H  7997  8009       L1     9  0.68

> <Gold.Chemscore.Hbond.Weighted>
-5.7289

> <Gold.Chemscore.Metal.Weighted>
-0.0000

> <Gold.Chemscore.Lipo.Weighted>
-10.5518

> <Gold.Chemscore.Internal_Hbond.Weighted>
0.0000

> <Gold.Chemscore.DEClash.Weighted>
0.3224

> <Gold.Chemscore.DEInternal.Weighted>
3.1993

> <Gold.Chemscore.Rot.Weighted>
6.0548

> <Gold.Chemscore.Internal.Correction.Weighted>
   9.000000E+99

> <Gold.Protein.RotatedTorsions>
[ 6907 6896 6895 6894 ] final -161.33 input  -60.11 | X-H torsion
[ 7974 7965 7964 7962 ] final -143.87 input  175.53 | X-H torsion
[ 8008 7997 7996 7995 ] final  161.47 input   59.86 | X-H torsion
[ 10167 10162 10161 10158 ] final  123.82 input  -65.29 | X-H torsion
[ 10718 10713 10712 10709 ] final -108.66 input   66.30 | X-H torsion
[ 10763 10752 10751 10750 ] final   55.84 input  -60.55 | X-H torsion
[ 11005 11000 10999 10996 ] final -142.19 input  -57.11 | X-H torsion

> <Gold.Protein.ActiveResidues>
 VAL166  LYS551  ARG553  GLY616  TRP617  ASP618  TYR619  PRO620  LYS621  CYS622 
 ASP623  PHE694  ASN695  SER759  ASP760  ASP761  ALA762  ILE779  LEU786  VAL792 
 PHE793  MET794  SER795  GLU796  ALA797  LYS798  CYS799  TRP800  GLU811  SER814 

> <Gold.Protein.RotatedAtoms>
  151.3629  133.3883  159.2691 H   0  0  0  0  0  0  0  0  0  0  0  0  # atno 6907 bound_to 6896
  150.9711  134.9085  159.7799 H   0  0  0  0  0  0  0  0  0  0  0  0  # atno 6908 bound_to 6896
  152.5185  134.3591  159.9330 H   0  0  0  0  0  0  0  0  0  0  0  0  # atno 6909 bound_to 6896
  144.8338  140.5780  143.5497 H   0  0  0  0  0  0  0  0  0  0  0  0  # atno 7974 bound_to 7965
  156.2100  140.1776  156.7715 H   0  0  0  0  0  0  0  0  0  0  0  0  # atno 8008 bound_to 7997
  154.5709  140.0682  156.8993 H   0  0  0  0  0  0  0  0  0  0  0  0  # atno 8009 bound_to 7997
  155.2674  140.3340  155.4270 H   0  0  0  0  0  0  0  0  0  0  0  0  # atno 8010 bound_to 7997
  139.5777  144.6971  151.3610 H   0  0  0  0  0  0  0  0  0  0  0  0  # atno 10167 bound_to 10162
  156.0497  130.5724  150.7992 H   0  0  0  0  0  0  0  0  0  0  0  0  # atno 10718 bound_to 10713
  152.9822  135.5697  154.5132 H   0  0  0  0  0  0  0  0  0  0  0  0  # atno 10763 bound_to 10752
  154.4632  135.2782  155.1699 H   0  0  0  0  0  0  0  0  0  0  0  0  # atno 10764 bound_to 10752
  154.3278  135.6255  153.5591 H   0  0  0  0  0  0  0  0  0  0  0  0  # atno 10765 bound_to 10752
  140.8250  134.2586  157.4883 H   0  0  0  0  0  0  0  0  0  0  0  0  # atno 11005 bound_to 11000
  145.4839  139.1493  143.3747 LP  0  0  0  0  0  0  0  0  0  0  0  0  # atno 17320 bound_to 7965
  146.2639  140.4975  142.8842 LP  0  0  0  0  0  0  0  0  0  0  0  0  # atno 17321 bound_to 7965
  140.7058  143.7517  150.7480 LP  0  0  0  0  0  0  0  0  0  0  0  0  # atno 17342 bound_to 10162
  140.1041  143.4760  152.2408 LP  0  0  0  0  0  0  0  0  0  0  0  0  # atno 17343 bound_to 10162
  157.5410  131.0940  150.9827 LP  0  0  0  0  0  0  0  0  0  0  0  0  # atno 17370 bound_to 10713
  157.0110  130.5636  149.5321 LP  0  0  0  0  0  0  0  0  0  0  0  0  # atno 17371 bound_to 10713
  139.8707  134.9555  156.4210 LP  0  0  0  0  0  0  0  0  0  0  0  0  # atno 17394 bound_to 11000
  140.9059  133.7746  155.9734 LP  0  0  0  0  0  0  0  0  0  0  0  0  # atno 17395 bound_to 11000

$$$$
