AV-unprocessed.smi:39|AV-procd|sdf|354|dock2
  -GOLD-   2262016193D 1   1.00000     0.00000
 Structure written by MMmdl.
 32 33  0  0  0  0  0  0  0  0  3 V2000
  152.6818  143.5814  160.3191 C   0  0  0  0  0  0  0  0  0  0  0  0
  152.8930  142.1162  159.9741 C   0  0  0  0  0  0  0  0  0  0  0  0
  152.1585  141.4782  159.0265 C   0  0  0  0  0  0  0  0  0  0  0  0
  152.3295  140.1397  158.6899 N   0  0  0  0  0  0  0  0  0  0  0  0
  151.4893  139.4419  157.6373 C   0  0  2  0  0  0  0  0  0  0  0  0
  152.3565  139.0229  156.4336 C   0  0  0  0  0  0  0  0  0  0  0  0
  151.5912  139.5896  155.2459 C   0  0  1  0  0  0  0  0  0  0  0  0
  150.5891  138.6336  154.7534 N   0  0  0  0  0  0  0  0  0  0  0  0
  150.9390  137.4478  154.6872 N   0  3  0  0  0  0  0  0  0  0  0  0
  151.3507  136.3871  154.7090 N   0  5  0  0  0  0  0  0  0  0  0  0
  150.9462  140.8246  155.8850 C   0  0  1  0  0  0  0  0  0  0  0  0
  149.7681  141.4312  155.1040 C   0  0  0  0  0  0  0  0  0  0  0  0
  149.0568  142.3299  155.9281 O   0  0  0  0  0  0  0  0  0  0  0  0
  150.5168  140.3155  157.1420 O   0  0  0  0  0  0  0  0  0  0  0  0
  153.2996  139.3781  159.3739 C   0  0  0  0  0  0  0  0  0  0  0  0
  153.4925  138.1849  159.1426 O   0  0  0  0  0  0  0  0  0  0  0  0
  154.0549  140.0330  160.3443 N   0  0  0  0  0  0  0  0  0  0  0  0
  153.9262  141.3763  160.7037 C   0  0  0  0  0  0  0  0  0  0  0  0
  154.6550  141.8436  161.5774 O   0  0  0  0  0  0  0  0  0  0  0  0
  151.0016  138.6105  158.1498 H   0  0  0  0  0  0  0  0  0  0  0  0
  152.2691  139.8897  154.4443 H   0  0  0  0  0  0  0  0  0  0  0  0
  151.7213  141.5783  156.0382 H   0  0  0  0  0  0  0  0  0  0  0  0
  154.7525  139.4897  160.8314 H   0  0  0  0  0  0  0  0  0  0  0  0
  151.8963  144.0322  159.7118 H   0  0  0  0  0  0  0  0  0  0  0  0
  153.5986  144.1483  160.1532 H   0  0  0  0  0  0  0  0  0  0  0  0
  152.3970  143.6887  161.3662 H   0  0  0  0  0  0  0  0  0  0  0  0
  151.4036  142.0596  158.5194 H   0  0  0  0  0  0  0  0  0  0  0  0
  153.3399  139.4913  156.5003 H   0  0  0  0  0  0  0  0  0  0  0  0
  152.4905  137.9406  156.4042 H   0  0  0  0  0  0  0  0  0  0  0  0
  150.1371  141.9946  154.2464 H   0  0  0  0  0  0  0  0  0  0  0  0
  149.1002  140.6581  154.7233 H   0  0  0  0  0  0  0  0  0  0  0  0
  149.0923  143.1889  155.5361 H   0  0  0  0  0  0  0  0  0  0  0  0
  1  2  1  0  0  0  0
  1 24  1  0  0  0  0
  1 25  1  0  0  0  0
  1 26  1  0  0  0  0
  2 18  1  0  0  0  0
  2  3  2  0  0  0  0
  3  4  1  0  0  0  0
  3 27  1  0  0  0  0
  4  5  1  0  0  0  0
  4 15  1  0  0  0  0
  5 20  1  0  0  0  0
  5 14  1  0  0  0  0
  5  6  1  0  0  0  0
  6  7  1  0  0  0  0
  6 28  1  0  0  0  0
  6 29  1  0  0  0  0
  7 21  1  0  0  0  0
  7  8  1  0  0  0  0
  7 11  1  0  0  0  0
  8  9  2  0  0  0  0
  9 10  2  0  0  0  0
 11 22  1  0  0  0  0
 11 12  1  0  0  0  0
 11 14  1  0  0  0  0
 12 13  1  0  0  0  0
 12 30  1  0  0  0  0
 12 31  1  0  0  0  0
 13 32  1  0  0  0  0
 15 16  2  0  0  0  0
 15 17  1  0  0  0  0
 17 23  1  0  0  0  0
 17 18  1  0  0  0  0
 18 19  2  0  0  0  0
M  CHG  1   9   1
M  CHG  1  10  -1
M  END
> <s_m_source_file>
AV-unprocessed.smi

> <i_m_source_file_index>
39

> <i_lp_mmshare_version>
43012

> <i_f3d_flags>
0

> <s_epik_input>
Tz1jMVtuSF1jKD1PKW4oW2NIXWMxW0NIM10pW0NASF0yW0NIMl1bQ0BIXShOPVtOK109W04tXSlbQ0BIXShPMilbQ0gyXVtPSF0=

> <s_epik_cmdline>
J2VwaWtfcHl0aG9uJywgJy1waCcsICc3LjAnLCAnLXRuJywgJzgnLCAnLW1hJywgJzIwMCcsICctbWV0YWxfYmluZGluZycsICctaW1hZScsICc8aW5maWxlLm1hZT4nLCAnLW9tYWUnLCAnPG91dGZpbGUubWFlPic=

> <r_lp_tautomer_probability>
0.999537

> <r_epik_Ionization_Penalty>
0.00127512

> <r_epik_Ionization_Penalty_Charging>
0.00127507

> <r_epik_Ionization_Penalty_Neutral>
5.43433e-08

> <r_epik_State_Penalty>
0.000844892

> <r_epik_Charging_Adjusted_Penalty>
0.00211996

> <i_epik_Tot_Q>
0

> <i_epik_Tot_abs_Q>
2

> <r_epik_Metal_State_Penalty>
0.680636

> <b_epik_Metal_Only>
0

> <s_epik_Chemistry_Notes>
This compound contains an acetal/aminal-like group ( X-CH(R)-Y where X, Y are N, S, or O) that may be acid/base labile, releasing an aldehyde.

> <s_lp_Force_Field>
OPLS_2005

> <r_lp_Energy>
25.8418

> <b_lp_Chiralities_Consistent>
1

> <s_lp_Variant>
AV-unprocessed.smi:39-4

> <Gold.Version>
5.8.1

> <Gold.Id.Protein>
6NUR|6NUR_protein|mol2

> <Gold.PLP.Fitness>
38.6045

> <Gold.PLP.PLP>
-33.4189

> <Gold.PLP.part.hbond>
-2.7500

> <Gold.PLP.part.metal>
0.0000

> <Gold.PLP.part.buried>
-4.0425

> <Gold.PLP.part.nonpolar>
-26.4438

> <Gold.PLP.part.repulsive>
0.5310

> <Gold.PLP.ligand.clash>
0.0000

> <Gold.PLP.ligand.torsion>
0.4322

> <Gold.PLP.Chemscore.Hbond>
2.0000

> <Gold.PLP.Chemscore.CHOScore>
0.0000

> <Gold.PLP.Chemscore.Metal>
0.0000

> <Gold.Chemscore.Hbonds>
donor molecule, donor type, donor heavy atom, donor atom, acceptor molecule, acceptor atom, score
      L1  H    13    32       P1  8028  0.99
      P1  H 10752 10763       L1    10  1.00

> <Gold.PLP.Chemscore.Internal.Correction>
0.0499

> <Gold.Rescore>
     Score         DG    S(hbond)    S(metal)    S(lipo)     H(rot)  DE(clash)    DE(int)     intcor
     11.08     -11.76       1.99        0.00      57.17       2.75       0.04       0.65       ----

> <Gold.Chemscore.Fitness>
11.0784

> <Gold.Chemscore.DG>
-11.7635

> <Gold.Chemscore.ZeroCoef>
-5.4800

> <Gold.Chemscore.Hbond>
1.9881

> <Gold.Chemscore.Metal>
0.0000

> <Gold.Chemscore.Lipo>
57.1741

> <Gold.Chemscore.Internal_Hbond>
0.0000

> <Gold.Chemscore.DEClash>
0.0368

> <Gold.Chemscore.DEInternal>
0.6483

> <Gold.Chemscore.Rot>
2.7524

> <Gold.Chemscore.Internal.Correction>
   9.000000E+99

> <Gold.Chemscore.Hbonds>
donor molecule, donor type, donor heavy atom, donor atom, acceptor molecule, acceptor atom, score
      L1  H    13    32       P1  8028  0.89
      P1  H 10752 10763       L1    10  1.00

> <Gold.Chemscore.Hbond.Weighted>
-6.6403

> <Gold.Chemscore.Metal.Weighted>
-0.0000

> <Gold.Chemscore.Lipo.Weighted>
-6.6894

> <Gold.Chemscore.Internal_Hbond.Weighted>
0.0000

> <Gold.Chemscore.DEClash.Weighted>
0.0368

> <Gold.Chemscore.DEInternal.Weighted>
0.6483

> <Gold.Chemscore.Rot.Weighted>
7.0461

> <Gold.Chemscore.Internal.Correction.Weighted>
   9.000000E+99

> <Gold.Protein.RotatedTorsions>
[ 6907 6896 6895 6894 ] final  -71.84 input  -60.11 | X-H torsion
[ 7974 7965 7964 7962 ] final  -30.88 input  175.53 | X-H torsion
[ 8008 7997 7996 7995 ] final  169.82 input   59.86 | X-H torsion
[ 10167 10162 10161 10158 ] final -150.10 input  -65.29 | X-H torsion
[ 10718 10713 10712 10709 ] final   86.67 input   66.30 | X-H torsion
[ 10763 10752 10751 10750 ] final   58.33 input  -60.55 | X-H torsion
[ 11005 11000 10999 10996 ] final  129.17 input  -57.11 | X-H torsion

> <Gold.Protein.ActiveResidues>
 VAL166  LYS551  ARG553  GLY616  TRP617  ASP618  TYR619  PRO620  LYS621  CYS622 
 ASP623  PHE694  ASN695  SER759  ASP760  ASP761  ALA762  ILE779  LEU786  VAL792 
 PHE793  MET794  SER795  GLU796  ALA797  LYS798  CYS799  TRP800  GLU811  SER814 

> <Gold.Protein.RotatedAtoms>
  150.7195  134.5249  159.5671 H   0  0  0  0  0  0  0  0  0  0  0  0  # atno 6907 bound_to 6896
  152.2796  134.7840  160.0408 H   0  0  0  0  0  0  0  0  0  0  0  0  # atno 6908 bound_to 6896
  151.8492  133.3401  159.3704 H   0  0  0  0  0  0  0  0  0  0  0  0  # atno 6909 bound_to 6896
  146.1110  140.5596  142.8778 H   0  0  0  0  0  0  0  0  0  0  0  0  # atno 7974 bound_to 7965
  156.1422  140.1554  156.8902 H   0  0  0  0  0  0  0  0  0  0  0  0  # atno 8008 bound_to 7997
  154.4997  140.0828  156.7811 H   0  0  0  0  0  0  0  0  0  0  0  0  # atno 8009 bound_to 7997
  155.4056  140.3416  155.4262 H   0  0  0  0  0  0  0  0  0  0  0  0  # atno 8010 bound_to 7997
  139.7384  143.8700  152.2555 H   0  0  0  0  0  0  0  0  0  0  0  0  # atno 10167 bound_to 10162
  157.6931  131.0225  150.3008 H   0  0  0  0  0  0  0  0  0  0  0  0  # atno 10718 bound_to 10713
  152.9868  135.5610  154.5535 H   0  0  0  0  0  0  0  0  0  0  0  0  # atno 10763 bound_to 10752
  154.4967  135.2795  155.1455 H   0  0  0  0  0  0  0  0  0  0  0  0  # atno 10764 bound_to 10752
  154.2902  135.6327  153.5435 H   0  0  0  0  0  0  0  0  0  0  0  0  # atno 10765 bound_to 10752
  139.9601  134.9604  156.9109 H   0  0  0  0  0  0  0  0  0  0  0  0  # atno 11005 bound_to 11000
  144.7511  140.5194  143.6801 LP  0  0  0  0  0  0  0  0  0  0  0  0  # atno 17320 bound_to 7965
  145.5664  139.1481  143.3313 LP  0  0  0  0  0  0  0  0  0  0  0  0  # atno 17321 bound_to 7965
  139.8644  144.7101  150.9062 LP  0  0  0  0  0  0  0  0  0  0  0  0  # atno 17342 bound_to 10162
  140.7782  143.3791  151.1510 LP  0  0  0  0  0  0  0  0  0  0  0  0  # atno 17343 bound_to 10162
  156.3524  130.3833  149.7318 LP  0  0  0  0  0  0  0  0  0  0  0  0  # atno 17370 bound_to 10713
  156.4791  130.8032  151.3047 LP  0  0  0  0  0  0  0  0  0  0  0  0  # atno 17371 bound_to 10713
  140.5520  134.0618  155.7372 LP  0  0  0  0  0  0  0  0  0  0  0  0  # atno 17394 bound_to 11000
  141.1277  133.9355  157.2601 LP  0  0  0  0  0  0  0  0  0  0  0  0  # atno 17395 bound_to 11000

$$$$
