AV-unprocessed.smi:34|AV-procd|sdf|246|dock1
  -GOLD-   2262016 03D 1   1.00000     0.00000
 Structure written by MMmdl.
 54 58  0  0  0  0  0  0  0  0  2 V2000
  153.6825  139.3262  158.4884 O   0  0  0  0  0  0  0  0  0  0  0  0
  152.6528  140.0030  158.4454 C   0  0  0  0  0  0  0  0  0  0  0  0
  151.5216  139.7538  157.7379 N   0  5  0  0  0  0  0  0  0  0  0  0
  151.5586  138.9131  156.6931 C   0  0  0  0  0  0  0  0  0  0  0  0
  152.3182  139.2041  155.6066 N   0  0  0  0  0  0  0  0  0  0  0  0
  152.3534  138.3674  154.5638 C   0  0  0  0  0  0  0  0  0  0  0  0
  151.7147  137.2056  154.3980 N   0  0  0  0  0  0  0  0  0  0  0  0
  150.9372  136.9043  155.4784 C   0  0  0  0  0  0  0  0  0  0  0  0
  150.8081  137.7059  156.6506 C   0  0  0  0  0  0  0  0  0  0  0  0
  149.9386  137.1178  157.5564 N   0  0  0  0  0  0  0  0  0  0  0  0
  149.5865  136.0097  156.9091 C   0  0  0  0  0  0  0  0  0  0  0  0
  150.1270  135.7984  155.6921 N   0  0  0  0  0  0  0  0  0  0  0  0
  149.8658  134.6330  154.7894 C   0  0  1  0  0  0  0  0  0  0  0  0
  150.3709  133.4808  155.4031 O   0  0  0  0  0  0  0  0  0  0  0  0
  149.3094  132.5717  155.6860 C   0  0  2  0  0  0  0  0  0  0  0  0
  149.8174  131.1243  155.6884 C   0  0  0  0  0  0  0  0  0  0  0  0
  148.9133  130.3041  154.9654 O   0  0  0  0  0  0  0  0  0  0  0  0
  149.3827  129.3150  154.1800 C   0  0  0  0  0  0  0  0  0  0  0  0
  150.4705  128.7625  154.3565 O   0  0  0  0  0  0  0  0  0  0  0  0
  148.4523  128.9635  153.0688 C   0  0  0  0  0  0  0  0  0  0  0  0
  147.2597  129.7061  152.9036 C   0  0  0  0  0  0  0  0  0  0  0  0
  146.3583  129.3949  151.8673 C   0  0  0  0  0  0  0  0  0  0  0  0
  146.6400  128.3391  150.9811 C   0  0  0  0  0  0  0  0  0  0  0  0
  147.8243  127.5945  151.1328 C   0  0  0  0  0  0  0  0  0  0  0  0
  148.7261  127.9029  152.1703 C   0  0  0  0  0  0  0  0  0  0  0  0
  148.2691  132.8983  154.6153 C   0  0  2  0  0  0  0  0  0  0  0  0
  148.6545  132.3575  153.4551 F   0  0  0  0  0  0  0  0  0  0  0  0
  148.3612  134.4151  154.5645 C   0  0  2  0  0  0  0  0  0  0  0  0
  147.8962  134.9033  153.3223 O   0  0  0  0  0  0  0  0  0  0  0  0
  152.6102  141.3069  159.1964 C   0  0  0  0  0  0  0  0  0  0  0  0
  152.0904  142.4608  158.5664 C   0  0  0  0  0  0  0  0  0  0  0  0
  152.0643  143.6962  159.2423 C   0  0  0  0  0  0  0  0  0  0  0  0
  152.5670  143.7933  160.5534 C   0  0  0  0  0  0  0  0  0  0  0  0
  153.1000  142.6546  161.1860 C   0  0  0  0  0  0  0  0  0  0  0  0
  153.1263  141.4188  160.5108 C   0  0  0  0  0  0  0  0  0  0  0  0
  152.9855  138.6728  153.7433 H   0  0  0  0  0  0  0  0  0  0  0  0
  148.8939  135.3071  157.3491 H   0  0  0  0  0  0  0  0  0  0  0  0
  150.4246  134.8382  153.8749 H   0  0  0  0  0  0  0  0  0  0  0  0
  148.9020  132.8058  156.6688 H   0  0  0  0  0  0  0  0  0  0  0  0
  150.8158  131.0690  155.2523 H   0  0  0  0  0  0  0  0  0  0  0  0
  149.8900  130.7592  156.7137 H   0  0  0  0  0  0  0  0  0  0  0  0
  147.0212  130.5205  153.5724 H   0  0  0  0  0  0  0  0  0  0  0  0
  145.4495  129.9674  151.7533 H   0  0  0  0  0  0  0  0  0  0  0  0
  145.9487  128.1010  150.1862 H   0  0  0  0  0  0  0  0  0  0  0  0
  148.0423  126.7848  150.4522 H   0  0  0  0  0  0  0  0  0  0  0  0
  149.6257  127.3117  152.2586 H   0  0  0  0  0  0  0  0  0  0  0  0
  147.2705  132.5274  154.8477 H   0  0  0  0  0  0  0  0  0  0  0  0
  147.7840  134.8520  155.3799 H   0  0  0  0  0  0  0  0  0  0  0  0
  148.5060  135.5540  153.0094 H   0  0  0  0  0  0  0  0  0  0  0  0
  151.7029  142.4038  157.5593 H   0  0  0  0  0  0  0  0  0  0  0  0
  151.6599  144.5699  158.7530 H   0  0  0  0  0  0  0  0  0  0  0  0
  152.5476  144.7404  161.0717 H   0  0  0  0  0  0  0  0  0  0  0  0
  153.4919  142.7283  162.1897 H   0  0  0  0  0  0  0  0  0  0  0  0
  153.5495  140.5596  161.0113 H   0  0  0  0  0  0  0  0  0  0  0  0
  1  2  2  0  0  0  0
  2  3  1  0  0  0  0
  2 30  1  0  0  0  0
  3  4  1  0  0  0  0
  4  9  1  0  0  0  0
  4  5  2  0  0  0  0
  5  6  1  0  0  0  0
  6  7  2  0  0  0  0
  6 36  1  0  0  0  0
  7  8  1  0  0  0  0
  8 12  1  0  0  0  0
  8  9  2  0  0  0  0
  9 10  1  0  0  0  0
 10 11  2  0  0  0  0
 11 12  1  0  0  0  0
 11 37  1  0  0  0  0
 12 13  1  0  0  0  0
 13 28  1  0  0  0  0
 13 14  1  0  0  0  0
 13 38  1  0  0  0  0
 14 15  1  0  0  0  0
 15 16  1  0  0  0  0
 15 26  1  0  0  0  0
 15 39  1  0  0  0  0
 16 17  1  0  0  0  0
 16 40  1  0  0  0  0
 16 41  1  0  0  0  0
 17 18  1  0  0  0  0
 18 19  2  0  0  0  0
 18 20  1  0  0  0  0
 20 25  1  0  0  0  0
 20 21  2  0  0  0  0
 21 22  1  0  0  0  0
 21 42  1  0  0  0  0
 22 23  2  0  0  0  0
 22 43  1  0  0  0  0
 23 24  1  0  0  0  0
 23 44  1  0  0  0  0
 24 25  2  0  0  0  0
 24 45  1  0  0  0  0
 25 46  1  0  0  0  0
 26 27  1  0  0  0  0
 26 28  1  0  0  0  0
 26 47  1  0  0  0  0
 28 29  1  0  0  0  0
 28 48  1  0  0  0  0
 29 49  1  0  0  0  0
 30 35  1  0  0  0  0
 30 31  2  0  0  0  0
 31 32  1  0  0  0  0
 31 50  1  0  0  0  0
 32 33  2  0  0  0  0
 32 51  1  0  0  0  0
 33 34  1  0  0  0  0
 33 52  1  0  0  0  0
 34 35  2  0  0  0  0
 34 53  1  0  0  0  0
 35 54  1  0  0  0  0
M  CHG  1   3  -1
M  END
> <s_m_source_file>
AV-unprocessed.smi

> <i_m_source_file_index>
34

> <i_lp_mmshare_version>
43012

> <i_f3d_flags>
0

> <s_epik_input>
W2NIXTFbY0hdW2NIXVtjSF1bY0hdYzFDKD1PKVtOSF1jKG5bY0hdbjIpYyhjMjMpbltjSF1uM1tDQEBIXTRPW0NASF0oW0NAQEhdKEYpW0NASF00W09IXSlbQ0gyXU9DKD1PKWM1W2NIXVtjSF1bY0hdW2NIXVtjSF01

> <s_epik_cmdline>
J2VwaWtfcHl0aG9uJywgJy1waCcsICc3LjAnLCAnLXRuJywgJzgnLCAnLW1hJywgJzIwMCcsICctbWV0YWxfYmluZGluZycsICctaW1hZScsICc8aW5maWxlLm1hZT4nLCAnLW9tYWUnLCAnPG91dGZpbGUubWFlPic=

> <r_lp_tautomer_probability>
1

> <r_epik_Ionization_Penalty>
4.33227

> <r_epik_Ionization_Penalty_Charging>
3.41027

> <r_epik_Ionization_Penalty_Neutral>
0.922001

> <r_epik_State_Penalty>
3.41358

> <r_epik_Charging_Adjusted_Penalty>
6.82385

> <i_epik_Tot_Q>
-1

> <i_epik_Tot_abs_Q>
1

> <r_epik_Metal_State_Penalty>
0.496292

> <b_epik_Metal_Only>
1

> <s_epik_Chemistry_Notes>
This compound has an ester and may undergo hydrolysis at high or low pH. This compound contains an acetal/aminal-like group ( X-CH(R)-Y where X, Y are N, S, or O) that may be acid/base labile, releasing an aldehyde.

> <s_lp_Force_Field>
OPLS_2005

> <r_lp_Energy>
46.0199

> <b_lp_Chiralities_Consistent>
1

> <s_lp_Variant>
AV-unprocessed.smi:34-32

> <Gold.Version>
5.8.1

> <Gold.Id.Protein>
6NUR|6NUR_protein|mol2

> <Gold.PLP.Fitness>
66.0308

> <Gold.PLP.PLP>
-61.9228

> <Gold.PLP.part.hbond>
-2.4403

> <Gold.PLP.part.metal>
0.0000

> <Gold.PLP.part.buried>
-9.0953

> <Gold.PLP.part.nonpolar>
-51.6274

> <Gold.PLP.part.repulsive>
0.3982

> <Gold.PLP.ligand.clash>
0.0000

> <Gold.PLP.ligand.torsion>
2.7091

> <Gold.PLP.Chemscore.Hbond>
2.8882

> <Gold.PLP.Chemscore.CHOScore>
0.0000

> <Gold.PLP.Chemscore.Metal>
0.0000

> <Gold.Chemscore.Hbonds>
donor molecule, donor type, donor heavy atom, donor atom, acceptor molecule, acceptor atom, score
      L1  H    29    49       P1  7948  0.55
      P1  H  7997  8008       L1     1  1.00
      P1  H 10752 10763       L1     7  1.00

> <Gold.PLP.Chemscore.Internal.Correction>
0.8616

> <Gold.Rescore>
     Score         DG    S(hbond)    S(metal)    S(lipo)     H(rot)  DE(clash)    DE(int)     intcor
     17.39     -21.57       2.36        0.00     129.06       2.69       0.05       4.13       ----

> <Gold.Chemscore.Fitness>
17.3876

> <Gold.Chemscore.DG>
-21.5715

> <Gold.Chemscore.ZeroCoef>
-5.4800

> <Gold.Chemscore.Hbond>
2.3620

> <Gold.Chemscore.Metal>
0.0000

> <Gold.Chemscore.Lipo>
129.0593

> <Gold.Chemscore.Internal_Hbond>
0.0000

> <Gold.Chemscore.DEClash>
0.0507

> <Gold.Chemscore.DEInternal>
4.1331

> <Gold.Chemscore.Rot>
2.6944

> <Gold.Chemscore.Internal.Correction>
   9.000000E+99

> <Gold.Chemscore.Hbonds>
donor molecule, donor type, donor heavy atom, donor atom, acceptor molecule, acceptor atom, score
      L1  H    29    49       P1  7948  0.54
      P1  H  7997  8008       L1     1  0.50
      P1  H 10752 10763       L1     7  0.49

> <Gold.Chemscore.Hbond.Weighted>
-7.8891

> <Gold.Chemscore.Metal.Weighted>
-0.0000

> <Gold.Chemscore.Lipo.Weighted>
-15.0999

> <Gold.Chemscore.Internal_Hbond.Weighted>
0.0000

> <Gold.Chemscore.DEClash.Weighted>
0.0507

> <Gold.Chemscore.DEInternal.Weighted>
4.1331

> <Gold.Chemscore.Rot.Weighted>
6.8975

> <Gold.Chemscore.Internal.Correction.Weighted>
   9.000000E+99

> <Gold.Protein.RotatedTorsions>
[ 6907 6896 6895 6894 ] final  -58.79 input  -60.11 | X-H torsion
[ 7974 7965 7964 7962 ] final -161.33 input  175.53 | X-H torsion
[ 8008 7997 7996 7995 ] final  -98.96 input   59.86 | X-H torsion
[ 10167 10162 10161 10158 ] final   -6.78 input  -65.29 | X-H torsion
[ 10718 10713 10712 10709 ] final   -5.08 input   66.30 | X-H torsion
[ 10763 10752 10751 10750 ] final   30.05 input  -60.55 | X-H torsion
[ 11005 11000 10999 10996 ] final  134.13 input  -57.11 | X-H torsion

> <Gold.Protein.ActiveResidues>
 VAL166  LYS551  ARG553  GLY616  TRP617  ASP618  TYR619  PRO620  LYS621  CYS622 
 ASP623  PHE694  ASN695  SER759  ASP760  ASP761  ALA762  ILE779  LEU786  VAL792 
 PHE793  MET794  SER795  GLU796  ALA797  LYS798  CYS799  TRP800  GLU811  SER814 

> <Gold.Protein.RotatedAtoms>
  150.7980  134.7053  159.6572 H   0  0  0  0  0  0  0  0  0  0  0  0  # atno 6907 bound_to 6896
  152.4094  134.6147  160.0045 H   0  0  0  0  0  0  0  0  0  0  0  0  # atno 6908 bound_to 6896
  151.6394  133.3290  159.3163 H   0  0  0  0  0  0  0  0  0  0  0  0  # atno 6909 bound_to 6896
  144.7395  140.3412  143.6134 H   0  0  0  0  0  0  0  0  0  0  0  0  # atno 7974 bound_to 7965
  154.8083  140.0451  157.1323 H   0  0  0  0  0  0  0  0  0  0  0  0  # atno 8008 bound_to 7997
  154.9399  140.3051  155.5106 H   0  0  0  0  0  0  0  0  0  0  0  0  # atno 8009 bound_to 7997
  156.2969  140.2307  156.4467 H   0  0  0  0  0  0  0  0  0  0  0  0  # atno 8010 bound_to 7997
  140.7008  143.6155  150.8663 H   0  0  0  0  0  0  0  0  0  0  0  0  # atno 10167 bound_to 10162
  156.7518  130.5242  149.5802 H   0  0  0  0  0  0  0  0  0  0  0  0  # atno 10718 bound_to 10713
  153.0394  135.6474  154.0984 H   0  0  0  0  0  0  0  0  0  0  0  0  # atno 10763 bound_to 10752
  154.0693  135.2882  155.3312 H   0  0  0  0  0  0  0  0  0  0  0  0  # atno 10764 bound_to 10752
  154.6605  135.5393  153.8076 H   0  0  0  0  0  0  0  0  0  0  0  0  # atno 10765 bound_to 10752
  139.9895  134.9520  156.9824 H   0  0  0  0  0  0  0  0  0  0  0  0  # atno 11005 bound_to 11000
  145.7372  139.1753  143.2397 LP  0  0  0  0  0  0  0  0  0  0  0  0  # atno 17320 bound_to 7965
  146.1162  140.7367  142.9480 LP  0  0  0  0  0  0  0  0  0  0  0  0  # atno 17321 bound_to 7965
  139.9877  143.5882  152.2921 LP  0  0  0  0  0  0  0  0  0  0  0  0  # atno 17342 bound_to 10162
  139.6525  144.7661  151.2119 LP  0  0  0  0  0  0  0  0  0  0  0  0  # atno 17343 bound_to 10162
  156.1396  130.6235  151.0449 LP  0  0  0  0  0  0  0  0  0  0  0  0  # atno 17370 bound_to 10713
  157.6774  131.0847  150.7460 LP  0  0  0  0  0  0  0  0  0  0  0  0  # atno 17371 bound_to 10713
  140.4935  134.1169  155.7237 LP  0  0  0  0  0  0  0  0  0  0  0  0  # atno 17394 bound_to 11000
  141.1554  133.8892  157.1991 LP  0  0  0  0  0  0  0  0  0  0  0  0  # atno 17395 bound_to 11000

$$$$
