AV-unprocessed.smi:196|AV-procd|sdf|1539|dock3
  -GOLD-   2262019393D 1   1.00000     0.00000
 Structure written by MMmdl.
 47 50  0  0  0  0  0  0  0  0  1 V2000
  146.5045  133.6711  161.8630 C   0  0  0  0  0  0  0  0  0  0  0  0
  146.4716  135.1528  162.2694 C   0  0  1  0  0  0  0  0  0  0  0  0
  147.1039  135.2668  163.5415 O   0  0  0  0  0  0  0  0  0  0  0  0
  147.7048  136.5454  163.6415 C   0  0  0  0  0  0  0  0  0  0  0  0
  148.2881  136.7415  162.2506 C   0  0  0  0  0  0  0  0  0  0  0  0
  147.2133  136.1539  161.3388 C   0  0  2  0  0  0  0  0  0  0  0  0
  146.3057  137.1942  161.0167 O   0  0  0  0  0  0  0  0  0  0  0  0
  147.7730  135.5763  160.0117 C   0  0  0  0  0  0  0  0  0  0  0  0
  148.5893  136.5233  159.2676 N   0  0  0  0  0  0  0  0  0  0  0  0
  149.8922  136.8789  159.5366 C   0  0  0  0  0  0  0  0  0  0  0  0
  150.4089  137.7611  158.7251 N   0  0  0  0  0  0  0  0  0  0  0  0
  149.3879  138.0238  157.8207 C   0  0  0  0  0  0  0  0  0  0  0  0
  149.2706  138.8734  156.6886 C   0  0  0  0  0  0  0  0  0  0  0  0
  150.2971  139.6801  156.3067 N   0  0  0  0  0  0  0  0  0  0  0  0
  149.9455  141.0880  156.4568 C   0  0  0  0  0  0  0  0  0  0  0  0
  149.5299  141.5800  155.0611 C   0  0  2  0  0  0  0  0  0  0  0  0
  148.2047  141.7026  154.9757 F   0  0  0  0  0  0  0  0  0  0  0  0
  150.0256  140.4996  154.0904 C   0  0  0  0  0  0  0  0  0  0  0  0
  150.9011  139.5899  154.9692 C   0  0  2  0  0  0  0  0  0  0  0  0
  151.1806  138.1803  154.4058 C   0  0  0  0  0  0  0  0  0  0  0  0
  150.6919  137.9038  153.1942 N   0  0  0  0  0  0  0  0  0  0  0  0
  151.8628  137.3661  155.0257 O   0  0  0  0  0  0  0  0  0  0  0  0
  148.0800  138.8826  156.0307 N   0  0  0  0  0  0  0  0  0  0  0  0
  147.0801  138.0959  156.4391 C   0  0  0  0  0  0  0  0  0  0  0  0
  147.0521  137.2486  157.4699 N   0  0  0  0  0  0  0  0  0  0  0  0
  148.2384  137.2496  158.1427 C   0  0  0  0  0  0  0  0  0  0  0  0
  149.9588  142.5584  154.8430 H   0  0  0  0  0  0  0  0  0  0  0  0
  151.8833  140.0579  155.0600 H   0  0  0  0  0  0  0  0  0  0  0  0
  146.0260  133.5117  160.8968 H   0  0  0  0  0  0  0  0  0  0  0  0
  145.9718  133.0622  162.5936 H   0  0  0  0  0  0  0  0  0  0  0  0
  147.5254  133.2927  161.8068 H   0  0  0  0  0  0  0  0  0  0  0  0
  145.4287  135.4509  162.3930 H   0  0  0  0  0  0  0  0  0  0  0  0
  146.9449  137.2968  163.8613 H   0  0  0  0  0  0  0  0  0  0  0  0
  148.4613  136.5757  164.4258 H   0  0  0  0  0  0  0  0  0  0  0  0
  148.5355  137.7811  162.0306 H   0  0  0  0  0  0  0  0  0  0  0  0
  149.2065  136.1582  162.1725 H   0  0  0  0  0  0  0  0  0  0  0  0
  145.7614  136.9071  160.2995 H   0  0  0  0  0  0  0  0  0  0  0  0
  148.3890  134.6984  160.2074 H   0  0  0  0  0  0  0  0  0  0  0  0
  146.9588  135.2453  159.3657 H   0  0  0  0  0  0  0  0  0  0  0  0
  150.4501  136.4654  160.3640 H   0  0  0  0  0  0  0  0  0  0  0  0
  149.1676  141.2712  157.2014 H   0  0  0  0  0  0  0  0  0  0  0  0
  150.8346  141.6220  156.7950 H   0  0  0  0  0  0  0  0  0  0  0  0
  149.1844  139.9481  153.6674 H   0  0  0  0  0  0  0  0  0  0  0  0
  150.5872  140.9283  153.2599 H   0  0  0  0  0  0  0  0  0  0  0  0
  150.8515  136.9968  152.7809 H   0  0  0  0  0  0  0  0  0  0  0  0
  150.1671  138.6069  152.6944 H   0  0  0  0  0  0  0  0  0  0  0  0
  146.1717  138.1557  155.8583 H   0  0  0  0  0  0  0  0  0  0  0  0
  1  2  1  0  0  0  0
  1 29  1  0  0  0  0
  1 30  1  0  0  0  0
  1 31  1  0  0  0  0
  2  6  1  0  0  0  0
  2  3  1  0  0  0  0
  2 32  1  0  0  0  0
  3  4  1  0  0  0  0
  4  5  1  0  0  0  0
  4 33  1  0  0  0  0
  4 34  1  0  0  0  0
  5  6  1  0  0  0  0
  5 35  1  0  0  0  0
  5 36  1  0  0  0  0
  6  7  1  0  0  0  0
  6  8  1  0  0  0  0
  7 37  1  0  0  0  0
  8  9  1  0  0  0  0
  8 38  1  0  0  0  0
  8 39  1  0  0  0  0
  9 26  1  0  0  0  0
  9 10  1  0  0  0  0
 10 11  2  0  0  0  0
 10 40  1  0  0  0  0
 11 12  1  0  0  0  0
 12 26  2  0  0  0  0
 12 13  1  0  0  0  0
 13 14  1  0  0  0  0
 13 23  2  0  0  0  0
 14 19  1  0  0  0  0
 14 15  1  0  0  0  0
 15 16  1  0  0  0  0
 15 41  1  0  0  0  0
 15 42  1  0  0  0  0
 16 27  1  0  0  0  0
 16 17  1  0  0  0  0
 16 18  1  0  0  0  0
 18 19  1  0  0  0  0
 18 43  1  0  0  0  0
 18 44  1  0  0  0  0
 19 28  1  0  0  0  0
 19 20  1  0  0  0  0
 20 21  1  0  0  0  0
 20 22  2  0  0  0  0
 21 45  1  0  0  0  0
 21 46  1  0  0  0  0
 23 24  1  0  0  0  0
 24 25  2  0  0  0  0
 24 47  1  0  0  0  0
 25 26  1  0  0  0  0
M  END
> <s_m_source_file>
AV-unprocessed.smi

> <i_m_source_file_index>
196

> <i_lp_mmshare_version>
43012

> <i_f3d_flags>
0

> <s_epik_input>
W0NIMl0xW0NIMl1PW0NAQEhdKFtDSDNdKVtDQEBdMShbT0hdKVtDSDJdbihbY0hdbjIpYyhjMjMpbltjSF1uYzNONFtDSDJdW0NASF0oRilbQ0gyXVtDQEhdNEMoPU8pW05IMl0=

> <s_epik_cmdline>
J2VwaWtfcHl0aG9uJywgJy1waCcsICc3LjAnLCAnLXRuJywgJzgnLCAnLW1hJywgJzIwMCcsICctbWV0YWxfYmluZGluZycsICctaW1hZScsICc8aW5maWxlLm1hZT4nLCAnLW9tYWUnLCAnPG91dGZpbGUubWFlPic=

> <r_lp_tautomer_probability>
1

> <r_epik_Ionization_Penalty>
0.000857933

> <r_epik_Ionization_Penalty_Charging>
0

> <r_epik_Ionization_Penalty_Neutral>
0.000857933

> <r_epik_State_Penalty>
0.000462053

> <r_epik_Charging_Adjusted_Penalty>
0.000462053

> <i_epik_Tot_Q>
0

> <i_epik_Tot_abs_Q>
0

> <r_epik_Metal_State_Penalty>
-0

> <b_epik_Metal_Only>
0

> <s_lp_Force_Field>
OPLS_2005

> <r_lp_Energy>
50.8061

> <b_lp_Chiralities_Consistent>
1

> <s_lp_Variant>
AV-unprocessed.smi:196-12

> <Gold.Version>
5.8.1

> <Gold.Id.Protein>
6NUR|6NUR_protein|mol2

> <Gold.PLP.Fitness>
39.1748

> <Gold.PLP.PLP>
-30.2471

> <Gold.PLP.part.hbond>
-5.6226

> <Gold.PLP.part.metal>
0.0000

> <Gold.PLP.part.buried>
11.4252

> <Gold.PLP.part.nonpolar>
-34.9032

> <Gold.PLP.part.repulsive>
0.2202

> <Gold.PLP.ligand.clash>
0.0000

> <Gold.PLP.ligand.torsion>
0.3251

> <Gold.PLP.Chemscore.Hbond>
3.1503

> <Gold.PLP.Chemscore.CHOScore>
0.0000

> <Gold.PLP.Chemscore.Metal>
0.0000

> <Gold.Chemscore.Hbonds>
donor molecule, donor type, donor heavy atom, donor atom, acceptor molecule, acceptor atom, score
      L1  H    21    45       P1  7949  0.75
      L1  H    21    46       P1  7957  0.70
      P1  H  6934  6947       L1     7  1.00
      P1  H 10752 10764       L1    22  0.73

> <Gold.PLP.Chemscore.Internal.Correction>
0.1270

> <Gold.Rescore>
     Score         DG    S(hbond)    S(metal)    S(lipo)     H(rot)  DE(clash)    DE(int)     intcor
      7.94     -14.37       2.18        0.00      80.16       3.04       5.17       1.25       ----

> <Gold.Chemscore.Fitness>
7.9444

> <Gold.Chemscore.DG>
-14.3673

> <Gold.Chemscore.ZeroCoef>
-5.4800

> <Gold.Chemscore.Hbond>
2.1838

> <Gold.Chemscore.Metal>
0.0000

> <Gold.Chemscore.Lipo>
80.1623

> <Gold.Chemscore.Internal_Hbond>
0.0000

> <Gold.Chemscore.DEClash>
5.1695

> <Gold.Chemscore.DEInternal>
1.2534

> <Gold.Chemscore.Rot>
3.0413

> <Gold.Chemscore.Internal.Correction>
   9.000000E+99

> <Gold.Chemscore.Hbonds>
donor molecule, donor type, donor heavy atom, donor atom, acceptor molecule, acceptor atom, score
      L1  H    21    45       P1  7949  0.09
      L1  H    21    46       P1  7957  0.21
      P1  H  6934  6947       L1     7  0.81
      P1  H 10752 10764       L1    22  0.70

> <Gold.Chemscore.Hbond.Weighted>
-7.2940

> <Gold.Chemscore.Metal.Weighted>
-0.0000

> <Gold.Chemscore.Lipo.Weighted>
-9.3790

> <Gold.Chemscore.Internal_Hbond.Weighted>
0.0000

> <Gold.Chemscore.DEClash.Weighted>
5.1695

> <Gold.Chemscore.DEInternal.Weighted>
1.2534

> <Gold.Chemscore.Rot.Weighted>
7.7856

> <Gold.Chemscore.Internal.Correction.Weighted>
   9.000000E+99

> <Gold.Protein.RotatedTorsions>
[ 6907 6896 6895 6894 ] final   15.85 input  -60.11 | X-H torsion
[ 7974 7965 7964 7962 ] final  110.05 input  175.53 | X-H torsion
[ 8008 7997 7996 7995 ] final  -76.16 input   59.86 | X-H torsion
[ 10167 10162 10161 10158 ] final  171.00 input  -65.29 | X-H torsion
[ 10718 10713 10712 10709 ] final  -76.94 input   66.30 | X-H torsion
[ 10763 10752 10751 10750 ] final  -56.29 input  -60.55 | X-H torsion
[ 11005 11000 10999 10996 ] final   85.16 input  -57.11 | X-H torsion

> <Gold.Protein.ActiveResidues>
 VAL166  LYS551  ARG553  GLY616  TRP617  ASP618  TYR619  PRO620  LYS621  CYS622 
 ASP623  PHE694  ASN695  SER759  ASP760  ASP761  ALA762  ILE779  LEU786  VAL792 
 PHE793  MET794  SER795  GLU796  ALA797  LYS798  CYS799  TRP800  GLU811  SER814 

> <Gold.Protein.RotatedAtoms>
  151.8246  135.0641  160.0428 H   0  0  0  0  0  0  0  0  0  0  0  0  # atno 6907 bound_to 6896
  152.2926  133.5571  159.5575 H   0  0  0  0  0  0  0  0  0  0  0  0  # atno 6908 bound_to 6896
  150.7237  134.0323  159.3780 H   0  0  0  0  0  0  0  0  0  0  0  0  # atno 6909 bound_to 6896
  145.2600  139.2706  143.4022 H   0  0  0  0  0  0  0  0  0  0  0  0  # atno 7974 bound_to 7965
  154.5480  140.0732  156.8621 H   0  0  0  0  0  0  0  0  0  0  0  0  # atno 8008 bound_to 7997
  155.3049  140.3386  155.4228 H   0  0  0  0  0  0  0  0  0  0  0  0  # atno 8009 bound_to 7997
  156.1936  140.1695  156.8030 H   0  0  0  0  0  0  0  0  0  0  0  0  # atno 8010 bound_to 7997
  139.5034  144.3534  151.9899 H   0  0  0  0  0  0  0  0  0  0  0  0  # atno 10167 bound_to 10162
  156.0160  130.4478  150.3269 H   0  0  0  0  0  0  0  0  0  0  0  0  # atno 10718 bound_to 10713
  154.2043  135.6405  153.5096 H   0  0  0  0  0  0  0  0  0  0  0  0  # atno 10763 bound_to 10752
  153.0004  135.5459  154.6282 H   0  0  0  0  0  0  0  0  0  0  0  0  # atno 10764 bound_to 10752
  154.5703  135.2916  155.0807 H   0  0  0  0  0  0  0  0  0  0  0  0  # atno 10765 bound_to 10752
  139.8979  134.8267  156.2544 H   0  0  0  0  0  0  0  0  0  0  0  0  # atno 11005 bound_to 11000
  146.3278  140.3014  142.8621 LP  0  0  0  0  0  0  0  0  0  0  0  0  # atno 17320 bound_to 7965
  144.9427  140.8095  143.5621 LP  0  0  0  0  0  0  0  0  0  0  0  0  # atno 17321 bound_to 7965
  140.2970  144.3689  150.6071 LP  0  0  0  0  0  0  0  0  0  0  0  0  # atno 17342 bound_to 10162
  140.5902  143.2168  151.7266 LP  0  0  0  0  0  0  0  0  0  0  0  0  # atno 17343 bound_to 10162
  157.1368  131.0286  151.2945 LP  0  0  0  0  0  0  0  0  0  0  0  0  # atno 17370 bound_to 10713
  157.4505  130.7595  149.7147 LP  0  0  0  0  0  0  0  0  0  0  0  0  # atno 17371 bound_to 10713
  141.0203  133.7045  156.1257 LP  0  0  0  0  0  0  0  0  0  0  0  0  # atno 17394 bound_to 11000
  140.7243  134.4324  157.5572 LP  0  0  0  0  0  0  0  0  0  0  0  0  # atno 17395 bound_to 11000

$$$$
