AV-unprocessed.smi:1891|AV-procd|sdf|7668|dock8
  -GOLD-   22720 9403D 1   1.00000     0.00000
 Structure written by MMmdl.
 37 39  0  0  0  0  0  0  0  0  2 V2000
  151.3109  136.4810  154.1030 O   0  0  0  0  0  0  0  0  0  0  0  0
  151.6713  137.7911  154.4791 C   0  0  0  0  0  0  0  0  0  0  0  0
  150.5439  138.7576  154.3203 C   0  0  0  0  0  0  0  0  0  0  0  0
  149.4539  138.5791  153.5215 N   0  3  0  0  0  0  0  0  0  0  0  0
  148.6032  139.6799  153.6279 C   0  0  0  0  0  0  0  0  0  0  0  0
  147.3855  139.9546  153.0129 C   0  0  0  0  0  0  0  0  0  0  0  0
  146.7713  141.1803  153.3447 C   0  0  0  0  0  0  0  0  0  0  0  0
  147.3669  142.0776  154.2550 C   0  0  0  0  0  0  0  0  0  0  0  0
  148.6014  141.7877  154.8727 C   0  0  0  0  0  0  0  0  0  0  0  0
  149.2018  140.5739  154.5386 C   0  0  0  0  0  0  0  0  0  0  0  0
  150.3945  139.9640  154.9425 N   0  0  0  0  0  0  0  0  0  0  0  0
  151.2560  140.6598  155.9116 C   0  0  0  0  0  0  0  0  0  0  0  0
  150.5363  140.9826  157.2363 C   0  0  1  0  0  0  0  0  0  0  0  0
  149.5235  140.0238  157.4756 O   0  0  0  0  0  0  0  0  0  0  0  0
  151.5281  141.0845  158.3871 C   0  0  0  0  0  0  0  0  0  0  0  0
  152.2693  139.9529  158.7963 C   0  0  0  0  0  0  0  0  0  0  0  0
  153.1933  140.0516  159.8543 C   0  0  0  0  0  0  0  0  0  0  0  0
  153.3860  141.2828  160.5088 C   0  0  0  0  0  0  0  0  0  0  0  0
  154.2744  141.3778  161.5262 F   0  0  0  0  0  0  0  0  0  0  0  0
  152.6566  142.4160  160.1019 C   0  0  0  0  0  0  0  0  0  0  0  0
  151.7326  142.3199  159.0429 C   0  0  0  0  0  0  0  0  0  0  0  0
  151.0473  143.4232  158.6563 F   0  0  0  0  0  0  0  0  0  0  0  0
  151.1598  136.4688  153.1693 H   0  0  0  0  0  0  0  0  0  0  0  0
  152.0179  137.7891  155.5123 H   0  0  0  0  0  0  0  0  0  0  0  0
  152.5115  138.1136  153.8638 H   0  0  0  0  0  0  0  0  0  0  0  0
  146.9273  139.2688  152.3153 H   0  0  0  0  0  0  0  0  0  0  0  0
  145.8245  141.4374  152.8922 H   0  0  0  0  0  0  0  0  0  0  0  0
  146.8669  143.0074  154.4848 H   0  0  0  0  0  0  0  0  0  0  0  0
  149.0486  142.4812  155.5696 H   0  0  0  0  0  0  0  0  0  0  0  0
  152.1300  140.0356  156.0976 H   0  0  0  0  0  0  0  0  0  0  0  0
  151.6296  141.5708  155.4421 H   0  0  0  0  0  0  0  0  0  0  0  0
  150.0242  141.9399  157.1388 H   0  0  0  0  0  0  0  0  0  0  0  0
  149.5363  139.3932  156.7716 H   0  0  0  0  0  0  0  0  0  0  0  0
  152.1353  139.0037  158.2984 H   0  0  0  0  0  0  0  0  0  0  0  0
  153.7555  139.1823  160.1623 H   0  0  0  0  0  0  0  0  0  0  0  0
  152.8078  143.3616  160.6013 H   0  0  0  0  0  0  0  0  0  0  0  0
  149.3053  137.7586  152.9483 H   0  0  0  0  0  0  0  0  0  0  0  0
  1  2  1  0  0  0  0
  1 23  1  0  0  0  0
  2  3  1  0  0  0  0
  2 24  1  0  0  0  0
  2 25  1  0  0  0  0
  3 11  1  0  0  0  0
  3  4  2  0  0  0  0
  4  5  1  0  0  0  0
  4 37  1  0  0  0  0
  5 10  2  0  0  0  0
  5  6  1  0  0  0  0
  6  7  2  0  0  0  0
  6 26  1  0  0  0  0
  7  8  1  0  0  0  0
  7 27  1  0  0  0  0
  8  9  2  0  0  0  0
  8 28  1  0  0  0  0
  9 10  1  0  0  0  0
  9 29  1  0  0  0  0
 10 11  1  0  0  0  0
 11 12  1  0  0  0  0
 12 13  1  0  0  0  0
 12 30  1  0  0  0  0
 12 31  1  0  0  0  0
 13 14  1  0  0  0  0
 13 15  1  0  0  0  0
 13 32  1  0  0  0  0
 14 33  1  0  0  0  0
 15 21  1  0  0  0  0
 15 16  2  0  0  0  0
 16 17  1  0  0  0  0
 16 34  1  0  0  0  0
 17 18  2  0  0  0  0
 17 35  1  0  0  0  0
 18 19  1  0  0  0  0
 18 20  1  0  0  0  0
 20 21  2  0  0  0  0
 20 36  1  0  0  0  0
 21 22  1  0  0  0  0
M  CHG  1   4   1
M  END
> <s_m_source_file>
AV-unprocessed.smi

> <i_m_source_file_index>
1891

> <i_lp_mmshare_version>
43012

> <i_f3d_flags>
0

> <s_epik_input>
W2NIXTFbY0hdW2NIXVtjSF1jKGMxMiluKGMobjIpW0NIMl1bT0hdKVtDSDJdW0NASF0oW09IXSljM1tjSF1bY0hdYyhGKVtjSF1jM0Y=

> <s_epik_cmdline>
J2VwaWtfcHl0aG9uJywgJy1waCcsICc3LjAnLCAnLXRuJywgJzgnLCAnLW1hJywgJzIwMCcsICctbWV0YWxfYmluZGluZycsICctaW1hZScsICc8aW5maWxlLm1hZT4nLCAnLW9tYWUnLCAnPG91dGZpbGUubWFlPic=

> <r_epik_Ionization_Penalty>
1.35643

> <r_epik_Ionization_Penalty_Charging>
1.35557

> <r_epik_Ionization_Penalty_Neutral>
0.00085758

> <r_epik_State_Penalty>
1.43401

> <r_epik_Charging_Adjusted_Penalty>
2.78958

> <i_epik_Tot_Q>
1

> <i_epik_Tot_abs_Q>
1

> <r_epik_Metal_State_Penalty>
5.47166

> <b_epik_Metal_Only>
0

> <s_lp_Force_Field>
OPLS_2005

> <r_lp_Energy>
14.1785

> <b_lp_Chiralities_Consistent>
1

> <s_lp_Variant>
AV-unprocessed.smi:1891-4

> <Gold.Version>
5.8.1

> <Gold.Id.Protein>
6NUR|6NUR_protein|mol2

> <Gold.PLP.Fitness>
60.1909

> <Gold.PLP.PLP>
-49.5446

> <Gold.PLP.part.hbond>
-4.4311

> <Gold.PLP.part.metal>
0.0000

> <Gold.PLP.part.buried>
3.5265

> <Gold.PLP.part.nonpolar>
-48.1993

> <Gold.PLP.part.repulsive>
0.0767

> <Gold.PLP.ligand.clash>
0.0000

> <Gold.PLP.ligand.torsion>
0.6887

> <Gold.PLP.Chemscore.Hbond>
4.0000

> <Gold.PLP.Chemscore.CHOScore>
0.0000

> <Gold.PLP.Chemscore.Metal>
0.0000

> <Gold.Chemscore.Hbonds>
donor molecule, donor type, donor heavy atom, donor atom, acceptor molecule, acceptor atom, score
      L1  H     1    23       P1  7949  1.00
      L1  H     4    37       P1  7948  2.00
      P1  H 10752 10764       L1     1  1.00

> <Gold.PLP.Chemscore.Internal.Correction>
0.0237

> <Gold.Rescore>
     Score         DG    S(hbond)    S(metal)    S(lipo)     H(rot)  DE(clash)    DE(int)     intcor
     16.27     -18.80       2.39        0.00     110.11       2.95       2.06       0.46       ----

> <Gold.Chemscore.Fitness>
16.2715

> <Gold.Chemscore.DG>
-18.7985

> <Gold.Chemscore.ZeroCoef>
-5.4800

> <Gold.Chemscore.Hbond>
2.3897

> <Gold.Chemscore.Metal>
0.0000

> <Gold.Chemscore.Lipo>
110.1075

> <Gold.Chemscore.Internal_Hbond>
0.0000

> <Gold.Chemscore.DEClash>
2.0643

> <Gold.Chemscore.DEInternal>
0.4626

> <Gold.Chemscore.Rot>
2.9475

> <Gold.Chemscore.Internal.Correction>
   9.000000E+99

> <Gold.Chemscore.Hbonds>
donor molecule, donor type, donor heavy atom, donor atom, acceptor molecule, acceptor atom, score
      L1  H     1    23       P1  7949  0.45
      L1  H     4    37       P1  7948  0.96
      P1  H 10752 10764       L1     1  0.14

> <Gold.Chemscore.Hbond.Weighted>
-7.9816

> <Gold.Chemscore.Metal.Weighted>
-0.0000

> <Gold.Chemscore.Lipo.Weighted>
-12.8826

> <Gold.Chemscore.Internal_Hbond.Weighted>
0.0000

> <Gold.Chemscore.DEClash.Weighted>
2.0643

> <Gold.Chemscore.DEInternal.Weighted>
0.4626

> <Gold.Chemscore.Rot.Weighted>
7.5457

> <Gold.Chemscore.Internal.Correction.Weighted>
   9.000000E+99

> <Gold.Protein.RotatedTorsions>
[ 6907 6896 6895 6894 ] final  164.95 input  -60.11 | X-H torsion
[ 7974 7965 7964 7962 ] final   -6.11 input  175.53 | X-H torsion
[ 8008 7997 7996 7995 ] final    8.74 input   59.86 | X-H torsion
[ 10167 10162 10161 10158 ] final  -67.44 input  -65.29 | X-H torsion
[ 10718 10713 10712 10709 ] final  -94.71 input   66.30 | X-H torsion
[ 10763 10752 10751 10750 ] final  -72.77 input  -60.55 | X-H torsion
[ 11005 11000 10999 10996 ] final   65.61 input  -57.11 | X-H torsion

> <Gold.Protein.ActiveResidues>
 VAL166  LYS551  ARG553  GLY616  TRP617  ASP618  TYR619  PRO620  LYS621  CYS622 
 ASP623  PHE694  ASN695  SER759  ASP760  ASP761  ALA762  ILE779  LEU786  VAL792 
 PHE793  MET794  SER795  GLU796  ALA797  LYS798  CYS799  TRP800  GLU811  SER814 

> <Gold.Protein.RotatedAtoms>
  151.9019  133.3540  159.3833 H   0  0  0  0  0  0  0  0  0  0  0  0  # atno 6907 bound_to 6896
  150.7078  134.4820  159.5484 H   0  0  0  0  0  0  0  0  0  0  0  0  # atno 6908 bound_to 6896
  152.2410  134.8229  160.0511 H   0  0  0  0  0  0  0  0  0  0  0  0  # atno 6909 bound_to 6896
  146.2338  140.2121  142.8335 H   0  0  0  0  0  0  0  0  0  0  0  0  # atno 7974 bound_to 7965
  154.7708  140.2801  155.6139 H   0  0  0  0  0  0  0  0  0  0  0  0  # atno 8008 bound_to 7997
  156.2933  140.2642  156.2437 H   0  0  0  0  0  0  0  0  0  0  0  0  # atno 8009 bound_to 7997
  154.9902  140.0374  157.2306 H   0  0  0  0  0  0  0  0  0  0  0  0  # atno 8010 bound_to 7997
  140.5583  143.2312  151.6778 H   0  0  0  0  0  0  0  0  0  0  0  0  # atno 10167 bound_to 10162
  156.0031  130.5079  150.5967 H   0  0  0  0  0  0  0  0  0  0  0  0  # atno 10718 bound_to 10713
  154.4503  135.5919  153.6187 H   0  0  0  0  0  0  0  0  0  0  0  0  # atno 10763 bound_to 10752
  152.9813  135.6019  154.3613 H   0  0  0  0  0  0  0  0  0  0  0  0  # atno 10764 bound_to 10752
  154.3474  135.2841  155.2369 H   0  0  0  0  0  0  0  0  0  0  0  0  # atno 10765 bound_to 10752
  139.9883  134.6632  156.0136 H   0  0  0  0  0  0  0  0  0  0  0  0  # atno 11005 bound_to 11000
  144.9698  140.8358  143.5462 LP  0  0  0  0  0  0  0  0  0  0  0  0  # atno 17320 bound_to 7965
  145.2101  139.2209  143.5147 LP  0  0  0  0  0  0  0  0  0  0  0  0  # atno 17321 bound_to 7965
  139.5058  144.3704  152.0475 LP  0  0  0  0  0  0  0  0  0  0  0  0  # atno 17342 bound_to 10162
  140.2828  144.3840  150.6113 LP  0  0  0  0  0  0  0  0  0  0  0  0  # atno 17343 bound_to 10162
  157.3823  131.0783  151.1466 LP  0  0  0  0  0  0  0  0  0  0  0  0  # atno 17370 bound_to 10713
  157.2184  130.6470  149.5801 LP  0  0  0  0  0  0  0  0  0  0  0  0  # atno 17371 bound_to 10713
  141.1544  133.6544  156.4115 LP  0  0  0  0  0  0  0  0  0  0  0  0  # atno 17394 bound_to 11000
  140.4958  134.6532  157.5229 LP  0  0  0  0  0  0  0  0  0  0  0  0  # atno 17395 bound_to 11000

$$$$
