AV-unprocessed.smi:82|AV-procd|sdf|795|dock3
  -GOLD-   2262017173D 1   1.00000     0.00000
 Structure written by MMmdl.
 59 62  0  0  0  0  0  0  0  0  2 V2000
  152.5713  143.4462  159.3922 C   0  0  0  0  0  0  0  0  0  0  0  0
  152.2314  142.6015  158.3063 O   0  0  0  0  0  0  0  0  0  0  0  0
  151.0117  142.9757  157.6876 C   0  0  0  0  0  0  0  0  0  0  0  0
  150.7631  142.0567  156.4823 C   0  0  0  0  0  0  0  0  0  0  0  0
  149.3817  142.1829  155.9492 N   0  3  1  0  0  0  0  0  0  0  0  0
  149.2024  141.6032  154.5908 C   0  0  0  0  0  0  0  0  0  0  0  0
  147.7961  141.9088  154.0451 C   0  0  0  0  0  0  0  0  0  0  0  0
  146.7601  141.4934  154.9883 N   0  0  0  0  0  0  0  0  0  0  0  0
  146.2097  140.2545  154.8766 C   0  0  0  0  0  0  0  0  0  0  0  0
  145.5642  139.7074  155.9414 N   0  0  0  0  0  0  0  0  0  0  0  0
  144.9990  138.5009  155.8460 C   0  0  0  0  0  0  0  0  0  0  0  0
  144.9697  137.6753  154.7993 N   0  0  0  0  0  0  0  0  0  0  0  0
  145.6323  138.2057  153.7322 C   0  0  0  0  0  0  0  0  0  0  0  0
  146.2694  139.4786  153.6830 C   0  0  0  0  0  0  0  0  0  0  0  0
  146.8336  139.6724  152.4273 N   0  0  0  0  0  0  0  0  0  0  0  0
  146.5347  138.5857  151.7694 C   0  0  0  0  0  0  0  0  0  0  0  0
  145.8412  137.6382  152.4874 N   0  0  0  0  0  0  0  0  0  0  0  0
  145.3626  136.3761  152.0046 C   0  0  0  0  0  0  0  0  0  0  0  0
  145.7073  135.0717  152.7271 C   0  0  0  0  0  0  0  0  0  0  0  0
  145.7063  134.3279  151.3737 C   0  0  0  0  0  0  0  0  0  0  0  0
  146.8353  133.2999  151.1920 C   0  0  0  0  0  0  0  0  0  0  0  0
  146.8117  132.7385  149.8951 O   0  0  0  0  0  0  0  0  0  0  0  0
  144.3633  133.6784  150.9831 C   0  0  0  0  0  0  0  0  0  0  0  0
  144.2116  133.6130  149.5796 O   0  0  0  0  0  0  0  0  0  0  0  0
  145.9677  135.7224  150.7600 C   0  0  0  0  0  0  0  0  0  0  0  0
  146.9157  142.0394  156.3357 C   0  0  0  0  0  0  0  0  0  0  0  0
  148.3218  141.7588  156.9123 C   0  0  1  0  0  0  0  0  0  0  0  0
  148.4773  140.2979  157.3879 C   0  0  0  0  0  0  0  0  0  0  0  0
  153.5093  143.1136  159.8365 H   0  0  0  0  0  0  0  0  0  0  0  0
  151.8047  143.4201  160.1675 H   0  0  0  0  0  0  0  0  0  0  0  0
  152.7023  144.4778  159.0634 H   0  0  0  0  0  0  0  0  0  0  0  0
  150.1885  142.9330  158.4010 H   0  0  0  0  0  0  0  0  0  0  0  0
  151.0814  144.0088  157.3438 H   0  0  0  0  0  0  0  0  0  0  0  0
  151.4838  142.2669  155.6907 H   0  0  0  0  0  0  0  0  0  0  0  0
  150.9427  141.0287  156.8004 H   0  0  0  0  0  0  0  0  0  0  0  0
  149.9399  142.0124  153.9019 H   0  0  0  0  0  0  0  0  0  0  0  0
  149.3743  140.5268  154.6222 H   0  0  0  0  0  0  0  0  0  0  0  0
  147.6933  142.9829  153.8876 H   0  0  0  0  0  0  0  0  0  0  0  0
  147.6506  141.4485  153.0669 H   0  0  0  0  0  0  0  0  0  0  0  0
  144.5004  138.1452  156.7356 H   0  0  0  0  0  0  0  0  0  0  0  0
  146.8240  138.4417  150.7383 H   0  0  0  0  0  0  0  0  0  0  0  0
  144.2820  136.4845  151.8972 H   0  0  0  0  0  0  0  0  0  0  0  0
  146.6931  135.1045  153.1953 H   0  0  0  0  0  0  0  0  0  0  0  0
  144.9506  134.7349  153.4363 H   0  0  0  0  0  0  0  0  0  0  0  0
  147.8157  133.7427  151.3688 H   0  0  0  0  0  0  0  0  0  0  0  0
  146.7359  132.4842  151.9087 H   0  0  0  0  0  0  0  0  0  0  0  0
  147.4767  132.0686  149.8468 H   0  0  0  0  0  0  0  0  0  0  0  0
  144.2720  132.6724  151.3930 H   0  0  0  0  0  0  0  0  0  0  0  0
  143.5209  134.2437  151.3823 H   0  0  0  0  0  0  0  0  0  0  0  0
  144.9655  134.0162  149.1767 H   0  0  0  0  0  0  0  0  0  0  0  0
  145.4274  135.9319  149.8364 H   0  0  0  0  0  0  0  0  0  0  0  0
  147.0303  135.9452  150.6466 H   0  0  0  0  0  0  0  0  0  0  0  0
  146.7602  143.1170  156.2715 H   0  0  0  0  0  0  0  0  0  0  0  0
  146.1565  141.6708  157.0236 H   0  0  0  0  0  0  0  0  0  0  0  0
  148.4257  142.3891  157.7964 H   0  0  0  0  0  0  0  0  0  0  0  0
  147.6749  140.0297  158.0755 H   0  0  0  0  0  0  0  0  0  0  0  0
  149.4157  140.1433  157.9200 H   0  0  0  0  0  0  0  0  0  0  0  0
  148.4465  139.5882  156.5624 H   0  0  0  0  0  0  0  0  0  0  0  0
  149.2357  143.1763  155.8370 H   0  0  0  0  0  0  0  0  0  0  0  0
  1  2  1  0  0  0  0
  1 29  1  0  0  0  0
  1 30  1  0  0  0  0
  1 31  1  0  0  0  0
  2  3  1  0  0  0  0
  3  4  1  0  0  0  0
  3 32  1  0  0  0  0
  3 33  1  0  0  0  0
  4  5  1  0  0  0  0
  4 34  1  0  0  0  0
  4 35  1  0  0  0  0
  5 27  1  0  0  0  0
  5  6  1  0  0  0  0
  5 59  1  0  0  0  0
  6  7  1  0  0  0  0
  6 36  1  0  0  0  0
  6 37  1  0  0  0  0
  7  8  1  0  0  0  0
  7 38  1  0  0  0  0
  7 39  1  0  0  0  0
  8  9  1  0  0  0  0
  8 26  1  0  0  0  0
  9 14  1  0  0  0  0
  9 10  2  0  0  0  0
 10 11  1  0  0  0  0
 11 12  2  0  0  0  0
 11 40  1  0  0  0  0
 12 13  1  0  0  0  0
 13 17  1  0  0  0  0
 13 14  2  0  0  0  0
 14 15  1  0  0  0  0
 15 16  2  0  0  0  0
 16 17  1  0  0  0  0
 16 41  1  0  0  0  0
 17 18  1  0  0  0  0
 18 25  1  0  0  0  0
 18 19  1  0  0  0  0
 18 42  1  0  0  0  0
 19 20  1  0  0  0  0
 19 43  1  0  0  0  0
 19 44  1  0  0  0  0
 20 21  1  0  0  0  0
 20 23  1  0  0  0  0
 20 25  1  0  0  0  0
 21 22  1  0  0  0  0
 21 45  1  0  0  0  0
 21 46  1  0  0  0  0
 22 47  1  0  0  0  0
 23 24  1  0  0  0  0
 23 48  1  0  0  0  0
 23 49  1  0  0  0  0
 24 50  1  0  0  0  0
 25 51  1  0  0  0  0
 25 52  1  0  0  0  0
 26 27  1  0  0  0  0
 26 53  1  0  0  0  0
 26 54  1  0  0  0  0
 27 28  1  0  0  0  0
 27 55  1  0  0  0  0
 28 56  1  0  0  0  0
 28 57  1  0  0  0  0
 28 58  1  0  0  0  0
M  CHG  1   5   1
M  END
> <s_m_source_file>
AV-unprocessed.smi

> <i_m_source_file_index>
82

> <i_lp_mmshare_version>
43012

> <i_f3d_flags>
0

> <s_epik_input>
W0NIM11PW0NIMl1bQ0gyXU4xW0NIMl1bQ0gyXU4oW0NIMl1bQ0BIXTFbQ0gzXSljKG5bY0hdbjIpYyhjMjMpbltjSF1uM1tDSF0oW0NIMl00KVtDSDJdQzQoW0NIMl1bT0hdKVtDSDJdW09IXQ==

> <s_epik_cmdline>
J2VwaWtfcHl0aG9uJywgJy1waCcsICc3LjAnLCAnLXRuJywgJzgnLCAnLW1hJywgJzIwMCcsICctbWV0YWxfYmluZGluZycsICctaW1hZScsICc8aW5maWxlLm1hZT4nLCAnLW9tYWUnLCAnPG91dGZpbGUubWFlPic=

> <r_lp_tautomer_probability>
1

> <r_epik_Ionization_Penalty>
0.304275

> <r_epik_Ionization_Penalty_Charging>
0.304214

> <r_epik_Ionization_Penalty_Neutral>
6.13137e-05

> <r_epik_State_Penalty>
0.300354

> <r_epik_Charging_Adjusted_Penalty>
0.604567

> <i_epik_Tot_Q>
1

> <i_epik_Tot_abs_Q>
1

> <r_epik_Metal_State_Penalty>
0.301147

> <b_epik_Metal_Only>
0

> <s_lp_Force_Field>
OPLS_2005

> <r_lp_Energy>
55.227

> <b_lp_Chiralities_Consistent>
1

> <s_lp_Variant>
AV-unprocessed.smi:82-2

> <Gold.Version>
5.8.1

> <Gold.Id.Protein>
6NUR|6NUR_protein|mol2

> <Gold.PLP.Fitness>
54.3034

> <Gold.PLP.PLP>
-43.0760

> <Gold.PLP.part.hbond>
-5.1532

> <Gold.PLP.part.metal>
0.0000

> <Gold.PLP.part.buried>
-3.1347

> <Gold.PLP.part.nonpolar>
-37.0113

> <Gold.PLP.part.repulsive>
1.0319

> <Gold.PLP.ligand.clash>
0.0000

> <Gold.PLP.ligand.torsion>
0.8757

> <Gold.PLP.Chemscore.Hbond>
4.0000

> <Gold.PLP.Chemscore.CHOScore>
0.0000

> <Gold.PLP.Chemscore.Metal>
0.0000

> <Gold.Chemscore.Hbonds>
donor molecule, donor type, donor heavy atom, donor atom, acceptor molecule, acceptor atom, score
      L1  H     5    59       P1  8028  2.00
      L1  H    22    47       P1 10747  1.00
      L1  H    24    50       P1  7921  0.84

> <Gold.PLP.Chemscore.Internal.Correction>
0.9788

> <Gold.Rescore>
     Score         DG    S(hbond)    S(metal)    S(lipo)     H(rot)  DE(clash)    DE(int)     intcor
     13.82     -16.20       2.86        0.00      88.58       3.60       0.22       2.16       ----

> <Gold.Chemscore.Fitness>
13.8249

> <Gold.Chemscore.DG>
-16.2037

> <Gold.Chemscore.ZeroCoef>
-5.4800

> <Gold.Chemscore.Hbond>
2.8637

> <Gold.Chemscore.Metal>
0.0000

> <Gold.Chemscore.Lipo>
88.5772

> <Gold.Chemscore.Internal_Hbond>
0.0000

> <Gold.Chemscore.DEClash>
0.2181

> <Gold.Chemscore.DEInternal>
2.1608

> <Gold.Chemscore.Rot>
3.5956

> <Gold.Chemscore.Internal.Correction>
   9.000000E+99

> <Gold.Chemscore.Hbonds>
donor molecule, donor type, donor heavy atom, donor atom, acceptor molecule, acceptor atom, score
      L1  H     5    59       P1  8028  0.98
      L1  H    22    47       P1 10747  0.99
      L1  H    24    50       P1  7921  0.82

> <Gold.Chemscore.Hbond.Weighted>
-9.5649

> <Gold.Chemscore.Metal.Weighted>
-0.0000

> <Gold.Chemscore.Lipo.Weighted>
-10.3635

> <Gold.Chemscore.Internal_Hbond.Weighted>
0.0000

> <Gold.Chemscore.DEClash.Weighted>
0.2181

> <Gold.Chemscore.DEInternal.Weighted>
2.1608

> <Gold.Chemscore.Rot.Weighted>
9.2047

> <Gold.Chemscore.Internal.Correction.Weighted>
   9.000000E+99

> <Gold.Protein.RotatedTorsions>
[ 6907 6896 6895 6894 ] final -112.33 input  -60.11 | X-H torsion
[ 7974 7965 7964 7962 ] final  144.43 input  175.53 | X-H torsion
[ 8008 7997 7996 7995 ] final    7.17 input   59.86 | X-H torsion
[ 10167 10162 10161 10158 ] final -144.46 input  -65.29 | X-H torsion
[ 10718 10713 10712 10709 ] final   -5.26 input   66.30 | X-H torsion
[ 10763 10752 10751 10750 ] final  -52.43 input  -60.55 | X-H torsion
[ 11005 11000 10999 10996 ] final   -2.07 input  -57.11 | X-H torsion

> <Gold.Protein.ActiveResidues>
 VAL166  LYS551  ARG553  GLY616  TRP617  ASP618  TYR619  PRO620  LYS621  CYS622 
 ASP623  PHE694  ASN695  SER759  ASP760  ASP761  ALA762  ILE779  LEU786  VAL792 
 PHE793  MET794  SER795  GLU796  ALA797  LYS798  CYS799  TRP800  GLU811  SER814 

> <Gold.Protein.RotatedAtoms>
  150.7751  133.9106  159.3368 H   0  0  0  0  0  0  0  0  0  0  0  0  # atno 6907 bound_to 6896
  151.6982  135.0933  160.0255 H   0  0  0  0  0  0  0  0  0  0  0  0  # atno 6908 bound_to 6896
  152.3783  133.6473  159.6177 H   0  0  0  0  0  0  0  0  0  0  0  0  # atno 6909 bound_to 6896
  144.8836  139.5662  143.5831 H   0  0  0  0  0  0  0  0  0  0  0  0  # atno 7974 bound_to 7965
  154.7503  140.2765  155.6298 H   0  0  0  0  0  0  0  0  0  0  0  0  # atno 8008 bound_to 7997
  156.2894  140.2679  156.2182 H   0  0  0  0  0  0  0  0  0  0  0  0  # atno 8009 bound_to 7997
  155.0145  140.0372  157.2402 H   0  0  0  0  0  0  0  0  0  0  0  0  # atno 8010 bound_to 7997
  139.7897  143.7983  152.2648 H   0  0  0  0  0  0  0  0  0  0  0  0  # atno 10167 bound_to 10162
  156.7492  130.5234  149.5807 H   0  0  0  0  0  0  0  0  0  0  0  0  # atno 10718 bound_to 10713
  154.1426  135.6503  153.4945 H   0  0  0  0  0  0  0  0  0  0  0  0  # atno 10763 bound_to 10752
  153.0161  135.5319  154.6889 H   0  0  0  0  0  0  0  0  0  0  0  0  # atno 10764 bound_to 10752
  154.6155  135.2958  155.0356 H   0  0  0  0  0  0  0  0  0  0  0  0  # atno 10765 bound_to 10752
  140.6543  133.9377  155.8398 H   0  0  0  0  0  0  0  0  0  0  0  0  # atno 11005 bound_to 11000
  146.3010  139.7428  142.9091 LP  0  0  0  0  0  0  0  0  0  0  0  0  # atno 17320 bound_to 7965
  145.3909  141.0372  143.3124 LP  0  0  0  0  0  0  0  0  0  0  0  0  # atno 17321 bound_to 7965
  139.8071  144.7351  150.9747 LP  0  0  0  0  0  0  0  0  0  0  0  0  # atno 17342 bound_to 10162
  140.7820  143.4287  151.0727 LP  0  0  0  0  0  0  0  0  0  0  0  0  # atno 17343 bound_to 10162
  156.1412  130.6246  151.0470 LP  0  0  0  0  0  0  0  0  0  0  0  0  # atno 17370 bound_to 10713
  157.6784  131.0844  150.7434 LP  0  0  0  0  0  0  0  0  0  0  0  0  # atno 17371 bound_to 10713
  141.0513  134.0480  157.3779 LP  0  0  0  0  0  0  0  0  0  0  0  0  # atno 17394 bound_to 11000
  139.9035  135.0172  156.7379 LP  0  0  0  0  0  0  0  0  0  0  0  0  # atno 17395 bound_to 11000

$$$$
