AV-unprocessed.smi:3263|AV-procd|sdf|12490|dock4
  -GOLD-   2272018393D 1   1.00000     0.00000
 Structure written by MMmdl.
 42 44  0  0  0  0  0  0  0  0  2 V2000
  153.2254  139.3727  157.8076 O   0  0  0  0  0  0  0  0  0  0  0  0
  152.0817  139.8274  157.8405 C   0  0  0  0  0  0  0  0  0  0  0  0
  151.7171  140.9277  158.8405 C   0  0  0  0  0  0  0  0  0  0  0  0
  152.6054  142.1843  158.7016 C   0  0  2  0  0  0  0  0  0  0  0  0
  153.2206  142.6710  160.0313 C   0  0  0  0  0  0  0  0  0  0  0  0
  152.8793  144.1733  160.0406 C   0  0  2  0  0  0  0  0  0  0  0  0
  151.3790  144.3477  160.3396 C   0  0  0  0  0  0  0  0  0  0  0  0
  150.7173  143.8816  159.0299 C   0  0  0  0  0  0  0  0  0  0  0  0
  151.9258  143.4698  158.1638 C   0  0  1  0  0  0  0  0  0  0  0  0
  152.9479  144.5300  158.5598 C   0  0  0  0  0  0  0  0  0  0  0  0
  151.1038  139.4200  157.0170 N   0  0  0  0  0  0  0  0  0  0  0  0
  151.2687  138.4394  155.9516 C   0  0  0  0  0  0  0  0  0  0  0  0
  150.9646  139.0545  154.5749 C   0  0  0  0  0  0  0  0  0  0  0  0
  149.5497  139.5904  154.4855 C   0  0  0  0  0  0  0  0  0  0  0  0
  149.1680  140.8131  155.0793 C   0  0  0  0  0  0  0  0  0  0  0  0
  147.8319  141.2491  154.9585 C   0  0  0  0  0  0  0  0  0  0  0  0
  146.9076  140.4547  154.2485 C   0  0  0  0  0  0  0  0  0  0  0  0
  147.3432  139.2421  153.6764 C   0  0  0  0  0  0  0  0  0  0  0  0
  148.6313  138.8585  153.8137 N   0  3  0  0  0  0  0  0  0  0  0  0
  150.6636  141.1903  158.7363 H   0  0  0  0  0  0  0  0  0  0  0  0
  151.8235  140.5192  159.8460 H   0  0  0  0  0  0  0  0  0  0  0  0
  153.4271  141.9368  158.0266 H   0  0  0  0  0  0  0  0  0  0  0  0
  152.8130  142.1576  160.9032 H   0  0  0  0  0  0  0  0  0  0  0  0
  154.3000  142.5147  160.0326 H   0  0  0  0  0  0  0  0  0  0  0  0
  153.5257  144.7647  160.6896 H   0  0  0  0  0  0  0  0  0  0  0  0
  151.0574  143.7606  161.2005 H   0  0  0  0  0  0  0  0  0  0  0  0
  151.1397  145.3930  160.5392 H   0  0  0  0  0  0  0  0  0  0  0  0
  149.9991  143.0767  159.1822 H   0  0  0  0  0  0  0  0  0  0  0  0
  150.1804  144.7089  158.5638 H   0  0  0  0  0  0  0  0  0  0  0  0
  151.7047  143.4348  157.0965 H   0  0  0  0  0  0  0  0  0  0  0  0
  152.6223  145.5492  158.3443 H   0  0  0  0  0  0  0  0  0  0  0  0
  153.9342  144.3694  158.1204 H   0  0  0  0  0  0  0  0  0  0  0  0
  150.1915  139.8415  157.1172 H   0  0  0  0  0  0  0  0  0  0  0  0
  152.2803  138.0305  155.9772 H   0  0  0  0  0  0  0  0  0  0  0  0
  150.5917  137.6067  156.1450 H   0  0  0  0  0  0  0  0  0  0  0  0
  151.6683  139.8610  154.3638 H   0  0  0  0  0  0  0  0  0  0  0  0
  151.1042  138.3133  153.7867 H   0  0  0  0  0  0  0  0  0  0  0  0
  149.8872  141.4103  155.6209 H   0  0  0  0  0  0  0  0  0  0  0  0
  147.5199  142.1819  155.4052 H   0  0  0  0  0  0  0  0  0  0  0  0
  145.8800  140.7709  154.1444 H   0  0  0  0  0  0  0  0  0  0  0  0
  146.7057  138.5724  153.1177 H   0  0  0  0  0  0  0  0  0  0  0  0
  148.9251  137.9769  153.3918 H   0  0  0  0  0  0  0  0  0  0  0  0
  1  2  2  0  0  0  0
  2  3  1  0  0  0  0
  2 11  1  0  0  0  0
  3  4  1  0  0  0  0
  3 20  1  0  0  0  0
  3 21  1  0  0  0  0
  4  9  1  0  0  0  0
  4  5  1  0  0  0  0
  4 22  1  0  0  0  0
  5  6  1  0  0  0  0
  5 23  1  0  0  0  0
  5 24  1  0  0  0  0
  6 10  1  0  0  0  0
  6  7  1  0  0  0  0
  6 25  1  0  0  0  0
  7  8  1  0  0  0  0
  7 26  1  0  0  0  0
  7 27  1  0  0  0  0
  8  9  1  0  0  0  0
  8 28  1  0  0  0  0
  8 29  1  0  0  0  0
  9 10  1  0  0  0  0
  9 30  1  0  0  0  0
 10 31  1  0  0  0  0
 10 32  1  0  0  0  0
 11 12  1  0  0  0  0
 11 33  1  0  0  0  0
 12 13  1  0  0  0  0
 12 34  1  0  0  0  0
 12 35  1  0  0  0  0
 13 14  1  0  0  0  0
 13 36  1  0  0  0  0
 13 37  1  0  0  0  0
 14 19  1  0  0  0  0
 14 15  2  0  0  0  0
 15 16  1  0  0  0  0
 15 38  1  0  0  0  0
 16 17  2  0  0  0  0
 16 39  1  0  0  0  0
 17 18  1  0  0  0  0
 17 40  1  0  0  0  0
 18 19  2  0  0  0  0
 18 41  1  0  0  0  0
 19 42  1  0  0  0  0
M  CHG  1  19   1
M  END
> <s_m_source_file>
AV-unprocessed.smi

> <i_m_source_file_index>
3263

> <i_lp_mmshare_version>
43012

> <i_f3d_flags>
0

> <s_epik_input>
W0NIMl0xW0NIMl1bQ0BASF0oW0NIMl0yKVtDQEBIXShbQ0gyXVtDQEhdMTIpW0NIMl1DKD1PKVtOSF1bQ0gyXVtDSDJdYzNbY0hdW2NIXVtjSF1bY0hdbjM=

> <s_epik_cmdline>
J2VwaWtfcHl0aG9uJywgJy1waCcsICc3LjAnLCAnLXRuJywgJzgnLCAnLW1hJywgJzIwMCcsICctbWV0YWxfYmluZGluZycsICctaW1hZScsICc8aW5maWxlLm1hZT4nLCAnLW9tYWUnLCAnPG91dGZpbGUubWFlPic=

> <r_epik_Ionization_Penalty>
1.83579

> <r_epik_Ionization_Penalty_Charging>
1.83579

> <r_epik_Ionization_Penalty_Neutral>
2.47288e-08

> <r_epik_State_Penalty>
1.95213

> <r_epik_Charging_Adjusted_Penalty>
3.78793

> <i_epik_Tot_Q>
1

> <i_epik_Tot_abs_Q>
1

> <r_epik_Metal_State_Penalty>
1.97847

> <b_epik_Metal_Only>
0

> <s_lp_Force_Field>
OPLS_2005

> <r_lp_Energy>
51.925

> <b_lp_Chiralities_Consistent>
1

> <s_lp_Variant>
AV-unprocessed.smi:3263-5

> <Gold.Version>
5.8.1

> <Gold.Id.Protein>
6NUR|6NUR_protein|mol2

> <Gold.PLP.Fitness>
51.9258

> <Gold.PLP.PLP>
-44.7553

> <Gold.PLP.part.hbond>
-3.0000

> <Gold.PLP.part.metal>
0.0000

> <Gold.PLP.part.buried>
-3.4670

> <Gold.PLP.part.nonpolar>
-38.5452

> <Gold.PLP.part.repulsive>
0.1026

> <Gold.PLP.ligand.clash>
0.0000

> <Gold.PLP.ligand.torsion>
0.9387

> <Gold.PLP.Chemscore.Hbond>
3.0000

> <Gold.PLP.Chemscore.CHOScore>
0.0000

> <Gold.PLP.Chemscore.Metal>
0.0000

> <Gold.Chemscore.Hbonds>
donor molecule, donor type, donor heavy atom, donor atom, acceptor molecule, acceptor atom, score
      L1  H    19    42       P1  7948  0.65
      P1  H  7997  8010       L1     1  1.00

> <Gold.PLP.Chemscore.Internal.Correction>
0.0478

> <Gold.Rescore>
     Score         DG    S(hbond)    S(metal)    S(lipo)     H(rot)  DE(clash)    DE(int)     intcor
     22.29     -23.28       1.97        0.00     130.13       1.56       0.16       0.83       ----

> <Gold.Chemscore.Fitness>
22.2893

> <Gold.Chemscore.DG>
-23.2806

> <Gold.Chemscore.ZeroCoef>
-5.4800

> <Gold.Chemscore.Hbond>
1.9697

> <Gold.Chemscore.Metal>
0.0000

> <Gold.Chemscore.Lipo>
130.1340

> <Gold.Chemscore.Internal_Hbond>
0.0000

> <Gold.Chemscore.DEClash>
0.1564

> <Gold.Chemscore.DEInternal>
0.8349

> <Gold.Chemscore.Rot>
1.5640

> <Gold.Chemscore.Internal.Correction>
   9.000000E+99

> <Gold.Chemscore.Hbonds>
donor molecule, donor type, donor heavy atom, donor atom, acceptor molecule, acceptor atom, score
      L1  H    19    42       P1  7948  0.33
      P1  H  7997  8010       L1     1  1.00

> <Gold.Chemscore.Hbond.Weighted>
-6.5787

> <Gold.Chemscore.Metal.Weighted>
-0.0000

> <Gold.Chemscore.Lipo.Weighted>
-15.2257

> <Gold.Chemscore.Internal_Hbond.Weighted>
0.0000

> <Gold.Chemscore.DEClash.Weighted>
0.1564

> <Gold.Chemscore.DEInternal.Weighted>
0.8349

> <Gold.Chemscore.Rot.Weighted>
4.0038

> <Gold.Chemscore.Internal.Correction.Weighted>
   9.000000E+99

> <Gold.Protein.RotatedTorsions>
[ 6907 6896 6895 6894 ] final   45.46 input  -60.11 | X-H torsion
[ 7974 7965 7964 7962 ] final   74.09 input  175.53 | X-H torsion
[ 8008 7997 7996 7995 ] final   33.66 input   59.86 | X-H torsion
[ 10167 10162 10161 10158 ] final   94.58 input  -65.29 | X-H torsion
[ 10718 10713 10712 10709 ] final  -50.88 input   66.30 | X-H torsion
[ 10763 10752 10751 10750 ] final   31.87 input  -60.55 | X-H torsion
[ 11005 11000 10999 10996 ] final  -85.61 input  -57.11 | X-H torsion

> <Gold.Protein.ActiveResidues>
 VAL166  LYS551  ARG553  GLY616  TRP617  ASP618  TYR619  PRO620  LYS621  CYS622 
 ASP623  PHE694  ASN695  SER759  ASP760  ASP761  ALA762  ILE779  LEU786  VAL792 
 PHE793  MET794  SER795  GLU796  ALA797  LYS798  CYS799  TRP800  GLU811  SER814 

> <Gold.Protein.RotatedAtoms>
  152.2448  134.8192  160.0454 H   0  0  0  0  0  0  0  0  0  0  0  0  # atno 6907 bound_to 6896
  151.8894  133.3507  159.3801 H   0  0  0  0  0  0  0  0  0  0  0  0  # atno 6908 bound_to 6896
  150.7065  134.4865  159.5539 H   0  0  0  0  0  0  0  0  0  0  0  0  # atno 6909 bound_to 6896
  145.7326  139.2689  143.1532 H   0  0  0  0  0  0  0  0  0  0  0  0  # atno 7974 bound_to 7965
  155.1423  140.3267  155.4449 H   0  0  0  0  0  0  0  0  0  0  0  0  # atno 8008 bound_to 7997
  156.2601  140.1991  156.6488 H   0  0  0  0  0  0  0  0  0  0  0  0  # atno 8009 bound_to 7997
  154.6533  140.0556  156.9967 H   0  0  0  0  0  0  0  0  0  0  0  0  # atno 8010 bound_to 7997
  139.8070  144.6789  150.9690 H   0  0  0  0  0  0  0  0  0  0  0  0  # atno 10167 bound_to 10162
  156.1760  130.4150  149.9576 H   0  0  0  0  0  0  0  0  0  0  0  0  # atno 10718 bound_to 10713
  153.0292  135.6428  154.1266 H   0  0  0  0  0  0  0  0  0  0  0  0  # atno 10763 bound_to 10752
  154.0991  135.2861  155.3257 H   0  0  0  0  0  0  0  0  0  0  0  0  # atno 10764 bound_to 10752
  154.6411  135.5459  153.7854 H   0  0  0  0  0  0  0  0  0  0  0  0  # atno 10765 bound_to 10752
  141.1639  133.7408  156.9040 H   0  0  0  0  0  0  0  0  0  0  0  0  # atno 11005 bound_to 11000
  146.0523  140.8056  142.9775 LP  0  0  0  0  0  0  0  0  0  0  0  0  # atno 17320 bound_to 7965
  144.6889  140.3071  143.7254 LP  0  0  0  0  0  0  0  0  0  0  0  0  # atno 17321 bound_to 7965
  140.7819  143.4223  151.0822 LP  0  0  0  0  0  0  0  0  0  0  0  0  # atno 17342 bound_to 10162
  139.7892  143.8243  152.3149 LP  0  0  0  0  0  0  0  0  0  0  0  0  # atno 17343 bound_to 10162
  156.7362  130.9062  151.3629 LP  0  0  0  0  0  0  0  0  0  0  0  0  # atno 17370 bound_to 10713
  157.6836  130.9163  150.0329 LP  0  0  0  0  0  0  0  0  0  0  0  0  # atno 17371 bound_to 10713
  140.1563  134.9196  157.2658 LP  0  0  0  0  0  0  0  0  0  0  0  0  # atno 17394 bound_to 11000
  140.2663  134.3512  155.7389 LP  0  0  0  0  0  0  0  0  0  0  0  0  # atno 17395 bound_to 11000

$$$$
