AV-unprocessed.smi:3253|AV-procd|sdf|12445|dock2
  -GOLD-   2272018343D 1   1.00000     0.00000
 Structure written by MMmdl.
 37 38  0  0  0  0  0  0  0  0  2 V2000
  150.3946  139.2475  155.7187 C   0  0  0  0  0  0  0  0  0  0  0  0
  149.9166  140.6766  156.0376 C   0  0  2  0  0  0  0  0  0  0  0  0
  149.4164  141.4384  154.7940 C   0  0  0  0  0  0  0  0  0  0  0  0
  148.2473  140.8128  154.1687 N   0  0  0  0  0  0  0  0  0  0  0  0
  148.1072  139.5037  153.7840 C   0  0  0  0  0  0  0  0  0  0  0  0
  146.8507  139.3868  153.2475 C   0  0  0  0  0  0  0  0  0  0  0  0
  146.2790  140.6286  153.3244 N   0  3  0  0  0  0  0  0  0  0  0  0
  147.1310  141.4951  153.8820 C   0  0  0  0  0  0  0  0  0  0  0  0
  150.9908  141.4406  156.6660 N   0  0  0  0  0  0  0  0  0  0  0  0
  150.9352  142.0014  157.8844 C   0  0  0  0  0  0  0  0  0  0  0  0
  149.9490  141.9250  158.6179 O   0  0  0  0  0  0  0  0  0  0  0  0
  152.1857  142.7669  158.3450 C   0  0  2  0  0  0  0  0  0  0  0  0
  152.6788  142.2674  159.7186 C   0  0  0  0  0  0  0  0  0  0  0  0
  152.4306  143.4425  160.6496 C   0  0  0  0  0  0  0  0  0  0  0  0
  152.6151  143.3835  161.8643 O   0  0  0  0  0  0  0  0  0  0  0  0
  151.9893  144.5049  159.9710 N   0  0  0  0  0  0  0  0  0  0  0  0
  151.6365  145.7955  160.5463 C   0  0  0  0  0  0  0  0  0  0  0  0
  151.9159  144.2759  158.5382 C   0  0  0  0  0  0  0  0  0  0  0  0
  149.5889  138.6379  155.3099 H   0  0  0  0  0  0  0  0  0  0  0  0
  150.7545  138.7416  156.6152 H   0  0  0  0  0  0  0  0  0  0  0  0
  151.2083  139.2550  154.9929 H   0  0  0  0  0  0  0  0  0  0  0  0
  149.0846  140.6076  156.7410 H   0  0  0  0  0  0  0  0  0  0  0  0
  149.1442  142.4627  155.0541 H   0  0  0  0  0  0  0  0  0  0  0  0
  150.2033  141.5016  154.0408 H   0  0  0  0  0  0  0  0  0  0  0  0
  148.8897  138.7709  153.9193 H   0  0  0  0  0  0  0  0  0  0  0  0
  146.3346  138.5356  152.8274 H   0  0  0  0  0  0  0  0  0  0  0  0
  146.9511  142.5391  154.0673 H   0  0  0  0  0  0  0  0  0  0  0  0
  151.8423  141.5522  156.1349 H   0  0  0  0  0  0  0  0  0  0  0  0
  152.9755  142.6348  157.6033 H   0  0  0  0  0  0  0  0  0  0  0  0
  152.1548  141.3799  160.0776 H   0  0  0  0  0  0  0  0  0  0  0  0
  153.7454  142.0419  159.6951 H   0  0  0  0  0  0  0  0  0  0  0  0
  152.4825  146.2177  161.0897 H   0  0  0  0  0  0  0  0  0  0  0  0
  150.8017  145.6880  161.2395 H   0  0  0  0  0  0  0  0  0  0  0  0
  151.3443  146.5044  159.7712 H   0  0  0  0  0  0  0  0  0  0  0  0
  152.6795  144.8733  158.0381 H   0  0  0  0  0  0  0  0  0  0  0  0
  150.9456  144.5919  158.1507 H   0  0  0  0  0  0  0  0  0  0  0  0
  145.3465  140.8609  153.0056 H   0  0  0  0  0  0  0  0  0  0  0  0
  1  2  1  0  0  0  0
  1 19  1  0  0  0  0
  1 20  1  0  0  0  0
  1 21  1  0  0  0  0
  2  3  1  0  0  0  0
  2  9  1  0  0  0  0
  2 22  1  0  0  0  0
  3  4  1  0  0  0  0
  3 23  1  0  0  0  0
  3 24  1  0  0  0  0
  4  8  1  0  0  0  0
  4  5  1  0  0  0  0
  5  6  2  0  0  0  0
  5 25  1  0  0  0  0
  6  7  1  0  0  0  0
  6 26  1  0  0  0  0
  7  8  2  0  0  0  0
  7 37  1  0  0  0  0
  8 27  1  0  0  0  0
  9 10  1  0  0  0  0
  9 28  1  0  0  0  0
 10 11  2  0  0  0  0
 10 12  1  0  0  0  0
 12 18  1  0  0  0  0
 12 13  1  0  0  0  0
 12 29  1  0  0  0  0
 13 14  1  0  0  0  0
 13 30  1  0  0  0  0
 13 31  1  0  0  0  0
 14 15  2  0  0  0  0
 14 16  1  0  0  0  0
 16 17  1  0  0  0  0
 16 18  1  0  0  0  0
 17 32  1  0  0  0  0
 17 33  1  0  0  0  0
 17 34  1  0  0  0  0
 18 35  1  0  0  0  0
 18 36  1  0  0  0  0
M  CHG  1   7   1
M  END
> <s_m_source_file>
AV-unprocessed.smi

> <i_m_source_file_index>
3253

> <i_lp_mmshare_version>
43012

> <i_f3d_flags>
0

> <s_epik_input>
W2NIXTFuW2NIXVtjSF1uMVtDSDJdW0NAQEhdKFtDSDNdKVtOSF1DKD1PKVtDQEBIXTJbQ0gyXUMoPU8pTihbQ0gzXSlbQ0gyXTI=

> <s_epik_cmdline>
J2VwaWtfcHl0aG9uJywgJy1waCcsICc3LjAnLCAnLXRuJywgJzgnLCAnLW1hJywgJzIwMCcsICctbWV0YWxfYmluZGluZycsICctaW1hZScsICc8aW5maWxlLm1hZT4nLCAnLW9tYWUnLCAnPG91dGZpbGUubWFlPic=

> <r_lp_tautomer_probability>
1

> <r_epik_Ionization_Penalty>
0.251561

> <r_epik_Ionization_Penalty_Charging>
0

> <r_epik_Ionization_Penalty_Neutral>
0.251561

> <r_epik_State_Penalty>
0.242926

> <r_epik_Charging_Adjusted_Penalty>
0.242926

> <i_epik_Tot_Q>
1

> <i_epik_Tot_abs_Q>
1

> <r_epik_Metal_State_Penalty>
0.533885

> <b_epik_Metal_Only>
0

> <s_lp_Force_Field>
OPLS_2005

> <r_lp_Energy>
15.657

> <b_lp_Chiralities_Consistent>
1

> <s_lp_Variant>
AV-unprocessed.smi:3253-1

> <Gold.Version>
5.8.1

> <Gold.Id.Protein>
6NUR|6NUR_protein|mol2

> <Gold.PLP.Fitness>
46.8849

> <Gold.PLP.PLP>
-41.1571

> <Gold.PLP.part.hbond>
-1.1551

> <Gold.PLP.part.metal>
0.0000

> <Gold.PLP.part.buried>
-3.4814

> <Gold.PLP.part.nonpolar>
-37.4600

> <Gold.PLP.part.repulsive>
0.3059

> <Gold.PLP.ligand.clash>
0.0000

> <Gold.PLP.ligand.torsion>
0.1525

> <Gold.PLP.Chemscore.Hbond>
2.0000

> <Gold.PLP.Chemscore.CHOScore>
0.0000

> <Gold.PLP.Chemscore.Metal>
0.0000

> <Gold.Chemscore.Hbonds>
donor molecule, donor type, donor heavy atom, donor atom, acceptor molecule, acceptor atom, score
      L1  H     7    37       P1 10175  2.00

> <Gold.PLP.Chemscore.Internal.Correction>
0.0327

> <Gold.Rescore>
     Score         DG    S(hbond)    S(metal)    S(lipo)     H(rot)  DE(clash)    DE(int)     intcor
     12.05     -12.40       0.95        0.00      76.44       2.03       0.22       0.13       ----

> <Gold.Chemscore.Fitness>
12.0537

> <Gold.Chemscore.DG>
-12.4018

> <Gold.Chemscore.ZeroCoef>
-5.4800

> <Gold.Chemscore.Hbond>
0.9539

> <Gold.Chemscore.Metal>
0.0000

> <Gold.Chemscore.Lipo>
76.4370

> <Gold.Chemscore.Internal_Hbond>
0.0000

> <Gold.Chemscore.DEClash>
0.2226

> <Gold.Chemscore.DEInternal>
0.1255

> <Gold.Chemscore.Rot>
2.0341

> <Gold.Chemscore.Internal.Correction>
   9.000000E+99

> <Gold.Chemscore.Hbonds>
donor molecule, donor type, donor heavy atom, donor atom, acceptor molecule, acceptor atom, score
      L1  H     7    37       P1 10175  0.44

> <Gold.Chemscore.Hbond.Weighted>
-3.1859

> <Gold.Chemscore.Metal.Weighted>
-0.0000

> <Gold.Chemscore.Lipo.Weighted>
-8.9431

> <Gold.Chemscore.Internal_Hbond.Weighted>
0.0000

> <Gold.Chemscore.DEClash.Weighted>
0.2226

> <Gold.Chemscore.DEInternal.Weighted>
0.1255

> <Gold.Chemscore.Rot.Weighted>
5.2072

> <Gold.Chemscore.Internal.Correction.Weighted>
   9.000000E+99

> <Gold.Protein.RotatedTorsions>
[ 6907 6896 6895 6894 ] final    8.99 input  -60.11 | X-H torsion
[ 7974 7965 7964 7962 ] final  101.79 input  175.53 | X-H torsion
[ 8008 7997 7996 7995 ] final -121.67 input   59.86 | X-H torsion
[ 10167 10162 10161 10158 ] final  -95.49 input  -65.29 | X-H torsion
[ 10718 10713 10712 10709 ] final  -83.06 input   66.30 | X-H torsion
[ 10763 10752 10751 10750 ] final -119.94 input  -60.55 | X-H torsion
[ 11005 11000 10999 10996 ] final  119.78 input  -57.11 | X-H torsion

> <Gold.Protein.ActiveResidues>
 VAL166  LYS551  ARG553  GLY616  TRP617  ASP618  TYR619  PRO620  LYS621  CYS622 
 ASP623  PHE694  ASN695  SER759  ASP760  ASP761  ALA762  ILE779  LEU786  VAL792 
 PHE793  MET794  SER795  GLU796  ALA797  LYS798  CYS799  TRP800  GLU811  SER814 

> <Gold.Protein.RotatedAtoms>
  151.7149  135.0905  160.0273 H   0  0  0  0  0  0  0  0  0  0  0  0  # atno 6907 bound_to 6896
  152.3638  133.6327  159.6044 H   0  0  0  0  0  0  0  0  0  0  0  0  # atno 6908 bound_to 6896
  150.7623  133.9297  159.3464 H   0  0  0  0  0  0  0  0  0  0  0  0  # atno 6909 bound_to 6896
  145.3676  139.2405  143.3472 H   0  0  0  0  0  0  0  0  0  0  0  0  # atno 7974 bound_to 7965
  155.1518  140.0404  157.2823 H   0  0  0  0  0  0  0  0  0  0  0  0  # atno 8008 bound_to 7997
  154.6398  140.2544  155.7308 H   0  0  0  0  0  0  0  0  0  0  0  0  # atno 8009 bound_to 7997
  156.2527  140.2858  156.0787 H   0  0  0  0  0  0  0  0  0  0  0  0  # atno 8010 bound_to 7997
  140.3037  143.3147  152.0222 H   0  0  0  0  0  0  0  0  0  0  0  0  # atno 10167 bound_to 10162
  156.0024  130.4654  150.4200 H   0  0  0  0  0  0  0  0  0  0  0  0  # atno 10718 bound_to 10713
  154.8631  135.4220  154.2379 H   0  0  0  0  0  0  0  0  0  0  0  0  # atno 10763 bound_to 10752
  153.3351  135.6990  153.6920 H   0  0  0  0  0  0  0  0  0  0  0  0  # atno 10764 bound_to 10752
  153.5921  135.3553  155.2888 H   0  0  0  0  0  0  0  0  0  0  0  0  # atno 10765 bound_to 10752
  139.9159  134.9630  156.7706 H   0  0  0  0  0  0  0  0  0  0  0  0  # atno 11005 bound_to 11000
  146.2899  140.4321  142.8743 LP  0  0  0  0  0  0  0  0  0  0  0  0  # atno 17320 bound_to 7965
  144.8600  140.7125  143.6113 LP  0  0  0  0  0  0  0  0  0  0  0  0  # atno 17321 bound_to 7965
  139.4909  144.6437  151.6823 LP  0  0  0  0  0  0  0  0  0  0  0  0  # atno 17342 bound_to 10162
  140.5629  144.0238  150.6178 LP  0  0  0  0  0  0  0  0  0  0  0  0  # atno 17343 bound_to 10162
  157.2257  131.0492  151.2521 LP  0  0  0  0  0  0  0  0  0  0  0  0  # atno 17370 bound_to 10713
  157.3759  130.7205  149.6596 LP  0  0  0  0  0  0  0  0  0  0  0  0  # atno 17371 bound_to 10713
  140.6623  133.9633  155.7812 LP  0  0  0  0  0  0  0  0  0  0  0  0  # atno 17394 bound_to 11000
  141.0634  134.0312  157.3627 LP  0  0  0  0  0  0  0  0  0  0  0  0  # atno 17395 bound_to 11000

$$$$
