AV-unprocessed.smi:1756|AV-procd|sdf|7073|dock9
  -GOLD-   22720 8293D 1   1.00000     0.00000
 Structure written by MMmdl.
 37 38  0  0  0  0  0  0  0  0  2 V2000
  150.1064  137.2964  159.5768 O   0  0  0  0  0  0  0  0  0  0  0  0
  149.5923  137.9314  158.6565 C   0  0  0  0  0  0  0  0  0  0  0  0
  150.3015  138.6545  157.7781 N   0  0  0  0  0  0  0  0  0  0  0  0
  151.7527  138.8119  157.7825 C   0  0  0  0  0  0  0  0  0  0  0  0
  152.2281  139.7930  158.8694 C   0  0  2  0  0  0  0  0  0  0  0  0
  151.6488  141.2158  158.7135 C   0  0  0  0  0  0  0  0  0  0  0  0
  152.2451  142.1621  159.7615 C   0  0  0  0  0  0  0  0  0  0  0  0
  153.7745  142.0957  159.7100 C   0  0  0  0  0  0  0  0  0  0  0  0
  154.2464  140.6380  159.8213 C   0  0  0  0  0  0  0  0  0  0  0  0
  153.6507  139.8566  158.7901 O   0  0  0  0  0  0  0  0  0  0  0  0
  148.2787  137.9946  158.3723 N   0  0  0  0  0  0  0  0  0  0  0  0
  147.1835  137.4116  159.0338 C   0  0  0  0  0  0  0  0  0  0  0  0
  147.2351  136.8079  160.2540 C   0  0  0  0  0  0  0  0  0  0  0  0
  146.0573  136.2317  160.8906 C   0  0  0  0  0  0  0  0  0  0  0  0
  146.0640  135.6257  162.2829 C   0  0  0  0  0  0  0  0  0  0  0  0
  146.7834  134.5035  162.3152 F   0  0  0  0  0  0  0  0  0  0  0  0
  146.5970  136.4858  163.1493 F   0  0  0  0  0  0  0  0  0  0  0  0
  144.8255  135.3426  162.6869 F   0  0  0  0  0  0  0  0  0  0  0  0
  144.9159  136.3989  160.1307 C   0  0  0  0  0  0  0  0  0  0  0  0
  144.7803  136.9713  158.9145 N   0  5  0  0  0  0  0  0  0  0  0  0
  145.8895  137.5000  158.3252 C   0  0  0  0  0  0  0  0  0  0  0  0
  145.8335  138.0449  157.2220 O   0  0  0  0  0  0  0  0  0  0  0  0
  149.7967  139.1376  157.0494 H   0  0  0  0  0  0  0  0  0  0  0  0
  152.1832  137.8284  157.9724 H   0  0  0  0  0  0  0  0  0  0  0  0
  152.1220  139.1184  156.8023 H   0  0  0  0  0  0  0  0  0  0  0  0
  151.9523  139.3916  159.8462 H   0  0  0  0  0  0  0  0  0  0  0  0
  151.8668  141.5934  157.7137 H   0  0  0  0  0  0  0  0  0  0  0  0
  150.5634  141.2033  158.8129 H   0  0  0  0  0  0  0  0  0  0  0  0
  151.9015  143.1829  159.5921 H   0  0  0  0  0  0  0  0  0  0  0  0
  151.8981  141.8742  160.7546 H   0  0  0  0  0  0  0  0  0  0  0  0
  154.1293  142.5229  158.7710 H   0  0  0  0  0  0  0  0  0  0  0  0
  154.2062  142.6959  160.5111 H   0  0  0  0  0  0  0  0  0  0  0  0
  155.3305  140.5865  159.7203 H   0  0  0  0  0  0  0  0  0  0  0  0
  153.9983  140.2210  160.7987 H   0  0  0  0  0  0  0  0  0  0  0  0
  148.0261  138.5226  157.5497 H   0  0  0  0  0  0  0  0  0  0  0  0
  148.1579  136.7436  160.8054 H   0  0  0  0  0  0  0  0  0  0  0  0
  143.9677  136.0201  160.5683 H   0  0  0  0  0  0  0  0  0  0  0  0
  1  2  2  0  0  0  0
  2  3  1  0  0  0  0
  2 11  1  0  0  0  0
  3  4  1  0  0  0  0
  3 23  1  0  0  0  0
  4  5  1  0  0  0  0
  4 24  1  0  0  0  0
  4 25  1  0  0  0  0
  5 10  1  0  0  0  0
  5  6  1  0  0  0  0
  5 26  1  0  0  0  0
  6  7  1  0  0  0  0
  6 27  1  0  0  0  0
  6 28  1  0  0  0  0
  7  8  1  0  0  0  0
  7 29  1  0  0  0  0
  7 30  1  0  0  0  0
  8  9  1  0  0  0  0
  8 31  1  0  0  0  0
  8 32  1  0  0  0  0
  9 10  1  0  0  0  0
  9 33  1  0  0  0  0
  9 34  1  0  0  0  0
 11 12  1  0  0  0  0
 11 35  1  0  0  0  0
 12 21  1  0  0  0  0
 12 13  2  0  0  0  0
 13 14  1  0  0  0  0
 13 36  1  0  0  0  0
 14 15  1  0  0  0  0
 14 19  2  0  0  0  0
 15 16  1  0  0  0  0
 15 17  1  0  0  0  0
 15 18  1  0  0  0  0
 19 20  1  0  0  0  0
 19 37  1  0  0  0  0
 20 21  1  0  0  0  0
 21 22  2  0  0  0  0
M  CHG  1  20  -1
M  END
> <s_m_source_file>
AV-unprocessed.smi

> <i_m_source_file_index>
1756

> <i_lp_mmshare_version>
43012

> <i_f3d_flags>
0

> <s_epik_input>
Tz1jMVtuSF1bY0hdYyhDKEYpKEYpRilbY0hdYzFbTkhdQyg9TylbTkhdW0NIMl1bQ0BASF0yW0NIMl1bQ0gyXVtDSDJdW0NIMl1PMg==

> <s_epik_cmdline>
J2VwaWtfcHl0aG9uJywgJy1waCcsICc3LjAnLCAnLXRuJywgJzgnLCAnLW1hJywgJzIwMCcsICctbWV0YWxfYmluZGluZycsICctaW1hZScsICc8aW5maWxlLm1hZT4nLCAnLW9tYWUnLCAnPG91dGZpbGUubWFlPic=

> <r_lp_tautomer_probability>
1

> <r_epik_Ionization_Penalty>
3.16985

> <r_epik_Ionization_Penalty_Charging>
0.174782

> <r_epik_Ionization_Penalty_Neutral>
2.99507

> <r_epik_State_Penalty>
2.99125

> <r_epik_Charging_Adjusted_Penalty>
3.16603

> <i_epik_Tot_Q>
-1

> <i_epik_Tot_abs_Q>
1

> <r_epik_Metal_State_Penalty>
0.453096

> <b_epik_Metal_Only>
1

> <s_lp_Force_Field>
OPLS_2005

> <r_lp_Energy>
21.0117

> <b_lp_Chiralities_Consistent>
1

> <s_lp_Variant>
AV-unprocessed.smi:1756-3

> <Gold.Version>
5.8.1

> <Gold.Id.Protein>
6NUR|6NUR_protein|mol2

> <Gold.PLP.Fitness>
42.4397

> <Gold.PLP.PLP>
-36.8702

> <Gold.PLP.part.hbond>
-2.0000

> <Gold.PLP.part.metal>
0.0000

> <Gold.PLP.part.buried>
-4.9878

> <Gold.PLP.part.nonpolar>
-30.2720

> <Gold.PLP.part.repulsive>
0.1668

> <Gold.PLP.ligand.clash>
0.0000

> <Gold.PLP.ligand.torsion>
0.2407

> <Gold.PLP.Chemscore.Hbond>
2.0000

> <Gold.PLP.Chemscore.CHOScore>
0.0000

> <Gold.PLP.Chemscore.Metal>
0.0000

> <Gold.Chemscore.Hbonds>
donor molecule, donor type, donor heavy atom, donor atom, acceptor molecule, acceptor atom, score
      P1  H  7997  8009       L1    10  0.98

> <Gold.PLP.Chemscore.Internal.Correction>
0.0510

> <Gold.Rescore>
     Score         DG    S(hbond)    S(metal)    S(lipo)     H(rot)  DE(clash)    DE(int)     intcor
     15.39     -16.69       1.90        0.00      70.53       1.32       0.01       1.29       ----

> <Gold.Chemscore.Fitness>
15.3882

> <Gold.Chemscore.DG>
-16.6907

> <Gold.Chemscore.ZeroCoef>
-5.4800

> <Gold.Chemscore.Hbond>
1.9012

> <Gold.Chemscore.Metal>
0.0000

> <Gold.Chemscore.Lipo>
70.5315

> <Gold.Chemscore.Internal_Hbond>
0.0000

> <Gold.Chemscore.DEClash>
0.0137

> <Gold.Chemscore.DEInternal>
1.2888

> <Gold.Chemscore.Rot>
1.3248

> <Gold.Chemscore.Internal.Correction>
   9.000000E+99

> <Gold.Chemscore.Hbonds>
donor molecule, donor type, donor heavy atom, donor atom, acceptor molecule, acceptor atom, score
      P1  H  6896  6909       L1     1  0.05
      P1  H  7997  8009       L1    10  0.31

> <Gold.Chemscore.Hbond.Weighted>
-6.3501

> <Gold.Chemscore.Metal.Weighted>
-0.0000

> <Gold.Chemscore.Lipo.Weighted>
-8.2522

> <Gold.Chemscore.Internal_Hbond.Weighted>
0.0000

> <Gold.Chemscore.DEClash.Weighted>
0.0137

> <Gold.Chemscore.DEInternal.Weighted>
1.2888

> <Gold.Chemscore.Rot.Weighted>
3.3915

> <Gold.Chemscore.Internal.Correction.Weighted>
   9.000000E+99

> <Gold.Protein.RotatedTorsions>
[ 6907 6896 6895 6894 ] final   94.03 input  -60.11 | X-H torsion
[ 7974 7965 7964 7962 ] final -156.55 input  175.53 | X-H torsion
[ 8008 7997 7996 7995 ] final  126.84 input   59.86 | X-H torsion
[ 10167 10162 10161 10158 ] final  102.09 input  -65.29 | X-H torsion
[ 10718 10713 10712 10709 ] final -143.95 input   66.30 | X-H torsion
[ 10763 10752 10751 10750 ] final  -56.14 input  -60.55 | X-H torsion
[ 11005 11000 10999 10996 ] final  -24.02 input  -57.11 | X-H torsion

> <Gold.Protein.ActiveResidues>
 VAL166  LYS551  ARG553  GLY616  TRP617  ASP618  TYR619  PRO620  LYS621  CYS622 
 ASP623  PHE694  ASN695  SER759  ASP760  ASP761  ALA762  ILE779  LEU786  VAL792 
 PHE793  MET794  SER795  GLU796  ALA797  LYS798  CYS799  TRP800  GLU811  SER814 

> <Gold.Protein.RotatedAtoms>
  152.5451  134.1257  159.8417 H   0  0  0  0  0  0  0  0  0  0  0  0  # atno 6907 bound_to 6896
  151.1308  133.5031  159.2606 H   0  0  0  0  0  0  0  0  0  0  0  0  # atno 6908 bound_to 6896
  151.1678  135.0313  159.8793 H   0  0  0  0  0  0  0  0  0  0  0  0  # atno 6909 bound_to 6896
  144.7588  140.4094  143.5992 H   0  0  0  0  0  0  0  0  0  0  0  0  # atno 7974 bound_to 7965
  156.2875  140.2683  156.2177 H   0  0  0  0  0  0  0  0  0  0  0  0  # atno 8008 bound_to 7997
  155.0200  140.0386  157.2451 H   0  0  0  0  0  0  0  0  0  0  0  0  # atno 8009 bound_to 7997
  154.7444  140.2731  155.6351 H   0  0  0  0  0  0  0  0  0  0  0  0  # atno 8010 bound_to 7997
  139.7381  144.7018  151.0618 H   0  0  0  0  0  0  0  0  0  0  0  0  # atno 10167 bound_to 10162
  156.3642  130.7754  151.1926 H   0  0  0  0  0  0  0  0  0  0  0  0  # atno 10718 bound_to 10713
  154.2019  135.6409  153.5089 H   0  0  0  0  0  0  0  0  0  0  0  0  # atno 10763 bound_to 10752
  153.0010  135.5453  154.6306 H   0  0  0  0  0  0  0  0  0  0  0  0  # atno 10764 bound_to 10752
  154.5721  135.2918  155.0790 H   0  0  0  0  0  0  0  0  0  0  0  0  # atno 10765 bound_to 10752
  140.8806  133.7656  156.0298 H   0  0  0  0  0  0  0  0  0  0  0  0  # atno 11005 bound_to 11000
  145.6689  139.1595  143.2766 LP  0  0  0  0  0  0  0  0  0  0  0  0  # atno 17320 bound_to 7965
  146.1628  140.6762  142.9269 LP  0  0  0  0  0  0  0  0  0  0  0  0  # atno 17321 bound_to 7965
  140.7782  143.4959  150.9833 LP  0  0  0  0  0  0  0  0  0  0  0  0  # atno 17342 bound_to 10162
  139.8647  143.7269  152.3171 LP  0  0  0  0  0  0  0  0  0  0  0  0  # atno 17343 bound_to 10162
  157.7477  131.0391  150.4535 LP  0  0  0  0  0  0  0  0  0  0  0  0  # atno 17370 bound_to 10713
  156.4751  130.4061  149.6495 LP  0  0  0  0  0  0  0  0  0  0  0  0  # atno 17371 bound_to 10713
  140.8465  134.3004  157.5292 LP  0  0  0  0  0  0  0  0  0  0  0  0  # atno 17394 bound_to 11000
  139.8719  134.9445  156.3882 LP  0  0  0  0  0  0  0  0  0  0  0  0  # atno 17395 bound_to 11000

$$$$
