AV-unprocessed.smi:114|AV-procd|sdf|1111|dock8
  -GOLD-   2262018233D 1   1.00000     0.00000
 Structure written by MMmdl.
 32 34  0  0  0  0  0  0  0  0  1 V2000
  146.5335  133.0862  159.9952 N   0  0  0  0  0  0  0  0  0  0  0  0
  146.9599  134.3538  160.0840 C   0  0  0  0  0  0  0  0  0  0  0  0
  146.5874  135.0854  161.1601 N   0  0  0  0  0  0  0  0  0  0  0  0
  146.9906  136.3559  161.2876 C   0  0  0  0  0  0  0  0  0  0  0  0
  146.5706  137.0112  162.3950 F   0  0  0  0  0  0  0  0  0  0  0  0
  147.7619  137.0509  160.4441 N   0  0  0  0  0  0  0  0  0  0  0  0
  148.1384  136.3146  159.3589 C   0  0  0  0  0  0  0  0  0  0  0  0
  147.7815  134.9641  159.1053 C   0  0  0  0  0  0  0  0  0  0  0  0
  148.3445  134.5427  157.9084 N   0  0  0  0  0  0  0  0  0  0  0  0
  148.9960  135.5918  157.4815 C   0  0  0  0  0  0  0  0  0  0  0  0
  148.9306  136.7005  158.3000 N   0  0  0  0  0  0  0  0  0  0  0  0
  149.5533  138.0509  158.1175 C   0  0  2  0  0  0  0  0  0  0  0  0
  149.2410  138.4828  156.8265 O   0  0  0  0  0  0  0  0  0  0  0  0
  150.4244  138.7407  156.0717 C   0  0  2  0  0  0  0  0  0  0  0  0
  150.2055  138.4362  154.5794 C   0  0  0  0  0  0  0  0  0  0  0  0
  150.2088  139.6358  153.8361 O   0  0  0  0  0  0  0  0  0  0  0  0
  151.5211  137.9182  156.7634 C   0  0  2  0  0  0  0  0  0  0  0  0
  151.5639  136.5877  156.2740 O   0  0  0  0  0  0  0  0  0  0  0  0
  151.0890  137.9945  158.2210 C   0  0  2  0  0  0  0  0  0  0  0  0
  151.6141  136.9447  159.0150 O   0  0  0  0  0  0  0  0  0  0  0  0
  149.0829  138.6794  158.8744 H   0  0  0  0  0  0  0  0  0  0  0  0
  150.6742  139.7954  156.2030 H   0  0  0  0  0  0  0  0  0  0  0  0
  152.5063  138.3611  156.6141 H   0  0  0  0  0  0  0  0  0  0  0  0
  151.4191  138.9469  158.6377 H   0  0  0  0  0  0  0  0  0  0  0  0
  146.7985  132.5210  159.2012 H   0  0  0  0  0  0  0  0  0  0  0  0
  145.9488  132.6988  160.7216 H   0  0  0  0  0  0  0  0  0  0  0  0
  149.5452  135.5823  156.5513 H   0  0  0  0  0  0  0  0  0  0  0  0
  151.0173  137.8155  154.1985 H   0  0  0  0  0  0  0  0  0  0  0  0
  149.2746  137.8927  154.4153 H   0  0  0  0  0  0  0  0  0  0  0  0
  149.8919  139.4504  152.9653 H   0  0  0  0  0  0  0  0  0  0  0  0
  150.9610  136.0643  156.7801 H   0  0  0  0  0  0  0  0  0  0  0  0
  152.5553  136.9518  158.9288 H   0  0  0  0  0  0  0  0  0  0  0  0
  1  2  1  0  0  0  0
  1 25  1  0  0  0  0
  1 26  1  0  0  0  0
  2  8  1  0  0  0  0
  2  3  2  0  0  0  0
  3  4  1  0  0  0  0
  4  5  1  0  0  0  0
  4  6  2  0  0  0  0
  6  7  1  0  0  0  0
  7 11  1  0  0  0  0
  7  8  2  0  0  0  0
  8  9  1  0  0  0  0
  9 10  2  0  0  0  0
 10 11  1  0  0  0  0
 10 27  1  0  0  0  0
 11 12  1  0  0  0  0
 12 21  1  0  0  0  0
 12 19  1  0  0  0  0
 12 13  1  0  0  0  0
 13 14  1  0  0  0  0
 14 22  1  0  0  0  0
 14 15  1  0  0  0  0
 14 17  1  0  0  0  0
 15 16  1  0  0  0  0
 15 28  1  0  0  0  0
 15 29  1  0  0  0  0
 16 30  1  0  0  0  0
 17 23  1  0  0  0  0
 17 18  1  0  0  0  0
 17 19  1  0  0  0  0
 18 31  1  0  0  0  0
 19 24  1  0  0  0  0
 19 20  1  0  0  0  0
 20 32  1  0  0  0  0
M  END
> <s_m_source_file>
AV-unprocessed.smi

> <i_m_source_file_index>
114

> <i_lp_mmshare_version>
43012

> <i_f3d_flags>
0

> <s_epik_input>
RmMobjEpbmMoW05IMl0pYyhjMTIpbltjSF1uMltDQEBIXTNPW0NASF0oW0NIMl1bT0hdKVtDQEBIXShbT0hdKVtDQEBIXTNbT0hd

> <s_epik_cmdline>
J2VwaWtfcHl0aG9uJywgJy1waCcsICc3LjAnLCAnLXRuJywgJzgnLCAnLW1hJywgJzIwMCcsICctbWV0YWxfYmluZGluZycsICctaW1hZScsICc8aW5maWxlLm1hZT4nLCAnLW9tYWUnLCAnPG91dGZpbGUubWFlPic=

> <r_lp_tautomer_probability>
1

> <r_epik_Ionization_Penalty>
1.13199e-05

> <r_epik_Ionization_Penalty_Charging>
0

> <r_epik_Ionization_Penalty_Neutral>
1.13199e-05

> <r_epik_State_Penalty>
-0

> <r_epik_Charging_Adjusted_Penalty>
0

> <i_epik_Tot_Q>
0

> <i_epik_Tot_abs_Q>
0

> <r_epik_Metal_State_Penalty>
-0

> <b_epik_Metal_Only>
0

> <s_epik_Chemistry_Notes>
This compound contains an acetal/aminal-like group ( X-CH(R)-Y where X, Y are N, S, or O) that may be acid/base labile, releasing an aldehyde.

> <s_lp_Force_Field>
OPLS_2005

> <r_lp_Energy>
42.0109

> <b_lp_Chiralities_Consistent>
1

> <s_lp_Variant>
AV-unprocessed.smi:114-5

> <Gold.Version>
5.8.1

> <Gold.Id.Protein>
6NUR|6NUR_protein|mol2

> <Gold.PLP.Fitness>
38.1350

> <Gold.PLP.PLP>
-25.5137

> <Gold.PLP.part.hbond>
-5.5075

> <Gold.PLP.part.metal>
0.0000

> <Gold.PLP.part.buried>
-3.8653

> <Gold.PLP.part.nonpolar>
-16.2751

> <Gold.PLP.part.repulsive>
0.0140

> <Gold.PLP.ligand.clash>
0.0000

> <Gold.PLP.ligand.torsion>
0.8485

> <Gold.PLP.Chemscore.Hbond>
4.6895

> <Gold.PLP.Chemscore.CHOScore>
0.0000

> <Gold.PLP.Chemscore.Metal>
0.0000

> <Gold.Chemscore.Hbonds>
donor molecule, donor type, donor heavy atom, donor atom, acceptor molecule, acceptor atom, score
      L1  H    16    30       P1  7957  0.98
      P1  H  6896  6908       L1    20  0.63
      P1  H  6931  6943       L1     6  0.31
      P1  H  6934  6947       L1     6  0.74
      P1  H  7989  7998       L1    16  0.96
      P1  H 10752 10765       L1    18  0.37

> <Gold.PLP.Chemscore.Internal.Correction>
0.2499

> <Gold.Rescore>
     Score         DG    S(hbond)    S(metal)    S(lipo)     H(rot)  DE(clash)    DE(int)     intcor
      5.91      -7.84       2.99        0.00      22.85       4.03       0.05       1.88       ----

> <Gold.Chemscore.Fitness>
5.9104

> <Gold.Chemscore.DG>
-7.8377

> <Gold.Chemscore.ZeroCoef>
-5.4800

> <Gold.Chemscore.Hbond>
2.9926

> <Gold.Chemscore.Metal>
0.0000

> <Gold.Chemscore.Lipo>
22.8491

> <Gold.Chemscore.Internal_Hbond>
0.0000

> <Gold.Chemscore.DEClash>
0.0471

> <Gold.Chemscore.DEInternal>
1.8802

> <Gold.Chemscore.Rot>
4.0277

> <Gold.Chemscore.Internal.Correction>
   9.000000E+99

> <Gold.Chemscore.Hbonds>
donor molecule, donor type, donor heavy atom, donor atom, acceptor molecule, acceptor atom, score
      L1  H    16    30       P1  7957  0.92
      P1  H  6896  6908       L1    20  0.05
      P1  H  6931  6943       L1     6  0.11
      P1  H  6934  6947       L1     6  0.21
      P1  H  7989  7998       L1    16  0.28
      P1  H 10752 10765       L1    18  0.36

> <Gold.Chemscore.Hbond.Weighted>
-9.9954

> <Gold.Chemscore.Metal.Weighted>
-0.0000

> <Gold.Chemscore.Lipo.Weighted>
-2.6733

> <Gold.Chemscore.Internal_Hbond.Weighted>
0.0000

> <Gold.Chemscore.DEClash.Weighted>
0.0471

> <Gold.Chemscore.DEInternal.Weighted>
1.8802

> <Gold.Chemscore.Rot.Weighted>
10.3110

> <Gold.Chemscore.Internal.Correction.Weighted>
   9.000000E+99

> <Gold.Protein.RotatedTorsions>
[ 6907 6896 6895 6894 ] final -117.57 input  -60.11 | X-H torsion
[ 7974 7965 7964 7962 ] final  120.75 input  175.53 | X-H torsion
[ 8008 7997 7996 7995 ] final  -73.17 input   59.86 | X-H torsion
[ 10167 10162 10161 10158 ] final   -8.70 input  -65.29 | X-H torsion
[ 10718 10713 10712 10709 ] final   93.41 input   66.30 | X-H torsion
[ 10763 10752 10751 10750 ] final -149.87 input  -60.55 | X-H torsion
[ 11005 11000 10999 10996 ] final   66.05 input  -57.11 | X-H torsion

> <Gold.Protein.ActiveResidues>
 VAL166  LYS551  ARG553  GLY616  TRP617  ASP618  TYR619  PRO620  LYS621  CYS622 
 ASP623  PHE694  ASN695  SER759  ASP760  ASP761  ALA762  ILE779  LEU786  VAL792 
 PHE793  MET794  SER795  GLU796  ALA797  LYS798  CYS799  TRP800  GLU811  SER814 

> <Gold.Protein.RotatedAtoms>
  150.8147  133.8358  159.3165 H   0  0  0  0  0  0  0  0  0  0  0  0  # atno 6907 bound_to 6896
  151.6133  135.1036  160.0095 H   0  0  0  0  0  0  0  0  0  0  0  0  # atno 6908 bound_to 6896
  152.4239  133.7122  159.6542 H   0  0  0  0  0  0  0  0  0  0  0  0  # atno 6909 bound_to 6896
  145.1275  139.3349  143.4682 H   0  0  0  0  0  0  0  0  0  0  0  0  # atno 7974 bound_to 7965
  154.5225  140.0784  156.8198 H   0  0  0  0  0  0  0  0  0  0  0  0  # atno 8008 bound_to 7997
  155.3545  140.3414  155.4221 H   0  0  0  0  0  0  0  0  0  0  0  0  # atno 8009 bound_to 7997
  156.1697  140.1615  156.8457 H   0  0  0  0  0  0  0  0  0  0  0  0  # atno 8010 bound_to 7997
  140.7066  143.5939  150.8865 H   0  0  0  0  0  0  0  0  0  0  0  0  # atno 10167 bound_to 10162
  157.6954  131.0477  150.4030 H   0  0  0  0  0  0  0  0  0  0  0  0  # atno 10718 bound_to 10713
  154.8152  135.3298  154.7195 H   0  0  0  0  0  0  0  0  0  0  0  0  # atno 10763 bound_to 10752
  153.7837  135.6916  153.4888 H   0  0  0  0  0  0  0  0  0  0  0  0  # atno 10764 bound_to 10752
  153.1963  135.4532  155.0159 H   0  0  0  0  0  0  0  0  0  0  0  0  # atno 10765 bound_to 10752
  139.9856  134.6674  156.0183 H   0  0  0  0  0  0  0  0  0  0  0  0  # atno 11005 bound_to 11000
  146.3516  140.1260  142.8598 LP  0  0  0  0  0  0  0  0  0  0  0  0  # atno 17320 bound_to 7965
  145.0672  140.9130  143.4903 LP  0  0  0  0  0  0  0  0  0  0  0  0  # atno 17321 bound_to 7965
  139.9664  143.6105  152.2987 LP  0  0  0  0  0  0  0  0  0  0  0  0  # atno 17342 bound_to 10162
  139.6676  144.7662  151.1843 LP  0  0  0  0  0  0  0  0  0  0  0  0  # atno 17343 bound_to 10162
  156.4422  130.3994  149.6690 LP  0  0  0  0  0  0  0  0  0  0  0  0  # atno 17370 bound_to 10713
  156.3870  130.7608  151.2605 LP  0  0  0  0  0  0  0  0  0  0  0  0  # atno 17371 bound_to 10713
  141.1521  133.6547  156.4046 LP  0  0  0  0  0  0  0  0  0  0  0  0  # atno 17394 bound_to 11000
  140.5010  134.6486  157.5248 LP  0  0  0  0  0  0  0  0  0  0  0  0  # atno 17395 bound_to 11000

$$$$
