AV-unprocessed.smi:2511|AV-procd|sdf|9887|dock4
  -GOLD-   2272013523D 1   1.00000     0.00000
 Structure written by MMmdl.
 40 41  0  0  0  0  0  0  0  0  1 V2000
  145.2453  138.8417  151.9764 N   0  0  0  0  0  0  0  0  0  0  0  0
  146.5529  138.5785  152.0742 C   0  0  0  0  0  0  0  0  0  0  0  0
  147.0817  137.6525  151.4611 O   0  0  0  0  0  0  0  0  0  0  0  0
  147.3584  139.5076  152.9426 C   0  0  0  0  0  0  0  0  0  0  0  0
  148.4800  139.0164  153.6490 C   0  0  0  0  0  0  0  0  0  0  0  0
  149.2171  139.8967  154.4640 C   0  0  0  0  0  0  0  0  0  0  0  0
  148.8133  141.2497  154.5494 C   0  0  0  0  0  0  0  0  0  0  0  0
  149.4591  142.2335  155.3453 N   0  0  0  0  0  0  0  0  0  0  0  0
  150.3393  142.0646  156.3519 C   0  0  0  0  0  0  0  0  0  0  0  0
  150.7281  140.9756  156.7682 O   0  0  0  0  0  0  0  0  0  0  0  0
  150.8003  143.2133  156.8802 N   0  0  0  0  0  0  0  0  0  0  0  0
  151.7569  143.3955  157.9745 C   0  0  1  0  0  0  0  0  0  0  0  0
  151.2097  144.4435  158.9601 C   0  0  0  0  0  0  0  0  0  0  0  0
  152.1500  144.6267  160.1606 C   0  0  0  0  0  0  0  0  0  0  0  0
  152.4141  143.2905  160.8717 C   0  0  0  0  0  0  0  0  0  0  0  0
  152.9752  142.2308  159.9004 C   0  0  1  0  0  0  0  0  0  0  0  0
  153.2615  140.8903  160.6084 C   0  0  0  0  0  0  0  0  0  0  0  0
  153.7740  141.0942  161.8223 F   0  0  0  0  0  0  0  0  0  0  0  0
  152.1349  140.1877  160.7284 F   0  0  0  0  0  0  0  0  0  0  0  0
  154.1247  140.1709  159.8911 F   0  0  0  0  0  0  0  0  0  0  0  0
  152.0233  142.0574  158.6975 C   0  0  0  0  0  0  0  0  0  0  0  0
  147.6699  141.6382  153.8228 C   0  0  0  0  0  0  0  0  0  0  0  0
  146.9607  140.7997  153.0385 N   0  0  0  0  0  0  0  0  0  0  0  0
  144.6532  138.2519  151.4103 H   0  0  0  0  0  0  0  0  0  0  0  0
  144.8592  139.6309  152.4745 H   0  0  0  0  0  0  0  0  0  0  0  0
  148.7776  137.9805  153.5734 H   0  0  0  0  0  0  0  0  0  0  0  0
  150.0627  139.5124  155.0125 H   0  0  0  0  0  0  0  0  0  0  0  0
  149.2859  143.1896  155.0718 H   0  0  0  0  0  0  0  0  0  0  0  0
  150.4451  144.0646  156.4685 H   0  0  0  0  0  0  0  0  0  0  0  0
  152.6971  143.7798  157.5747 H   0  0  0  0  0  0  0  0  0  0  0  0
  151.0734  145.3994  158.4525 H   0  0  0  0  0  0  0  0  0  0  0  0
  150.2244  144.1394  159.3170 H   0  0  0  0  0  0  0  0  0  0  0  0
  153.0948  145.0549  159.8236 H   0  0  0  0  0  0  0  0  0  0  0  0
  151.7197  145.3415  160.8627 H   0  0  0  0  0  0  0  0  0  0  0  0
  153.1103  143.4516  161.6950 H   0  0  0  0  0  0  0  0  0  0  0  0
  151.4875  142.9290  161.3191 H   0  0  0  0  0  0  0  0  0  0  0  0
  153.9264  142.6043  159.5171 H   0  0  0  0  0  0  0  0  0  0  0  0
  151.0783  141.6312  159.0377 H   0  0  0  0  0  0  0  0  0  0  0  0
  152.4476  141.3366  157.9983 H   0  0  0  0  0  0  0  0  0  0  0  0
  147.3131  142.6571  153.8672 H   0  0  0  0  0  0  0  0  0  0  0  0
  1  2  1  0  0  0  0
  1 24  1  0  0  0  0
  1 25  1  0  0  0  0
  2  3  2  0  0  0  0
  2  4  1  0  0  0  0
  4 23  1  0  0  0  0
  4  5  2  0  0  0  0
  5  6  1  0  0  0  0
  5 26  1  0  0  0  0
  6  7  2  0  0  0  0
  6 27  1  0  0  0  0
  7  8  1  0  0  0  0
  7 22  1  0  0  0  0
  8  9  1  0  0  0  0
  8 28  1  0  0  0  0
  9 10  2  0  0  0  0
  9 11  1  0  0  0  0
 11 12  1  0  0  0  0
 11 29  1  0  0  0  0
 12 21  1  0  0  0  0
 12 13  1  0  0  0  0
 12 30  1  0  0  0  0
 13 14  1  0  0  0  0
 13 31  1  0  0  0  0
 13 32  1  0  0  0  0
 14 15  1  0  0  0  0
 14 33  1  0  0  0  0
 14 34  1  0  0  0  0
 15 16  1  0  0  0  0
 15 35  1  0  0  0  0
 15 36  1  0  0  0  0
 16 17  1  0  0  0  0
 16 21  1  0  0  0  0
 16 37  1  0  0  0  0
 17 18  1  0  0  0  0
 17 19  1  0  0  0  0
 17 20  1  0  0  0  0
 21 38  1  0  0  0  0
 21 39  1  0  0  0  0
 22 23  2  0  0  0  0
 22 40  1  0  0  0  0
M  END
> <s_m_source_file>
AV-unprocessed.smi

> <i_m_source_file_index>
2511

> <i_lp_mmshare_version>
43012

> <i_f3d_flags>
0

> <s_epik_input>
W05IMl1DKD1PKWMxW2NIXVtjSF1jKFtjSF1uMSlbTkhdQyg9TylbTkhdW0NAQEhdMltDSDJdW0NIMl1bQ0gyXVtDQEBIXShDKEYpKEYpRilbQ0gyXTI=

> <s_epik_cmdline>
J2VwaWtfcHl0aG9uJywgJy1waCcsICc3LjAnLCAnLXRuJywgJzgnLCAnLW1hJywgJzIwMCcsICctbWV0YWxfYmluZGluZycsICctaW1hZScsICc8aW5maWxlLm1hZT4nLCAnLW9tYWUnLCAnPG91dGZpbGUubWFlPic=

> <r_lp_tautomer_probability>
1

> <r_epik_Ionization_Penalty>
4.28758e-05

> <r_epik_Ionization_Penalty_Charging>
0

> <r_epik_Ionization_Penalty_Neutral>
4.28758e-05

> <r_epik_State_Penalty>
-0

> <r_epik_Charging_Adjusted_Penalty>
0

> <i_epik_Tot_Q>
0

> <i_epik_Tot_abs_Q>
0

> <r_epik_Metal_State_Penalty>
-0

> <b_epik_Metal_Only>
0

> <s_lp_Force_Field>
OPLS_2005

> <r_lp_Energy>
28.5247

> <b_lp_Chiralities_Consistent>
1

> <s_lp_Variant>
AV-unprocessed.smi:2511-2

> <Gold.Version>
5.8.1

> <Gold.Id.Protein>
6NUR|6NUR_protein|mol2

> <Gold.PLP.Fitness>
46.5807

> <Gold.PLP.PLP>
-43.1708

> <Gold.PLP.part.hbond>
-4.2189

> <Gold.PLP.part.metal>
0.0000

> <Gold.PLP.part.buried>
-1.1599

> <Gold.PLP.part.nonpolar>
-43.6500

> <Gold.PLP.part.repulsive>
5.4820

> <Gold.PLP.ligand.clash>
6.5611

> <Gold.PLP.ligand.torsion>
1.1226

> <Gold.PLP.Chemscore.Hbond>
4.0640

> <Gold.PLP.Chemscore.CHOScore>
0.0000

> <Gold.PLP.Chemscore.Metal>
0.0000

> <Gold.Chemscore.Hbonds>
donor molecule, donor type, donor heavy atom, donor atom, acceptor molecule, acceptor atom, score
      L1  H     1    24       P1 10171  0.59
      L1  H     1    25       P1 10175  0.60
      L1  H     8    28       P1  8028  0.90
      L1  H    11    29       P1  8028  0.82
      P1  H  7954  7966       L1     3  1.00

> <Gold.PLP.Chemscore.Internal.Correction>
0.0241

> <Gold.Rescore>
     Score         DG    S(hbond)    S(metal)    S(lipo)     H(rot)  DE(clash)    DE(int)     intcor
     22.45     -29.78       4.16        0.00     110.72       1.00       3.49       3.83       ----

> <Gold.Chemscore.Fitness>
22.4545

> <Gold.Chemscore.DG>
-29.7816

> <Gold.Chemscore.ZeroCoef>
-5.4800

> <Gold.Chemscore.Hbond>
4.1640

> <Gold.Chemscore.Metal>
0.0000

> <Gold.Chemscore.Lipo>
110.7178

> <Gold.Chemscore.Internal_Hbond>
0.0000

> <Gold.Chemscore.DEClash>
3.4941

> <Gold.Chemscore.DEInternal>
3.8331

> <Gold.Chemscore.Rot>
1.0000

> <Gold.Chemscore.Internal.Correction>
   9.000000E+99

> <Gold.Chemscore.Hbonds>
donor molecule, donor type, donor heavy atom, donor atom, acceptor molecule, acceptor atom, score
      L1  H     1    24       P1 10171  0.58
      L1  H     1    25       P1 10175  0.60
      L1  H     8    28       P1  8028  0.88
      L1  H    11    29       P1  8028  0.81
      P1  H  7954  7966       L1     3  0.99

> <Gold.Chemscore.Hbond.Weighted>
-13.9077

> <Gold.Chemscore.Metal.Weighted>
-0.0000

> <Gold.Chemscore.Lipo.Weighted>
-12.9540

> <Gold.Chemscore.Internal_Hbond.Weighted>
0.0000

> <Gold.Chemscore.DEClash.Weighted>
3.4941

> <Gold.Chemscore.DEInternal.Weighted>
3.8331

> <Gold.Chemscore.Rot.Weighted>
2.5600

> <Gold.Chemscore.Internal.Correction.Weighted>
   9.000000E+99

> <Gold.Protein.RotatedTorsions>
[ 6907 6896 6895 6894 ] final   79.83 input  -60.11 | X-H torsion
[ 7974 7965 7964 7962 ] final -107.36 input  175.53 | X-H torsion
[ 8008 7997 7996 7995 ] final -147.47 input   59.86 | X-H torsion
[ 10167 10162 10161 10158 ] final   90.93 input  -65.29 | X-H torsion
[ 10718 10713 10712 10709 ] final  -16.35 input   66.30 | X-H torsion
[ 10763 10752 10751 10750 ] final -133.29 input  -60.55 | X-H torsion
[ 11005 11000 10999 10996 ] final   58.02 input  -57.11 | X-H torsion

> <Gold.Protein.ActiveResidues>
 VAL166  LYS551  ARG553  GLY616  TRP617  ASP618  TYR619  PRO620  LYS621  CYS622 
 ASP623  PHE694  ASN695  SER759  ASP760  ASP761  ALA762  ILE779  LEU786  VAL792 
 PHE793  MET794  SER795  GLU796  ALA797  LYS798  CYS799  TRP800  GLU811  SER814 

> <Gold.Protein.RotatedAtoms>
  152.5213  134.3451  159.9230 H   0  0  0  0  0  0  0  0  0  0  0  0  # atno 6907 bound_to 6896
  151.3401  133.3959  159.2678 H   0  0  0  0  0  0  0  0  0  0  0  0  # atno 6908 bound_to 6896
  150.9810  134.9183  159.7902 H   0  0  0  0  0  0  0  0  0  0  0  0  # atno 6909 bound_to 6896
  145.2063  140.9078  143.3340 H   0  0  0  0  0  0  0  0  0  0  0  0  # atno 7974 bound_to 7965
  155.5761  140.0639  157.2794 H   0  0  0  0  0  0  0  0  0  0  0  0  # atno 8008 bound_to 7997
  154.4346  140.1860  156.0975 H   0  0  0  0  0  0  0  0  0  0  0  0  # atno 8009 bound_to 7997
  156.0340  140.3303  155.7174 H   0  0  0  0  0  0  0  0  0  0  0  0  # atno 8010 bound_to 7997
  139.8425  144.6634  150.9266 H   0  0  0  0  0  0  0  0  0  0  0  0  # atno 10167 bound_to 10162
  156.5888  130.4793  149.6288 H   0  0  0  0  0  0  0  0  0  0  0  0  # atno 10718 bound_to 10713
  154.8734  135.3771  154.4548 H   0  0  0  0  0  0  0  0  0  0  0  0  # atno 10763 bound_to 10752
  153.5221  135.7029  153.5731 H   0  0  0  0  0  0  0  0  0  0  0  0  # atno 10764 bound_to 10752
  153.3973  135.3957  155.1929 H   0  0  0  0  0  0  0  0  0  0  0  0  # atno 10765 bound_to 10752
  140.0408  134.5876  155.9384 H   0  0  0  0  0  0  0  0  0  0  0  0  # atno 11005 bound_to 11000
  144.9899  139.3700  143.6220 LP  0  0  0  0  0  0  0  0  0  0  0  0  # atno 17320 bound_to 7965
  146.3407  139.9076  142.8785 LP  0  0  0  0  0  0  0  0  0  0  0  0  # atno 17321 bound_to 7965
  140.7796  143.3900  151.1327 LP  0  0  0  0  0  0  0  0  0  0  0  0  # atno 17342 bound_to 10162
  139.7545  143.8728  152.3085 LP  0  0  0  0  0  0  0  0  0  0  0  0  # atno 17343 bound_to 10162
  156.2567  130.6939  151.1694 LP  0  0  0  0  0  0  0  0  0  0  0  0  # atno 17370 bound_to 10713
  157.7309  131.0613  150.5706 LP  0  0  0  0  0  0  0  0  0  0  0  0  # atno 17371 bound_to 10713
  141.1882  133.6562  156.5314 LP  0  0  0  0  0  0  0  0  0  0  0  0  # atno 17394 bound_to 11000
  140.4072  134.7304  157.4814 LP  0  0  0  0  0  0  0  0  0  0  0  0  # atno 17395 bound_to 11000

$$$$
