AV-unprocessed.smi:2098|AV-procd|sdf|8566|dock10
  -GOLD-   2272011293D 1   1.00000     0.00000
 Structure written by MMmdl.
 36 38  0  0  0  0  0  0  0  0  1 V2000
  148.9509  142.6012  157.5172 O   0  0  0  0  0  0  0  0  0  0  0  0
  150.1863  142.0703  157.0784 C   0  0  1  0  0  0  0  0  0  0  0  0
  150.0109  141.5589  155.6398 C   0  0  0  0  0  0  0  0  0  0  0  0
  150.9825  140.5527  155.3853 O   0  0  0  0  0  0  0  0  0  0  0  0
  150.5718  139.2368  155.3750 C   0  0  0  0  0  0  0  0  0  0  0  0
  151.5037  138.2795  154.9227 C   0  0  0  0  0  0  0  0  0  0  0  0
  151.1707  136.9118  154.8818 C   0  0  0  0  0  0  0  0  0  0  0  0
  149.8952  136.4862  155.2955 C   0  0  0  0  0  0  0  0  0  0  0  0
  149.5738  135.1713  155.2595 F   0  0  0  0  0  0  0  0  0  0  0  0
  148.9543  137.4301  155.7470 C   0  0  0  0  0  0  0  0  0  0  0  0
  149.2872  138.7982  155.7868 C   0  0  0  0  0  0  0  0  0  0  0  0
  151.2648  143.1674  157.1670 C   0  0  0  0  0  0  0  0  0  0  0  0
  151.3322  143.7820  158.4815 N   0  0  0  0  0  0  0  0  0  0  0  0
  150.7669  144.9439  158.8616 C   0  0  0  0  0  0  0  0  0  0  0  0
  150.9475  145.3266  160.1224 N   0  0  0  0  0  0  0  0  0  0  0  0
  151.7208  144.2916  160.6200 C   0  0  0  0  0  0  0  0  0  0  0  0
  152.2561  144.0863  161.9119 C   0  0  0  0  0  0  0  0  0  0  0  0
  153.0268  142.9387  162.1920 C   0  0  0  0  0  0  0  0  0  0  0  0
  153.2743  141.9810  161.1870 C   0  0  0  0  0  0  0  0  0  0  0  0
  152.7508  142.1634  159.8928 C   0  0  0  0  0  0  0  0  0  0  0  0
  151.9808  143.3088  159.6175 C   0  0  0  0  0  0  0  0  0  0  0  0
  148.7724  143.3879  157.0246 H   0  0  0  0  0  0  0  0  0  0  0  0
  150.4676  141.2428  157.7312 H   0  0  0  0  0  0  0  0  0  0  0  0
  148.9952  141.1902  155.4845 H   0  0  0  0  0  0  0  0  0  0  0  0
  150.1785  142.3797  154.9402 H   0  0  0  0  0  0  0  0  0  0  0  0
  152.4856  138.5974  154.6037 H   0  0  0  0  0  0  0  0  0  0  0  0
  151.8946  136.1900  154.5337 H   0  0  0  0  0  0  0  0  0  0  0  0
  147.9744  137.1048  156.0641 H   0  0  0  0  0  0  0  0  0  0  0  0
  148.5378  139.4909  156.1382 H   0  0  0  0  0  0  0  0  0  0  0  0
  152.2461  142.7492  156.9391 H   0  0  0  0  0  0  0  0  0  0  0  0
  151.0800  143.9454  156.4251 H   0  0  0  0  0  0  0  0  0  0  0  0
  150.1889  145.5428  158.1730 H   0  0  0  0  0  0  0  0  0  0  0  0
  152.0729  144.8133  162.6890 H   0  0  0  0  0  0  0  0  0  0  0  0
  153.4305  142.7924  163.1832 H   0  0  0  0  0  0  0  0  0  0  0  0
  153.8664  141.1057  161.4108 H   0  0  0  0  0  0  0  0  0  0  0  0
  152.9404  141.4330  159.1203 H   0  0  0  0  0  0  0  0  0  0  0  0
  1  2  1  0  0  0  0
  1 22  1  0  0  0  0
  2  3  1  0  0  0  0
  2 12  1  0  0  0  0
  2 23  1  0  0  0  0
  3  4  1  0  0  0  0
  3 24  1  0  0  0  0
  3 25  1  0  0  0  0
  4  5  1  0  0  0  0
  5 11  1  0  0  0  0
  5  6  2  0  0  0  0
  6  7  1  0  0  0  0
  6 26  1  0  0  0  0
  7  8  2  0  0  0  0
  7 27  1  0  0  0  0
  8  9  1  0  0  0  0
  8 10  1  0  0  0  0
 10 11  2  0  0  0  0
 10 28  1  0  0  0  0
 11 29  1  0  0  0  0
 12 13  1  0  0  0  0
 12 30  1  0  0  0  0
 12 31  1  0  0  0  0
 13 21  1  0  0  0  0
 13 14  1  0  0  0  0
 14 15  2  0  0  0  0
 14 32  1  0  0  0  0
 15 16  1  0  0  0  0
 16 21  2  0  0  0  0
 16 17  1  0  0  0  0
 17 18  2  0  0  0  0
 17 33  1  0  0  0  0
 18 19  1  0  0  0  0
 18 34  1  0  0  0  0
 19 20  2  0  0  0  0
 19 35  1  0  0  0  0
 20 21  1  0  0  0  0
 20 36  1  0  0  0  0
M  END
> <s_m_source_file>
AV-unprocessed.smi

> <i_m_source_file_index>
2098

> <i_lp_mmshare_version>
43012

> <i_f3d_flags>
0

> <s_epik_input>
W2NIXTFbY0hdW2NIXVtjSF1jKGMxMiluKFtjSF1uMilbQ0gyXVtDQEhdKFtPSF0pW0NIMl1PYzNbY0hdW2NIXWMoRilbY0hdW2NIXTM=

> <s_epik_cmdline>
J2VwaWtfcHl0aG9uJywgJy1waCcsICc3LjAnLCAnLXRuJywgJzgnLCAnLW1hJywgJzIwMCcsICctbWV0YWxfYmluZGluZycsICctaW1hZScsICc8aW5maWxlLm1hZT4nLCAnLW9tYWUnLCAnPG91dGZpbGUubWFlPic=

> <r_lp_tautomer_probability>
1

> <r_epik_Ionization_Penalty>
0.0603575

> <r_epik_Ionization_Penalty_Charging>
0

> <r_epik_Ionization_Penalty_Neutral>
0.0603575

> <r_epik_State_Penalty>
0.0523204

> <r_epik_Charging_Adjusted_Penalty>
0.0523204

> <i_epik_Tot_Q>
0

> <i_epik_Tot_abs_Q>
0

> <r_epik_Metal_State_Penalty>
5.46976e-05

> <b_epik_Metal_Only>
0

> <s_lp_Force_Field>
OPLS_2005

> <r_lp_Energy>
15.3663

> <b_lp_Chiralities_Consistent>
1

> <s_lp_Variant>
AV-unprocessed.smi:2098-2

> <Gold.Version>
5.8.1

> <Gold.Id.Protein>
6NUR|6NUR_protein|mol2

> <Gold.PLP.Fitness>
55.6432

> <Gold.PLP.PLP>
-48.9917

> <Gold.PLP.part.hbond>
-2.0000

> <Gold.PLP.part.metal>
0.0000

> <Gold.PLP.part.buried>
-5.1311

> <Gold.PLP.part.nonpolar>
-43.4208

> <Gold.PLP.part.repulsive>
0.2411

> <Gold.PLP.ligand.clash>
0.0000

> <Gold.PLP.ligand.torsion>
0.9996

> <Gold.PLP.Chemscore.Hbond>
1.8800

> <Gold.PLP.Chemscore.CHOScore>
0.9953

> <Gold.PLP.Chemscore.Metal>
0.0000

> <Gold.Chemscore.Hbonds>
donor molecule, donor type, donor heavy atom, donor atom, acceptor molecule, acceptor atom, score
      L1  H     1    22       P1  8028  1.00
      P1  H  7989  7998       L1     4  0.93
      L1  C    14    32       P1  8028  0.01
      L1  C    14    32       P1  8029  1.00

> <Gold.PLP.Chemscore.Internal.Correction>
0.0250

> <Gold.Rescore>
     Score         DG    S(hbond)    S(metal)    S(lipo)     H(rot)  DE(clash)    DE(int)     intcor
     15.62     -16.91       0.86        0.00     125.10       2.37       0.15       1.14       ----

> <Gold.Chemscore.Fitness>
15.6227

> <Gold.Chemscore.DG>
-16.9090

> <Gold.Chemscore.ZeroCoef>
-5.4800

> <Gold.Chemscore.Hbond>
0.8589

> <Gold.Chemscore.Metal>
0.0000

> <Gold.Chemscore.Lipo>
125.0975

> <Gold.Chemscore.Internal_Hbond>
0.0000

> <Gold.Chemscore.DEClash>
0.1510

> <Gold.Chemscore.DEInternal>
1.1353

> <Gold.Chemscore.Rot>
2.3735

> <Gold.Chemscore.Internal.Correction>
   9.000000E+99

> <Gold.Chemscore.Hbonds>
donor molecule, donor type, donor heavy atom, donor atom, acceptor molecule, acceptor atom, score
      L1  H     1    22       P1  8028  0.45
      P1  H  7989  7998       L1     4  0.23

> <Gold.Chemscore.Hbond.Weighted>
-2.8688

> <Gold.Chemscore.Metal.Weighted>
-0.0000

> <Gold.Chemscore.Lipo.Weighted>
-14.6364

> <Gold.Chemscore.Internal_Hbond.Weighted>
0.0000

> <Gold.Chemscore.DEClash.Weighted>
0.1510

> <Gold.Chemscore.DEInternal.Weighted>
1.1353

> <Gold.Chemscore.Rot.Weighted>
6.0762

> <Gold.Chemscore.Internal.Correction.Weighted>
   9.000000E+99

> <Gold.Protein.RotatedTorsions>
[ 6907 6896 6895 6894 ] final -113.20 input  -60.11 | X-H torsion
[ 7974 7965 7964 7962 ] final  139.18 input  175.53 | X-H torsion
[ 8008 7997 7996 7995 ] final  -22.12 input   59.86 | X-H torsion
[ 10167 10162 10161 10158 ] final  -77.36 input  -65.29 | X-H torsion
[ 10718 10713 10712 10709 ] final   79.62 input   66.30 | X-H torsion
[ 10763 10752 10751 10750 ] final  106.32 input  -60.55 | X-H torsion
[ 11005 11000 10999 10996 ] final   23.98 input  -57.11 | X-H torsion

> <Gold.Protein.ActiveResidues>
 VAL166  LYS551  ARG553  GLY616  TRP617  ASP618  TYR619  PRO620  LYS621  CYS622 
 ASP623  PHE694  ASN695  SER759  ASP760  ASP761  ALA762  ILE779  LEU786  VAL792 
 PHE793  MET794  SER795  GLU796  ALA797  LYS798  CYS799  TRP800  GLU811  SER814 

> <Gold.Protein.RotatedAtoms>
  150.7812  133.8979  159.3332 H   0  0  0  0  0  0  0  0  0  0  0  0  # atno 6907 bound_to 6896
  151.6842  135.0955  160.0231 H   0  0  0  0  0  0  0  0  0  0  0  0  # atno 6908 bound_to 6896
  152.3864  133.6578  159.6237 H   0  0  0  0  0  0  0  0  0  0  0  0  # atno 6909 bound_to 6896
  144.9303  139.5056  143.5621 H   0  0  0  0  0  0  0  0  0  0  0  0  # atno 7974 bound_to 7965
  154.4663  140.2016  156.0109 H   0  0  0  0  0  0  0  0  0  0  0  0  # atno 8008 bound_to 7997
  156.0933  140.3255  155.7815 H   0  0  0  0  0  0  0  0  0  0  0  0  # atno 8009 bound_to 7997
  155.4920  140.0547  157.2943 H   0  0  0  0  0  0  0  0  0  0  0  0  # atno 8010 bound_to 7997
  140.4777  143.2410  151.8107 H   0  0  0  0  0  0  0  0  0  0  0  0  # atno 10167 bound_to 10162
  157.6782  130.9923  150.1960 H   0  0  0  0  0  0  0  0  0  0  0  0  # atno 10718 bound_to 10713
  153.3914  135.3881  155.1925 H   0  0  0  0  0  0  0  0  0  0  0  0  # atno 10763 bound_to 10752
  154.8719  135.3749  154.4733 H   0  0  0  0  0  0  0  0  0  0  0  0  # atno 10764 bound_to 10752
  153.5220  135.7086  153.5788 H   0  0  0  0  0  0  0  0  0  0  0  0  # atno 10765 bound_to 10752
  140.3637  134.2097  155.7670 H   0  0  0  0  0  0  0  0  0  0  0  0  # atno 11005 bound_to 11000
  146.3244  139.8248  142.8920 LP  0  0  0  0  0  0  0  0  0  0  0  0  # atno 17320 bound_to 7965
  145.3153  141.0230  143.3531 LP  0  0  0  0  0  0  0  0  0  0  0  0  # atno 17321 bound_to 7965
  139.4828  144.4812  151.9304 LP  0  0  0  0  0  0  0  0  0  0  0  0  # atno 17342 bound_to 10162
  140.3897  144.2631  150.5901 LP  0  0  0  0  0  0  0  0  0  0  0  0  # atno 17343 bound_to 10162
  156.2661  130.3716  149.8080 LP  0  0  0  0  0  0  0  0  0  0  0  0  # atno 17370 bound_to 10713
  156.5811  130.8466  151.3383 LP  0  0  0  0  0  0  0  0  0  0  0  0  # atno 17371 bound_to 10713
  141.1976  133.8055  157.0620 LP  0  0  0  0  0  0  0  0  0  0  0  0  # atno 17394 bound_to 11000
  140.0606  134.9757  157.1298 LP  0  0  0  0  0  0  0  0  0  0  0  0  # atno 17395 bound_to 11000

$$$$
