AV-unprocessed.smi:797|AV-procd|sdf|3768|dock10
  -GOLD-   22720 1203D 1   1.00000     0.00000
 Structure written by MMmdl.
 34 35  0  0  0  0  0  0  0  0  2 V2000
  147.1127  140.0711  153.2265 C   0  0  0  0  0  0  0  0  0  0  0  0
  148.3468  140.3321  154.0384 C   0  0  0  0  0  0  0  0  0  0  0  0
  148.5958  141.3931  154.9508 C   0  0  0  0  0  0  0  0  0  0  0  0
  149.8644  141.1472  155.3943 C   0  0  0  0  0  0  0  0  0  0  0  0
  150.7614  141.8548  156.3560 C   0  0  0  0  0  0  0  0  0  0  0  0
  151.6186  140.6386  157.4475 S   0  0  0  0  0  0  0  0  0  0  0  0
  150.5560  139.9802  158.2244 O   0  0  0  0  0  0  0  0  0  0  0  0
  152.4307  139.7859  156.5635 O   0  0  0  0  0  0  0  0  0  0  0  0
  152.5153  141.6347  158.3633 N   0  5  0  0  0  0  0  0  0  0  0  0
  151.8824  142.7390  159.0687 C   0  0  0  0  0  0  0  0  0  0  0  0
  152.0548  144.0476  158.2590 C   0  0  0  0  0  0  0  0  0  0  0  0
  151.5268  145.3017  159.0014 C   0  0  0  0  0  0  0  0  0  0  0  0
  152.1676  145.4809  160.3937 C   0  0  0  0  0  0  0  0  0  0  0  0
  151.9951  144.1848  161.2130 C   0  0  0  0  0  0  0  0  0  0  0  0
  152.5210  142.9319  160.4679 C   0  0  0  0  0  0  0  0  0  0  0  0
  150.3531  140.0220  154.8115 O   0  0  0  0  0  0  0  0  0  0  0  0
  149.3777  139.5085  153.9496 N   0  0  0  0  0  0  0  0  0  0  0  0
  146.5224  140.9799  153.1077 H   0  0  0  0  0  0  0  0  0  0  0  0
  146.4806  139.3242  153.7066 H   0  0  0  0  0  0  0  0  0  0  0  0
  147.3623  139.7072  152.2294 H   0  0  0  0  0  0  0  0  0  0  0  0
  147.9518  142.2134  155.2306 H   0  0  0  0  0  0  0  0  0  0  0  0
  151.5079  142.4575  155.8396 H   0  0  0  0  0  0  0  0  0  0  0  0
  150.1779  142.5196  156.9923 H   0  0  0  0  0  0  0  0  0  0  0  0
  150.8128  142.5693  159.1991 H   0  0  0  0  0  0  0  0  0  0  0  0
  153.1110  144.1986  158.0298 H   0  0  0  0  0  0  0  0  0  0  0  0
  151.5463  143.9563  157.2985 H   0  0  0  0  0  0  0  0  0  0  0  0
  151.7212  146.1885  158.3976 H   0  0  0  0  0  0  0  0  0  0  0  0
  150.4411  145.2466  159.1059 H   0  0  0  0  0  0  0  0  0  0  0  0
  153.2288  145.7070  160.2832 H   0  0  0  0  0  0  0  0  0  0  0  0
  151.7174  146.3254  160.9162 H   0  0  0  0  0  0  0  0  0  0  0  0
  152.5188  144.2858  162.1640 H   0  0  0  0  0  0  0  0  0  0  0  0
  150.9414  144.0537  161.4676 H   0  0  0  0  0  0  0  0  0  0  0  0
  152.3427  142.0517  161.0856 H   0  0  0  0  0  0  0  0  0  0  0  0
  153.6042  143.0146  160.3655 H   0  0  0  0  0  0  0  0  0  0  0  0
  1  2  1  0  0  0  0
  1 18  1  0  0  0  0
  1 19  1  0  0  0  0
  1 20  1  0  0  0  0
  2 17  2  0  0  0  0
  2  3  1  0  0  0  0
  3  4  2  0  0  0  0
  3 21  1  0  0  0  0
  4  5  1  0  0  0  0
  4 16  1  0  0  0  0
  5  6  1  0  0  0  0
  5 22  1  0  0  0  0
  5 23  1  0  0  0  0
  6  7  2  0  0  0  0
  6  8  2  0  0  0  0
  6  9  1  0  0  0  0
  9 10  1  0  0  0  0
 10 15  1  0  0  0  0
 10 11  1  0  0  0  0
 10 24  1  0  0  0  0
 11 12  1  0  0  0  0
 11 25  1  0  0  0  0
 11 26  1  0  0  0  0
 12 13  1  0  0  0  0
 12 27  1  0  0  0  0
 12 28  1  0  0  0  0
 13 14  1  0  0  0  0
 13 29  1  0  0  0  0
 13 30  1  0  0  0  0
 14 15  1  0  0  0  0
 14 31  1  0  0  0  0
 14 32  1  0  0  0  0
 15 33  1  0  0  0  0
 15 34  1  0  0  0  0
 16 17  1  0  0  0  0
M  CHG  1   9  -1
M  END
> <s_m_source_file>
AV-unprocessed.smi

> <i_m_source_file_index>
797

> <i_lp_mmshare_version>
43012

> <i_f3d_flags>
0

> <s_epik_input>
W0NIM11jMVtjSF1jKG9uMSlbQ0gyXVMoPU8pKD1PKVtOSF1bQ0hdMltDSDJdW0NIMl1bQ0gyXVtDSDJdW0NIMl0y

> <s_epik_cmdline>
J2VwaWtfcHl0aG9uJywgJy1waCcsICc3LjAnLCAnLXRuJywgJzgnLCAnLW1hJywgJzIwMCcsICctbWV0YWxfYmluZGluZycsICctaW1hZScsICc8aW5maWxlLm1hZT4nLCAnLW9tYWUnLCAnPG91dGZpbGUubWFlPic=

> <r_lp_tautomer_probability>
1

> <r_epik_Ionization_Penalty>
5.48284

> <r_epik_Ionization_Penalty_Charging>
5.48284

> <r_epik_Ionization_Penalty_Neutral>
9.17401e-10

> <r_epik_State_Penalty>
5.48278

> <r_epik_Charging_Adjusted_Penalty>
10.9656

> <i_epik_Tot_Q>
-1

> <i_epik_Tot_abs_Q>
1

> <r_epik_Metal_State_Penalty>
1.49378

> <b_epik_Metal_Only>
1

> <s_lp_Force_Field>
OPLS_2005

> <r_lp_Energy>
6.0802

> <b_lp_Chiralities_Consistent>
1

> <s_lp_Variant>
AV-unprocessed.smi:797-2

> <Gold.Version>
5.8.1

> <Gold.Id.Protein>
6NUR|6NUR_protein|mol2

> <Gold.PLP.Fitness>
43.4036

> <Gold.PLP.PLP>
-38.5891

> <Gold.PLP.part.hbond>
-2.0000

> <Gold.PLP.part.metal>
0.0000

> <Gold.PLP.part.buried>
-3.5620

> <Gold.PLP.part.nonpolar>
-34.0456

> <Gold.PLP.part.repulsive>
2.1557

> <Gold.PLP.ligand.clash>
0.0000

> <Gold.PLP.ligand.torsion>
1.0889

> <Gold.PLP.Chemscore.Hbond>
2.0000

> <Gold.PLP.Chemscore.CHOScore>
0.0000

> <Gold.PLP.Chemscore.Metal>
0.0000

> <Gold.Chemscore.Hbonds>
donor molecule, donor type, donor heavy atom, donor atom, acceptor molecule, acceptor atom, score
      P1  H  7989  7998       L1    16  0.95
      P1  H  7997  8010       L1     8  1.00

> <Gold.PLP.Chemscore.Internal.Correction>
0.9922

> <Gold.Rescore>
     Score         DG    S(hbond)    S(metal)    S(lipo)     H(rot)  DE(clash)    DE(int)     intcor
     15.93     -20.00       1.69        0.00     105.44       1.35       1.90       2.16       ----

> <Gold.Chemscore.Fitness>
15.9322

> <Gold.Chemscore.DG>
-19.9955

> <Gold.Chemscore.ZeroCoef>
-5.4800

> <Gold.Chemscore.Hbond>
1.6906

> <Gold.Chemscore.Metal>
0.0000

> <Gold.Chemscore.Lipo>
105.4434

> <Gold.Chemscore.Internal_Hbond>
0.0000

> <Gold.Chemscore.DEClash>
1.9039

> <Gold.Chemscore.DEInternal>
2.1593

> <Gold.Chemscore.Rot>
1.3546

> <Gold.Chemscore.Internal.Correction>
   9.000000E+99

> <Gold.Chemscore.Hbonds>
donor molecule, donor type, donor heavy atom, donor atom, acceptor molecule, acceptor atom, score
      P1  H  7989  7998       L1    16  0.06
      P1  H  7997  8010       L1     8  0.97

> <Gold.Chemscore.Hbond.Weighted>
-5.6465

> <Gold.Chemscore.Metal.Weighted>
-0.0000

> <Gold.Chemscore.Lipo.Weighted>
-12.3369

> <Gold.Chemscore.Internal_Hbond.Weighted>
0.0000

> <Gold.Chemscore.DEClash.Weighted>
1.9039

> <Gold.Chemscore.DEInternal.Weighted>
2.1593

> <Gold.Chemscore.Rot.Weighted>
3.4679

> <Gold.Chemscore.Internal.Correction.Weighted>
   9.000000E+99

> <Gold.Protein.RotatedTorsions>
[ 6907 6896 6895 6894 ] final  -54.55 input  -60.11 | X-H torsion
[ 7974 7965 7964 7962 ] final  142.77 input  175.53 | X-H torsion
[ 8008 7997 7996 7995 ] final   76.76 input   59.86 | X-H torsion
[ 10167 10162 10161 10158 ] final -169.90 input  -65.29 | X-H torsion
[ 10718 10713 10712 10709 ] final  -67.94 input   66.30 | X-H torsion
[ 10763 10752 10751 10750 ] final  165.12 input  -60.55 | X-H torsion
[ 11005 11000 10999 10996 ] final -118.39 input  -57.11 | X-H torsion

> <Gold.Protein.ActiveResidues>
 VAL166  LYS551  ARG553  GLY616  TRP617  ASP618  TYR619  PRO620  LYS621  CYS622 
 ASP623  PHE694  ASN695  SER759  ASP760  ASP761  ALA762  ILE779  LEU786  VAL792 
 PHE793  MET794  SER795  GLU796  ALA797  LYS798  CYS799  TRP800  GLU811  SER814 

> <Gold.Protein.RotatedAtoms>
  150.8328  134.7588  159.6867 H   0  0  0  0  0  0  0  0  0  0  0  0  # atno 6907 bound_to 6896
  152.4430  134.5550  159.9887 H   0  0  0  0  0  0  0  0  0  0  0  0  # atno 6908 bound_to 6896
  151.5707  133.3353  159.3025 H   0  0  0  0  0  0  0  0  0  0  0  0  # atno 6909 bound_to 6896
  144.8979  139.5465  143.5767 H   0  0  0  0  0  0  0  0  0  0  0  0  # atno 7974 bound_to 7965
  155.8319  140.3466  155.5578 H   0  0  0  0  0  0  0  0  0  0  0  0  # atno 8008 bound_to 7997
  155.8233  140.0916  157.1856 H   0  0  0  0  0  0  0  0  0  0  0  0  # atno 8009 bound_to 7997
  154.4004  140.1426  156.3513 H   0  0  0  0  0  0  0  0  0  0  0  0  # atno 8010 bound_to 7997
  139.5894  144.1246  152.1616 H   0  0  0  0  0  0  0  0  0  0  0  0  # atno 10167 bound_to 10162
  156.0531  130.4286  150.1928 H   0  0  0  0  0  0  0  0  0  0  0  0  # atno 10718 bound_to 10713
  154.3192  135.2756  155.2528 H   0  0  0  0  0  0  0  0  0  0  0  0  # atno 10763 bound_to 10752
  154.4888  135.5839  153.6447 H   0  0  0  0  0  0  0  0  0  0  0  0  # atno 10764 bound_to 10752
  152.9878  135.6129  154.3376 H   0  0  0  0  0  0  0  0  0  0  0  0  # atno 10765 bound_to 10752
  141.0289  134.0011  157.3173 H   0  0  0  0  0  0  0  0  0  0  0  0  # atno 11005 bound_to 11000
  146.3092  139.7685  142.9033 LP  0  0  0  0  0  0  0  0  0  0  0  0  # atno 17320 bound_to 7965
  145.3668  141.0336  143.3253 LP  0  0  0  0  0  0  0  0  0  0  0  0  # atno 17321 bound_to 7965
  140.0817  144.5695  150.7118 LP  0  0  0  0  0  0  0  0  0  0  0  0  # atno 17342 bound_to 10162
  140.7160  143.2545  151.4432 LP  0  0  0  0  0  0  0  0  0  0  0  0  # atno 17343 bound_to 10162
  157.0008  130.9921  151.3391 LP  0  0  0  0  0  0  0  0  0  0  0  0  # atno 17370 bound_to 10713
  157.5476  130.8161  149.8105 LP  0  0  0  0  0  0  0  0  0  0  0  0  # atno 17371 bound_to 10713
  139.9194  135.0199  156.8008 LP  0  0  0  0  0  0  0  0  0  0  0  0  # atno 17394 bound_to 11000
  140.6442  133.9790  155.7722 LP  0  0  0  0  0  0  0  0  0  0  0  0  # atno 17395 bound_to 11000

$$$$
