#       Name:                AV-unprocessed.smi:845
#       Creating user name   scv26
#       Creation time:       Fri Mar 27 01:39:37 2020


#       File generated by GOLD software.
#

@<TRIPOS>MOLECULE
AV-unprocessed.smi:845
    48    49     1
SMALL
NO_CHARGES


@<TRIPOS>ATOM
      1 ****        -1.8708  -0.7001  -2.3540 C.3            1 S1                 0.0000
      2 ****        -1.2538  -0.2448  -1.0207 C.3            1 S1                 0.0000
      3 ****        -1.6471   1.2102  -0.6986 C.3            1 S1                 0.0000
      4 ****         0.2632  -0.6033  -0.9189 C.3            1 S1                 0.0000
      5 ****         0.8965  -0.2648   0.4580 C.3            1 S1                 0.0000
      6 ****         0.1628  -0.8841   1.5594 N.am           1 S1                 0.0000
      7 ****        -0.3230  -0.2670   2.6461 C.2            1 S1                 0.0000
      8 ****        -0.1525   0.9444   2.8008 O.2            1 S1                 0.0000
      9 ****        -0.9794  -1.0956   3.4898 N.pl3          1 S1                -1.0000
     10 ****        -1.5183  -0.6123   4.6210 C.2            1 S1                 0.0000
     11 ****        -2.8146  -0.3018   4.7377 N.2            1 S1                 0.0000
     12 ****        -3.1587   0.1784   6.0027 C.2            1 S1                 0.0000
     13 ****        -2.1018   0.2249   6.8725 C.2            1 S1                 0.0000
     14 ****        -0.6335  -0.3349   6.1240 S.3            1 S1                 0.0000
     15 ****         1.0749  -0.2063  -2.0874 N.3            1 S1                 0.0000
     16 ****         1.4508   1.2062  -2.1414 C.3            1 S1                 0.0000
     17 ****         2.2065   1.5426  -3.4384 C.3            1 S1                 0.0000
     18 ****         3.3522   0.7054  -3.5586 O.3            1 S1                 0.0000
     19 ****         3.0229  -0.6800  -3.5525 C.3            1 S1                 0.0000
     20 ****         2.2726  -1.0267  -2.2554 C.3            1 S1                 0.0000
     21 ****        -1.4855  -0.1192  -3.1924 H              1 S1                 0.0000
     22 ****        -2.9548  -0.5833  -2.3431 H              1 S1                 0.0000
     23 ****        -1.6558  -1.7511  -2.5492 H              1 S1                 0.0000
     24 ****        -1.7511  -0.8457  -0.2584 H              1 S1                 0.0000
     25 ****        -1.4197   1.8935  -1.5139 H              1 S1                 0.0000
     26 ****        -1.1661   1.5810   0.2051 H              1 S1                 0.0000
     27 ****        -2.7225   1.2788  -0.5329 H              1 S1                 0.0000
     28 ****         0.2475  -1.6942  -0.9426 H              1 S1                 0.0000
     29 ****         1.9156  -0.6446   0.5146 H              1 S1                 0.0000
     30 ****         0.9738   0.8145   0.5883 H              1 S1                 0.0000
     31 ****        -0.0056  -1.8766   1.4855 H              1 S1                 0.0000
     32 ****        -4.1820   0.4630   6.1969 H              1 S1                 0.0000
     33 ****        -2.0965   0.5508   7.9016 H              1 S1                 0.0000
     34 ****         0.5763   1.8450  -2.0788 H              1 S1                 0.0000
     35 ****         2.0852   1.4585  -1.2914 H              1 S1                 0.0000
     36 ****         1.5588   1.4115  -4.3066 H              1 S1                 0.0000
     37 ****         2.5259   2.5847  -3.4316 H              1 S1                 0.0000
     38 ****         2.4154  -0.9205  -4.4263 H              1 S1                 0.0000
     39 ****         3.9395  -1.2650  -3.6283 H              1 S1                 0.0000
     40 ****         2.9486  -0.8881  -1.4116 H              1 S1                 0.0000
     41 ****         2.0023  -2.0830  -2.2710 H              1 S1                 0.0000
     42 ****         0.3497   1.4703   2.1144 LP             1 S1                 0.0000
     43 ****        -0.5164   1.4009   3.6127 LP             1 S1                 0.0000
     44 ****        -1.0634  -2.0678   3.2714 LP             1 S1                 0.0000
     45 ****        -3.4726  -0.4038   3.9917 LP             1 S1                 0.0000
     46 ****         0.4471  -0.3678  -2.8488 LP             1 S1                 0.0000
     47 ****         3.9666   0.8917  -2.7919 LP             1 S1                 0.0000
     48 ****         3.8168   0.9201  -4.4177 LP             1 S1                 0.0000
@<TRIPOS>BOND
    1    1    2 1     
    2    1   21 1     
    3    1   22 1     
    4    1   23 1     
    5    2    3 1     
    6    2    4 1     
    7    2   24 1     
    8    3   25 1     
    9    3   26 1     
   10    3   27 1     
   11    4    5 1     
   12    4   15 1     
   13    4   28 1     
   14    5    6 1     
   15    5   29 1     
   16    5   30 1     
   17    6    7 am    
   18    6   31 1     
   19    7    8 2     
   20    7    9 1     
   21    9   10 1     
   22   10   14 1     
   23   10   11 2     
   24   11   12 1     
   25   12   13 2     
   26   12   32 1     
   27   13   14 1     
   28   13   33 1     
   29   15   20 1     
   30   15   16 1     
   31   16   17 1     
   32   16   34 1     
   33   16   35 1     
   34   17   18 1     
   35   17   36 1     
   36   17   37 1     
   37   18   19 1     
   38   19   20 1     
   39   19   38 1     
   40   19   39 1     
   41   20   40 1     
   42   20   41 1     
   43    8   42 1     
   44    8   43 1     
   45    9   44 1     
   46   11   45 1     
   47   15   46 1     
   48   18   47 1     
   49   18   48 1     
@<TRIPOS>SUBSTRUCTURE
      1 S1             1
@<TRIPOS>SET
LONE_PAIRS      STATIC     ATOMS    <user>   **** ""
7 42 43 44 45 46 47 48
DONOR_HYDROGENS      STATIC     ATOMS    <user>   **** ""
1 31
ATOM$BLUE        STATIC     ATOMS    COLORGROUP SYSTEM
7 42 43 44 45 46 47 48
ATOM$RED        STATIC     ATOMS    COLORGROUP SYSTEM
1 31
