AV-unprocessed.smi:261|AV-procd|sdf|1989|dock5
  -GOLD-   2262021173D 1   1.00000     0.00000
 Structure written by MMmdl.
 51 54  0  0  0  0  0  0  0  0  1 V2000
  151.9546  144.3513  158.4896 C   0  0  0  0  0  0  0  0  0  0  0  0
  151.9050  143.3609  159.5034 O   0  0  0  0  0  0  0  0  0  0  0  0
  152.9070  142.3633  159.3709 C   0  0  1  0  0  0  0  0  0  0  0  0
  153.1622  141.5831  160.6639 C   0  0  0  0  0  0  0  0  0  0  0  0
  153.7289  140.2331  160.1913 C   0  0  2  0  0  0  0  0  0  0  0  0
  155.2650  140.2685  160.0924 C   0  0  0  0  0  0  0  0  0  0  0  0
  155.9291  140.6006  161.2019 N   0  0  0  0  0  0  0  0  0  0  0  0
  155.8443  140.0133  159.0374 O   0  0  0  0  0  0  0  0  0  0  0  0
  153.0975  140.0439  158.8849 N   0  0  0  0  0  0  0  0  0  0  0  0
  152.9321  138.8453  158.2585 C   0  0  0  0  0  0  0  0  0  0  0  0
  153.7482  137.8219  158.6272 N   0  0  0  0  0  0  0  0  0  0  0  0
  153.6423  136.6200  158.0557 C   0  0  0  0  0  0  0  0  0  0  0  0
  152.7986  136.2223  157.1040 N   0  0  0  0  0  0  0  0  0  0  0  0
  151.9725  137.2374  156.7234 C   0  0  0  0  0  0  0  0  0  0  0  0
  151.9680  138.5671  157.2404 C   0  0  0  0  0  0  0  0  0  0  0  0
  150.9782  139.3044  156.5968 N   0  0  0  0  0  0  0  0  0  0  0  0
  150.4338  138.4666  155.7591 C   0  0  0  0  0  0  0  0  0  0  0  0
  150.9740  137.2031  155.7661 N   0  0  0  0  0  0  0  0  0  0  0  0
  150.5657  136.0819  154.9373 C   0  0  0  0  0  0  0  0  0  0  0  0
  149.1232  135.6249  155.2317 C   0  0  1  0  0  0  0  0  0  0  0  0
  148.2251  136.3096  154.3779 O   0  0  0  0  0  0  0  0  0  0  0  0
  148.9550  134.1003  155.0676 C   0  0  2  0  0  0  0  0  0  0  0  0
  149.3668  133.4988  153.7109 C   0  0  0  0  0  0  0  0  0  0  0  0
  148.1044  132.8082  153.2255 C   0  0  0  0  0  0  0  0  0  0  0  0
  147.3358  132.5636  154.5176 C   0  0  0  0  0  0  0  0  0  0  0  0
  147.5920  133.7400  155.2666 O   0  0  0  0  0  0  0  0  0  0  0  0
  152.4537  141.2647  158.4095 C   0  0  0  0  0  0  0  0  0  0  0  0
  153.8397  142.7956  159.0029 H   0  0  0  0  0  0  0  0  0  0  0  0
  153.4173  139.4579  160.8920 H   0  0  0  0  0  0  0  0  0  0  0  0
  151.1476  145.0675  158.6419 H   0  0  0  0  0  0  0  0  0  0  0  0
  151.8282  143.9098  157.5004 H   0  0  0  0  0  0  0  0  0  0  0  0
  152.8957  144.9014  158.5106 H   0  0  0  0  0  0  0  0  0  0  0  0
  153.8210  142.1140  161.3527 H   0  0  0  0  0  0  0  0  0  0  0  0
  152.2173  141.4154  161.1831 H   0  0  0  0  0  0  0  0  0  0  0  0
  156.9375  140.6463  161.1913 H   0  0  0  0  0  0  0  0  0  0  0  0
  155.4178  140.8120  162.0465 H   0  0  0  0  0  0  0  0  0  0  0  0
  154.3326  135.8700  158.4124 H   0  0  0  0  0  0  0  0  0  0  0  0
  149.6214  138.7499  155.1057 H   0  0  0  0  0  0  0  0  0  0  0  0
  150.6722  136.3618  153.8886 H   0  0  0  0  0  0  0  0  0  0  0  0
  151.2636  135.2624  155.1111 H   0  0  0  0  0  0  0  0  0  0  0  0
  148.8779  135.8947  156.2597 H   0  0  0  0  0  0  0  0  0  0  0  0
  148.5136  136.1899  153.4858 H   0  0  0  0  0  0  0  0  0  0  0  0
  149.5188  133.5965  155.8547 H   0  0  0  0  0  0  0  0  0  0  0  0
  149.7262  134.2346  152.9908 H   0  0  0  0  0  0  0  0  0  0  0  0
  150.1656  132.7704  153.8567 H   0  0  0  0  0  0  0  0  0  0  0  0
  147.5371  133.4831  152.5831 H   0  0  0  0  0  0  0  0  0  0  0  0
  148.3032  131.8930  152.6671 H   0  0  0  0  0  0  0  0  0  0  0  0
  146.2685  132.4143  154.3530 H   0  0  0  0  0  0  0  0  0  0  0  0
  147.7302  131.6963  155.0496 H   0  0  0  0  0  0  0  0  0  0  0  0
  151.3712  141.1344  158.4552 H   0  0  0  0  0  0  0  0  0  0  0  0
  152.7288  141.5026  157.3812 H   0  0  0  0  0  0  0  0  0  0  0  0
  1  2  1  0  0  0  0
  1 30  1  0  0  0  0
  1 31  1  0  0  0  0
  1 32  1  0  0  0  0
  2  3  1  0  0  0  0
  3 28  1  0  0  0  0
  3 27  1  0  0  0  0
  3  4  1  0  0  0  0
  4  5  1  0  0  0  0
  4 33  1  0  0  0  0
  4 34  1  0  0  0  0
  5 29  1  0  0  0  0
  5  6  1  0  0  0  0
  5  9  1  0  0  0  0
  6  7  1  0  0  0  0
  6  8  2  0  0  0  0
  7 35  1  0  0  0  0
  7 36  1  0  0  0  0
  9 10  1  0  0  0  0
  9 27  1  0  0  0  0
 10 15  1  0  0  0  0
 10 11  2  0  0  0  0
 11 12  1  0  0  0  0
 12 13  2  0  0  0  0
 12 37  1  0  0  0  0
 13 14  1  0  0  0  0
 14 18  1  0  0  0  0
 14 15  2  0  0  0  0
 15 16  1  0  0  0  0
 16 17  2  0  0  0  0
 17 18  1  0  0  0  0
 17 38  1  0  0  0  0
 18 19  1  0  0  0  0
 19 20  1  0  0  0  0
 19 39  1  0  0  0  0
 19 40  1  0  0  0  0
 20 21  1  0  0  0  0
 20 22  1  0  0  0  0
 20 41  1  0  0  0  0
 21 42  1  0  0  0  0
 22 26  1  0  0  0  0
 22 23  1  0  0  0  0
 22 43  1  0  0  0  0
 23 24  1  0  0  0  0
 23 44  1  0  0  0  0
 23 45  1  0  0  0  0
 24 25  1  0  0  0  0
 24 46  1  0  0  0  0
 24 47  1  0  0  0  0
 25 26  1  0  0  0  0
 25 48  1  0  0  0  0
 25 49  1  0  0  0  0
 27 50  1  0  0  0  0
 27 51  1  0  0  0  0
M  END
> <s_m_source_file>
AV-unprocessed.smi

> <i_m_source_file_index>
261

> <i_lp_mmshare_version>
43012

> <i_f3d_flags>
0

> <s_epik_input>
W0NIM11PW0NASF0xW0NIMl1bQ0BASF0oQyg9TylbTkgyXSlOKFtDSDJdMSljKG5bY0hdbjIpYyhjMjMpbltjSF1uM1tDSDJdW0NASF0oW09IXSlbQ0BASF00W0NIMl1bQ0gyXVtDSDJdTzQ=

> <s_epik_cmdline>
J2VwaWtfcHl0aG9uJywgJy1waCcsICc3LjAnLCAnLXRuJywgJzgnLCAnLW1hJywgJzIwMCcsICctbWV0YWxfYmluZGluZycsICctaW1hZScsICc8aW5maWxlLm1hZT4nLCAnLW9tYWUnLCAnPG91dGZpbGUubWFlPic=

> <r_lp_tautomer_probability>
1

> <r_epik_Ionization_Penalty>
0.000713824

> <r_epik_Ionization_Penalty_Charging>
0

> <r_epik_Ionization_Penalty_Neutral>
0.000713824

> <r_epik_State_Penalty>
0.000402132

> <r_epik_Charging_Adjusted_Penalty>
0.000402132

> <i_epik_Tot_Q>
0

> <i_epik_Tot_abs_Q>
0

> <r_epik_Metal_State_Penalty>
-0

> <b_epik_Metal_Only>
0

> <s_lp_Force_Field>
OPLS_2005

> <r_lp_Energy>
44.9421

> <b_lp_Chiralities_Consistent>
1

> <s_lp_Variant>
AV-unprocessed.smi:261-7

> <Gold.Version>
5.8.1

> <Gold.Id.Protein>
6NUR|6NUR_protein|mol2

> <Gold.PLP.Fitness>
47.2064

> <Gold.PLP.PLP>
-40.2753

> <Gold.PLP.part.hbond>
-3.6412

> <Gold.PLP.part.metal>
0.0000

> <Gold.PLP.part.buried>
-5.2734

> <Gold.PLP.part.nonpolar>
-31.0640

> <Gold.PLP.part.repulsive>
0.0507

> <Gold.PLP.ligand.clash>
0.0000

> <Gold.PLP.ligand.torsion>
0.8946

> <Gold.PLP.Chemscore.Hbond>
2.8613

> <Gold.PLP.Chemscore.CHOScore>
0.0000

> <Gold.PLP.Chemscore.Metal>
0.0000

> <Gold.Chemscore.Hbonds>
donor molecule, donor type, donor heavy atom, donor atom, acceptor molecule, acceptor atom, score
      L1  H    21    42       P1  7948  1.00
      P1  H  7997  8009       L1     8  1.00
      P1  H 10752 10764       L1    13  0.86

> <Gold.PLP.Chemscore.Internal.Correction>
0.1366

> <Gold.Rescore>
     Score         DG    S(hbond)    S(metal)    S(lipo)     H(rot)  DE(clash)    DE(int)     intcor
     14.60     -16.46       2.75        0.00      84.86       3.18       0.14       1.71       ----

> <Gold.Chemscore.Fitness>
14.6028

> <Gold.Chemscore.DG>
-16.4580

> <Gold.Chemscore.ZeroCoef>
-5.4800

> <Gold.Chemscore.Hbond>
2.7539

> <Gold.Chemscore.Metal>
0.0000

> <Gold.Chemscore.Lipo>
84.8595

> <Gold.Chemscore.Internal_Hbond>
0.0000

> <Gold.Chemscore.DEClash>
0.1405

> <Gold.Chemscore.DEInternal>
1.7148

> <Gold.Chemscore.Rot>
3.1831

> <Gold.Chemscore.Internal.Correction>
   9.000000E+99

> <Gold.Chemscore.Hbonds>
donor molecule, donor type, donor heavy atom, donor atom, acceptor molecule, acceptor atom, score
      L1  H    21    42       P1  7948  1.00
      P1  H  7997  8009       L1     8  0.98
      P1  H 10752 10764       L1    13  0.41

> <Gold.Chemscore.Hbond.Weighted>
-9.1981

> <Gold.Chemscore.Metal.Weighted>
-0.0000

> <Gold.Chemscore.Lipo.Weighted>
-9.9286

> <Gold.Chemscore.Internal_Hbond.Weighted>
0.0000

> <Gold.Chemscore.DEClash.Weighted>
0.1405

> <Gold.Chemscore.DEInternal.Weighted>
1.7148

> <Gold.Chemscore.Rot.Weighted>
8.1486

> <Gold.Chemscore.Internal.Correction.Weighted>
   9.000000E+99

> <Gold.Protein.RotatedTorsions>
[ 6907 6896 6895 6894 ] final   60.60 input  -60.11 | X-H torsion
[ 7974 7965 7964 7962 ] final  -82.47 input  175.53 | X-H torsion
[ 8008 7997 7996 7995 ] final   97.39 input   59.86 | X-H torsion
[ 10167 10162 10161 10158 ] final   54.83 input  -65.29 | X-H torsion
[ 10718 10713 10712 10709 ] final  -13.66 input   66.30 | X-H torsion
[ 10763 10752 10751 10750 ] final   -3.99 input  -60.55 | X-H torsion
[ 11005 11000 10999 10996 ] final  117.41 input  -57.11 | X-H torsion

> <Gold.Protein.ActiveResidues>
 VAL166  LYS551  ARG553  GLY616  TRP617  ASP618  TYR619  PRO620  LYS621  CYS622 
 ASP623  PHE694  ASN695  SER759  ASP760  ASP761  ALA762  ILE779  LEU786  VAL792 
 PHE793  MET794  SER795  GLU796  ALA797  LYS798  CYS799  TRP800  GLU811  SER814 

> <Gold.Protein.RotatedAtoms>
  152.4016  134.6276  160.0066 H   0  0  0  0  0  0  0  0  0  0  0  0  # atno 6907 bound_to 6896
  151.6479  133.3317  159.3153 H   0  0  0  0  0  0  0  0  0  0  0  0  # atno 6908 bound_to 6896
  150.7916  134.6987  159.6582 H   0  0  0  0  0  0  0  0  0  0  0  0  # atno 6909 bound_to 6896
  145.5328  140.9519  143.1593 H   0  0  0  0  0  0  0  0  0  0  0  0  # atno 7974 bound_to 7965
  156.0896  140.3259  155.7799 H   0  0  0  0  0  0  0  0  0  0  0  0  # atno 8008 bound_to 7997
  155.5018  140.0570  157.2955 H   0  0  0  0  0  0  0  0  0  0  0  0  # atno 8009 bound_to 7997
  154.4630  140.1975  156.0210 H   0  0  0  0  0  0  0  0  0  0  0  0  # atno 8010 bound_to 7997
  140.2259  144.3739  150.6433 H   0  0  0  0  0  0  0  0  0  0  0  0  # atno 10167 bound_to 10162
  156.6271  130.4891  149.6143 H   0  0  0  0  0  0  0  0  0  0  0  0  # atno 10718 bound_to 10713
  153.3788  135.6997  153.6581 H   0  0  0  0  0  0  0  0  0  0  0  0  # atno 10763 bound_to 10752
  153.5201  135.3614  155.2628 H   0  0  0  0  0  0  0  0  0  0  0  0  # atno 10764 bound_to 10752
  154.8690  135.4155  154.3082 H   0  0  0  0  0  0  0  0  0  0  0  0  # atno 10765 bound_to 10752
  139.9073  134.9610  156.7346 H   0  0  0  0  0  0  0  0  0  0  0  0  # atno 11005 bound_to 11000
  144.7617  139.6942  143.7232 LP  0  0  0  0  0  0  0  0  0  0  0  0  # atno 17320 bound_to 7965
  146.2032  139.5340  142.9729 LP  0  0  0  0  0  0  0  0  0  0  0  0  # atno 17321 bound_to 7965
  140.6221  143.2177  151.6673 LP  0  0  0  0  0  0  0  0  0  0  0  0  # atno 17342 bound_to 10162
  139.5127  144.3466  152.0691 LP  0  0  0  0  0  0  0  0  0  0  0  0  # atno 17343 bound_to 10162
  156.2265  130.6768  151.1420 LP  0  0  0  0  0  0  0  0  0  0  0  0  # atno 17370 bound_to 10713
  157.7211  131.0681  150.6132 LP  0  0  0  0  0  0  0  0  0  0  0  0  # atno 17371 bound_to 10713
  140.6897  133.9401  155.7959 LP  0  0  0  0  0  0  0  0  0  0  0  0  # atno 17394 bound_to 11000
  141.0450  134.0567  157.3855 LP  0  0  0  0  0  0  0  0  0  0  0  0  # atno 17395 bound_to 11000

$$$$
