AV-unprocessed.smi:2867|AV-procd|sdf|11023|dock9
  -GOLD-   2272015483D 1   1.00000     0.00000
 Structure written by MMmdl.
 40 42  0  0  0  0  0  0  0  0  1 V2000
  152.0604  139.0744  155.0138 C   0  0  0  0  0  0  0  0  0  0  0  0
  152.5248  139.8818  156.0813 O   0  0  0  0  0  0  0  0  0  0  0  0
  151.5375  140.7867  156.5430 C   0  0  0  0  0  0  0  0  0  0  0  0
  151.1468  140.4076  157.9760 C   0  0  0  0  0  0  0  0  0  0  0  0
  152.2650  139.8115  158.6892 N   0  0  0  0  0  0  0  0  0  0  0  0
  152.9906  140.3568  159.6985 C   0  0  0  0  0  0  0  0  0  0  0  0
  152.7606  141.6882  160.2410 C   0  0  0  0  0  0  0  0  0  0  0  0
  152.3813  142.7490  159.3917 C   0  0  0  0  0  0  0  0  0  0  0  0
  152.1579  144.0339  159.9239 C   0  0  0  0  0  0  0  0  0  0  0  0
  152.3172  144.2622  161.3046 C   0  0  0  0  0  0  0  0  0  0  0  0
  152.7021  143.2061  162.1535 C   0  0  0  0  0  0  0  0  0  0  0  0
  152.8567  143.4261  163.4806 F   0  0  0  0  0  0  0  0  0  0  0  0
  152.9255  141.9210  161.6224 C   0  0  0  0  0  0  0  0  0  0  0  0
  153.9471  139.5690  160.1945 N   0  0  0  0  0  0  0  0  0  0  0  0
  153.8303  138.4177  159.4414 C   0  0  0  0  0  0  0  0  0  0  0  0
  154.5605  137.2093  159.4918 C   0  0  0  0  0  0  0  0  0  0  0  0
  154.2413  136.1555  158.6095 C   0  0  0  0  0  0  0  0  0  0  0  0
  155.1734  134.6316  158.6897 S   0  0  0  0  0  0  0  0  0  0  0  0
  156.0574  134.6810  157.2158 N   0  0  0  0  0  0  0  0  0  0  0  0
  156.1409  134.7114  159.7950 O   0  0  0  0  0  0  0  0  0  0  0  0
  154.2270  133.5092  158.5973 O   0  0  0  0  0  0  0  0  0  0  0  0
  153.1980  136.2868  157.6689 C   0  0  0  0  0  0  0  0  0  0  0  0
  152.4620  137.4855  157.6066 C   0  0  0  0  0  0  0  0  0  0  0  0
  152.7819  138.5367  158.4873 C   0  0  0  0  0  0  0  0  0  0  0  0
  152.8554  138.4033  154.6893 H   0  0  0  0  0  0  0  0  0  0  0  0
  151.7637  139.6830  154.1583 H   0  0  0  0  0  0  0  0  0  0  0  0
  151.2096  138.4650  155.3219 H   0  0  0  0  0  0  0  0  0  0  0  0
  151.9253  141.8065  156.5158 H   0  0  0  0  0  0  0  0  0  0  0  0
  150.6615  140.7486  155.8930 H   0  0  0  0  0  0  0  0  0  0  0  0
  150.8122  141.2903  158.5215 H   0  0  0  0  0  0  0  0  0  0  0  0
  150.3066  139.7138  157.9721 H   0  0  0  0  0  0  0  0  0  0  0  0
  152.2587  142.5787  158.3319 H   0  0  0  0  0  0  0  0  0  0  0  0
  151.8645  144.8444  159.2732 H   0  0  0  0  0  0  0  0  0  0  0  0
  152.1457  145.2475  161.7121 H   0  0  0  0  0  0  0  0  0  0  0  0
  153.2191  141.1132  162.2772 H   0  0  0  0  0  0  0  0  0  0  0  0
  155.3591  137.0968  160.2100 H   0  0  0  0  0  0  0  0  0  0  0  0
  156.8593  135.3068  157.2866 H   0  0  0  0  0  0  0  0  0  0  0  0
  155.4559  134.9389  156.4337 H   0  0  0  0  0  0  0  0  0  0  0  0
  152.9574  135.4740  156.9993 H   0  0  0  0  0  0  0  0  0  0  0  0
  151.6595  137.5936  156.8921 H   0  0  0  0  0  0  0  0  0  0  0  0
  1  2  1  0  0  0  0
  1 25  1  0  0  0  0
  1 26  1  0  0  0  0
  1 27  1  0  0  0  0
  2  3  1  0  0  0  0
  3  4  1  0  0  0  0
  3 28  1  0  0  0  0
  3 29  1  0  0  0  0
  4  5  1  0  0  0  0
  4 30  1  0  0  0  0
  4 31  1  0  0  0  0
  5 24  1  0  0  0  0
  5  6  1  0  0  0  0
  6  7  1  0  0  0  0
  6 14  2  0  0  0  0
  7 13  1  0  0  0  0
  7  8  2  0  0  0  0
  8  9  1  0  0  0  0
  8 32  1  0  0  0  0
  9 10  2  0  0  0  0
  9 33  1  0  0  0  0
 10 11  1  0  0  0  0
 10 34  1  0  0  0  0
 11 12  1  0  0  0  0
 11 13  2  0  0  0  0
 13 35  1  0  0  0  0
 14 15  1  0  0  0  0
 15 24  2  0  0  0  0
 15 16  1  0  0  0  0
 16 17  2  0  0  0  0
 16 36  1  0  0  0  0
 17 18  1  0  0  0  0
 17 22  1  0  0  0  0
 18 19  1  0  0  0  0
 18 20  2  0  0  0  0
 18 21  2  0  0  0  0
 19 37  1  0  0  0  0
 19 38  1  0  0  0  0
 22 23  2  0  0  0  0
 22 39  1  0  0  0  0
 23 24  1  0  0  0  0
 23 40  1  0  0  0  0
M  END
> <s_m_source_file>
AV-unprocessed.smi

> <i_m_source_file_index>
2867

> <i_lp_mmshare_version>
43012

> <i_f3d_flags>
0

> <s_epik_input>
W05IMl1TKD1PKSg9TyljKFtjSF0xKVtjSF1bY0hdYyhjMTIpbihbQ0gyXVtDSDJdT1tDSDNdKWMobjIpLWMzW2NIXVtjSF1bY0hdYyhGKVtjSF0z

> <s_epik_cmdline>
J2VwaWtfcHl0aG9uJywgJy1waCcsICc3LjAnLCAnLXRuJywgJzgnLCAnLW1hJywgJzIwMCcsICctbWV0YWxfYmluZGluZycsICctaW1hZScsICc8aW5maWxlLm1hZT4nLCAnLW9tYWUnLCAnPG91dGZpbGUubWFlPic=

> <r_epik_Ionization_Penalty>
0.0786023

> <r_epik_Ionization_Penalty_Charging>
0

> <r_epik_Ionization_Penalty_Neutral>
0.0786023

> <r_epik_State_Penalty>
0.0592545

> <r_epik_Charging_Adjusted_Penalty>
0.0592545

> <i_epik_Tot_Q>
0

> <i_epik_Tot_abs_Q>
0

> <r_epik_Metal_State_Penalty>
0.300641

> <b_epik_Metal_Only>
0

> <s_lp_Force_Field>
OPLS_2005

> <r_lp_Energy>
19.4946

> <b_lp_Chiralities_Consistent>
1

> <s_lp_Variant>
AV-unprocessed.smi:2867-1

> <Gold.Version>
5.8.1

> <Gold.Id.Protein>
6NUR|6NUR_protein|mol2

> <Gold.PLP.Fitness>
49.5445

> <Gold.PLP.PLP>
-44.9332

> <Gold.PLP.part.hbond>
-2.0000

> <Gold.PLP.part.metal>
0.0000

> <Gold.PLP.part.buried>
-4.1396

> <Gold.PLP.part.nonpolar>
-37.6020

> <Gold.PLP.part.repulsive>
0.0000

> <Gold.PLP.ligand.clash>
0.0000

> <Gold.PLP.ligand.torsion>
2.2118

> <Gold.PLP.Chemscore.Hbond>
2.0000

> <Gold.PLP.Chemscore.CHOScore>
0.0000

> <Gold.PLP.Chemscore.Metal>
0.0000

> <Gold.Chemscore.Hbonds>
donor molecule, donor type, donor heavy atom, donor atom, acceptor molecule, acceptor atom, score
      P1  H  6896  6909       L1    21  0.75
      P1  H  7997  8010       L1     2  1.00

> <Gold.PLP.Chemscore.Internal.Correction>
3.0349

> <Gold.Rescore>
     Score         DG    S(hbond)    S(metal)    S(lipo)     H(rot)  DE(clash)    DE(int)     intcor
     16.29     -21.67       1.93        0.00     114.97       1.45       0.77       4.60       ----

> <Gold.Chemscore.Fitness>
16.2926

> <Gold.Chemscore.DG>
-21.6717

> <Gold.Chemscore.ZeroCoef>
-5.4800

> <Gold.Chemscore.Hbond>
1.9341

> <Gold.Chemscore.Metal>
0.0000

> <Gold.Chemscore.Lipo>
114.9694

> <Gold.Chemscore.Internal_Hbond>
0.0000

> <Gold.Chemscore.DEClash>
0.7740

> <Gold.Chemscore.DEInternal>
4.6050

> <Gold.Chemscore.Rot>
1.4530

> <Gold.Chemscore.Internal.Correction>
   9.000000E+99

> <Gold.Chemscore.Hbonds>
donor molecule, donor type, donor heavy atom, donor atom, acceptor molecule, acceptor atom, score
      P1  H  6896  6909       L1    21  0.37
      P1  H  7997  8010       L1     2  0.96

> <Gold.Chemscore.Hbond.Weighted>
-6.4599

> <Gold.Chemscore.Metal.Weighted>
-0.0000

> <Gold.Chemscore.Lipo.Weighted>
-13.4514

> <Gold.Chemscore.Internal_Hbond.Weighted>
0.0000

> <Gold.Chemscore.DEClash.Weighted>
0.7740

> <Gold.Chemscore.DEInternal.Weighted>
4.6050

> <Gold.Chemscore.Rot.Weighted>
3.7196

> <Gold.Chemscore.Internal.Correction.Weighted>
   9.000000E+99

> <Gold.Protein.RotatedTorsions>
[ 6907 6896 6895 6894 ] final -145.15 input  -60.11 | X-H torsion
[ 7974 7965 7964 7962 ] final -137.67 input  175.53 | X-H torsion
[ 8008 7997 7996 7995 ] final   80.95 input   59.86 | X-H torsion
[ 10167 10162 10161 10158 ] final -141.60 input  -65.29 | X-H torsion
[ 10718 10713 10712 10709 ] final   52.47 input   66.30 | X-H torsion
[ 10763 10752 10751 10750 ] final -167.32 input  -60.55 | X-H torsion
[ 11005 11000 10999 10996 ] final  154.83 input  -57.11 | X-H torsion

> <Gold.Protein.ActiveResidues>
 VAL166  LYS551  ARG553  GLY616  TRP617  ASP618  TYR619  PRO620  LYS621  CYS622 
 ASP623  PHE694  ASN695  SER759  ASP760  ASP761  ALA762  ILE779  LEU786  VAL792 
 PHE793  MET794  SER795  GLU796  ALA797  LYS798  CYS799  TRP800  GLU811  SER814 

> <Gold.Protein.RotatedAtoms>
  151.1238  133.5085  159.2601 H   0  0  0  0  0  0  0  0  0  0  0  0  # atno 6907 bound_to 6896
  151.1833  135.0370  159.8811 H   0  0  0  0  0  0  0  0  0  0  0  0  # atno 6908 bound_to 6896
  152.5457  134.1087  159.8402 H   0  0  0  0  0  0  0  0  0  0  0  0  # atno 6909 bound_to 6896
  144.8822  140.6524  143.5198 H   0  0  0  0  0  0  0  0  0  0  0  0  # atno 7974 bound_to 7965
  155.8905  140.3439  155.5953 H   0  0  0  0  0  0  0  0  0  0  0  0  # atno 8008 bound_to 7997
  155.7616  140.0833  157.2171 H   0  0  0  0  0  0  0  0  0  0  0  0  # atno 8009 bound_to 7997
  154.4033  140.1535  156.2827 H   0  0  0  0  0  0  0  0  0  0  0  0  # atno 8010 bound_to 7997
  139.8169  143.7626  152.2665 H   0  0  0  0  0  0  0  0  0  0  0  0  # atno 10167 bound_to 10162
  157.5078  130.8480  149.8397 H   0  0  0  0  0  0  0  0  0  0  0  0  # atno 10718 bound_to 10713
  154.6744  135.2944  154.9699 H   0  0  0  0  0  0  0  0  0  0  0  0  # atno 10763 bound_to 10752
  154.0715  135.6617  153.4829 H   0  0  0  0  0  0  0  0  0  0  0  0  # atno 10764 bound_to 10752
  153.0507  135.5176  154.7755 H   0  0  0  0  0  0  0  0  0  0  0  0  # atno 10765 bound_to 10752
  140.1525  134.8665  157.2472 H   0  0  0  0  0  0  0  0  0  0  0  0  # atno 11005 bound_to 11000
  145.3933  139.1612  143.4217 LP  0  0  0  0  0  0  0  0  0  0  0  0  # atno 17320 bound_to 7965
  146.3002  140.4024  142.8707 LP  0  0  0  0  0  0  0  0  0  0  0  0  # atno 17321 bound_to 7965
  139.7792  144.7450  151.0112 LP  0  0  0  0  0  0  0  0  0  0  0  0  # atno 17342 bound_to 10162
  140.7815  143.4560  151.0345 LP  0  0  0  0  0  0  0  0  0  0  0  0  # atno 17343 bound_to 10162
  156.0269  130.3776  150.1796 LP  0  0  0  0  0  0  0  0  0  0  0  0  # atno 17370 bound_to 10713
  156.9986  130.9915  151.3396 LP  0  0  0  0  0  0  0  0  0  0  0  0  # atno 17371 bound_to 10713
  140.2588  134.3596  155.7414 LP  0  0  0  0  0  0  0  0  0  0  0  0  # atno 17394 bound_to 11000
  141.2200  133.7357  156.9048 LP  0  0  0  0  0  0  0  0  0  0  0  0  # atno 17395 bound_to 11000

$$$$
