AV-unprocessed.smi:941|AV-procd|sdf|4220|dock5
  -GOLD-   22720 2133D 1   1.00000     0.00000
 Structure written by MMmdl.
 18 18  0  0  0  0  0  0  0  0  2 V2000
  142.3343  132.7847  148.3925 N   0  3  0  0  0  0  0  0  0  0  0  0
  143.8069  132.8016  148.4152 C   0  0  0  0  0  0  0  0  0  0  0  0
  144.3512  132.4317  149.8013 C   0  0  0  0  0  0  0  0  0  0  0  0
  144.5851  133.6320  150.6561 C   0  0  0  0  0  0  0  0  0  0  0  0
  145.7206  134.3127  150.7887 N   0  0  0  0  0  0  0  0  0  0  0  0
  145.3271  135.3136  151.6214 C   0  0  0  0  0  0  0  0  0  0  0  0
  146.2318  136.2966  152.0540 N   0  0  0  0  0  0  0  0  0  0  0  0
  144.0516  135.3006  151.9848 N   0  0  0  0  0  0  0  0  0  0  0  0
  143.5396  134.1733  151.3261 O   0  0  0  0  0  0  0  0  0  0  0  0
  142.0100  132.9931  147.4587 H   0  0  0  0  0  0  0  0  0  0  0  0
  141.9777  133.4788  149.0340 H   0  0  0  0  0  0  0  0  0  0  0  0
  144.1762  132.1024  147.6639 H   0  0  0  0  0  0  0  0  0  0  0  0
  144.1500  133.7956  148.1268 H   0  0  0  0  0  0  0  0  0  0  0  0
  143.6545  131.7691  150.3165 H   0  0  0  0  0  0  0  0  0  0  0  0
  145.2907  131.8859  149.7053 H   0  0  0  0  0  0  0  0  0  0  0  0
  147.1945  136.2730  151.7498 H   0  0  0  0  0  0  0  0  0  0  0  0
  145.9172  137.0589  152.6367 H   0  0  0  0  0  0  0  0  0  0  0  0
  142.0019  131.8709  148.6664 H   0  0  0  0  0  0  0  0  0  0  0  0
  1  2  1  0  0  0  0
  1 10  1  0  0  0  0
  1 11  1  0  0  0  0
  1 18  1  0  0  0  0
  2  3  1  0  0  0  0
  2 12  1  0  0  0  0
  2 13  1  0  0  0  0
  3  4  1  0  0  0  0
  3 14  1  0  0  0  0
  3 15  1  0  0  0  0
  4  9  1  0  0  0  0
  4  5  2  0  0  0  0
  5  6  1  0  0  0  0
  6  7  1  0  0  0  0
  6  8  2  0  0  0  0
  7 16  1  0  0  0  0
  7 17  1  0  0  0  0
  8  9  1  0  0  0  0
M  CHG  1   1   1
M  END
> <s_m_source_file>
AV-unprocessed.smi

> <i_m_source_file_index>
941

> <i_lp_mmshare_version>
43012

> <i_f3d_flags>
0

> <s_epik_input>
W05IMl1bQ0gyXVtDSDJdYzFuYyhbTkgyXSlubzE=

> <s_epik_cmdline>
J2VwaWtfcHl0aG9uJywgJy1waCcsICc3LjAnLCAnLXRuJywgJzgnLCAnLW1hJywgJzIwMCcsICctbWV0YWxfYmluZGluZycsICctaW1hZScsICc8aW5maWxlLm1hZT4nLCAnLW9tYWUnLCAnPG91dGZpbGUubWFlPic=

> <r_epik_Ionization_Penalty>
0.00605592

> <r_epik_Ionization_Penalty_Charging>
0.00601069

> <r_epik_Ionization_Penalty_Neutral>
4.52271e-05

> <r_epik_State_Penalty>
0.00442499

> <r_epik_Charging_Adjusted_Penalty>
0.0104357

> <i_epik_Tot_Q>
1

> <i_epik_Tot_abs_Q>
1

> <r_epik_Metal_State_Penalty>
-0

> <b_epik_Metal_Only>
0

> <s_lp_Force_Field>
OPLS_2005

> <r_lp_Energy>
-1.60622

> <b_lp_Chiralities_Consistent>
1

> <s_lp_Variant>
AV-unprocessed.smi:941-1

> <Gold.Version>
5.8.1

> <Gold.Id.Protein>
6NUR|6NUR_protein|mol2

> <Gold.PLP.Fitness>
32.2555

> <Gold.PLP.PLP>
-18.3517

> <Gold.PLP.part.hbond>
-3.8812

> <Gold.PLP.part.metal>
0.0000

> <Gold.PLP.part.buried>
-4.7375

> <Gold.PLP.part.nonpolar>
-11.0593

> <Gold.PLP.part.repulsive>
1.3232

> <Gold.PLP.ligand.clash>
0.0000

> <Gold.PLP.ligand.torsion>
0.5531

> <Gold.PLP.Chemscore.Hbond>
5.0000

> <Gold.PLP.Chemscore.CHOScore>
0.0000

> <Gold.PLP.Chemscore.Metal>
0.0000

> <Gold.Chemscore.Hbonds>
donor molecule, donor type, donor heavy atom, donor atom, acceptor molecule, acceptor atom, score
      L1  H     1    10       P1 10195  1.00
      L1  H     1    11       P1 10186  1.53
      L1  H     1    18       P1 10952  0.80
      L1  H     7    16       P1  7948  1.00

> <Gold.PLP.Chemscore.Internal.Correction>
0.0099

> <Gold.Rescore>
     Score         DG    S(hbond)    S(metal)    S(lipo)     H(rot)  DE(clash)    DE(int)     intcor
     15.80     -17.56       3.97        0.00      26.46       1.67       1.25       0.51       ----

> <Gold.Chemscore.Fitness>
15.7972

> <Gold.Chemscore.DG>
-17.5570

> <Gold.Chemscore.ZeroCoef>
-5.4800

> <Gold.Chemscore.Hbond>
3.9725

> <Gold.Chemscore.Metal>
0.0000

> <Gold.Chemscore.Lipo>
26.4618

> <Gold.Chemscore.Internal_Hbond>
0.0000

> <Gold.Chemscore.DEClash>
1.2490

> <Gold.Chemscore.DEInternal>
0.5108

> <Gold.Chemscore.Rot>
1.6747

> <Gold.Chemscore.Internal.Correction>
   9.000000E+99

> <Gold.Chemscore.Hbonds>
donor molecule, donor type, donor heavy atom, donor atom, acceptor molecule, acceptor atom, score
      L1  H     1    10       P1 10195  0.92
      L1  H     1    11       P1 10186  0.73
      L1  H     1    18       P1 10952  0.78
      L1  H     7    16       P1  7948  1.00

> <Gold.Chemscore.Hbond.Weighted>
-13.2682

> <Gold.Chemscore.Metal.Weighted>
-0.0000

> <Gold.Chemscore.Lipo.Weighted>
-3.0960

> <Gold.Chemscore.Internal_Hbond.Weighted>
0.0000

> <Gold.Chemscore.DEClash.Weighted>
1.2490

> <Gold.Chemscore.DEInternal.Weighted>
0.5108

> <Gold.Chemscore.Rot.Weighted>
4.2872

> <Gold.Chemscore.Internal.Correction.Weighted>
   9.000000E+99

> <Gold.Protein.RotatedTorsions>
[ 6907 6896 6895 6894 ] final -105.03 input  -60.11 | X-H torsion
[ 7974 7965 7964 7962 ] final -147.21 input  175.53 | X-H torsion
[ 8008 7997 7996 7995 ] final -164.90 input   59.86 | X-H torsion
[ 10167 10162 10161 10158 ] final -104.45 input  -65.29 | X-H torsion
[ 10718 10713 10712 10709 ] final  -31.94 input   66.30 | X-H torsion
[ 10763 10752 10751 10750 ] final  -94.25 input  -60.55 | X-H torsion
[ 11005 11000 10999 10996 ] final  -40.69 input  -57.11 | X-H torsion

> <Gold.Protein.ActiveResidues>
 VAL166  LYS551  ARG553  GLY616  TRP617  ASP618  TYR619  PRO620  LYS621  CYS622 
 ASP623  PHE694  ASN695  SER759  ASP760  ASP761  ALA762  ILE779  LEU786  VAL792 
 PHE793  MET794  SER795  GLU796  ALA797  LYS798  CYS799  TRP800  GLU811  SER814 

> <Gold.Protein.RotatedAtoms>
  150.7316  134.0188  159.3694 H   0  0  0  0  0  0  0  0  0  0  0  0  # atno 6907 bound_to 6896
  151.8152  135.0666  160.0427 H   0  0  0  0  0  0  0  0  0  0  0  0  # atno 6908 bound_to 6896
  152.3044  133.5651  159.5675 H   0  0  0  0  0  0  0  0  0  0  0  0  # atno 6909 bound_to 6896
  144.8108  140.5356  143.5643 H   0  0  0  0  0  0  0  0  0  0  0  0  # atno 7974 bound_to 7965
  155.8421  140.0950  157.1728 H   0  0  0  0  0  0  0  0  0  0  0  0  # atno 8008 bound_to 7997
  154.3982  140.1399  156.3803 H   0  0  0  0  0  0  0  0  0  0  0  0  # atno 8009 bound_to 7997
  155.8053  140.3451  155.5428 H   0  0  0  0  0  0  0  0  0  0  0  0  # atno 8010 bound_to 7997
  140.2091  143.3760  152.1065 H   0  0  0  0  0  0  0  0  0  0  0  0  # atno 10167 bound_to 10162
  156.3810  130.4356  149.7469 H   0  0  0  0  0  0  0  0  0  0  0  0  # atno 10718 bound_to 10713
  154.7037  135.5164  153.8564 H   0  0  0  0  0  0  0  0  0  0  0  0  # atno 10763 bound_to 10752
  153.0724  135.6605  154.0227 H   0  0  0  0  0  0  0  0  0  0  0  0  # atno 10764 bound_to 10752
  154.0082  135.3004  155.3375 H   0  0  0  0  0  0  0  0  0  0  0  0  # atno 10765 bound_to 10752
  141.0193  133.6870  156.2356 H   0  0  0  0  0  0  0  0  0  0  0  0  # atno 11005 bound_to 11000
  145.5328  139.1475  143.3490 LP  0  0  0  0  0  0  0  0  0  0  0  0  # atno 17320 bound_to 7965
  146.2407  140.5468  142.8935 LP  0  0  0  0  0  0  0  0  0  0  0  0  # atno 17321 bound_to 7965
  139.5187  144.7009  151.5496 LP  0  0  0  0  0  0  0  0  0  0  0  0  # atno 17342 bound_to 10162
  140.6336  143.9028  150.6627 LP  0  0  0  0  0  0  0  0  0  0  0  0  # atno 17343 bound_to 10162
  156.4559  130.7929  151.2950 LP  0  0  0  0  0  0  0  0  0  0  0  0  # atno 17370 bound_to 10713
  157.7492  131.0081  150.3215 LP  0  0  0  0  0  0  0  0  0  0  0  0  # atno 17371 bound_to 10713
  140.6601  134.4977  157.5583 LP  0  0  0  0  0  0  0  0  0  0  0  0  # atno 17394 bound_to 11000
  139.9136  134.8293  156.1443 LP  0  0  0  0  0  0  0  0  0  0  0  0  # atno 17395 bound_to 11000

$$$$
