#       Name:                AV-unprocessed.smi:2851
#       Creating user name   scv26
#       Creation time:       Fri Mar 27 15:42:38 2020


#       File generated by GOLD software.
#

@<TRIPOS>MOLECULE
AV-unprocessed.smi:2851
    50    51     1
SMALL
NO_CHARGES


@<TRIPOS>ATOM
      1 ****        -3.4836   1.3565   2.3852 C.3            1 S1                 0.0000
      2 ****        -3.1423   0.0613   1.7059 C.2            1 S1                 0.0000
      3 ****        -4.1127  -0.6872   1.2077 N.2            1 S1                 0.0000
      4 ****        -3.4831  -1.7486   0.6642 N.pl3          1 S1                 0.0000
      5 ****        -4.2646  -2.7793   0.0092 C.3            1 S1                 0.0000
      6 ****        -2.1139  -1.6769   0.8309 C.2            1 S1                 0.0000
      7 ****        -1.1924  -2.7343   0.3127 C.3            1 S1                 0.0000
      8 ****        -1.8529  -0.5127   1.5044 C.2            1 S1                 0.0000
      9 ****        -0.5232   0.0567   1.9309 C.3            1 S1                 0.0000
     10 ****         0.0997   0.8223   0.7640 C.2            1 S1                 0.0000
     11 ****        -0.0847   2.0346   0.6729 O.2            1 S1                 0.0000
     12 ****         0.7979   0.0709  -0.1072 N.am           1 S1                 0.0000
     13 ****         1.5132   0.3890  -1.3540 C.3            1 S1                 0.0000
     14 ****         0.6990  -0.3197  -2.4657 C.2            1 S1                 0.0000
     15 ****        -0.1034   0.3665  -3.1376 O.co2          1 S1                 0.0000
     16 ****         0.8521  -1.5550  -2.6033 O.co2          1 S1                -1.0000
     17 ****         1.6721   1.9078  -1.6955 C.3            1 S1                 0.0000
     18 ****         2.6968   2.6521  -0.8153 C.3            1 S1                 0.0000
     19 ****         4.0565   1.9466  -0.8128 C.3            1 S1                 0.0000
     20 ****         3.9022   0.4889  -0.3667 C.3            1 S1                 0.0000
     21 ****         2.9220  -0.2687  -1.2776 C.3            1 S1                 0.0000
     22 ****        -3.3612   1.2729   3.4650 H              1 S1                 0.0000
     23 ****        -4.5129   1.6584   2.1884 H              1 S1                 0.0000
     24 ****        -2.8332   2.1601   2.0393 H              1 S1                 0.0000
     25 ****        -4.2601  -3.6834   0.6182 H              1 S1                 0.0000
     26 ****        -3.8330  -3.0038  -0.9665 H              1 S1                 0.0000
     27 ****        -5.2951  -2.4504  -0.1312 H              1 S1                 0.0000
     28 ****        -0.1883  -2.6188   0.7197 H              1 S1                 0.0000
     29 ****        -1.1202  -2.6819  -0.7738 H              1 S1                 0.0000
     30 ****        -1.5469  -3.7292   0.5817 H              1 S1                 0.0000
     31 ****        -0.6334   0.7331   2.7790 H              1 S1                 0.0000
     32 ****         0.1614  -0.7258   2.2603 H              1 S1                 0.0000
     33 ****         0.8178  -0.9132   0.1165 H              1 S1                 0.0000
     34 ****         2.0138   1.9996  -2.7281 H              1 S1                 0.0000
     35 ****         0.7138   2.4270  -1.6731 H              1 S1                 0.0000
     36 ****         2.8134   3.6748  -1.1745 H              1 S1                 0.0000
     37 ****         2.3366   2.7318   0.2092 H              1 S1                 0.0000
     38 ****         4.4943   1.9834  -1.8110 H              1 S1                 0.0000
     39 ****         4.7463   2.4696  -0.1499 H              1 S1                 0.0000
     40 ****         4.8738  -0.0055  -0.3796 H              1 S1                 0.0000
     41 ****         3.5515   0.4534   0.6655 H              1 S1                 0.0000
     42 ****         2.8486  -1.3007  -0.9299 H              1 S1                 0.0000
     43 ****         3.3580  -0.3209  -2.2770 H              1 S1                 0.0000
     44 ****        -5.0959  -0.5060   1.2294 LP             1 S1                 0.0000
     45 ****        -0.6373   2.5091   1.3580 LP             1 S1                 0.0000
     46 ****         0.3179   2.5459  -0.0863 LP             1 S1                 0.0000
     47 ****        -0.6717  -0.0695  -3.8354 LP             1 S1                 0.0000
     48 ****        -0.1762   1.3507  -2.9767 LP             1 S1                 0.0000
     49 ****         0.3145  -2.0527  -3.2839 LP             1 S1                 0.0000
     50 ****         1.5120  -2.0437  -2.0326 LP             1 S1                 0.0000
@<TRIPOS>BOND
    1    1    2 1     
    2    1   22 1     
    3    1   23 1     
    4    1   24 1     
    5    2    8 1     
    6    2    3 2     
    7    3    4 1     
    8    4    5 1     
    9    4    6 1     
   10    5   25 1     
   11    5   26 1     
   12    5   27 1     
   13    6    7 1     
   14    6    8 2     
   15    7   28 1     
   16    7   29 1     
   17    7   30 1     
   18    8    9 1     
   19    9   10 1     
   20    9   31 1     
   21    9   32 1     
   22   10   11 2     
   23   10   12 am    
   24   12   13 1     
   25   12   33 1     
   26   13   21 1     
   27   13   14 1     
   28   13   17 1     
   29   14   15 ar    
   30   14   16 ar    
   31   17   18 1     
   32   17   34 1     
   33   17   35 1     
   34   18   19 1     
   35   18   36 1     
   36   18   37 1     
   37   19   20 1     
   38   19   38 1     
   39   19   39 1     
   40   20   21 1     
   41   20   40 1     
   42   20   41 1     
   43   21   42 1     
   44   21   43 1     
   45    3   44 1     
   46   11   45 1     
   47   11   46 1     
   48   15   47 1     
   49   15   48 1     
   50   16   49 1     
   51   16   50 1     
@<TRIPOS>SUBSTRUCTURE
      1 S1             1
@<TRIPOS>SET
LONE_PAIRS      STATIC     ATOMS    <user>   **** ""
7 44 45 46 47 48 49 50
DONOR_HYDROGENS      STATIC     ATOMS    <user>   **** ""
1 33
ATOM$BLUE        STATIC     ATOMS    COLORGROUP SYSTEM
7 44 45 46 47 48 49 50
ATOM$RED        STATIC     ATOMS    COLORGROUP SYSTEM
1 33
