#       Name:                AV-unprocessed.smi:2311
#       Creating user name   scv26
#       Creation time:       Fri Mar 27 12:48:40 2020


#       File generated by GOLD software.
#

@<TRIPOS>MOLECULE
AV-unprocessed.smi:2311
    45    46     1
SMALL
NO_CHARGES


@<TRIPOS>ATOM
      1 ****        -3.7943   4.3906  -0.8715 C.3            1 S1                 0.0000
      2 ****        -4.0512   3.0311  -0.2564 C.ar           1 S1                 0.0000
      3 ****        -5.3568   2.6224   0.0800 C.ar           1 S1                 0.0000
      4 ****        -5.5266   1.3461   0.6457 C.ar           1 S1                 0.0000
      5 ****        -4.3924   0.5364   0.8492 C.ar           1 S1                 0.0000
      6 ****        -3.1167   1.0218   0.4831 C.ar           1 S1                 0.0000
      7 ****        -2.0393   0.1294   0.7286 N.am           1 S1                 0.0000
      8 ****        -0.7314   0.3154   0.4759 C.2            1 S1                 0.0000
      9 ****        -0.2390   1.3262  -0.0264 O.2            1 S1                 0.0000
     10 ****        -0.0097  -0.7544   0.8410 N.am           1 S1                 0.0000
     11 ****         1.4385  -0.8798   0.7003 C.3            1 S1                 0.0000
     12 ****         1.9657  -1.9331   1.6817 C.3            1 S1                 0.0000
     13 ****         3.4677  -2.1660   1.4685 C.3            1 S1                 0.0000
     14 ****         3.7277  -2.5399   0.1168 O.3            1 S1                 0.0000
     15 ****         3.3243  -1.6035  -0.8883 C.3            1 S1                 0.0000
     16 ****         4.1949  -0.3296  -0.8330 C.3            1 S1                 0.0000
     17 ****         3.5725  -2.3174  -2.2274 C.3            1 S1                 0.0000
     18 ****         1.8156  -1.2937  -0.7340 C.3            1 S1                 0.0000
     19 ****        -2.9635   2.2548  -0.0614 N.ar           1 S1                 0.0000
     20 ****        -4.6930   5.0078  -0.8551 H              1 S1                 0.0000
     21 ****        -3.4738   4.2812  -1.9077 H              1 S1                 0.0000
     22 ****        -3.0120   4.9162  -0.3233 H              1 S1                 0.0000
     23 ****        -6.2069   3.2667  -0.0904 H              1 S1                 0.0000
     24 ****        -6.5100   0.9926   0.9187 H              1 S1                 0.0000
     25 ****        -4.5061  -0.4468   1.2823 H              1 S1                 0.0000
     26 ****        -2.2948  -0.7546   1.1427 H              1 S1                 0.0000
     27 ****        -0.4961  -1.5412   1.2450 H              1 S1                 0.0000
     28 ****         1.9010   0.0789   0.9404 H              1 S1                 0.0000
     29 ****         1.7792  -1.6212   2.7100 H              1 S1                 0.0000
     30 ****         1.4338  -2.8749   1.5385 H              1 S1                 0.0000
     31 ****         4.0431  -1.2829   1.7456 H              1 S1                 0.0000
     32 ****         3.8111  -2.9703   2.1189 H              1 S1                 0.0000
     33 ****         3.9576   0.3399  -1.6604 H              1 S1                 0.0000
     34 ****         5.2545  -0.5765  -0.9047 H              1 S1                 0.0000
     35 ****         4.0538   0.2393   0.0848 H              1 S1                 0.0000
     36 ****         3.2785  -1.6920  -3.0710 H              1 S1                 0.0000
     37 ****         3.0064  -3.2472  -2.2922 H              1 S1                 0.0000
     38 ****         4.6265  -2.5679  -2.3520 H              1 S1                 0.0000
     39 ****         1.2408  -2.1824  -0.9996 H              1 S1                 0.0000
     40 ****         1.5194  -0.5199  -1.4436 H              1 S1                 0.0000
     41 ****        -0.8260   2.0944  -0.2816 LP             1 S1                 0.0000
     42 ****         0.7479   1.3787  -0.1791 LP             1 S1                 0.0000
     43 ****         3.2496  -3.4005  -0.0588 LP             1 S1                 0.0000
     44 ****         4.7133  -2.6813   0.0238 LP             1 S1                 0.0000
     45 ****        -2.0546   2.5854  -0.3157 LP             1 S1                 0.0000
@<TRIPOS>BOND
    1    1    2 1     
    2    1   20 1     
    3    1   21 1     
    4    1   22 1     
    5    2   19 ar    
    6    2    3 ar    
    7    3    4 ar    
    8    3   23 1     
    9    4    5 ar    
   10    4   24 1     
   11    5    6 ar    
   12    5   25 1     
   13    6    7 1     
   14    6   19 ar    
   15    7    8 am    
   16    7   26 1     
   17    8    9 2     
   18    8   10 am    
   19   10   11 1     
   20   10   27 1     
   21   11   18 1     
   22   11   12 1     
   23   11   28 1     
   24   12   13 1     
   25   12   29 1     
   26   12   30 1     
   27   13   14 1     
   28   13   31 1     
   29   13   32 1     
   30   14   15 1     
   31   15   16 1     
   32   15   17 1     
   33   15   18 1     
   34   16   33 1     
   35   16   34 1     
   36   16   35 1     
   37   17   36 1     
   38   17   37 1     
   39   17   38 1     
   40   18   39 1     
   41   18   40 1     
   42    9   41 1     
   43    9   42 1     
   44   14   43 1     
   45   14   44 1     
   46   19   45 1     
@<TRIPOS>SUBSTRUCTURE
      1 S1             1
@<TRIPOS>SET
LONE_PAIRS      STATIC     ATOMS    <user>   **** ""
5 41 42 43 44 45
DONOR_HYDROGENS      STATIC     ATOMS    <user>   **** ""
2 26 27
ATOM$BLUE        STATIC     ATOMS    COLORGROUP SYSTEM
5 41 42 43 44 45
ATOM$RED        STATIC     ATOMS    COLORGROUP SYSTEM
2 26 27
