AV-unprocessed.smi:966|AV-procd|sdf|4284|dock10
  -GOLD-   22720 2193D 1   1.00000     0.00000
 Structure written by MMmdl.
 30 31  0  0  0  0  0  0  0  0  2 V2000
  151.1147  144.2688  159.9867 C   0  0  0  0  0  0  0  0  0  0  0  0
  152.0820  143.1264  160.2391 C   0  0  0  0  0  0  0  0  0  0  0  0
  152.8023  143.0690  161.4911 C   0  0  0  0  0  0  0  0  0  0  0  0
  153.6712  142.0180  161.7117 C   0  0  0  0  0  0  0  0  0  0  0  0
  154.3977  141.7852  162.7064 O   0  5  0  0  0  0  0  0  0  0  0  0
  153.8544  140.9963  160.7203 N   0  0  0  0  0  0  0  0  0  0  0  0
  154.7744  139.8431  160.9459 C   0  0  0  0  0  0  0  0  0  0  0  0
  154.2962  138.9408  162.1013 C   0  0  1  0  0  0  0  0  0  0  0  0
  153.8342  137.5582  161.6431 C   0  0  0  0  0  0  0  0  0  0  0  0
  154.0334  136.7373  162.8961 C   0  0  0  0  0  0  0  0  0  0  0  0
  155.3343  137.3198  163.4377 C   0  0  0  0  0  0  0  0  0  0  0  0
  155.3490  138.6850  163.0298 O   0  0  0  0  0  0  0  0  0  0  0  0
  153.2065  141.0469  159.5128 C   0  0  0  0  0  0  0  0  0  0  0  0
  153.3827  140.1968  158.6361 O   0  0  0  0  0  0  0  0  0  0  0  0
  152.2838  142.1682  159.3114 C   0  0  0  0  0  0  0  0  0  0  0  0
  151.6000  142.1870  158.0568 C   0  0  0  0  0  0  0  0  0  0  0  0
  151.0617  142.2179  157.0318 N   0  0  0  0  0  0  0  0  0  0  0  0
  151.0669  144.9419  160.8433 H   0  0  0  0  0  0  0  0  0  0  0  0
  150.1106  143.8857  159.8026 H   0  0  0  0  0  0  0  0  0  0  0  0
  151.4290  144.8495  159.1189 H   0  0  0  0  0  0  0  0  0  0  0  0
  152.6711  143.8395  162.2369 H   0  0  0  0  0  0  0  0  0  0  0  0
  154.8936  139.2500  160.0380 H   0  0  0  0  0  0  0  0  0  0  0  0
  155.7977  140.1656  161.1442 H   0  0  0  0  0  0  0  0  0  0  0  0
  153.4819  139.4170  162.6492 H   0  0  0  0  0  0  0  0  0  0  0  0
  152.8044  137.5525  161.2850 H   0  0  0  0  0  0  0  0  0  0  0  0
  154.4769  137.1812  160.8461 H   0  0  0  0  0  0  0  0  0  0  0  0
  153.2178  136.9188  163.5973 H   0  0  0  0  0  0  0  0  0  0  0  0
  154.0907  135.6653  162.7054 H   0  0  0  0  0  0  0  0  0  0  0  0
  155.4143  137.2248  164.5207 H   0  0  0  0  0  0  0  0  0  0  0  0
  156.1920  136.8175  162.9893 H   0  0  0  0  0  0  0  0  0  0  0  0
  1  2  1  0  0  0  0
  1 18  1  0  0  0  0
  1 19  1  0  0  0  0
  1 20  1  0  0  0  0
  2 15  2  0  0  0  0
  2  3  1  0  0  0  0
  3  4  2  0  0  0  0
  3 21  1  0  0  0  0
  4  5  1  0  0  0  0
  4  6  1  0  0  0  0
  6  7  1  0  0  0  0
  6 13  1  0  0  0  0
  7  8  1  0  0  0  0
  7 22  1  0  0  0  0
  7 23  1  0  0  0  0
  8 12  1  0  0  0  0
  8  9  1  0  0  0  0
  8 24  1  0  0  0  0
  9 10  1  0  0  0  0
  9 25  1  0  0  0  0
  9 26  1  0  0  0  0
 10 11  1  0  0  0  0
 10 27  1  0  0  0  0
 10 28  1  0  0  0  0
 11 12  1  0  0  0  0
 11 29  1  0  0  0  0
 11 30  1  0  0  0  0
 13 14  2  0  0  0  0
 13 15  1  0  0  0  0
 15 16  1  0  0  0  0
 16 17  3  0  0  0  0
M  CHG  1   5  -1
M  END
> <s_m_source_file>
AV-unprocessed.smi

> <i_m_source_file_index>
966

> <i_lp_mmshare_version>
43012

> <i_f3d_flags>
0

> <s_epik_input>
W0NIM11jMVtjSF1jKFtPSF0pbihjKD1PKWMxQyNOKVtDSDJdW0NAQEhdMltDSDJdW0NIMl1bQ0gyXU8y

> <s_epik_cmdline>
J2VwaWtfcHl0aG9uJywgJy1waCcsICc3LjAnLCAnLXRuJywgJzgnLCAnLW1hJywgJzIwMCcsICctbWV0YWxfYmluZGluZycsICctaW1hZScsICc8aW5maWxlLm1hZT4nLCAnLW9tYWUnLCAnPG91dGZpbGUubWFlPic=

> <r_lp_tautomer_probability>
1

> <r_epik_Ionization_Penalty>
3.48555e-06

> <r_epik_Ionization_Penalty_Charging>
3.48554e-06

> <r_epik_Ionization_Penalty_Neutral>
1.71861e-11

> <r_epik_State_Penalty>
-0

> <r_epik_Charging_Adjusted_Penalty>
3.48554e-06

> <i_epik_Tot_Q>
-1

> <i_epik_Tot_abs_Q>
1

> <r_epik_Metal_State_Penalty>
-0

> <b_epik_Metal_Only>
0

> <s_lp_Force_Field>
OPLS_2005

> <r_lp_Energy>
36.155

> <b_lp_Chiralities_Consistent>
1

> <s_lp_Variant>
AV-unprocessed.smi:966-2

> <Gold.Version>
5.8.1

> <Gold.Id.Protein>
6NUR|6NUR_protein|mol2

> <Gold.PLP.Fitness>
38.9547

> <Gold.PLP.PLP>
-37.6204

> <Gold.PLP.part.hbond>
-2.0000

> <Gold.PLP.part.metal>
0.0000

> <Gold.PLP.part.buried>
-4.1995

> <Gold.PLP.part.nonpolar>
-30.8945

> <Gold.PLP.part.repulsive>
0.0786

> <Gold.PLP.ligand.clash>
0.0000

> <Gold.PLP.ligand.torsion>
0.7258

> <Gold.PLP.Chemscore.Hbond>
0.9280

> <Gold.PLP.Chemscore.CHOScore>
0.0000

> <Gold.PLP.Chemscore.Metal>
0.0000

> <Gold.Chemscore.Hbonds>
donor molecule, donor type, donor heavy atom, donor atom, acceptor molecule, acceptor atom, score
      P1  H  7997  8009       L1    14  0.93

> <Gold.PLP.Chemscore.Internal.Correction>
0.0019

> <Gold.Rescore>
     Score         DG    S(hbond)    S(metal)    S(lipo)     H(rot)  DE(clash)    DE(int)     intcor
     13.36     -14.21       0.98        0.00      74.17       1.25       0.02       0.84       ----

> <Gold.Chemscore.Fitness>
13.3597

> <Gold.Chemscore.DG>
-14.2127

> <Gold.Chemscore.ZeroCoef>
-5.4800

> <Gold.Chemscore.Hbond>
0.9755

> <Gold.Chemscore.Metal>
0.0000

> <Gold.Chemscore.Lipo>
74.1706

> <Gold.Chemscore.Internal_Hbond>
0.0000

> <Gold.Chemscore.DEClash>
0.0162

> <Gold.Chemscore.DEInternal>
0.8368

> <Gold.Chemscore.Rot>
1.2514

> <Gold.Chemscore.Internal.Correction>
   9.000000E+99

> <Gold.Chemscore.Hbonds>
donor molecule, donor type, donor heavy atom, donor atom, acceptor molecule, acceptor atom, score
      P1  H  7997  8009       L1    14  0.85

> <Gold.Chemscore.Hbond.Weighted>
-3.2583

> <Gold.Chemscore.Metal.Weighted>
-0.0000

> <Gold.Chemscore.Lipo.Weighted>
-8.6780

> <Gold.Chemscore.Internal_Hbond.Weighted>
0.0000

> <Gold.Chemscore.DEClash.Weighted>
0.0162

> <Gold.Chemscore.DEInternal.Weighted>
0.8368

> <Gold.Chemscore.Rot.Weighted>
3.2036

> <Gold.Chemscore.Internal.Correction.Weighted>
   9.000000E+99

> <Gold.Protein.RotatedTorsions>
[ 6907 6896 6895 6894 ] final   90.20 input  -60.11 | X-H torsion
[ 7974 7965 7964 7962 ] final  -49.68 input  175.53 | X-H torsion
[ 8008 7997 7996 7995 ] final  140.89 input   59.86 | X-H torsion
[ 10167 10162 10161 10158 ] final -105.01 input  -65.29 | X-H torsion
[ 10718 10713 10712 10709 ] final  -34.02 input   66.30 | X-H torsion
[ 10763 10752 10751 10750 ] final  -76.10 input  -60.55 | X-H torsion
[ 11005 11000 10999 10996 ] final   39.08 input  -57.11 | X-H torsion

> <Gold.Protein.ActiveResidues>
 VAL166  LYS551  ARG553  GLY616  TRP617  ASP618  TYR619  PRO620  LYS621  CYS622 
 ASP623  PHE694  ASN695  SER759  ASP760  ASP761  ALA762  ILE779  LEU786  VAL792 
 PHE793  MET794  SER795  GLU796  ALA797  LYS798  CYS799  TRP800  GLU811  SER814 

> <Gold.Protein.RotatedAtoms>
  152.5443  134.1848  159.8649 H   0  0  0  0  0  0  0  0  0  0  0  0  # atno 6907 bound_to 6896
  151.1848  133.4696  159.2602 H   0  0  0  0  0  0  0  0  0  0  0  0  # atno 6908 bound_to 6896
  151.1142  135.0055  159.8563 H   0  0  0  0  0  0  0  0  0  0  0  0  # atno 6909 bound_to 6896
  145.9379  140.7689  142.9566 H   0  0  0  0  0  0  0  0  0  0  0  0  # atno 7974 bound_to 7965
  156.2973  140.2329  156.4474 H   0  0  0  0  0  0  0  0  0  0  0  0  # atno 8008 bound_to 7997
  154.8132  140.0442  157.1378 H   0  0  0  0  0  0  0  0  0  0  0  0  # atno 8009 bound_to 7997
  154.9400  140.3028  155.5129 H   0  0  0  0  0  0  0  0  0  0  0  0  # atno 8010 bound_to 7997
  140.2031  143.3803  152.1113 H   0  0  0  0  0  0  0  0  0  0  0  0  # atno 10167 bound_to 10162
  156.3556  130.4315  149.7667 H   0  0  0  0  0  0  0  0  0  0  0  0  # atno 10718 bound_to 10713
  154.4953  135.5809  153.6490 H   0  0  0  0  0  0  0  0  0  0  0  0  # atno 10763 bound_to 10752
  152.9869  135.6122  154.3072 H   0  0  0  0  0  0  0  0  0  0  0  0  # atno 10764 bound_to 10752
  154.2975  135.2847  155.2606 H   0  0  0  0  0  0  0  0  0  0  0  0  # atno 10765 bound_to 10752
  140.2063  134.3809  155.8071 H   0  0  0  0  0  0  0  0  0  0  0  0  # atno 11005 bound_to 11000
  144.6774  140.2233  143.7364 LP  0  0  0  0  0  0  0  0  0  0  0  0  # atno 17320 bound_to 7965
  145.8338  139.2098  143.1867 LP  0  0  0  0  0  0  0  0  0  0  0  0  # atno 17321 bound_to 7965
  139.5209  144.7039  151.5412 LP  0  0  0  0  0  0  0  0  0  0  0  0  # atno 17342 bound_to 10162
  140.6376  143.8953  150.6662 LP  0  0  0  0  0  0  0  0  0  0  0  0  # atno 17343 bound_to 10162
  156.4851  130.8059  151.3071 LP  0  0  0  0  0  0  0  0  0  0  0  0  # atno 17370 bound_to 10713
  157.7467  130.9993  150.2885 LP  0  0  0  0  0  0  0  0  0  0  0  0  # atno 17371 bound_to 10713
  141.2227  133.7120  156.8343 LP  0  0  0  0  0  0  0  0  0  0  0  0  # atno 17394 bound_to 11000
  140.1999  134.8904  157.3157 LP  0  0  0  0  0  0  0  0  0  0  0  0  # atno 17395 bound_to 11000

$$$$
