AV-unprocessed.smi:3185|AV-procd|sdf|12168|dock8
  -GOLD-   2272018 03D 1   1.00000     0.00000
 Structure written by MMmdl.
 38 39  0  0  0  0  0  0  0  0  2 V2000
  151.4359  136.4196  155.4813 N   0  0  0  0  0  0  0  0  0  0  0  0
  151.3645  137.5307  155.1682 C   0  0  0  0  0  0  0  0  0  0  0  0
  151.2699  138.9434  154.7670 C   0  0  0  0  0  0  0  0  0  0  0  0
  150.9965  139.8879  155.9458 C   0  0  0  0  0  0  0  0  0  0  0  0
  152.0921  139.8367  157.0197 C   0  0  0  0  0  0  0  0  0  0  0  0
  151.6871  140.5839  158.2288 N   0  3  0  0  0  0  0  0  0  0  0  0
  152.1900  141.9755  158.3184 C   0  0  1  0  0  0  0  0  0  0  0  0
  151.1960  142.9063  157.5950 C   0  0  0  0  0  0  0  0  0  0  0  0
  151.6157  144.3805  157.6844 C   0  0  0  0  0  0  0  0  0  0  0  0
  151.7737  144.8173  159.1466 C   0  0  0  0  0  0  0  0  0  0  0  0
  152.7773  143.9162  159.8792 C   0  0  0  0  0  0  0  0  0  0  0  0
  152.3768  142.4264  159.7948 C   0  0  2  0  0  0  0  0  0  0  0  0
  153.3357  141.5979  160.5158 N   0  0  0  0  0  0  0  0  0  0  0  0
  153.7289  141.7012  161.8345 C   0  0  0  0  0  0  0  0  0  0  0  0
  154.6260  140.7002  162.0736 C   0  0  0  0  0  0  0  0  0  0  0  0
  154.7244  140.0278  160.8241 C   0  0  0  0  0  0  0  0  0  0  0  0
  153.9510  140.5654  159.8950 N   0  0  0  0  0  0  0  0  0  0  0  0
  152.2030  139.2130  154.2718 H   0  0  0  0  0  0  0  0  0  0  0  0
  150.4759  139.0262  154.0245 H   0  0  0  0  0  0  0  0  0  0  0  0
  150.8940  140.9080  155.5738 H   0  0  0  0  0  0  0  0  0  0  0  0
  150.0368  139.6248  156.3926 H   0  0  0  0  0  0  0  0  0  0  0  0
  152.2998  138.8011  157.2793 H   0  0  0  0  0  0  0  0  0  0  0  0
  153.0180  140.2590  156.6274 H   0  0  0  0  0  0  0  0  0  0  0  0
  150.6780  140.6239  158.2275 H   0  0  0  0  0  0  0  0  0  0  0  0
  153.1446  142.0446  157.7932 H   0  0  0  0  0  0  0  0  0  0  0  0
  151.1116  142.6172  156.5466 H   0  0  0  0  0  0  0  0  0  0  0  0
  150.2002  142.7912  158.0262 H   0  0  0  0  0  0  0  0  0  0  0  0
  152.5566  144.5286  157.1524 H   0  0  0  0  0  0  0  0  0  0  0  0
  150.8763  145.0089  157.1871 H   0  0  0  0  0  0  0  0  0  0  0  0
  152.1046  145.8555  159.1913 H   0  0  0  0  0  0  0  0  0  0  0  0
  150.8069  144.7781  159.6502 H   0  0  0  0  0  0  0  0  0  0  0  0
  153.7672  144.0661  159.4455 H   0  0  0  0  0  0  0  0  0  0  0  0
  152.8498  144.2241  160.9231 H   0  0  0  0  0  0  0  0  0  0  0  0
  151.4173  142.3167  160.3035 H   0  0  0  0  0  0  0  0  0  0  0  0
  153.3401  142.4679  162.4884 H   0  0  0  0  0  0  0  0  0  0  0  0
  155.1360  140.4813  163.0001 H   0  0  0  0  0  0  0  0  0  0  0  0
  155.3278  139.1696  160.5672 H   0  0  0  0  0  0  0  0  0  0  0  0
  151.9845  140.0792  159.0515 H   0  0  0  0  0  0  0  0  0  0  0  0
  1  2  3  0  0  0  0
  2  3  1  0  0  0  0
  3  4  1  0  0  0  0
  3 18  1  0  0  0  0
  3 19  1  0  0  0  0
  4  5  1  0  0  0  0
  4 20  1  0  0  0  0
  4 21  1  0  0  0  0
  5  6  1  0  0  0  0
  5 22  1  0  0  0  0
  5 23  1  0  0  0  0
  6  7  1  0  0  0  0
  6 24  1  0  0  0  0
  6 38  1  0  0  0  0
  7 12  1  0  0  0  0
  7  8  1  0  0  0  0
  7 25  1  0  0  0  0
  8  9  1  0  0  0  0
  8 26  1  0  0  0  0
  8 27  1  0  0  0  0
  9 10  1  0  0  0  0
  9 28  1  0  0  0  0
  9 29  1  0  0  0  0
 10 11  1  0  0  0  0
 10 30  1  0  0  0  0
 10 31  1  0  0  0  0
 11 12  1  0  0  0  0
 11 32  1  0  0  0  0
 11 33  1  0  0  0  0
 12 13  1  0  0  0  0
 12 34  1  0  0  0  0
 13 17  1  0  0  0  0
 13 14  1  0  0  0  0
 14 15  2  0  0  0  0
 14 35  1  0  0  0  0
 15 16  1  0  0  0  0
 15 36  1  0  0  0  0
 16 17  2  0  0  0  0
 16 37  1  0  0  0  0
M  CHG  1   6   1
M  END
> <s_m_source_file>
AV-unprocessed.smi

> <i_m_source_file_index>
3185

> <i_lp_mmshare_version>
43012

> <i_f3d_flags>
0

> <s_epik_input>
TiNDW0NIMl1bQ0gyXVtDSDJdW05IXVtDQEBIXTFbQ0gyXVtDSDJdW0NIMl1bQ0gyXVtDQEhdMW4yW2NIXVtjSF1bY0hdbjI=

> <s_epik_cmdline>
J2VwaWtfcHl0aG9uJywgJy1waCcsICc3LjAnLCAnLXRuJywgJzgnLCAnLW1hJywgJzIwMCcsICctbWV0YWxfYmluZGluZycsICctaW1hZScsICc8aW5maWxlLm1hZT4nLCAnLW9tYWUnLCAnPG91dGZpbGUubWFlPic=

> <r_lp_tautomer_probability>
1

> <r_epik_Ionization_Penalty>
0.0143465

> <r_epik_Ionization_Penalty_Charging>
0.0143338

> <r_epik_Ionization_Penalty_Neutral>
1.27047e-05

> <r_epik_State_Penalty>
0.0112058

> <r_epik_Charging_Adjusted_Penalty>
0.0255397

> <i_epik_Tot_Q>
1

> <i_epik_Tot_abs_Q>
1

> <r_epik_Metal_State_Penalty>
0.0112253

> <b_epik_Metal_Only>
0

> <s_lp_Force_Field>
OPLS_2005

> <r_lp_Energy>
15.0666

> <b_lp_Chiralities_Consistent>
1

> <s_lp_Variant>
AV-unprocessed.smi:3185-4

> <Gold.Version>
5.8.1

> <Gold.Id.Protein>
6NUR|6NUR_protein|mol2

> <Gold.PLP.Fitness>
45.3850

> <Gold.PLP.PLP>
-43.5395

> <Gold.PLP.part.hbond>
-1.0000

> <Gold.PLP.part.metal>
0.0000

> <Gold.PLP.part.buried>
-3.4836

> <Gold.PLP.part.nonpolar>
-38.2652

> <Gold.PLP.part.repulsive>
0.1856

> <Gold.PLP.ligand.clash>
0.0000

> <Gold.PLP.ligand.torsion>
0.6404

> <Gold.PLP.Chemscore.Hbond>
1.0000

> <Gold.PLP.Chemscore.CHOScore>
0.0000

> <Gold.PLP.Chemscore.Metal>
0.0000

> <Gold.Chemscore.Hbonds>
donor molecule, donor type, donor heavy atom, donor atom, acceptor molecule, acceptor atom, score
      P1  H 10752 10764       L1     1  1.00

> <Gold.PLP.Chemscore.Internal.Correction>
0.1262

> <Gold.Rescore>
     Score         DG    S(hbond)    S(metal)    S(lipo)     H(rot)  DE(clash)    DE(int)     intcor
     15.89     -17.91       1.00        0.00     118.80       1.88       0.14       1.87       ----

> <Gold.Chemscore.Fitness>
15.8940

> <Gold.Chemscore.DG>
-17.9109

> <Gold.Chemscore.ZeroCoef>
-5.4800

> <Gold.Chemscore.Hbond>
0.9991

> <Gold.Chemscore.Metal>
0.0000

> <Gold.Chemscore.Lipo>
118.7954

> <Gold.Chemscore.Internal_Hbond>
0.0000

> <Gold.Chemscore.DEClash>
0.1429

> <Gold.Chemscore.DEInternal>
1.8740

> <Gold.Chemscore.Rot>
1.8769

> <Gold.Chemscore.Internal.Correction>
   9.000000E+99

> <Gold.Chemscore.Hbonds>
donor molecule, donor type, donor heavy atom, donor atom, acceptor molecule, acceptor atom, score
      P1  H 10752 10764       L1     1  0.74

> <Gold.Chemscore.Hbond.Weighted>
-3.3368

> <Gold.Chemscore.Metal.Weighted>
-0.0000

> <Gold.Chemscore.Lipo.Weighted>
-13.8991

> <Gold.Chemscore.Internal_Hbond.Weighted>
0.0000

> <Gold.Chemscore.DEClash.Weighted>
0.1429

> <Gold.Chemscore.DEInternal.Weighted>
1.8740

> <Gold.Chemscore.Rot.Weighted>
4.8049

> <Gold.Chemscore.Internal.Correction.Weighted>
   9.000000E+99

> <Gold.Protein.RotatedTorsions>
[ 6907 6896 6895 6894 ] final -162.89 input  -60.11 | X-H torsion
[ 7974 7965 7964 7962 ] final  114.26 input  175.53 | X-H torsion
[ 8008 7997 7996 7995 ] final -101.51 input   59.86 | X-H torsion
[ 10167 10162 10161 10158 ] final  -33.43 input  -65.29 | X-H torsion
[ 10718 10713 10712 10709 ] final  -92.72 input   66.30 | X-H torsion
[ 10763 10752 10751 10750 ] final  -59.32 input  -60.55 | X-H torsion
[ 11005 11000 10999 10996 ] final   85.71 input  -57.11 | X-H torsion

> <Gold.Protein.ActiveResidues>
 VAL166  LYS551  ARG553  GLY616  TRP617  ASP618  TYR619  PRO620  LYS621  CYS622 
 ASP623  PHE694  ASN695  SER759  ASP760  ASP761  ALA762  ILE779  LEU786  VAL792 
 PHE793  MET794  SER795  GLU796  ALA797  LYS798  CYS799  TRP800  GLU811  SER814 

> <Gold.Protein.RotatedAtoms>
  151.3874  133.3800  159.2716 H   0  0  0  0  0  0  0  0  0  0  0  0  # atno 6907 bound_to 6896
  150.9531  134.8930  159.7695 H   0  0  0  0  0  0  0  0  0  0  0  0  # atno 6908 bound_to 6896
  152.5120  134.3830  159.9410 H   0  0  0  0  0  0  0  0  0  0  0  0  # atno 6909 bound_to 6896
  145.2067  139.2926  143.4290 H   0  0  0  0  0  0  0  0  0  0  0  0  # atno 7974 bound_to 7965
  154.8435  140.0434  157.1557 H   0  0  0  0  0  0  0  0  0  0  0  0  # atno 8008 bound_to 7997
  154.9020  140.3001  155.5292 H   0  0  0  0  0  0  0  0  0  0  0  0  # atno 8009 bound_to 7997
  156.2993  140.2374  156.4049 H   0  0  0  0  0  0  0  0  0  0  0  0  # atno 8010 bound_to 7997
  140.7204  143.3621  151.1943 H   0  0  0  0  0  0  0  0  0  0  0  0  # atno 10167 bound_to 10162
  156.0005  130.4998  150.5668 H   0  0  0  0  0  0  0  0  0  0  0  0  # atno 10718 bound_to 10713
  154.2518  135.6324  153.5243 H   0  0  0  0  0  0  0  0  0  0  0  0  # atno 10763 bound_to 10752
  152.9911  135.5566  154.5799 H   0  0  0  0  0  0  0  0  0  0  0  0  # atno 10764 bound_to 10752
  154.5328  135.2889  155.1140 H   0  0  0  0  0  0  0  0  0  0  0  0  # atno 10765 bound_to 10752
  139.8964  134.8305  156.2620 H   0  0  0  0  0  0  0  0  0  0  0  0  # atno 11005 bound_to 11000
  146.3406  140.2329  142.8593 LP  0  0  0  0  0  0  0  0  0  0  0  0  # atno 17320 bound_to 7965
  144.9895  140.8534  143.5348 LP  0  0  0  0  0  0  0  0  0  0  0  0  # atno 17321 bound_to 7965
  139.7174  143.9277  152.2972 LP  0  0  0  0  0  0  0  0  0  0  0  0  # atno 17342 bound_to 10162
  139.9023  144.6904  150.8652 LP  0  0  0  0  0  0  0  0  0  0  0  0  # atno 17343 bound_to 10162
  157.3569  131.0743  151.1668 LP  0  0  0  0  0  0  0  0  0  0  0  0  # atno 17370 bound_to 10713
  157.2466  130.6594  149.5913 LP  0  0  0  0  0  0  0  0  0  0  0  0  # atno 17371 bound_to 10713
  141.0156  133.7070  156.1183 LP  0  0  0  0  0  0  0  0  0  0  0  0  # atno 17394 bound_to 11000
  140.7306  134.4259  157.5566 LP  0  0  0  0  0  0  0  0  0  0  0  0  # atno 17395 bound_to 11000

$$$$
