#       Name:                AV-unprocessed.smi:87
#       Creating user name   scv26
#       Creation time:       Thu Mar 26 17:22:37 2020


#       File generated by GOLD software.
#

@<TRIPOS>MOLECULE
AV-unprocessed.smi:87
    67    69     1
SMALL
NO_CHARGES


@<TRIPOS>ATOM
      1 ****        -3.8003   3.0789   2.4821 C.3            1 S1                 0.0000
      2 ****        -3.3838   1.6077   2.6276 C.3            1 S1                 0.0000
      3 ****        -3.6984   0.7300   1.3929 C.3            1 S1                 0.0000
      4 ****        -5.2190   0.5042   1.2320 C.3            1 S1                 0.0000
      5 ****        -5.6224  -0.1078  -0.1175 C.3            1 S1                 0.0000
      6 ****        -2.9506  -0.6247   1.4841 C.3            1 S1                 0.0000
      7 ****        -1.4908  -0.5030   1.4406 N.3            1 S1                 0.0000
      8 ****        -0.7231  -1.5948   2.0357 C.3            1 S1                 0.0000
      9 ****        -0.7771  -2.8831   1.2013 C.3            1 S1                 0.0000
     10 ****         0.0255  -3.9645   1.7902 C.1            1 S1                 0.0000
     11 ****         0.6578  -4.8153   2.2536 N.1            1 S1                 0.0000
     12 ****        -0.9182   0.0055   0.3187 C.ar           1 S1                 0.0000
     13 ****        -1.5234  -0.1563  -0.8888 N.ar           1 S1                 0.0000
     14 ****        -0.9447   0.3064  -2.0008 C.ar           1 S1                 0.0000
     15 ****         0.2224   0.9394  -2.1325 N.ar           1 S1                 0.0000
     16 ****         0.8325   1.1060  -0.9245 C.ar           1 S1                 0.0000
     17 ****         0.3332   0.6815   0.3385 C.ar           1 S1                 0.0000
     18 ****         1.2235   1.0383   1.3445 N.2            1 S1                 0.0000
     19 ****         2.2060   1.6165   0.7097 C.2            1 S1                 0.0000
     20 ****         2.0606   1.6837  -0.6574 N.pl3          1 S1                 0.0000
     21 ****         3.0093   2.2360  -1.6063 C.3            1 S1                 0.0000
     22 ****         3.6614   1.1629  -2.5070 C.3            1 S1                 0.0000
     23 ****         4.6151   1.8230  -3.3149 O.3            1 S1                 0.0000
     24 ****         4.3534   0.0074  -1.7458 C.3            1 S1                 0.0000
     25 ****         5.1187  -0.9691  -2.6440 C.3            1 S1                 0.0000
     26 ****         5.1350  -2.2244  -1.8032 C.3            1 S1                 0.0000
     27 ****         3.7418  -2.1951  -1.1876 C.3            1 S1                 0.0000
     28 ****         3.3984  -0.8177  -1.0765 O.3            1 S1                 0.0000
     29 ****        -3.4631   3.6587   3.3414 H              1 S1                 0.0000
     30 ****        -4.8815   3.1954   2.4195 H              1 S1                 0.0000
     31 ****        -3.3601   3.5263   1.5905 H              1 S1                 0.0000
     32 ****        -2.3106   1.5976   2.8193 H              1 S1                 0.0000
     33 ****        -3.8480   1.1791   3.5164 H              1 S1                 0.0000
     34 ****        -3.3544   1.2679   0.5092 H              1 S1                 0.0000
     35 ****        -5.5901  -0.1220   2.0442 H              1 S1                 0.0000
     36 ****        -5.7459   1.4528   1.3224 H              1 S1                 0.0000
     37 ****        -6.7077  -0.1523  -0.2087 H              1 S1                 0.0000
     38 ****        -5.2470  -1.1236  -0.2352 H              1 S1                 0.0000
     39 ****        -5.2457   0.4892  -0.9484 H              1 S1                 0.0000
     40 ****        -3.2354  -1.1254   2.4102 H              1 S1                 0.0000
     41 ****        -3.2596  -1.2937   0.6818 H              1 S1                 0.0000
     42 ****         0.3146  -1.2961   2.1806 H              1 S1                 0.0000
     43 ****        -1.1148  -1.7920   3.0338 H              1 S1                 0.0000
     44 ****        -1.8023  -3.2407   1.1076 H              1 S1                 0.0000
     45 ****        -0.3991  -2.7092   0.1938 H              1 S1                 0.0000
     46 ****        -1.4916   0.1379  -2.9167 H              1 S1                 0.0000
     47 ****         3.0771   1.9960   1.2237 H              1 S1                 0.0000
     48 ****         2.4884   2.9763  -2.2148 H              1 S1                 0.0000
     49 ****         3.7765   2.7745  -1.0480 H              1 S1                 0.0000
     50 ****         2.9065   0.7439  -3.1733 H              1 S1                 0.0000
     51 ****         5.2796   2.1919  -2.7534 H              1 S1                 0.0000
     52 ****         5.0358   0.4065  -0.9935 H              1 S1                 0.0000
     53 ****         4.5714  -1.1502  -3.5703 H              1 S1                 0.0000
     54 ****         6.1180  -0.6170  -2.9016 H              1 S1                 0.0000
     55 ****         5.3281  -3.1285  -2.3810 H              1 S1                 0.0000
     56 ****         5.8944  -2.1444  -1.0241 H              1 S1                 0.0000
     57 ****         3.0210  -2.6772  -1.8488 H              1 S1                 0.0000
     58 ****         3.7020  -2.6956  -0.2199 H              1 S1                 0.0000
     59 ****        -1.4089   0.2551   2.0876 LP             1 S1                 0.0000
     60 ****         1.2044  -5.5507   2.6541 LP             1 S1                 0.0000
     61 ****        -2.4056  -0.6237  -0.9446 LP             1 S1                 0.0000
     62 ****         0.6007   1.2513  -3.0041 LP             1 S1                 0.0000
     63 ****         1.1321   0.8867   2.3287 LP             1 S1                 0.0000
     64 ****         4.1700   2.5521  -3.8349 LP             1 S1                 0.0000
     65 ****         5.0320   1.1697  -3.9468 LP             1 S1                 0.0000
     66 ****         2.4976  -0.6719  -1.4855 LP             1 S1                 0.0000
     67 ****         3.3701  -0.5654  -0.1093 LP             1 S1                 0.0000
@<TRIPOS>BOND
    1    1    2 1     
    2    1   29 1     
    3    1   30 1     
    4    1   31 1     
    5    2    3 1     
    6    2   32 1     
    7    2   33 1     
    8    3    4 1     
    9    3    6 1     
   10    3   34 1     
   11    4    5 1     
   12    4   35 1     
   13    4   36 1     
   14    5   37 1     
   15    5   38 1     
   16    5   39 1     
   17    6    7 1     
   18    6   40 1     
   19    6   41 1     
   20    7    8 1     
   21    7   12 1     
   22    8    9 1     
   23    8   42 1     
   24    8   43 1     
   25    9   10 1     
   26    9   44 1     
   27    9   45 1     
   28   10   11 3     
   29   12   17 ar    
   30   12   13 ar    
   31   13   14 ar    
   32   14   15 ar    
   33   14   46 1     
   34   15   16 ar    
   35   16   20 1     
   36   16   17 ar    
   37   17   18 1     
   38   18   19 2     
   39   19   20 1     
   40   19   47 1     
   41   20   21 1     
   42   21   22 1     
   43   21   48 1     
   44   21   49 1     
   45   22   23 1     
   46   22   24 1     
   47   22   50 1     
   48   23   51 1     
   49   24   28 1     
   50   24   25 1     
   51   24   52 1     
   52   25   26 1     
   53   25   53 1     
   54   25   54 1     
   55   26   27 1     
   56   26   55 1     
   57   26   56 1     
   58   27   28 1     
   59   27   57 1     
   60   27   58 1     
   61    7   59 1     
   62   11   60 1     
   63   13   61 1     
   64   15   62 1     
   65   18   63 1     
   66   23   64 1     
   67   23   65 1     
   68   28   66 1     
   69   28   67 1     
@<TRIPOS>SUBSTRUCTURE
      1 S1             1
@<TRIPOS>SET
LONE_PAIRS      STATIC     ATOMS    <user>   **** ""
9 59 60 61 62 63 64 65 66 67
DONOR_HYDROGENS      STATIC     ATOMS    <user>   **** ""
1 51
ATOM$BLUE        STATIC     ATOMS    COLORGROUP SYSTEM
9 59 60 61 62 63 64 65 66 67
ATOM$RED        STATIC     ATOMS    COLORGROUP SYSTEM
1 51
