#       Name:                AV-unprocessed.smi:601
#       Creating user name   scv26
#       Creation time:       Thu Mar 26 23:54:25 2020


#       File generated by GOLD software.
#

@<TRIPOS>MOLECULE
AV-unprocessed.smi:601
    58    59     1
SMALL
NO_CHARGES


@<TRIPOS>ATOM
      1 ****        -2.1242  -4.6674  -0.2736 C.3            1 S1                 0.0000
      2 ****        -3.0479  -3.4482  -0.3940 C.3            1 S1                 0.0000
      3 ****        -2.3081  -2.1024  -0.3328 C.3            1 S1                 0.0000
      4 ****        -1.7061  -1.7928   1.0529 C.3            1 S1                 0.0000
      5 ****        -1.0894  -0.4586   1.1216 N.am           1 S1                 0.0000
      6 ****        -1.8514   0.6596   1.2553 C.2            1 S1                 0.0000
      7 ****        -3.0814   0.6027   1.3103 O.2            1 S1                 0.0000
      8 ****        -1.1599   2.0460   1.3331 C.3            1 S1                 0.0000
      9 ****        -2.1138   3.2404   1.4622 C.3            1 S1                 0.0000
     10 ****        -2.5236   3.5512   0.0287 C.3            1 S1                 0.0000
     11 ****        -1.4649   2.8460  -0.8250 C.3            1 S1                 0.0000
     12 ****        -0.5082   2.3433   0.1029 O.3            1 S1                 0.0000
     13 ****         0.3157  -0.4134   1.1622 C.2            1 S1                 0.0000
     14 ****         1.0717  -0.3479   0.0259 C.2            1 S1                 0.0000
     15 ****         0.4639  -0.2879  -1.2189 N.pl3          1 S1                 0.0000
     16 ****         2.4682  -0.3079   0.0760 N.am           1 S1                 0.0000
     17 ****         3.3097  -0.2098  -1.0999 C.3            1 S1                 0.0000
     18 ****         3.5935   1.2477  -1.5007 C.3            1 S1                 0.0000
     19 ****         4.4633   1.3484  -2.7575 C.3            1 S1                 0.0000
     20 ****         3.1345  -0.3050   1.3251 C.2            1 S1                 0.0000
     21 ****         4.3577  -0.2258   1.4440 O.2            1 S1                 0.0000
     22 ****         2.3443  -0.3953   2.4657 N.am           1 S1                 0.0000
     23 ****         0.9537  -0.4622   2.4841 C.2            1 S1                 0.0000
     24 ****         0.3653  -0.5467   3.5613 O.2            1 S1                 0.0000
     25 ****         2.8193  -0.4064   3.3565 H              1 S1                 0.0000
     26 ****        -2.6886  -5.5915  -0.3995 H              1 S1                 0.0000
     27 ****        -1.6403  -4.7100   0.7021 H              1 S1                 0.0000
     28 ****        -1.3450  -4.6480  -1.0359 H              1 S1                 0.0000
     29 ****        -3.5791  -3.5100  -1.3443 H              1 S1                 0.0000
     30 ****        -3.8134  -3.4865   0.3817 H              1 S1                 0.0000
     31 ****        -1.5279  -2.0905  -1.0929 H              1 S1                 0.0000
     32 ****        -3.0100  -1.3153  -0.6091 H              1 S1                 0.0000
     33 ****        -2.4737  -1.8815   1.8236 H              1 S1                 0.0000
     34 ****        -0.9591  -2.5476   1.3017 H              1 S1                 0.0000
     35 ****        -0.4438   2.0491   2.1547 H              1 S1                 0.0000
     36 ****        -2.9671   3.0582   2.1167 H              1 S1                 0.0000
     37 ****        -1.5686   4.0890   1.8769 H              1 S1                 0.0000
     38 ****        -3.5153   3.1543  -0.1919 H              1 S1                 0.0000
     39 ****        -2.5453   4.6264  -0.1517 H              1 S1                 0.0000
     40 ****        -1.9060   2.0175  -1.3809 H              1 S1                 0.0000
     41 ****        -0.9906   3.5182  -1.5404 H              1 S1                 0.0000
     42 ****        -0.5415  -0.2911  -1.3156 H              1 S1                 0.0000
     43 ****         0.9919  -0.0898  -2.0566 H              1 S1                 0.0000
     44 ****         4.2262  -0.7718  -0.9121 H              1 S1                 0.0000
     45 ****         2.8059  -0.7539  -1.8985 H              1 S1                 0.0000
     46 ****         2.6520   1.7710  -1.6725 H              1 S1                 0.0000
     47 ****         4.0891   1.7682  -0.6804 H              1 S1                 0.0000
     48 ****         4.6416   2.3904  -3.0236 H              1 S1                 0.0000
     49 ****         3.9831   0.8648  -3.6086 H              1 S1                 0.0000
     50 ****         5.4324   0.8729  -2.6038 H              1 S1                 0.0000
     51 ****        -3.5439  -0.2823   1.2564 LP             1 S1                 0.0000
     52 ****        -3.6168   1.4415   1.4088 LP             1 S1                 0.0000
     53 ****        -0.0913   1.5117  -0.2641 LP             1 S1                 0.0000
     54 ****         0.2009   3.0312   0.2578 LP             1 S1                 0.0000
     55 ****         4.9358  -0.1588   0.6308 LP             1 S1                 0.0000
     56 ****         4.7729  -0.2285   2.3538 LP             1 S1                 0.0000
     57 ****        -0.6336  -0.5883   3.5835 LP             1 S1                 0.0000
     58 ****         0.8860  -0.5738   4.4146 LP             1 S1                 0.0000
@<TRIPOS>BOND
    1    1    2 1     
    2    1   26 1     
    3    1   27 1     
    4    1   28 1     
    5    2    3 1     
    6    2   29 1     
    7    2   30 1     
    8    3    4 1     
    9    3   31 1     
   10    3   32 1     
   11    4    5 1     
   12    4   33 1     
   13    4   34 1     
   14    5    6 am    
   15    5   13 1     
   16    6    7 2     
   17    6    8 1     
   18    8   12 1     
   19    8    9 1     
   20    8   35 1     
   21    9   10 1     
   22    9   36 1     
   23    9   37 1     
   24   10   11 1     
   25   10   38 1     
   26   10   39 1     
   27   11   12 1     
   28   11   40 1     
   29   11   41 1     
   30   13   23 1     
   31   13   14 2     
   32   14   15 1     
   33   14   16 1     
   34   15   42 1     
   35   15   43 1     
   36   16   17 1     
   37   16   20 1     
   38   17   18 1     
   39   17   44 1     
   40   17   45 1     
   41   18   19 1     
   42   18   46 1     
   43   18   47 1     
   44   19   48 1     
   45   19   49 1     
   46   19   50 1     
   47   20   21 2     
   48   20   22 1     
   49   22   25 1     
   50   22   23 1     
   51   23   24 2     
   52    7   51 1     
   53    7   52 1     
   54   12   53 1     
   55   12   54 1     
   56   21   55 1     
   57   21   56 1     
   58   24   57 1     
   59   24   58 1     
@<TRIPOS>SUBSTRUCTURE
      1 S1             1
@<TRIPOS>SET
LONE_PAIRS      STATIC     ATOMS    <user>   **** ""
8 51 52 53 54 55 56 57 58
DONOR_HYDROGENS      STATIC     ATOMS    <user>   **** ""
3 42 43 25
ATOM$BLUE        STATIC     ATOMS    COLORGROUP SYSTEM
8 51 52 53 54 55 56 57 58
ATOM$RED        STATIC     ATOMS    COLORGROUP SYSTEM
3 42 43 25
