AV-unprocessed.smi:672|AV-procd|sdf|3289|dock1
  -GOLD-   22720 0253D 1   1.00000     0.00000
 Structure written by MMmdl.
 36 37  0  0  0  0  0  0  0  0  1 V2000
  143.5400  132.0359  150.7320 C   0  0  0  0  0  0  0  0  0  0  0  0
  144.4011  133.2046  150.2414 C   0  0  0  0  0  0  0  0  0  0  0  0
  144.2600  134.4192  151.0967 C   0  0  0  0  0  0  0  0  0  0  0  0
  143.2919  134.5518  152.0118 N   0  0  0  0  0  0  0  0  0  0  0  0
  143.3813  135.7524  152.7025 N   0  0  0  0  0  0  0  0  0  0  0  0
  144.4275  136.4851  152.2971 C   0  0  0  0  0  0  0  0  0  0  0  0
  144.7574  137.7564  152.8361 N   0  0  0  0  0  0  0  0  0  0  0  0
  145.8071  138.0881  153.6081 C   0  0  0  0  0  0  0  0  0  0  0  0
  146.6905  137.3158  153.9810 O   0  0  0  0  0  0  0  0  0  0  0  0
  145.7772  139.3886  153.9327 N   0  0  0  0  0  0  0  0  0  0  0  0
  146.7749  140.0729  154.7511 C   0  0  2  0  0  0  0  0  0  0  0  0
  146.4974  141.5864  154.8449 C   0  0  0  0  0  0  0  0  0  0  0  0
  147.6317  142.2745  154.0825 C   0  0  0  0  0  0  0  0  0  0  0  0
  148.8225  141.3228  154.1974 C   0  0  1  0  0  0  0  0  0  0  0  0
  149.7233  141.5833  155.7568 S   0  0  0  0  0  0  0  0  0  0  0  0
  150.9771  140.2797  155.6324 C   0  0  0  0  0  0  0  0  0  0  0  0
  148.1792  139.9323  154.1344 C   0  0  0  0  0  0  0  0  0  0  0  0
  145.3966  135.7609  151.0257 S   0  0  0  0  0  0  0  0  0  0  0  0
  143.6661  131.1639  150.0900 H   0  0  0  0  0  0  0  0  0  0  0  0
  142.4822  132.3002  150.7319 H   0  0  0  0  0  0  0  0  0  0  0  0
  143.8133  131.7453  151.7468 H   0  0  0  0  0  0  0  0  0  0  0  0
  145.4506  132.9101  150.2228 H   0  0  0  0  0  0  0  0  0  0  0  0
  144.1310  133.4609  149.2161 H   0  0  0  0  0  0  0  0  0  0  0  0
  144.1154  138.5014  152.6094 H   0  0  0  0  0  0  0  0  0  0  0  0
  145.0131  139.9491  153.5849 H   0  0  0  0  0  0  0  0  0  0  0  0
  146.7810  139.6451  155.7555 H   0  0  0  0  0  0  0  0  0  0  0  0
  145.5190  141.8746  154.4579 H   0  0  0  0  0  0  0  0  0  0  0  0
  146.5269  141.8924  155.8914 H   0  0  0  0  0  0  0  0  0  0  0  0
  147.3502  142.3743  153.0335 H   0  0  0  0  0  0  0  0  0  0  0  0
  147.8450  143.2753  154.4593 H   0  0  0  0  0  0  0  0  0  0  0  0
  149.5198  141.4789  153.3736 H   0  0  0  0  0  0  0  0  0  0  0  0
  151.6303  140.3048  156.5043 H   0  0  0  0  0  0  0  0  0  0  0  0
  151.5873  140.4223  154.7406 H   0  0  0  0  0  0  0  0  0  0  0  0
  150.5110  139.2961  155.5815 H   0  0  0  0  0  0  0  0  0  0  0  0
  148.7700  139.1646  154.6339 H   0  0  0  0  0  0  0  0  0  0  0  0
  148.1032  139.6360  153.0868 H   0  0  0  0  0  0  0  0  0  0  0  0
  1  2  1  0  0  0  0
  1 19  1  0  0  0  0
  1 20  1  0  0  0  0
  1 21  1  0  0  0  0
  2  3  1  0  0  0  0
  2 22  1  0  0  0  0
  2 23  1  0  0  0  0
  3 18  1  0  0  0  0
  3  4  2  0  0  0  0
  4  5  1  0  0  0  0
  5  6  2  0  0  0  0
  6  7  1  0  0  0  0
  6 18  1  0  0  0  0
  7  8  1  0  0  0  0
  7 24  1  0  0  0  0
  8  9  2  0  0  0  0
  8 10  1  0  0  0  0
 10 11  1  0  0  0  0
 10 25  1  0  0  0  0
 11 17  1  0  0  0  0
 11 12  1  0  0  0  0
 11 26  1  0  0  0  0
 12 13  1  0  0  0  0
 12 27  1  0  0  0  0
 12 28  1  0  0  0  0
 13 14  1  0  0  0  0
 13 29  1  0  0  0  0
 13 30  1  0  0  0  0
 14 15  1  0  0  0  0
 14 17  1  0  0  0  0
 14 31  1  0  0  0  0
 15 16  1  0  0  0  0
 16 32  1  0  0  0  0
 16 33  1  0  0  0  0
 16 34  1  0  0  0  0
 17 35  1  0  0  0  0
 17 36  1  0  0  0  0
M  END
> <s_m_source_file>
AV-unprocessed.smi

> <i_m_source_file_index>
672

> <i_lp_mmshare_version>
43012

> <i_f3d_flags>
0

> <s_epik_input>
W0NIM11bQ0gyXWMxbm5jKHMxKVtOSF1DKD1PKVtOSF1bQ0BASF0yW0NIMl1bQ0gyXVtDQEhdKFtDSDJdMilTW0NIM10=

> <s_epik_cmdline>
J2VwaWtfcHl0aG9uJywgJy1waCcsICc3LjAnLCAnLXRuJywgJzgnLCAnLW1hJywgJzIwMCcsICctbWV0YWxfYmluZGluZycsICctaW1hZScsICc8aW5maWxlLm1hZT4nLCAnLW9tYWUnLCAnPG91dGZpbGUubWFlPic=

> <r_lp_tautomer_probability>
1

> <r_epik_Ionization_Penalty>
0.000422169

> <r_epik_Ionization_Penalty_Charging>
0

> <r_epik_Ionization_Penalty_Neutral>
0.000422169

> <r_epik_State_Penalty>
-0

> <r_epik_Charging_Adjusted_Penalty>
0

> <i_epik_Tot_Q>
0

> <i_epik_Tot_abs_Q>
0

> <r_epik_Metal_State_Penalty>
0.200061

> <b_epik_Metal_Only>
0

> <s_lp_Force_Field>
OPLS_2005

> <r_lp_Energy>
12.7649

> <b_lp_Chiralities_Consistent>
1

> <s_lp_Variant>
AV-unprocessed.smi:672-1

> <Gold.Version>
5.8.1

> <Gold.Id.Protein>
6NUR|6NUR_protein|mol2

> <Gold.PLP.Fitness>
36.2025

> <Gold.PLP.PLP>
-31.8538

> <Gold.PLP.part.hbond>
-2.4245

> <Gold.PLP.part.metal>
0.0000

> <Gold.PLP.part.buried>
-2.3434

> <Gold.PLP.part.nonpolar>
-27.6306

> <Gold.PLP.part.repulsive>
0.4733

> <Gold.PLP.ligand.clash>
0.0000

> <Gold.PLP.ligand.torsion>
0.8423

> <Gold.PLP.Chemscore.Hbond>
2.0000

> <Gold.PLP.Chemscore.CHOScore>
0.0000

> <Gold.PLP.Chemscore.Metal>
0.0000

> <Gold.Chemscore.Hbonds>
donor molecule, donor type, donor heavy atom, donor atom, acceptor molecule, acceptor atom, score
      L1  H     7    24       P1 10175  1.00
      L1  H    10    25       P1 10175  1.00

> <Gold.PLP.Chemscore.Internal.Correction>
0.0335

> <Gold.Rescore>
     Score         DG    S(hbond)    S(metal)    S(lipo)     H(rot)  DE(clash)    DE(int)     intcor
     15.05     -17.29       1.94        0.00      75.38       1.37       0.22       2.03       ----

> <Gold.Chemscore.Fitness>
15.0472

> <Gold.Chemscore.DG>
-17.2936

> <Gold.Chemscore.ZeroCoef>
-5.4800

> <Gold.Chemscore.Hbond>
1.9440

> <Gold.Chemscore.Metal>
0.0000

> <Gold.Chemscore.Lipo>
75.3833

> <Gold.Chemscore.Internal_Hbond>
0.0000

> <Gold.Chemscore.DEClash>
0.2158

> <Gold.Chemscore.DEInternal>
2.0305

> <Gold.Chemscore.Rot>
1.3669

> <Gold.Chemscore.Internal.Correction>
   9.000000E+99

> <Gold.Chemscore.Hbonds>
donor molecule, donor type, donor heavy atom, donor atom, acceptor molecule, acceptor atom, score
      L1  H     7    24       P1 10175  0.93
      L1  H    10    25       P1 10175  0.99

> <Gold.Chemscore.Hbond.Weighted>
-6.4930

> <Gold.Chemscore.Metal.Weighted>
-0.0000

> <Gold.Chemscore.Lipo.Weighted>
-8.8198

> <Gold.Chemscore.Internal_Hbond.Weighted>
0.0000

> <Gold.Chemscore.DEClash.Weighted>
0.2158

> <Gold.Chemscore.DEInternal.Weighted>
2.0305

> <Gold.Chemscore.Rot.Weighted>
3.4992

> <Gold.Chemscore.Internal.Correction.Weighted>
   9.000000E+99

> <Gold.Protein.RotatedTorsions>
[ 6907 6896 6895 6894 ] final  -84.88 input  -60.11 | X-H torsion
[ 7974 7965 7964 7962 ] final  140.93 input  175.53 | X-H torsion
[ 8008 7997 7996 7995 ] final  -15.39 input   59.86 | X-H torsion
[ 10167 10162 10161 10158 ] final   20.97 input  -65.29 | X-H torsion
[ 10718 10713 10712 10709 ] final -122.55 input   66.30 | X-H torsion
[ 10763 10752 10751 10750 ] final -135.14 input  -60.55 | X-H torsion
[ 11005 11000 10999 10996 ] final -149.71 input  -57.11 | X-H torsion

> <Gold.Protein.ActiveResidues>
 VAL166  LYS551  ARG553  GLY616  TRP617  ASP618  TYR619  PRO620  LYS621  CYS622 
 ASP623  PHE694  ASN695  SER759  ASP760  ASP761  ALA762  ILE779  LEU786  VAL792 
 PHE793  MET794  SER795  GLU796  ALA797  LYS798  CYS799  TRP800  GLU811  SER814 

> <Gold.Protein.RotatedAtoms>
  150.6873  134.3290  159.4818 H   0  0  0  0  0  0  0  0  0  0  0  0  # atno 6907 bound_to 6896
  152.1157  134.9240  160.0574 H   0  0  0  0  0  0  0  0  0  0  0  0  # atno 6908 bound_to 6896
  152.0465  133.3965  159.4396 H   0  0  0  0  0  0  0  0  0  0  0  0  # atno 6909 bound_to 6896
  144.9142  139.5253  143.5694 H   0  0  0  0  0  0  0  0  0  0  0  0  # atno 7974 bound_to 7965
  154.5134  140.2197  155.9112 H   0  0  0  0  0  0  0  0  0  0  0  0  # atno 8008 bound_to 7997
  156.1579  140.3148  155.8723 H   0  0  0  0  0  0  0  0  0  0  0  0  # atno 8009 bound_to 7997
  155.3810  140.0472  157.3034 H   0  0  0  0  0  0  0  0  0  0  0  0  # atno 8010 bound_to 7997
  140.5463  143.9589  150.6549 H   0  0  0  0  0  0  0  0  0  0  0  0  # atno 10167 bound_to 10162
  156.1428  130.6478  150.9796 H   0  0  0  0  0  0  0  0  0  0  0  0  # atno 10718 bound_to 10713
  154.8708  135.3712  154.4850 H   0  0  0  0  0  0  0  0  0  0  0  0  # atno 10763 bound_to 10752
  153.5500  135.7025  153.5600 H   0  0  0  0  0  0  0  0  0  0  0  0  # atno 10764 bound_to 10752
  153.3723  135.4018  155.1762 H   0  0  0  0  0  0  0  0  0  0  0  0  # atno 10765 bound_to 10752
  140.7479  134.3440  157.5133 H   0  0  0  0  0  0  0  0  0  0  0  0  # atno 11005 bound_to 11000
  146.3173  139.7971  142.8973 LP  0  0  0  0  0  0  0  0  0  0  0  0  # atno 17320 bound_to 7965
  145.3404  141.0286  143.3396 LP  0  0  0  0  0  0  0  0  0  0  0  0  # atno 17321 bound_to 7965
  140.3003  143.3265  152.0978 LP  0  0  0  0  0  0  0  0  0  0  0  0  # atno 17342 bound_to 10162
  139.5008  144.6701  151.6264 LP  0  0  0  0  0  0  0  0  0  0  0  0  # atno 17343 bound_to 10162
  157.6590  131.0884  150.7881 LP  0  0  0  0  0  0  0  0  0  0  0  0  # atno 17370 bound_to 10713
  156.7956  130.4904  149.5378 LP  0  0  0  0  0  0  0  0  0  0  0  0  # atno 17371 bound_to 10713
  139.8793  134.9123  156.3057 LP  0  0  0  0  0  0  0  0  0  0  0  0  # atno 17394 bound_to 11000
  140.9777  133.7287  156.0627 LP  0  0  0  0  0  0  0  0  0  0  0  0  # atno 17395 bound_to 11000

$$$$
