AV-unprocessed.smi:1419|AV-procd|sdf|5785|dock10
  -GOLD-   22720 5433D 1   1.00000     0.00000
 Structure written by MMmdl.
 41 42  0  0  0  0  0  0  0  0  1 V2000
  149.2205  140.8708  157.3630 C   0  0  0  0  0  0  0  0  0  0  0  0
  150.6886  140.4261  157.4662 C   0  0  1  0  0  0  0  0  0  0  0  0
  151.3732  140.2673  156.0905 C   0  0  0  0  0  0  0  0  0  0  0  0
  151.2299  138.9317  155.5427 N   0  0  0  0  0  0  0  0  0  0  0  0
  150.0470  138.2511  155.2860 C   0  0  0  0  0  0  0  0  0  0  0  0
  150.4031  137.0256  154.7700 C   0  0  0  0  0  0  0  0  0  0  0  0
  151.7911  136.9330  154.6965 N   0  0  0  0  0  0  0  0  0  0  0  0
  152.2115  138.0997  155.1683 C   0  0  0  0  0  0  0  0  0  0  0  0
  151.4192  141.3890  158.2843 N   0  0  0  0  0  0  0  0  0  0  0  0
  151.6015  142.6881  157.9924 C   0  0  0  0  0  0  0  0  0  0  0  0
  151.1536  143.1983  156.9645 O   0  0  0  0  0  0  0  0  0  0  0  0
  152.3080  143.3828  158.9183 N   0  0  0  0  0  0  0  0  0  0  0  0
  153.0696  142.8326  160.0476 C   0  0  0  0  0  0  0  0  0  0  0  0
  152.3319  143.1984  161.3497 C   0  0  1  0  0  0  0  0  0  0  0  0
  153.0905  142.7247  162.5941 C   0  0  0  0  0  0  0  0  0  0  0  0
  152.1892  144.6189  161.4345 O   0  0  0  0  0  0  0  0  0  0  0  0
  151.5508  145.2476  160.3180 C   0  0  2  0  0  0  0  0  0  0  0  0
  150.0355  144.9741  160.3109 C   0  0  0  0  0  0  0  0  0  0  0  0
  152.2670  144.8441  159.0113 C   0  0  0  0  0  0  0  0  0  0  0  0
  148.6137  140.1317  156.8394 H   0  0  0  0  0  0  0  0  0  0  0  0
  149.1299  141.8162  156.8275 H   0  0  0  0  0  0  0  0  0  0  0  0
  148.7814  141.0050  158.3522 H   0  0  0  0  0  0  0  0  0  0  0  0
  150.7015  139.4611  157.9765 H   0  0  0  0  0  0  0  0  0  0  0  0
  150.9575  140.9798  155.3766 H   0  0  0  0  0  0  0  0  0  0  0  0
  152.4393  140.4869  156.1643 H   0  0  0  0  0  0  0  0  0  0  0  0
  149.0772  138.6813  155.4887 H   0  0  0  0  0  0  0  0  0  0  0  0
  149.7724  136.2104  154.4474 H   0  0  0  0  0  0  0  0  0  0  0  0
  153.2583  138.3546  155.2464 H   0  0  0  0  0  0  0  0  0  0  0  0
  151.8166  141.0423  159.1452 H   0  0  0  0  0  0  0  0  0  0  0  0
  153.2208  141.7545  159.9951 H   0  0  0  0  0  0  0  0  0  0  0  0
  154.0708  143.2666  160.0485 H   0  0  0  0  0  0  0  0  0  0  0  0
  151.3463  142.7317  161.3549 H   0  0  0  0  0  0  0  0  0  0  0  0
  153.2174  141.6419  162.5888 H   0  0  0  0  0  0  0  0  0  0  0  0
  152.5508  142.9914  163.5030 H   0  0  0  0  0  0  0  0  0  0  0  0
  154.0807  143.1779  162.6497 H   0  0  0  0  0  0  0  0  0  0  0  0
  151.6822  146.3214  160.4540 H   0  0  0  0  0  0  0  0  0  0  0  0
  149.5465  145.5312  159.5113 H   0  0  0  0  0  0  0  0  0  0  0  0
  149.5818  145.2828  161.2527 H   0  0  0  0  0  0  0  0  0  0  0  0
  149.8026  143.9205  160.1600 H   0  0  0  0  0  0  0  0  0  0  0  0
  153.2881  145.2282  159.0146 H   0  0  0  0  0  0  0  0  0  0  0  0
  151.7793  145.3125  158.1553 H   0  0  0  0  0  0  0  0  0  0  0  0
  1  2  1  0  0  0  0
  1 20  1  0  0  0  0
  1 21  1  0  0  0  0
  1 22  1  0  0  0  0
  2  3  1  0  0  0  0
  2  9  1  0  0  0  0
  2 23  1  0  0  0  0
  3  4  1  0  0  0  0
  3 24  1  0  0  0  0
  3 25  1  0  0  0  0
  4  8  1  0  0  0  0
  4  5  1  0  0  0  0
  5  6  2  0  0  0  0
  5 26  1  0  0  0  0
  6  7  1  0  0  0  0
  6 27  1  0  0  0  0
  7  8  2  0  0  0  0
  8 28  1  0  0  0  0
  9 10  1  0  0  0  0
  9 29  1  0  0  0  0
 10 11  2  0  0  0  0
 10 12  1  0  0  0  0
 12 19  1  0  0  0  0
 12 13  1  0  0  0  0
 13 14  1  0  0  0  0
 13 30  1  0  0  0  0
 13 31  1  0  0  0  0
 14 15  1  0  0  0  0
 14 16  1  0  0  0  0
 14 32  1  0  0  0  0
 15 33  1  0  0  0  0
 15 34  1  0  0  0  0
 15 35  1  0  0  0  0
 16 17  1  0  0  0  0
 17 18  1  0  0  0  0
 17 19  1  0  0  0  0
 17 36  1  0  0  0  0
 18 37  1  0  0  0  0
 18 38  1  0  0  0  0
 18 39  1  0  0  0  0
 19 40  1  0  0  0  0
 19 41  1  0  0  0  0
M  END
> <s_m_source_file>
AV-unprocessed.smi

> <i_m_source_file_index>
1419

> <i_lp_mmshare_version>
43012

> <i_f3d_flags>
0

> <s_epik_input>
W2NIXTFuW2NIXVtjSF1uMVtDSDJdW0NAQEhdKFtDSDNdKVtOSF1DKD1PKU4yW0NIMl1bQ0BASF0oW0NIM10pT1tDQEBIXShbQ0gzXSlbQ0gyXTI=

> <s_epik_cmdline>
J2VwaWtfcHl0aG9uJywgJy1waCcsICc3LjAnLCAnLXRuJywgJzgnLCAnLW1hJywgJzIwMCcsICctbWV0YWxfYmluZGluZycsICctaW1hZScsICc8aW5maWxlLm1hZT4nLCAnLW9tYWUnLCAnPG91dGZpbGUubWFlPic=

> <r_lp_tautomer_probability>
1

> <r_epik_Ionization_Penalty>
0.625124

> <r_epik_Ionization_Penalty_Charging>
0.625093

> <r_epik_Ionization_Penalty_Neutral>
3.17415e-05

> <r_epik_State_Penalty>
0.641455

> <r_epik_Charging_Adjusted_Penalty>
1.26655

> <i_epik_Tot_Q>
0

> <i_epik_Tot_abs_Q>
0

> <r_epik_Metal_State_Penalty>
0.307717

> <b_epik_Metal_Only>
0

> <s_lp_Force_Field>
OPLS_2005

> <r_lp_Energy>
31.3243

> <b_lp_Chiralities_Consistent>
1

> <s_lp_Variant>
AV-unprocessed.smi:1419-12

> <Gold.Version>
5.8.1

> <Gold.Id.Protein>
6NUR|6NUR_protein|mol2

> <Gold.PLP.Fitness>
50.9354

> <Gold.PLP.PLP>
-46.1639

> <Gold.PLP.part.hbond>
-1.0000

> <Gold.PLP.part.metal>
0.0000

> <Gold.PLP.part.buried>
-5.2923

> <Gold.PLP.part.nonpolar>
-42.5227

> <Gold.PLP.part.repulsive>
1.8119

> <Gold.PLP.ligand.clash>
0.0000

> <Gold.PLP.ligand.torsion>
0.5150

> <Gold.PLP.Chemscore.Hbond>
0.9120

> <Gold.PLP.Chemscore.CHOScore>
1.0102

> <Gold.PLP.Chemscore.Metal>
0.0000

> <Gold.Chemscore.Hbonds>
donor molecule, donor type, donor heavy atom, donor atom, acceptor molecule, acceptor atom, score
      P1  H 10752 10764       L1     7  0.93
      L1  C     6    27       P1  7948  0.46

> <Gold.PLP.Chemscore.Internal.Correction>
0.0350

> <Gold.Rescore>
     Score         DG    S(hbond)    S(metal)    S(lipo)     H(rot)  DE(clash)    DE(int)     intcor
     13.92     -16.05       0.86        0.00     100.27       1.58       0.44       1.69       ----

> <Gold.Chemscore.Fitness>
13.9187

> <Gold.Chemscore.DG>
-16.0501

> <Gold.Chemscore.ZeroCoef>
-5.4800

> <Gold.Chemscore.Hbond>
0.8608

> <Gold.Chemscore.Metal>
0.0000

> <Gold.Chemscore.Lipo>
100.2727

> <Gold.Chemscore.Internal_Hbond>
0.0000

> <Gold.Chemscore.DEClash>
0.4402

> <Gold.Chemscore.DEInternal>
1.6912

> <Gold.Chemscore.Rot>
1.5769

> <Gold.Chemscore.Internal.Correction>
   9.000000E+99

> <Gold.Chemscore.Hbonds>
donor molecule, donor type, donor heavy atom, donor atom, acceptor molecule, acceptor atom, score
      P1  H 10752 10764       L1     7  0.88

> <Gold.Chemscore.Hbond.Weighted>
-2.8751

> <Gold.Chemscore.Metal.Weighted>
-0.0000

> <Gold.Chemscore.Lipo.Weighted>
-11.7319

> <Gold.Chemscore.Internal_Hbond.Weighted>
0.0000

> <Gold.Chemscore.DEClash.Weighted>
0.4402

> <Gold.Chemscore.DEInternal.Weighted>
1.6912

> <Gold.Chemscore.Rot.Weighted>
4.0369

> <Gold.Chemscore.Internal.Correction.Weighted>
   9.000000E+99

> <Gold.Protein.RotatedTorsions>
[ 6907 6896 6895 6894 ] final -137.85 input  -60.11 | X-H torsion
[ 7974 7965 7964 7962 ] final   81.42 input  175.53 | X-H torsion
[ 8008 7997 7996 7995 ] final   -8.24 input   59.86 | X-H torsion
[ 10167 10162 10161 10158 ] final -108.27 input  -65.29 | X-H torsion
[ 10718 10713 10712 10709 ] final  -18.01 input   66.30 | X-H torsion
[ 10763 10752 10751 10750 ] final  -86.87 input  -60.55 | X-H torsion
[ 11005 11000 10999 10996 ] final  109.05 input  -57.11 | X-H torsion

> <Gold.Protein.ActiveResidues>
 VAL166  LYS551  ARG553  GLY616  TRP617  ASP618  TYR619  PRO620  LYS621  CYS622 
 ASP623  PHE694  ASN695  SER759  ASP760  ASP761  ALA762  ILE779  LEU786  VAL792 
 PHE793  MET794  SER795  GLU796  ALA797  LYS798  CYS799  TRP800  GLU811  SER814 

> <Gold.Protein.RotatedAtoms>
  151.0277  133.5819  159.2663 H   0  0  0  0  0  0  0  0  0  0  0  0  # atno 6907 bound_to 6896
  151.2912  135.0741  159.9215 H   0  0  0  0  0  0  0  0  0  0  0  0  # atno 6908 bound_to 6896
  152.5337  133.9974  159.7933 H   0  0  0  0  0  0  0  0  0  0  0  0  # atno 6909 bound_to 6896
  145.6384  139.2420  143.2045 H   0  0  0  0  0  0  0  0  0  0  0  0  # atno 7974 bound_to 7965
  154.5761  140.2386  155.8121 H   0  0  0  0  0  0  0  0  0  0  0  0  # atno 8008 bound_to 7997
  156.2144  140.3016  155.9762 H   0  0  0  0  0  0  0  0  0  0  0  0  # atno 8009 bound_to 7997
  155.2625  140.0415  157.2989 H   0  0  0  0  0  0  0  0  0  0  0  0  # atno 8010 bound_to 7997
  140.1680  143.4066  152.1376 H   0  0  0  0  0  0  0  0  0  0  0  0  # atno 10167 bound_to 10162
  156.5655  130.4736  149.6387 H   0  0  0  0  0  0  0  0  0  0  0  0  # atno 10718 bound_to 10713
  154.6273  135.5433  153.7641 H   0  0  0  0  0  0  0  0  0  0  0  0  # atno 10763 bound_to 10752
  153.0267  135.6427  154.1353 H   0  0  0  0  0  0  0  0  0  0  0  0  # atno 10764 bound_to 10752
  154.1285  135.2916  155.3171 H   0  0  0  0  0  0  0  0  0  0  0  0  # atno 10765 bound_to 10752
  139.8855  134.9447  156.6066 H   0  0  0  0  0  0  0  0  0  0  0  0  # atno 11005 bound_to 11000
  146.1301  140.7197  142.9416 LP  0  0  0  0  0  0  0  0  0  0  0  0  # atno 17320 bound_to 7965
  144.7167  140.4233  143.7039 LP  0  0  0  0  0  0  0  0  0  0  0  0  # atno 17321 bound_to 7965
  139.5351  144.7200  151.4922 LP  0  0  0  0  0  0  0  0  0  0  0  0  # atno 17342 bound_to 10162
  140.6600  143.8518  150.6878 LP  0  0  0  0  0  0  0  0  0  0  0  0  # atno 17343 bound_to 10162
  156.2761  130.7044  151.1856 LP  0  0  0  0  0  0  0  0  0  0  0  0  # atno 17370 bound_to 10713
  157.7359  131.0567  150.5441 LP  0  0  0  0  0  0  0  0  0  0  0  0  # atno 17371 bound_to 10713
  140.7843  133.8634  155.8593 LP  0  0  0  0  0  0  0  0  0  0  0  0  # atno 17394 bound_to 11000
  140.9733  134.1503  157.4558 LP  0  0  0  0  0  0  0  0  0  0  0  0  # atno 17395 bound_to 11000

$$$$
