AV-unprocessed.smi:2430|AV-procd|sdf|9585|dock1
  -GOLD-   2272013213D 1   1.00000     0.00000
 Structure written by MMmdl.
 46 47  0  0  0  0  0  0  0  0  1 V2000
  153.5405  141.3160  160.6800 C   0  0  0  0  0  0  0  0  0  0  0  0
  153.0136  142.0335  159.4327 C   0  0  1  0  0  0  0  0  0  0  0  0
  152.0947  141.1253  158.5963 C   0  0  0  0  0  0  0  0  0  0  0  0
  151.5066  141.8751  157.4917 N   0  0  0  0  0  0  0  0  0  0  0  0
  150.9025  141.0907  156.4865 C   0  0  0  0  0  0  0  0  0  0  0  0
  151.6462  140.0780  155.8368 C   0  0  0  0  0  0  0  0  0  0  0  0
  151.0276  139.3017  154.8383 C   0  0  0  0  0  0  0  0  0  0  0  0
  149.6783  139.5631  154.5070 C   0  0  0  0  0  0  0  0  0  0  0  0
  148.9414  138.8347  153.5356 N   0  0  0  0  0  0  0  0  0  0  0  0
  147.6640  139.0127  153.1589 C   0  0  0  0  0  0  0  0  0  0  0  0
  146.8961  139.8541  153.6261 O   0  0  0  0  0  0  0  0  0  0  0  0
  147.3095  138.1303  152.2143 N   0  0  0  0  0  0  0  0  0  0  0  0
  145.9777  138.0191  151.6311 C   0  0  0  0  0  0  0  0  0  0  0  0
  145.3456  136.6533  151.9422 C   0  0  0  0  0  0  0  0  0  0  0  0
  145.5190  135.6511  150.7939 C   0  0  0  0  0  0  0  0  0  0  0  0
  145.0240  136.2087  149.5959 O   0  0  0  0  0  0  0  0  0  0  0  0
  149.0167  140.5848  155.2157 C   0  0  0  0  0  0  0  0  0  0  0  0
  149.6068  141.3335  156.1704 N   0  0  0  0  0  0  0  0  0  0  0  0
  150.8113  143.0847  157.9254 C   0  0  0  0  0  0  0  0  0  0  0  0
  151.7240  143.9646  158.8022 C   0  0  2  0  0  0  0  0  0  0  0  0
  152.7963  144.7268  158.0031 C   0  0  0  0  0  0  0  0  0  0  0  0
  152.2898  143.1872  159.8599 O   0  0  0  0  0  0  0  0  0  0  0  0
  154.1125  140.4280  160.4096 H   0  0  0  0  0  0  0  0  0  0  0  0
  152.7228  141.0021  161.3293 H   0  0  0  0  0  0  0  0  0  0  0  0
  154.1943  141.9689  161.2585 H   0  0  0  0  0  0  0  0  0  0  0  0
  153.8708  142.3383  158.8325 H   0  0  0  0  0  0  0  0  0  0  0  0
  152.6656  140.2682  158.2410 H   0  0  0  0  0  0  0  0  0  0  0  0
  151.2889  140.7319  159.2176 H   0  0  0  0  0  0  0  0  0  0  0  0
  152.6807  139.8954  156.0865 H   0  0  0  0  0  0  0  0  0  0  0  0
  151.5933  138.5178  154.3587 H   0  0  0  0  0  0  0  0  0  0  0  0
  149.4196  138.0428  153.1314 H   0  0  0  0  0  0  0  0  0  0  0  0
  148.0042  137.4728  151.8912 H   0  0  0  0  0  0  0  0  0  0  0  0
  145.3381  138.8282  151.9884 H   0  0  0  0  0  0  0  0  0  0  0  0
  146.0689  138.1497  150.5526 H   0  0  0  0  0  0  0  0  0  0  0  0
  145.7926  136.2463  152.8504 H   0  0  0  0  0  0  0  0  0  0  0  0
  144.2825  136.7806  152.1514 H   0  0  0  0  0  0  0  0  0  0  0  0
  146.5709  135.3966  150.6607 H   0  0  0  0  0  0  0  0  0  0  0  0
  144.9815  134.7258  151.0038 H   0  0  0  0  0  0  0  0  0  0  0  0
  145.3395  135.6920  148.8703 H   0  0  0  0  0  0  0  0  0  0  0  0
  147.9821  140.8155  155.0079 H   0  0  0  0  0  0  0  0  0  0  0  0
  150.4650  143.6568  157.0633 H   0  0  0  0  0  0  0  0  0  0  0  0
  149.9274  142.7943  158.4952 H   0  0  0  0  0  0  0  0  0  0  0  0
  151.0963  144.7165  159.2812 H   0  0  0  0  0  0  0  0  0  0  0  0
  152.3333  145.4106  157.2915 H   0  0  0  0  0  0  0  0  0  0  0  0
  153.4424  144.0586  157.4344 H   0  0  0  0  0  0  0  0  0  0  0  0
  153.4265  145.3198  158.6661 H   0  0  0  0  0  0  0  0  0  0  0  0
  1  2  1  0  0  0  0
  1 23  1  0  0  0  0
  1 24  1  0  0  0  0
  1 25  1  0  0  0  0
  2 22  1  0  0  0  0
  2  3  1  0  0  0  0
  2 26  1  0  0  0  0
  3  4  1  0  0  0  0
  3 27  1  0  0  0  0
  3 28  1  0  0  0  0
  4  5  1  0  0  0  0
  4 19  1  0  0  0  0
  5 18  1  0  0  0  0
  5  6  2  0  0  0  0
  6  7  1  0  0  0  0
  6 29  1  0  0  0  0
  7  8  2  0  0  0  0
  7 30  1  0  0  0  0
  8  9  1  0  0  0  0
  8 17  1  0  0  0  0
  9 10  1  0  0  0  0
  9 31  1  0  0  0  0
 10 11  2  0  0  0  0
 10 12  1  0  0  0  0
 12 13  1  0  0  0  0
 12 32  1  0  0  0  0
 13 14  1  0  0  0  0
 13 33  1  0  0  0  0
 13 34  1  0  0  0  0
 14 15  1  0  0  0  0
 14 35  1  0  0  0  0
 14 36  1  0  0  0  0
 15 16  1  0  0  0  0
 15 37  1  0  0  0  0
 15 38  1  0  0  0  0
 16 39  1  0  0  0  0
 17 18  2  0  0  0  0
 17 40  1  0  0  0  0
 19 20  1  0  0  0  0
 19 41  1  0  0  0  0
 19 42  1  0  0  0  0
 20 21  1  0  0  0  0
 20 22  1  0  0  0  0
 20 43  1  0  0  0  0
 21 44  1  0  0  0  0
 21 45  1  0  0  0  0
 21 46  1  0  0  0  0
M  END
> <s_m_source_file>
AV-unprocessed.smi

> <i_m_source_file_index>
2430

> <i_lp_mmshare_version>
43012

> <i_f3d_flags>
0

> <s_epik_input>
W0NIM11bQ0BASF0xW0NIMl1OKFtDSDJdW0NASF0oTzEpW0NIM10pYzJbY0hdW2NIXWMoW2NIXW4yKVtOSF1DKD1PKVtOSF1bQ0gyXVtDSDJdW0NIMl1bT0hd

> <s_epik_cmdline>
J2VwaWtfcHl0aG9uJywgJy1waCcsICc3LjAnLCAnLXRuJywgJzgnLCAnLW1hJywgJzIwMCcsICctbWV0YWxfYmluZGluZycsICctaW1hZScsICc8aW5maWxlLm1hZT4nLCAnLW9tYWUnLCAnPG91dGZpbGUubWFlPic=

> <r_lp_tautomer_probability>
1

> <r_epik_Ionization_Penalty>
0.00269907

> <r_epik_Ionization_Penalty_Charging>
0

> <r_epik_Ionization_Penalty_Neutral>
0.00269907

> <r_epik_State_Penalty>
0.00185337

> <r_epik_Charging_Adjusted_Penalty>
0.00185337

> <i_epik_Tot_Q>
0

> <i_epik_Tot_abs_Q>
0

> <r_epik_Metal_State_Penalty>
-0

> <b_epik_Metal_Only>
0

> <s_lp_Force_Field>
OPLS_2005

> <r_lp_Energy>
20.4491

> <b_lp_Chiralities_Consistent>
1

> <s_lp_Variant>
AV-unprocessed.smi:2430-3

> <Gold.Version>
5.8.1

> <Gold.Id.Protein>
6NUR|6NUR_protein|mol2

> <Gold.PLP.Fitness>
54.5290

> <Gold.PLP.PLP>
-47.8716

> <Gold.PLP.part.hbond>
-5.4614

> <Gold.PLP.part.metal>
0.0000

> <Gold.PLP.part.buried>
-2.3689

> <Gold.PLP.part.nonpolar>
-41.8842

> <Gold.PLP.part.repulsive>
0.4420

> <Gold.PLP.ligand.clash>
0.0306

> <Gold.PLP.ligand.torsion>
0.4441

> <Gold.PLP.Chemscore.Hbond>
2.4160

> <Gold.PLP.Chemscore.CHOScore>
0.0000

> <Gold.PLP.Chemscore.Metal>
0.0000

> <Gold.Chemscore.Hbonds>
donor molecule, donor type, donor heavy atom, donor atom, acceptor molecule, acceptor atom, score
      L1  H     9    31       P1  7948  0.42
      L1  H    12    32       P1  7948  1.00
      L1  H    16    39       P1  7921  1.00

> <Gold.PLP.Chemscore.Internal.Correction>
0.3283

> <Gold.Rescore>
     Score         DG    S(hbond)    S(metal)    S(lipo)     H(rot)  DE(clash)    DE(int)     intcor
     17.38     -20.14       2.22        0.00     113.09       2.33       0.94       1.83       ----

> <Gold.Chemscore.Fitness>
17.3776

> <Gold.Chemscore.DG>
-20.1424

> <Gold.Chemscore.ZeroCoef>
-5.4800

> <Gold.Chemscore.Hbond>
2.2179

> <Gold.Chemscore.Metal>
0.0000

> <Gold.Chemscore.Lipo>
113.0862

> <Gold.Chemscore.Internal_Hbond>
0.0000

> <Gold.Chemscore.DEClash>
0.9357

> <Gold.Chemscore.DEInternal>
1.8291

> <Gold.Chemscore.Rot>
2.3346

> <Gold.Chemscore.Internal.Correction>
   9.000000E+99

> <Gold.Chemscore.Hbonds>
donor molecule, donor type, donor heavy atom, donor atom, acceptor molecule, acceptor atom, score
      L1  H     9    31       P1  7948  0.38
      L1  H    12    32       P1  7948  0.93
      L1  H    16    39       P1  7921  1.00

> <Gold.Chemscore.Hbond.Weighted>
-7.4079

> <Gold.Chemscore.Metal.Weighted>
-0.0000

> <Gold.Chemscore.Lipo.Weighted>
-13.2311

> <Gold.Chemscore.Internal_Hbond.Weighted>
0.0000

> <Gold.Chemscore.DEClash.Weighted>
0.9357

> <Gold.Chemscore.DEInternal.Weighted>
1.8291

> <Gold.Chemscore.Rot.Weighted>
5.9766

> <Gold.Chemscore.Internal.Correction.Weighted>
   9.000000E+99

> <Gold.Protein.RotatedTorsions>
[ 6907 6896 6895 6894 ] final  115.26 input  -60.11 | X-H torsion
[ 7974 7965 7964 7962 ] final   34.85 input  175.53 | X-H torsion
[ 8008 7997 7996 7995 ] final -162.24 input   59.86 | X-H torsion
[ 10167 10162 10161 10158 ] final   71.06 input  -65.29 | X-H torsion
[ 10718 10713 10712 10709 ] final  -37.58 input   66.30 | X-H torsion
[ 10763 10752 10751 10750 ] final   30.25 input  -60.55 | X-H torsion
[ 11005 11000 10999 10996 ] final -113.93 input  -57.11 | X-H torsion

> <Gold.Protein.ActiveResidues>
 VAL166  LYS551  ARG553  GLY616  TRP617  ASP618  TYR619  PRO620  LYS621  CYS622 
 ASP623  PHE694  ASN695  SER759  ASP760  ASP761  ALA762  ILE779  LEU786  VAL792 
 PHE793  MET794  SER795  GLU796  ALA797  LYS798  CYS799  TRP800  GLU811  SER814 

> <Gold.Protein.RotatedAtoms>
  152.4752  133.8122  159.7009 H   0  0  0  0  0  0  0  0  0  0  0  0  # atno 6907 bound_to 6896
  150.8765  133.7422  159.2951 H   0  0  0  0  0  0  0  0  0  0  0  0  # atno 6908 bound_to 6896
  151.4940  135.1062  159.9863 H   0  0  0  0  0  0  0  0  0  0  0  0  # atno 6909 bound_to 6896
  146.1324  139.6216  142.9218 H   0  0  0  0  0  0  0  0  0  0  0  0  # atno 7974 bound_to 7965
  155.8039  140.0896  157.1941 H   0  0  0  0  0  0  0  0  0  0  0  0  # atno 8008 bound_to 7997
  154.3981  140.1467  156.3366 H   0  0  0  0  0  0  0  0  0  0  0  0  # atno 8009 bound_to 7997
  155.8434  140.3438  155.5649 H   0  0  0  0  0  0  0  0  0  0  0  0  # atno 8010 bound_to 7997
  140.0501  144.5318  150.7369 H   0  0  0  0  0  0  0  0  0  0  0  0  # atno 10167 bound_to 10162
  156.3136  130.4256  149.8027 H   0  0  0  0  0  0  0  0  0  0  0  0  # atno 10718 bound_to 10713
  153.0382  135.6469  154.1016 H   0  0  0  0  0  0  0  0  0  0  0  0  # atno 10763 bound_to 10752
  154.0727  135.2879  155.3307 H   0  0  0  0  0  0  0  0  0  0  0  0  # atno 10764 bound_to 10752
  154.6583  135.5401  153.8051 H   0  0  0  0  0  0  0  0  0  0  0  0  # atno 10765 bound_to 10752
  141.0584  133.9576  157.2713 H   0  0  0  0  0  0  0  0  0  0  0  0  # atno 11005 bound_to 11000
  145.5232  141.0431  143.2424 LP  0  0  0  0  0  0  0  0  0  0  0  0  # atno 17320 bound_to 7965
  144.7704  139.6748  143.7197 LP  0  0  0  0  0  0  0  0  0  0  0  0  # atno 17321 bound_to 7965
  140.7220  143.2598  151.4246 LP  0  0  0  0  0  0  0  0  0  0  0  0  # atno 17342 bound_to 10162
  139.5958  144.1400  152.2142 LP  0  0  0  0  0  0  0  0  0  0  0  0  # atno 17343 bound_to 10162
  156.5361  130.8279  151.3253 LP  0  0  0  0  0  0  0  0  0  0  0  0  # atno 17370 bound_to 10713
  157.7396  130.9835  150.2326 LP  0  0  0  0  0  0  0  0  0  0  0  0  # atno 17371 bound_to 10713
  139.9410  135.0191  156.8708 LP  0  0  0  0  0  0  0  0  0  0  0  0  # atno 17394 bound_to 11000
  140.5919  134.0254  155.7503 LP  0  0  0  0  0  0  0  0  0  0  0  0  # atno 17395 bound_to 11000

$$$$
