AV-unprocessed.smi:3044|AV-procd|sdf|11605|dock4
  -GOLD-   2272016583D 1   1.00000     0.00000
 Structure written by MMmdl.
 41 42  0  0  0  0  0  0  0  0  1 V2000
  144.6678  145.8980  158.3957 C   0  0  0  0  0  0  0  0  0  0  0  0
  144.4829  145.1818  159.7230 C   0  0  0  0  0  0  0  0  0  0  0  0
  143.2022  145.0337  160.1294 N   0  0  0  0  0  0  0  0  0  0  0  0
  142.9731  144.4026  161.2999 C   0  0  0  0  0  0  0  0  0  0  0  0
  144.0002  143.8855  162.1115 C   0  0  0  0  0  0  0  0  0  0  0  0
  145.3333  144.0410  161.6875 C   0  0  0  0  0  0  0  0  0  0  0  0
  145.5928  144.7157  160.4701 C   0  0  0  0  0  0  0  0  0  0  0  0
  146.9005  144.9073  159.9460 N   0  0  0  0  0  0  0  0  0  0  0  0
  148.0888  144.6022  160.5004 C   0  0  0  0  0  0  0  0  0  0  0  0
  148.2311  144.0484  161.5896 O   0  0  0  0  0  0  0  0  0  0  0  0
  149.3291  144.9906  159.6925 C   0  0  0  0  0  0  0  0  0  0  0  0
  150.4806  144.4034  160.2859 O   0  0  0  0  0  0  0  0  0  0  0  0
  151.7036  144.6529  159.6062 C   0  0  2  0  0  0  0  0  0  0  0  0
  151.5994  144.2709  158.1154 C   0  0  0  0  0  0  0  0  0  0  0  0
  151.3767  142.7611  157.9313 C   0  0  0  0  0  0  0  0  0  0  0  0
  152.4732  141.9449  158.6337 C   0  0  0  0  0  0  0  0  0  0  0  0
  152.5772  142.3045  160.1281 C   0  0  1  0  0  0  0  0  0  0  0  0
  153.6788  141.4946  160.8261 C   0  0  0  0  0  0  0  0  0  0  0  0
  152.7956  143.8217  160.3046 C   0  0  0  0  0  0  0  0  0  0  0  0
  145.2782  146.7920  158.5278 H   0  0  0  0  0  0  0  0  0  0  0  0
  143.7122  146.2037  157.9678 H   0  0  0  0  0  0  0  0  0  0  0  0
  145.1649  145.2451  157.6778 H   0  0  0  0  0  0  0  0  0  0  0  0
  141.9395  144.3001  161.5951 H   0  0  0  0  0  0  0  0  0  0  0  0
  143.7701  143.3766  163.0356 H   0  0  0  0  0  0  0  0  0  0  0  0
  146.1256  143.6292  162.2930 H   0  0  0  0  0  0  0  0  0  0  0  0
  146.9482  145.4291  159.0826 H   0  0  0  0  0  0  0  0  0  0  0  0
  149.2036  144.6539  158.6633 H   0  0  0  0  0  0  0  0  0  0  0  0
  149.4192  146.0777  159.6822 H   0  0  0  0  0  0  0  0  0  0  0  0
  151.9641  145.7086  159.7005 H   0  0  0  0  0  0  0  0  0  0  0  0
  150.8032  144.8283  157.6229 H   0  0  0  0  0  0  0  0  0  0  0  0
  152.5218  144.5589  157.6094 H   0  0  0  0  0  0  0  0  0  0  0  0
  150.4003  142.4827  158.3302 H   0  0  0  0  0  0  0  0  0  0  0  0
  151.3565  142.5169  156.8689 H   0  0  0  0  0  0  0  0  0  0  0  0
  152.2654  140.8805  158.5195 H   0  0  0  0  0  0  0  0  0  0  0  0
  153.4307  142.1264  158.1433 H   0  0  0  0  0  0  0  0  0  0  0  0
  151.6310  142.0402  160.6030 H   0  0  0  0  0  0  0  0  0  0  0  0
  154.6595  141.7112  160.4017 H   0  0  0  0  0  0  0  0  0  0  0  0
  153.5015  140.4233  160.7262 H   0  0  0  0  0  0  0  0  0  0  0  0
  153.7186  141.7236  161.8912 H   0  0  0  0  0  0  0  0  0  0  0  0
  153.7695  144.0978  159.8981 H   0  0  0  0  0  0  0  0  0  0  0  0
  152.8250  144.0745  161.3651 H   0  0  0  0  0  0  0  0  0  0  0  0
  1  2  1  0  0  0  0
  1 20  1  0  0  0  0
  1 21  1  0  0  0  0
  1 22  1  0  0  0  0
  2  7  1  0  0  0  0
  2  3  2  0  0  0  0
  3  4  1  0  0  0  0
  4  5  2  0  0  0  0
  4 23  1  0  0  0  0
  5  6  1  0  0  0  0
  5 24  1  0  0  0  0
  6  7  2  0  0  0  0
  6 25  1  0  0  0  0
  7  8  1  0  0  0  0
  8  9  1  0  0  0  0
  8 26  1  0  0  0  0
  9 10  2  0  0  0  0
  9 11  1  0  0  0  0
 11 12  1  0  0  0  0
 11 27  1  0  0  0  0
 11 28  1  0  0  0  0
 12 13  1  0  0  0  0
 13 19  1  0  0  0  0
 13 14  1  0  0  0  0
 13 29  1  0  0  0  0
 14 15  1  0  0  0  0
 14 30  1  0  0  0  0
 14 31  1  0  0  0  0
 15 16  1  0  0  0  0
 15 32  1  0  0  0  0
 15 33  1  0  0  0  0
 16 17  1  0  0  0  0
 16 34  1  0  0  0  0
 16 35  1  0  0  0  0
 17 18  1  0  0  0  0
 17 19  1  0  0  0  0
 17 36  1  0  0  0  0
 18 37  1  0  0  0  0
 18 38  1  0  0  0  0
 18 39  1  0  0  0  0
 19 40  1  0  0  0  0
 19 41  1  0  0  0  0
M  END
> <s_m_source_file>
AV-unprocessed.smi

> <i_m_source_file_index>
3044

> <i_lp_mmshare_version>
43012

> <i_f3d_flags>
0

> <s_epik_input>
W0NIM11jMW5bY0hdW2NIXVtjSF1jMVtOSF1DKD1PKVtDSDJdT1tDQEBIXTJbQ0gyXVtDSDJdW0NIMl1bQ0BASF0oW0NIM10pW0NIMl0y

> <s_epik_cmdline>
J2VwaWtfcHl0aG9uJywgJy1waCcsICc3LjAnLCAnLXRuJywgJzgnLCAnLW1hJywgJzIwMCcsICctbWV0YWxfYmluZGluZycsICctaW1hZScsICc8aW5maWxlLm1hZT4nLCAnLW9tYWUnLCAnPG91dGZpbGUubWFlPic=

> <r_epik_Ionization_Penalty>
0.0077122

> <r_epik_Ionization_Penalty_Charging>
0

> <r_epik_Ionization_Penalty_Neutral>
0.0077122

> <r_epik_State_Penalty>
0.00577497

> <r_epik_Charging_Adjusted_Penalty>
0.00577497

> <i_epik_Tot_Q>
0

> <i_epik_Tot_abs_Q>
0

> <r_epik_Metal_State_Penalty>
-0

> <b_epik_Metal_Only>
0

> <s_lp_Force_Field>
OPLS_2005

> <r_lp_Energy>
17.2241

> <b_lp_Chiralities_Consistent>
1

> <s_lp_Variant>
AV-unprocessed.smi:3044-1

> <Gold.Version>
5.8.1

> <Gold.Id.Protein>
6NUR|6NUR_protein|mol2

> <Gold.PLP.Fitness>
46.5461

> <Gold.PLP.PLP>
-41.5090

> <Gold.PLP.part.hbond>
-1.9944

> <Gold.PLP.part.metal>
0.0000

> <Gold.PLP.part.buried>
-5.7449

> <Gold.PLP.part.nonpolar>
-33.9805

> <Gold.PLP.part.repulsive>
0.4829

> <Gold.PLP.ligand.clash>
0.0000

> <Gold.PLP.ligand.torsion>
0.1230

> <Gold.PLP.Chemscore.Hbond>
1.7568

> <Gold.PLP.Chemscore.CHOScore>
0.0000

> <Gold.PLP.Chemscore.Metal>
0.0000

> <Gold.Chemscore.Hbonds>
donor molecule, donor type, donor heavy atom, donor atom, acceptor molecule, acceptor atom, score
      L1  H     8    26       P1  8029  0.88
      P1  H  6933  6944       L1    10  0.91

> <Gold.PLP.Chemscore.Internal.Correction>
0.0129

> <Gold.Rescore>
     Score         DG    S(hbond)    S(metal)    S(lipo)     H(rot)  DE(clash)    DE(int)     intcor
     20.07     -22.15       1.90        0.00     116.88       1.31       0.76       1.32       ----

> <Gold.Chemscore.Fitness>
20.0667

> <Gold.Chemscore.DG>
-22.1488

> <Gold.Chemscore.ZeroCoef>
-5.4800

> <Gold.Chemscore.Hbond>
1.8975

> <Gold.Chemscore.Metal>
0.0000

> <Gold.Chemscore.Lipo>
116.8833

> <Gold.Chemscore.Internal_Hbond>
0.0000

> <Gold.Chemscore.DEClash>
0.7579

> <Gold.Chemscore.DEInternal>
1.3242

> <Gold.Chemscore.Rot>
1.3064

> <Gold.Chemscore.Internal.Correction>
   9.000000E+99

> <Gold.Chemscore.Hbonds>
donor molecule, donor type, donor heavy atom, donor atom, acceptor molecule, acceptor atom, score
      L1  H     8    26       P1  8029  0.83
      P1  H  6933  6944       L1    10  0.79

> <Gold.Chemscore.Hbond.Weighted>
-6.3378

> <Gold.Chemscore.Metal.Weighted>
-0.0000

> <Gold.Chemscore.Lipo.Weighted>
-13.6753

> <Gold.Chemscore.Internal_Hbond.Weighted>
0.0000

> <Gold.Chemscore.DEClash.Weighted>
0.7579

> <Gold.Chemscore.DEInternal.Weighted>
1.3242

> <Gold.Chemscore.Rot.Weighted>
3.3443

> <Gold.Chemscore.Internal.Correction.Weighted>
   9.000000E+99

> <Gold.Protein.RotatedTorsions>
[ 6907 6896 6895 6894 ] final   88.75 input  -60.11 | X-H torsion
[ 7974 7965 7964 7962 ] final  156.81 input  175.53 | X-H torsion
[ 8008 7997 7996 7995 ] final    6.55 input   59.86 | X-H torsion
[ 10167 10162 10161 10158 ] final    0.15 input  -65.29 | X-H torsion
[ 10718 10713 10712 10709 ] final   -6.64 input   66.30 | X-H torsion
[ 10763 10752 10751 10750 ] final  -75.88 input  -60.55 | X-H torsion
[ 11005 11000 10999 10996 ] final    3.43 input  -57.11 | X-H torsion

> <Gold.Protein.ActiveResidues>
 VAL166  LYS551  ARG553  GLY616  TRP617  ASP618  TYR619  PRO620  LYS621  CYS622 
 ASP623  PHE694  ASN695  SER759  ASP760  ASP761  ALA762  ILE779  LEU786  VAL792 
 PHE793  MET794  SER795  GLU796  ALA797  LYS798  CYS799  TRP800  GLU811  SER814 

> <Gold.Protein.RotatedAtoms>
  152.5429  134.2073  159.8735 H   0  0  0  0  0  0  0  0  0  0  0  0  # atno 6907 bound_to 6896
  151.2058  133.4577  159.2604 H   0  0  0  0  0  0  0  0  0  0  0  0  # atno 6908 bound_to 6896
  151.0945  134.9948  159.8474 H   0  0  0  0  0  0  0  0  0  0  0  0  # atno 6909 bound_to 6896
  144.7941  139.7254  143.6209 H   0  0  0  0  0  0  0  0  0  0  0  0  # atno 7974 bound_to 7965
  154.7424  140.2751  155.6361 H   0  0  0  0  0  0  0  0  0  0  0  0  # atno 8008 bound_to 7997
  156.2877  140.2694  156.2081 H   0  0  0  0  0  0  0  0  0  0  0  0  # atno 8009 bound_to 7997
  155.0241  140.0371  157.2438 H   0  0  0  0  0  0  0  0  0  0  0  0  # atno 8010 bound_to 7997
  140.6742  143.6964  150.7986 H   0  0  0  0  0  0  0  0  0  0  0  0  # atno 10167 bound_to 10162
  156.7289  130.5174  149.5850 H   0  0  0  0  0  0  0  0  0  0  0  0  # atno 10718 bound_to 10713
  154.4924  135.5816  153.6469 H   0  0  0  0  0  0  0  0  0  0  0  0  # atno 10763 bound_to 10752
  152.9864  135.6116  154.3108 H   0  0  0  0  0  0  0  0  0  0  0  0  # atno 10764 bound_to 10752
  154.3009  135.2847  155.2591 H   0  0  0  0  0  0  0  0  0  0  0  0  # atno 10765 bound_to 10752
  140.5932  133.9904  155.8098 H   0  0  0  0  0  0  0  0  0  0  0  0  # atno 11005 bound_to 11000
  146.2203  139.5623  142.9623 LP  0  0  0  0  0  0  0  0  0  0  0  0  # atno 17320 bound_to 7965
  145.5719  141.0393  143.2169 LP  0  0  0  0  0  0  0  0  0  0  0  0  # atno 17321 bound_to 7965
  140.0655  143.5113  152.2606 LP  0  0  0  0  0  0  0  0  0  0  0  0  # atno 17342 bound_to 10162
  139.6025  144.7587  151.3139 LP  0  0  0  0  0  0  0  0  0  0  0  0  # atno 17343 bound_to 10162
  156.1543  130.6331  151.0636 LP  0  0  0  0  0  0  0  0  0  0  0  0  # atno 17370 bound_to 10713
  157.6867  131.0822  150.7223 LP  0  0  0  0  0  0  0  0  0  0  0  0  # atno 17371 bound_to 10713
  141.0921  133.9901  157.3220 LP  0  0  0  0  0  0  0  0  0  0  0  0  # atno 17394 bound_to 11000
  139.9265  135.0201  156.8251 LP  0  0  0  0  0  0  0  0  0  0  0  0  # atno 17395 bound_to 11000

$$$$
