AV-unprocessed.smi:1|AV-procd|sdf|10|dock4
  -GOLD-   2262015103D 1   1.00000     0.00000
 Structure written by MMmdl.
 57 62  0  0  0  0  0  0  0  0  1 V2000
  149.9960  142.2145  156.2828 O   0  0  0  0  0  0  0  0  0  0  0  0
  150.4779  141.7484  157.3188 C   0  0  0  0  0  0  0  0  0  0  0  0
  150.5717  140.4212  157.7152 N   0  0  0  0  0  0  0  0  0  0  0  0
  149.6043  139.5941  157.4583 C   0  0  0  0  0  0  0  0  0  0  0  0
  148.3659  139.7520  156.8231 N   0  0  0  0  0  0  0  0  0  0  0  0
  147.4127  138.7431  156.6157 C   0  0  0  0  0  0  0  0  0  0  0  0
  147.5504  137.4979  156.9859 N   0  0  0  0  0  0  0  0  0  0  0  0
  148.7722  137.2835  157.6080 C   0  0  0  0  0  0  0  0  0  0  0  0
  149.7787  138.1862  157.8730 C   0  0  0  0  0  0  0  0  0  0  0  0
  150.8515  137.5597  158.4940 N   0  0  0  0  0  0  0  0  0  0  0  0
  150.4451  136.2958  158.5701 C   0  0  0  0  0  0  0  0  0  0  0  0
  149.2152  136.0472  158.0696 N   0  0  0  0  0  0  0  0  0  0  0  0
  148.4493  134.7546  157.9957 C   0  0  1  0  0  0  0  0  0  0  0  0
  148.2004  134.5043  156.6434 O   0  0  0  0  0  0  0  0  0  0  0  0
  149.0792  133.5000  156.1369 C   0  0  1  0  0  0  0  0  0  0  0  0
  149.7369  133.9060  154.8079 C   0  0  0  0  0  0  0  0  0  0  0  0
  148.8952  133.6525  153.6895 O   0  0  0  0  0  0  0  0  0  0  0  0
  148.5296  132.3893  153.3729 C   0  0  0  0  0  0  0  0  0  0  0  0
  148.9645  131.3862  153.9415 O   0  0  0  0  0  0  0  0  0  0  0  0
  147.5355  132.3316  152.2639 C   0  0  0  0  0  0  0  0  0  0  0  0
  147.2709  133.4994  151.5111 C   0  0  0  0  0  0  0  0  0  0  0  0
  146.3486  133.4734  150.4475 C   0  0  0  0  0  0  0  0  0  0  0  0
  145.6830  132.2775  150.1212 C   0  0  0  0  0  0  0  0  0  0  0  0
  145.9373  131.1094  150.8628 C   0  0  0  0  0  0  0  0  0  0  0  0
  146.8551  131.1349  151.9308 C   0  0  0  0  0  0  0  0  0  0  0  0
  150.0431  133.1221  157.2697 C   0  0  2  0  0  0  0  0  0  0  0  0
  150.2394  131.7196  157.3593 O   0  0  0  0  0  0  0  0  0  0  0  0
  149.0775  131.0803  158.3802 S   0  0  0  0  0  0  0  0  0  0  0  0
  148.0826  130.3671  157.5647 O   0  0  0  0  0  0  0  0  0  0  0  0
  149.7637  130.4542  159.5205 O   0  0  0  0  0  0  0  0  0  0  0  0
  148.3986  132.5152  158.8993 O   0  0  0  0  0  0  0  0  0  0  0  0
  149.2641  133.5659  158.5124 C   0  0  2  0  0  0  0  0  0  0  0  0
  151.0749  142.7001  158.3031 C   0  0  0  0  0  0  0  0  0  0  0  0
  151.0629  144.0869  158.0431 C   0  0  0  0  0  0  0  0  0  0  0  0
  151.6166  144.9848  158.9767 C   0  0  0  0  0  0  0  0  0  0  0  0
  152.1790  144.4999  160.1736 C   0  0  0  0  0  0  0  0  0  0  0  0
  152.1904  143.1162  160.4365 C   0  0  0  0  0  0  0  0  0  0  0  0
  151.6398  142.2170  159.5024 C   0  0  0  0  0  0  0  0  0  0  0  0
  146.5112  139.0834  156.1046 H   0  0  0  0  0  0  0  0  0  0  0  0
  151.0799  135.5381  159.0025 H   0  0  0  0  0  0  0  0  0  0  0  0
  147.5371  134.9503  158.5603 H   0  0  0  0  0  0  0  0  0  0  0  0
  148.4379  132.6420  155.9331 H   0  0  0  0  0  0  0  0  0  0  0  0
  149.9474  134.9753  154.8287 H   0  0  0  0  0  0  0  0  0  0  0  0
  150.7041  133.4134  154.6985 H   0  0  0  0  0  0  0  0  0  0  0  0
  147.7774  134.4266  151.7370 H   0  0  0  0  0  0  0  0  0  0  0  0
  146.1586  134.3700  149.8761 H   0  0  0  0  0  0  0  0  0  0  0  0
  144.9801  132.2552  149.3014 H   0  0  0  0  0  0  0  0  0  0  0  0
  145.4292  130.1901  150.6107 H   0  0  0  0  0  0  0  0  0  0  0  0
  147.0331  130.2191  152.4748 H   0  0  0  0  0  0  0  0  0  0  0  0
  150.9918  133.6534  157.1903 H   0  0  0  0  0  0  0  0  0  0  0  0
  149.8880  133.8208  159.3687 H   0  0  0  0  0  0  0  0  0  0  0  0
  150.6297  144.4667  157.1289 H   0  0  0  0  0  0  0  0  0  0  0  0
  151.6081  146.0458  158.7754 H   0  0  0  0  0  0  0  0  0  0  0  0
  152.6015  145.1894  160.8895 H   0  0  0  0  0  0  0  0  0  0  0  0
  152.6212  142.7445  161.3545 H   0  0  0  0  0  0  0  0  0  0  0  0
  151.6518  141.1573  159.7115 H   0  0  0  0  0  0  0  0  0  0  0  0
  148.1385  140.6763  156.4864 H   0  0  0  0  0  0  0  0  0  0  0  0
  1  2  2  0  0  0  0
  2  3  1  0  0  0  0
  2 33  1  0  0  0  0
  3  4  2  0  0  0  0
  4  9  1  0  0  0  0
  4  5  1  0  0  0  0
  5  6  1  0  0  0  0
  5 57  1  0  0  0  0
  6  7  2  0  0  0  0
  6 39  1  0  0  0  0
  7  8  1  0  0  0  0
  8 12  1  0  0  0  0
  8  9  2  0  0  0  0
  9 10  1  0  0  0  0
 10 11  2  0  0  0  0
 11 12  1  0  0  0  0
 11 40  1  0  0  0  0
 12 13  1  0  0  0  0
 13 32  1  0  0  0  0
 13 14  1  0  0  0  0
 13 41  1  0  0  0  0
 14 15  1  0  0  0  0
 15 16  1  0  0  0  0
 15 26  1  0  0  0  0
 15 42  1  0  0  0  0
 16 17  1  0  0  0  0
 16 43  1  0  0  0  0
 16 44  1  0  0  0  0
 17 18  1  0  0  0  0
 18 19  2  0  0  0  0
 18 20  1  0  0  0  0
 20 25  1  0  0  0  0
 20 21  2  0  0  0  0
 21 22  1  0  0  0  0
 21 45  1  0  0  0  0
 22 23  2  0  0  0  0
 22 46  1  0  0  0  0
 23 24  1  0  0  0  0
 23 47  1  0  0  0  0
 24 25  2  0  0  0  0
 24 48  1  0  0  0  0
 25 49  1  0  0  0  0
 26 32  1  0  0  0  0
 26 27  1  0  0  0  0
 26 50  1  0  0  0  0
 27 28  1  0  0  0  0
 28 29  2  0  0  0  0
 28 30  2  0  0  0  0
 28 31  1  0  0  0  0
 31 32  1  0  0  0  0
 32 51  1  0  0  0  0
 33 38  1  0  0  0  0
 33 34  2  0  0  0  0
 34 35  1  0  0  0  0
 34 52  1  0  0  0  0
 35 36  2  0  0  0  0
 35 53  1  0  0  0  0
 36 37  1  0  0  0  0
 36 54  1  0  0  0  0
 37 38  2  0  0  0  0
 37 55  1  0  0  0  0
 38 56  1  0  0  0  0
M  END
> <s_m_source_file>
AV-unprocessed.smi

> <i_m_source_file_index>
1

> <i_lp_mmshare_version>
43012

> <i_f3d_flags>
0

> <s_epik_input>
W2NIXTFbY0hdW2NIXVtjSF1bY0hdYzFDKD1PKVtOSF1jKG5bY0hdbjIpYyhjMjMpbltjSF1uM1tDQEBIXShbQ0BIXShbQ0BIXTQ1KU9TKE81KSg9Tyk9TylPW0NASF00W0NIMl1PQyg9TyljNltjSF1bY0hdW2NIXVtjSF1bY0hdNg==

> <s_epik_cmdline>
J2VwaWtfcHl0aG9uJywgJy1waCcsICc3LjAnLCAnLXRuJywgJzgnLCAnLW1hJywgJzIwMCcsICctbWV0YWxfYmluZGluZycsICctaW1hZScsICc8aW5maWxlLm1hZT4nLCAnLW9tYWUnLCAnPG91dGZpbGUubWFlPic=

> <r_epik_Ionization_Penalty>
0.122545

> <r_epik_Ionization_Penalty_Charging>
0.122545

> <r_epik_Ionization_Penalty_Neutral>
7.8935e-16

> <r_epik_State_Penalty>
2.69178

> <r_epik_Charging_Adjusted_Penalty>
2.81433

> <i_epik_Tot_Q>
0

> <i_epik_Tot_abs_Q>
0

> <r_epik_Metal_State_Penalty>
3.02665

> <b_epik_Metal_Only>
0

> <s_epik_Chemistry_Notes>
This compound has an ester and may undergo hydrolysis at high or low pH. This compound contains an acetal/aminal-like group ( X-CH(R)-Y where X, Y are N, S, or O) that may be acid/base labile, releasing an aldehyde.

> <s_lp_Force_Field>
OPLS_2005

> <r_lp_Energy>
55.0636

> <b_lp_Chiralities_Consistent>
1

> <s_lp_Variant>
AV-unprocessed.smi:1-10

> <Gold.Version>
5.8.1

> <Gold.Id.Protein>
6NUR|6NUR_protein|mol2

> <Gold.PLP.Fitness>
46.5328

> <Gold.PLP.PLP>
-47.5725

> <Gold.PLP.part.hbond>
0.0000

> <Gold.PLP.part.metal>
0.0000

> <Gold.PLP.part.buried>
-6.3528

> <Gold.PLP.part.nonpolar>
-41.8171

> <Gold.PLP.part.repulsive>
0.3732

> <Gold.PLP.ligand.clash>
0.0000

> <Gold.PLP.ligand.torsion>
0.6586

> <Gold.PLP.Chemscore.Hbond>
0.0000

> <Gold.PLP.Chemscore.CHOScore>
0.0000

> <Gold.PLP.Chemscore.Metal>
0.0000

> <Gold.PLP.Chemscore.Internal.Correction>
0.2775

> <Gold.Rescore>
     Score         DG    S(hbond)    S(metal)    S(lipo)     H(rot)  DE(clash)    DE(int)     intcor
     13.48     -15.70       0.00        0.00     134.00       2.13       0.17       2.05       ----

> <Gold.Chemscore.Fitness>
13.4763

> <Gold.Chemscore.DG>
-15.6963

> <Gold.Chemscore.ZeroCoef>
-5.4800

> <Gold.Chemscore.Hbond>
0.0000

> <Gold.Chemscore.Metal>
0.0000

> <Gold.Chemscore.Lipo>
133.9972

> <Gold.Chemscore.Internal_Hbond>
0.0000

> <Gold.Chemscore.DEClash>
0.1712

> <Gold.Chemscore.DEInternal>
2.0488

> <Gold.Chemscore.Rot>
2.1333

> <Gold.Chemscore.Internal.Correction>
   9.000000E+99

> <Gold.Chemscore.Hbond.Weighted>
-0.0000

> <Gold.Chemscore.Metal.Weighted>
-0.0000

> <Gold.Chemscore.Lipo.Weighted>
-15.6777

> <Gold.Chemscore.Internal_Hbond.Weighted>
0.0000

> <Gold.Chemscore.DEClash.Weighted>
0.1712

> <Gold.Chemscore.DEInternal.Weighted>
2.0488

> <Gold.Chemscore.Rot.Weighted>
5.4614

> <Gold.Chemscore.Internal.Correction.Weighted>
   9.000000E+99

> <Gold.Protein.RotatedTorsions>
[ 6907 6896 6895 6894 ] final   64.38 input  -60.11 | X-H torsion
[ 7974 7965 7964 7962 ] final  130.15 input  175.53 | X-H torsion
[ 8008 7997 7996 7995 ] final   26.10 input   59.86 | X-H torsion
[ 10167 10162 10161 10158 ] final   82.23 input  -65.29 | X-H torsion
[ 10718 10713 10712 10709 ] final -115.87 input   66.30 | X-H torsion
[ 10763 10752 10751 10750 ] final  -28.76 input  -60.55 | X-H torsion
[ 11005 11000 10999 10996 ] final   60.28 input  -57.11 | X-H torsion

> <Gold.Protein.ActiveResidues>
 VAL166  LYS551  ARG553  GLY616  TRP617  ASP618  TYR619  PRO620  LYS621  CYS622 
 ASP623  PHE694  ASN695  SER759  ASP760  ASP761  ALA762  ILE779  LEU786  VAL792 
 PHE793  MET794  SER795  GLU796  ALA797  LYS798  CYS799  TRP800  GLU811  SER814 

> <Gold.Protein.RotatedAtoms>
  152.4327  134.5747  159.9930 H   0  0  0  0  0  0  0  0  0  0  0  0  # atno 6907 bound_to 6896
  151.5865  133.3366  159.3027 H   0  0  0  0  0  0  0  0  0  0  0  0  # atno 6908 bound_to 6896
  150.8221  134.7470  159.6846 H   0  0  0  0  0  0  0  0  0  0  0  0  # atno 6909 bound_to 6896
  145.0209  139.4132  143.5198 H   0  0  0  0  0  0  0  0  0  0  0  0  # atno 7974 bound_to 7965
  155.0220  140.3149  155.4790 H   0  0  0  0  0  0  0  0  0  0  0  0  # atno 8008 bound_to 7997
  156.2890  140.2195  156.5281 H   0  0  0  0  0  0  0  0  0  0  0  0  # atno 8009 bound_to 7997
  154.7443  140.0471  157.0826 H   0  0  0  0  0  0  0  0  0  0  0  0  # atno 8010 bound_to 7997
  139.9310  144.6152  150.8345 H   0  0  0  0  0  0  0  0  0  0  0  0  # atno 10167 bound_to 10162
  156.0925  130.6104  150.8962 H   0  0  0  0  0  0  0  0  0  0  0  0  # atno 10718 bound_to 10713
  153.7535  135.6924  153.4940 H   0  0  0  0  0  0  0  0  0  0  0  0  # atno 10763 bound_to 10752
  153.1987  135.4444  155.0238 H   0  0  0  0  0  0  0  0  0  0  0  0  # atno 10764 bound_to 10752
  154.8179  135.3407  154.7055 H   0  0  0  0  0  0  0  0  0  0  0  0  # atno 10765 bound_to 10752
  140.0243  134.6106  155.9595 H   0  0  0  0  0  0  0  0  0  0  0  0  # atno 11005 bound_to 11000
  146.3485  139.9707  142.8706 LP  0  0  0  0  0  0  0  0  0  0  0  0  # atno 17320 bound_to 7965
  145.1896  140.9805  143.4218 LP  0  0  0  0  0  0  0  0  0  0  0  0  # atno 17321 bound_to 7965
  140.7637  143.3231  151.2578 LP  0  0  0  0  0  0  0  0  0  0  0  0  # atno 17342 bound_to 10162
  139.6783  143.9900  152.2793 LP  0  0  0  0  0  0  0  0  0  0  0  0  # atno 17343 bound_to 10162
  157.6077  131.0938  150.8850 LP  0  0  0  0  0  0  0  0  0  0  0  0  # atno 17370 bound_to 10713
  156.8995  130.5241  149.5283 LP  0  0  0  0  0  0  0  0  0  0  0  0  # atno 17371 bound_to 10713
  141.1793  133.6544  156.4955 LP  0  0  0  0  0  0  0  0  0  0  0  0  # atno 17394 bound_to 11000
  140.4333  134.7082  157.4953 LP  0  0  0  0  0  0  0  0  0  0  0  0  # atno 17395 bound_to 11000

$$$$
