AV-unprocessed.smi:3116|AV-procd|sdf|11866|dock10
  -GOLD-   2272017253D 1   1.00000     0.00000
 Structure written by MMmdl.
 34 34  0  0  0  0  0  0  0  0  2 V2000
  148.9308  141.6725  154.2942 C   0  0  0  0  0  0  0  0  0  0  0  0
  149.4998  141.2448  155.6581 C   0  0  2  0  0  0  0  0  0  0  0  0
  150.3331  142.3214  156.2421 N   0  3  0  0  0  0  0  0  0  0  0  0
  150.6877  142.1667  157.6735 C   0  0  2  0  0  0  0  0  0  0  0  0
  149.4306  142.4413  158.5155 C   0  0  0  0  0  0  0  0  0  0  0  0
  151.8717  143.1022  158.0449 C   0  0  1  0  0  0  0  0  0  0  0  0
  151.5094  144.5991  157.9777 C   0  0  0  0  0  0  0  0  0  0  0  0
  152.4180  142.7812  159.3589 N   0  0  0  0  0  0  0  0  0  0  0  0
  152.4720  143.5851  160.4793 C   0  0  0  0  0  0  0  0  0  0  0  0
  153.0924  142.8724  161.4649 C   0  0  0  0  0  0  0  0  0  0  0  0
  153.3833  141.6242  160.8481 C   0  0  0  0  0  0  0  0  0  0  0  0
  152.9845  141.5744  159.5875 N   0  0  0  0  0  0  0  0  0  0  0  0
  150.3167  139.9550  155.5175 C   0  0  0  0  0  0  0  0  0  0  0  0
  149.8888  138.8872  156.1962 N   0  0  0  0  0  0  0  0  0  0  0  0
  151.3159  139.9161  154.8017 O   0  0  0  0  0  0  0  0  0  0  0  0
  148.3136  140.8860  153.8584 H   0  0  0  0  0  0  0  0  0  0  0  0
  149.7258  141.9035  153.5838 H   0  0  0  0  0  0  0  0  0  0  0  0
  148.3029  142.5590  154.3856 H   0  0  0  0  0  0  0  0  0  0  0  0
  148.6731  141.0326  156.3363 H   0  0  0  0  0  0  0  0  0  0  0  0
  151.1955  142.3648  155.7183 H   0  0  0  0  0  0  0  0  0  0  0  0
  150.9832  141.1335  157.8627 H   0  0  0  0  0  0  0  0  0  0  0  0
  149.5976  142.2347  159.5722 H   0  0  0  0  0  0  0  0  0  0  0  0
  148.6024  141.8072  158.1973 H   0  0  0  0  0  0  0  0  0  0  0  0
  149.1079  143.4788  158.4224 H   0  0  0  0  0  0  0  0  0  0  0  0
  152.6730  142.9331  157.3237 H   0  0  0  0  0  0  0  0  0  0  0  0
  151.2842  144.9144  156.9592 H   0  0  0  0  0  0  0  0  0  0  0  0
  152.3389  145.2171  158.3235 H   0  0  0  0  0  0  0  0  0  0  0  0
  150.6432  144.8315  158.5980 H   0  0  0  0  0  0  0  0  0  0  0  0
  152.0713  144.5882  160.4831 H   0  0  0  0  0  0  0  0  0  0  0  0
  153.3040  143.1929  162.4744 H   0  0  0  0  0  0  0  0  0  0  0  0
  153.8719  140.7605  161.2747 H   0  0  0  0  0  0  0  0  0  0  0  0
  150.3929  138.0136  156.1415 H   0  0  0  0  0  0  0  0  0  0  0  0
  149.0595  138.9582  156.7687 H   0  0  0  0  0  0  0  0  0  0  0  0
  149.8455  143.1965  156.1142 H   0  0  0  0  0  0  0  0  0  0  0  0
  1  2  1  0  0  0  0
  1 16  1  0  0  0  0
  1 17  1  0  0  0  0
  1 18  1  0  0  0  0
  2  3  1  0  0  0  0
  2 13  1  0  0  0  0
  2 19  1  0  0  0  0
  3  4  1  0  0  0  0
  3 20  1  0  0  0  0
  3 34  1  0  0  0  0
  4  5  1  0  0  0  0
  4  6  1  0  0  0  0
  4 21  1  0  0  0  0
  5 22  1  0  0  0  0
  5 23  1  0  0  0  0
  5 24  1  0  0  0  0
  6  7  1  0  0  0  0
  6  8  1  0  0  0  0
  6 25  1  0  0  0  0
  7 26  1  0  0  0  0
  7 27  1  0  0  0  0
  7 28  1  0  0  0  0
  8 12  1  0  0  0  0
  8  9  1  0  0  0  0
  9 10  2  0  0  0  0
  9 29  1  0  0  0  0
 10 11  1  0  0  0  0
 10 30  1  0  0  0  0
 11 12  2  0  0  0  0
 11 31  1  0  0  0  0
 13 14  1  0  0  0  0
 13 15  2  0  0  0  0
 14 32  1  0  0  0  0
 14 33  1  0  0  0  0
M  CHG  1   3   1
M  END
> <s_m_source_file>
AV-unprocessed.smi

> <i_m_source_file_index>
3116

> <i_lp_mmshare_version>
43012

> <i_f3d_flags>
0

> <s_epik_input>
W05IMl1DKD1PKVtDQEhdKFtDSDNdKVtOSF1bQ0BIXShbQ0gzXSlbQ0BIXShbQ0gzXSluMVtjSF1bY0hdW2NIXW4x

> <s_epik_cmdline>
J2VwaWtfcHl0aG9uJywgJy1waCcsICc3LjAnLCAnLXRuJywgJzgnLCAnLW1hJywgJzIwMCcsICctbWV0YWxfYmluZGluZycsICctaW1hZScsICc8aW5maWxlLm1hZT4nLCAnLW9tYWUnLCAnPG91dGZpbGUubWFlPic=

> <r_lp_tautomer_probability>
1

> <r_epik_Ionization_Penalty>
0.15658

> <r_epik_Ionization_Penalty_Charging>
0.156568

> <r_epik_Ionization_Penalty_Neutral>
1.19778e-05

> <r_epik_State_Penalty>
0.145866

> <r_epik_Charging_Adjusted_Penalty>
0.302434

> <i_epik_Tot_Q>
1

> <i_epik_Tot_abs_Q>
1

> <r_epik_Metal_State_Penalty>
0.146064

> <b_epik_Metal_Only>
0

> <s_lp_Force_Field>
OPLS_2005

> <r_lp_Energy>
9.52806

> <b_lp_Chiralities_Consistent>
1

> <s_lp_Variant>
AV-unprocessed.smi:3116-5

> <Gold.Version>
5.8.1

> <Gold.Id.Protein>
6NUR|6NUR_protein|mol2

> <Gold.PLP.Fitness>
42.7872

> <Gold.PLP.PLP>
-34.3368

> <Gold.PLP.part.hbond>
-1.9381

> <Gold.PLP.part.metal>
0.0000

> <Gold.PLP.part.buried>
-3.6590

> <Gold.PLP.part.nonpolar>
-28.7318

> <Gold.PLP.part.repulsive>
0.1871

> <Gold.PLP.ligand.clash>
0.0000

> <Gold.PLP.ligand.torsion>
0.3429

> <Gold.PLP.Chemscore.Hbond>
3.0000

> <Gold.PLP.Chemscore.CHOScore>
0.0000

> <Gold.PLP.Chemscore.Metal>
0.0000

> <Gold.Chemscore.Hbonds>
donor molecule, donor type, donor heavy atom, donor atom, acceptor molecule, acceptor atom, score
      L1  H     3    34       P1  8028  2.00
      P1  H  7989  7998       L1    15  1.00

> <Gold.PLP.Chemscore.Internal.Correction>
0.1362

> <Gold.Rescore>
     Score         DG    S(hbond)    S(metal)    S(lipo)     H(rot)  DE(clash)    DE(int)     intcor
     15.20     -15.48       2.00        0.00      81.90       2.45       0.00       0.28       ----

> <Gold.Chemscore.Fitness>
15.1992

> <Gold.Chemscore.DG>
-15.4789

> <Gold.Chemscore.ZeroCoef>
-5.4800

> <Gold.Chemscore.Hbond>
2.0000

> <Gold.Chemscore.Metal>
0.0000

> <Gold.Chemscore.Lipo>
81.8985

> <Gold.Chemscore.Internal_Hbond>
0.0000

> <Gold.Chemscore.DEClash>
0.0021

> <Gold.Chemscore.DEInternal>
0.2776

> <Gold.Chemscore.Rot>
2.4465

> <Gold.Chemscore.Internal.Correction>
   9.000000E+99

> <Gold.Chemscore.Hbonds>
donor molecule, donor type, donor heavy atom, donor atom, acceptor molecule, acceptor atom, score
      L1  H     3    34       P1  8028  1.00
      P1  H  7989  7998       L1    15  0.99

> <Gold.Chemscore.Hbond.Weighted>
-6.6799

> <Gold.Chemscore.Metal.Weighted>
-0.0000

> <Gold.Chemscore.Lipo.Weighted>
-9.5821

> <Gold.Chemscore.Internal_Hbond.Weighted>
0.0000

> <Gold.Chemscore.DEClash.Weighted>
0.0021

> <Gold.Chemscore.DEInternal.Weighted>
0.2776

> <Gold.Chemscore.Rot.Weighted>
6.2631

> <Gold.Chemscore.Internal.Correction.Weighted>
   9.000000E+99

> <Gold.Protein.RotatedTorsions>
[ 6907 6896 6895 6894 ] final  110.85 input  -60.11 | X-H torsion
[ 7974 7965 7964 7962 ] final  -53.28 input  175.53 | X-H torsion
[ 8008 7997 7996 7995 ] final  -57.68 input   59.86 | X-H torsion
[ 10167 10162 10161 10158 ] final   41.54 input  -65.29 | X-H torsion
[ 10718 10713 10712 10709 ] final   95.05 input   66.30 | X-H torsion
[ 10763 10752 10751 10750 ] final -160.49 input  -60.55 | X-H torsion
[ 11005 11000 10999 10996 ] final   40.92 input  -57.11 | X-H torsion

> <Gold.Protein.ActiveResidues>
 VAL166  LYS551  ARG553  GLY616  TRP617  ASP618  TYR619  PRO620  LYS621  CYS622 
 ASP623  PHE694  ASN695  SER759  ASP760  ASP761  ALA762  ILE779  LEU786  VAL792 
 PHE793  MET794  SER795  GLU796  ALA797  LYS798  CYS799  TRP800  GLU811  SER814 

> <Gold.Protein.RotatedAtoms>
  152.4999  133.8741  159.7313 H   0  0  0  0  0  0  0  0  0  0  0  0  # atno 6907 bound_to 6896
  150.9220  133.6860  159.2836 H   0  0  0  0  0  0  0  0  0  0  0  0  # atno 6908 bound_to 6896
  151.4233  135.1005  159.9673 H   0  0  0  0  0  0  0  0  0  0  0  0  # atno 6909 bound_to 6896
  145.8985  140.8013  142.9755 H   0  0  0  0  0  0  0  0  0  0  0  0  # atno 7974 bound_to 7965
  154.4278  140.1101  156.5836 H   0  0  0  0  0  0  0  0  0  0  0  0  # atno 8008 bound_to 7997
  155.6086  140.3494  155.4596 H   0  0  0  0  0  0  0  0  0  0  0  0  # atno 8009 bound_to 7997
  156.0117  140.1220  157.0437 H   0  0  0  0  0  0  0  0  0  0  0  0  # atno 8010 bound_to 7997
  140.3633  144.2200  150.6137 H   0  0  0  0  0  0  0  0  0  0  0  0  # atno 10167 bound_to 10162
  157.6942  131.0533  150.4280 H   0  0  0  0  0  0  0  0  0  0  0  0  # atno 10718 bound_to 10713
  154.7386  135.3063  154.8768 H   0  0  0  0  0  0  0  0  0  0  0  0  # atno 10763 bound_to 10752
  153.9590  135.6755  153.4749 H   0  0  0  0  0  0  0  0  0  0  0  0  # atno 10764 bound_to 10752
  153.0986  135.4923  154.8749 H   0  0  0  0  0  0  0  0  0  0  0  0  # atno 10765 bound_to 10752
  140.1884  134.4016  155.8160 H   0  0  0  0  0  0  0  0  0  0  0  0  # atno 11005 bound_to 11000
  144.6734  140.1640  143.7420 LP  0  0  0  0  0  0  0  0  0  0  0  0  # atno 17320 bound_to 7965
  145.8820  139.2328  143.1600 LP  0  0  0  0  0  0  0  0  0  0  0  0  # atno 17321 bound_to 7965
  140.5106  143.2292  151.8542 LP  0  0  0  0  0  0  0  0  0  0  0  0  # atno 17342 bound_to 10162
  139.4811  144.4954  151.9130 LP  0  0  0  0  0  0  0  0  0  0  0  0  # atno 17343 bound_to 10162
  156.4649  130.4040  149.6553 LP  0  0  0  0  0  0  0  0  0  0  0  0  # atno 17370 bound_to 10713
  156.3654  130.7503  151.2480 LP  0  0  0  0  0  0  0  0  0  0  0  0  # atno 17371 bound_to 10713
  141.2225  133.7034  156.8053 LP  0  0  0  0  0  0  0  0  0  0  0  0  # atno 17394 bound_to 11000
  140.2187  134.8773  157.3353 LP  0  0  0  0  0  0  0  0  0  0  0  0  # atno 17395 bound_to 11000

$$$$
