AV-unprocessed.smi:1487|AV-procd|sdf|6009|dock9
  -GOLD-   22720 6103D 1   1.00000     0.00000
 Structure written by MMmdl.
 48 50  0  0  0  0  0  0  0  0  2 V2000
  152.9649  142.9674  160.3819 C   0  0  0  0  0  0  0  0  0  0  0  0
  152.2292  142.3286  159.2173 C   0  0  0  0  0  0  0  0  0  0  0  0
  152.3949  140.9463  158.9755 C   0  0  0  0  0  0  0  0  0  0  0  0
  151.7281  140.3135  157.9039 C   0  0  0  0  0  0  0  0  0  0  0  0
  151.7448  138.9930  157.4896 N   0  0  0  0  0  0  0  0  0  0  0  0
  150.9255  139.0293  156.4432 C   0  0  0  0  0  0  0  0  0  0  0  0
  150.3904  140.2227  156.1201 N   0  0  0  0  0  0  0  0  0  0  0  0
  149.4842  140.5058  155.0211 C   0  0  0  0  0  0  0  0  0  0  0  0
  148.9689  139.2281  154.3280 C   0  0  2  0  0  0  0  0  0  0  0  0
  149.9675  138.8042  153.4217 O   0  0  0  0  0  0  0  0  0  0  0  0
  147.6426  139.4330  153.5608 C   0  0  0  0  0  0  0  0  0  0  0  0
  147.1978  138.2030  152.8576 N   0  3  2  0  0  0  0  0  0  0  0  0
  146.5554  138.4975  151.5513 C   0  0  0  0  0  0  0  0  0  0  0  0
  146.2751  137.2027  150.7728 C   0  0  0  0  0  0  0  0  0  0  0  0
  145.4059  136.2418  151.5957 C   0  0  0  0  0  0  0  0  0  0  0  0
  146.0157  135.9955  152.9860 C   0  0  1  0  0  0  0  0  0  0  0  0
  147.1813  135.2012  152.8822 O   0  0  0  0  0  0  0  0  0  0  0  0
  146.3489  137.3183  153.7031 C   0  0  0  0  0  0  0  0  0  0  0  0
  150.8851  141.1078  157.0726 C   0  0  0  0  0  0  0  0  0  0  0  0
  150.7094  142.4834  157.3056 C   0  0  0  0  0  0  0  0  0  0  0  0
  151.3848  143.1004  158.3794 C   0  0  0  0  0  0  0  0  0  0  0  0
  151.1904  144.5870  158.6205 C   0  0  0  0  0  0  0  0  0  0  0  0
  153.5109  142.2242  160.9639 H   0  0  0  0  0  0  0  0  0  0  0  0
  152.2640  143.4654  161.0522 H   0  0  0  0  0  0  0  0  0  0  0  0
  153.6826  143.7039  160.0202 H   0  0  0  0  0  0  0  0  0  0  0  0
  153.0369  140.3577  159.6147 H   0  0  0  0  0  0  0  0  0  0  0  0
  150.7092  138.1376  155.8728 H   0  0  0  0  0  0  0  0  0  0  0  0
  148.6468  141.0908  155.4052 H   0  0  0  0  0  0  0  0  0  0  0  0
  150.0073  141.1414  154.3054 H   0  0  0  0  0  0  0  0  0  0  0  0
  148.8572  138.4506  155.0818 H   0  0  0  0  0  0  0  0  0  0  0  0
  149.9895  139.3970  152.6863 H   0  0  0  0  0  0  0  0  0  0  0  0
  146.8413  139.7522  154.2283 H   0  0  0  0  0  0  0  0  0  0  0  0
  147.7798  140.2483  152.8487 H   0  0  0  0  0  0  0  0  0  0  0  0
  145.6302  139.0534  151.7132 H   0  0  0  0  0  0  0  0  0  0  0  0
  147.2088  139.1342  150.9535 H   0  0  0  0  0  0  0  0  0  0  0  0
  145.7800  137.4349  149.8292 H   0  0  0  0  0  0  0  0  0  0  0  0
  147.2180  136.7187  150.5142 H   0  0  0  0  0  0  0  0  0  0  0  0
  144.4115  136.6745  151.7136 H   0  0  0  0  0  0  0  0  0  0  0  0
  145.2691  135.2997  151.0629 H   0  0  0  0  0  0  0  0  0  0  0  0
  145.3031  135.4310  153.5885 H   0  0  0  0  0  0  0  0  0  0  0  0
  147.9042  135.7552  152.6283 H   0  0  0  0  0  0  0  0  0  0  0  0
  146.8363  137.1033  154.6539 H   0  0  0  0  0  0  0  0  0  0  0  0
  145.4230  137.8432  153.9453 H   0  0  0  0  0  0  0  0  0  0  0  0
  150.0585  143.0602  156.6657 H   0  0  0  0  0  0  0  0  0  0  0  0
  150.5731  145.0390  157.8435 H   0  0  0  0  0  0  0  0  0  0  0  0
  152.1499  145.1044  158.6268 H   0  0  0  0  0  0  0  0  0  0  0  0
  150.6993  144.7552  159.5793 H   0  0  0  0  0  0  0  0  0  0  0  0
  148.0350  137.6819  152.6396 H   0  0  0  0  0  0  0  0  0  0  0  0
  1  2  1  0  0  0  0
  1 23  1  0  0  0  0
  1 24  1  0  0  0  0
  1 25  1  0  0  0  0
  2 21  1  0  0  0  0
  2  3  2  0  0  0  0
  3  4  1  0  0  0  0
  3 26  1  0  0  0  0
  4 19  2  0  0  0  0
  4  5  1  0  0  0  0
  5  6  2  0  0  0  0
  6  7  1  0  0  0  0
  6 27  1  0  0  0  0
  7  8  1  0  0  0  0
  7 19  1  0  0  0  0
  8  9  1  0  0  0  0
  8 28  1  0  0  0  0
  8 29  1  0  0  0  0
  9 10  1  0  0  0  0
  9 11  1  0  0  0  0
  9 30  1  0  0  0  0
 10 31  1  0  0  0  0
 11 12  1  0  0  0  0
 11 32  1  0  0  0  0
 11 33  1  0  0  0  0
 12 18  1  0  0  0  0
 12 13  1  0  0  0  0
 12 48  1  0  0  0  0
 13 14  1  0  0  0  0
 13 34  1  0  0  0  0
 13 35  1  0  0  0  0
 14 15  1  0  0  0  0
 14 36  1  0  0  0  0
 14 37  1  0  0  0  0
 15 16  1  0  0  0  0
 15 38  1  0  0  0  0
 15 39  1  0  0  0  0
 16 17  1  0  0  0  0
 16 18  1  0  0  0  0
 16 40  1  0  0  0  0
 17 41  1  0  0  0  0
 18 42  1  0  0  0  0
 18 43  1  0  0  0  0
 19 20  1  0  0  0  0
 20 21  2  0  0  0  0
 20 44  1  0  0  0  0
 21 22  1  0  0  0  0
 22 45  1  0  0  0  0
 22 46  1  0  0  0  0
 22 47  1  0  0  0  0
M  CHG  1  12   1
M  END
> <s_m_source_file>
AV-unprocessed.smi

> <i_m_source_file_index>
1487

> <i_lp_mmshare_version>
43012

> <i_f3d_flags>
0

> <s_epik_input>
W0NIM11jKFtjSF0xKWMoW0NIM10pW2NIXWMoYzEyKW4oW2NIXW4yKVtDSDJdW0NASF0oW09IXSlbQ0gyXU4zW0NIMl1bQ0gyXVtDSDJdW0NAQEhdKFtPSF0pW0NIMl0z

> <s_epik_cmdline>
J2VwaWtfcHl0aG9uJywgJy1waCcsICc3LjAnLCAnLXRuJywgJzgnLCAnLW1hJywgJzIwMCcsICctbWV0YWxfYmluZGluZycsICctaW1hZScsICc8aW5maWxlLm1hZT4nLCAnLW9tYWUnLCAnPG91dGZpbGUubWFlPic=

> <r_epik_Ionization_Penalty>
0.0940186

> <r_epik_Ionization_Penalty_Charging>
0.00679686

> <r_epik_Ionization_Penalty_Neutral>
0.0872218

> <r_epik_State_Penalty>
0.0799311

> <r_epik_Charging_Adjusted_Penalty>
0.086728

> <i_epik_Tot_Q>
1

> <i_epik_Tot_abs_Q>
1

> <r_epik_Metal_State_Penalty>
7.95545e-05

> <b_epik_Metal_Only>
0

> <s_lp_Force_Field>
OPLS_2005

> <r_lp_Energy>
25.8202

> <b_lp_Chiralities_Consistent>
1

> <s_lp_Variant>
AV-unprocessed.smi:1487-3

> <Gold.Version>
5.8.1

> <Gold.Id.Protein>
6NUR|6NUR_protein|mol2

> <Gold.PLP.Fitness>
53.3696

> <Gold.PLP.PLP>
-42.8002

> <Gold.PLP.part.hbond>
-3.6958

> <Gold.PLP.part.metal>
0.0000

> <Gold.PLP.part.buried>
0.1905

> <Gold.PLP.part.nonpolar>
-40.4593

> <Gold.PLP.part.repulsive>
0.0406

> <Gold.PLP.ligand.clash>
0.0000

> <Gold.PLP.ligand.torsion>
0.7315

> <Gold.PLP.Chemscore.Hbond>
4.0000

> <Gold.PLP.Chemscore.CHOScore>
0.0000

> <Gold.PLP.Chemscore.Metal>
0.0000

> <Gold.Chemscore.Hbonds>
donor molecule, donor type, donor heavy atom, donor atom, acceptor molecule, acceptor atom, score
      L1  H    10    31       P1  7957  1.00
      L1  H    12    48       P1  7948  2.00
      L1  H    17    41       P1  7948  0.60

> <Gold.PLP.Chemscore.Internal.Correction>
0.0322

> <Gold.Rescore>
     Score         DG    S(hbond)    S(metal)    S(lipo)     H(rot)  DE(clash)    DE(int)     intcor
     21.28     -22.23       2.91        0.00     118.64       2.67       0.35       0.60       ----

> <Gold.Chemscore.Fitness>
21.2808

> <Gold.Chemscore.DG>
-22.2328

> <Gold.Chemscore.ZeroCoef>
-5.4800

> <Gold.Chemscore.Hbond>
2.9071

> <Gold.Chemscore.Metal>
0.0000

> <Gold.Chemscore.Lipo>
118.6442

> <Gold.Chemscore.Internal_Hbond>
0.0000

> <Gold.Chemscore.DEClash>
0.3513

> <Gold.Chemscore.DEInternal>
0.6007

> <Gold.Chemscore.Rot>
2.6712

> <Gold.Chemscore.Internal.Correction>
   9.000000E+99

> <Gold.Chemscore.Hbonds>
donor molecule, donor type, donor heavy atom, donor atom, acceptor molecule, acceptor atom, score
      L1  H    10    31       P1  7957  0.94
      L1  H    12    48       P1  7948  0.97
      L1  H    17    41       P1  7948  0.60

> <Gold.Chemscore.Hbond.Weighted>
-9.7098

> <Gold.Chemscore.Metal.Weighted>
-0.0000

> <Gold.Chemscore.Lipo.Weighted>
-13.8814

> <Gold.Chemscore.Internal_Hbond.Weighted>
0.0000

> <Gold.Chemscore.DEClash.Weighted>
0.3513

> <Gold.Chemscore.DEInternal.Weighted>
0.6007

> <Gold.Chemscore.Rot.Weighted>
6.8383

> <Gold.Chemscore.Internal.Correction.Weighted>
   9.000000E+99

> <Gold.Protein.RotatedTorsions>
[ 6907 6896 6895 6894 ] final   -8.68 input  -60.11 | X-H torsion
[ 7974 7965 7964 7962 ] final -132.89 input  175.53 | X-H torsion
[ 8008 7997 7996 7995 ] final   60.48 input   59.86 | X-H torsion
[ 10167 10162 10161 10158 ] final -132.08 input  -65.29 | X-H torsion
[ 10718 10713 10712 10709 ] final   -7.32 input   66.30 | X-H torsion
[ 10763 10752 10751 10750 ] final   99.05 input  -60.55 | X-H torsion
[ 11005 11000 10999 10996 ] final   37.73 input  -57.11 | X-H torsion

> <Gold.Protein.ActiveResidues>
 VAL166  LYS551  ARG553  GLY616  TRP617  ASP618  TYR619  PRO620  LYS621  CYS622 
 ASP623  PHE694  ASN695  SER759  ASP760  ASP761  ALA762  ILE779  LEU786  VAL792 
 PHE793  MET794  SER795  GLU796  ALA797  LYS798  CYS799  TRP800  GLU811  SER814 

> <Gold.Protein.RotatedAtoms>
  151.4299  135.1008  159.9638 H   0  0  0  0  0  0  0  0  0  0  0  0  # atno 6907 bound_to 6896
  152.4960  133.8628  159.7269 H   0  0  0  0  0  0  0  0  0  0  0  0  # atno 6908 bound_to 6896
  150.9163  133.6877  159.2870 H   0  0  0  0  0  0  0  0  0  0  0  0  # atno 6909 bound_to 6896
  144.9244  140.7053  143.4945 H   0  0  0  0  0  0  0  0  0  0  0  0  # atno 7974 bound_to 7965
  155.5830  140.3491  155.4545 H   0  0  0  0  0  0  0  0  0  0  0  0  # atno 8008 bound_to 7997
  156.0359  140.1285  157.0234 H   0  0  0  0  0  0  0  0  0  0  0  0  # atno 8009 bound_to 7997
  154.4371  140.1034  156.6152 H   0  0  0  0  0  0  0  0  0  0  0  0  # atno 8010 bound_to 7997
  139.9123  143.6480  152.2572 H   0  0  0  0  0  0  0  0  0  0  0  0  # atno 10167 bound_to 10162
  156.7189  130.5145  149.5873 H   0  0  0  0  0  0  0  0  0  0  0  0  # atno 10718 bound_to 10713
  153.2966  135.4127  155.1215 H   0  0  0  0  0  0  0  0  0  0  0  0  # atno 10763 bound_to 10752
  154.8537  135.3531  154.5909 H   0  0  0  0  0  0  0  0  0  0  0  0  # atno 10764 bound_to 10752
  153.6333  135.7060  153.5326 H   0  0  0  0  0  0  0  0  0  0  0  0  # atno 10765 bound_to 10752
  140.2197  134.3656  155.8011 H   0  0  0  0  0  0  0  0  0  0  0  0  # atno 11005 bound_to 11000
  145.3244  139.1778  143.4570 LP  0  0  0  0  0  0  0  0  0  0  0  0  # atno 17320 bound_to 7965
  146.3219  140.3265  142.8637 LP  0  0  0  0  0  0  0  0  0  0  0  0  # atno 17321 bound_to 7965
  139.6932  144.7644  151.1402 LP  0  0  0  0  0  0  0  0  0  0  0  0  # atno 17342 bound_to 10162
  140.7682  143.5560  150.9152 LP  0  0  0  0  0  0  0  0  0  0  0  0  # atno 17343 bound_to 10162
  156.1608  130.6373  151.0716 LP  0  0  0  0  0  0  0  0  0  0  0  0  # atno 17370 bound_to 10713
  157.6906  131.0811  150.7118 LP  0  0  0  0  0  0  0  0  0  0  0  0  # atno 17371 bound_to 10713
  141.2223  133.7187  156.8555 LP  0  0  0  0  0  0  0  0  0  0  0  0  # atno 17394 bound_to 11000
  140.1863  134.8997  157.3008 LP  0  0  0  0  0  0  0  0  0  0  0  0  # atno 17395 bound_to 11000

$$$$
