AV-unprocessed.smi:190|AV-procd|sdf|1492|dock7
  -GOLD-   2262019313D 1   1.00000     0.00000
 Structure written by MMmdl.
 54 58  0  0  0  0  0  0  0  0  1 V2000
  145.9345  138.9443  153.3252 O   0  0  0  0  0  0  0  0  0  0  0  0
  145.9993  139.0935  154.7298 C   0  0  0  0  0  0  0  0  0  0  0  0
  147.3829  139.6129  155.2050 C   0  0  0  0  0  0  0  0  0  0  0  0
  147.3939  139.8520  156.7488 C   0  0  0  0  0  0  0  0  0  0  0  0
  147.0388  138.6924  157.5559 N   0  0  0  0  0  0  0  0  0  0  0  0
  145.7824  138.1506  157.7145 C   0  0  0  0  0  0  0  0  0  0  0  0
  145.7178  137.1078  158.4959 N   0  0  0  0  0  0  0  0  0  0  0  0
  147.0237  136.9333  158.9347 C   0  0  0  0  0  0  0  0  0  0  0  0
  147.6585  136.0069  159.8052 C   0  0  0  0  0  0  0  0  0  0  0  0
  146.9744  135.0205  160.4356 N   0  0  0  0  0  0  0  0  0  0  0  0
  147.5025  133.6644  160.3212 C   0  0  0  0  0  0  0  0  0  0  0  0
  146.8338  132.8502  161.4378 C   0  0  0  0  0  0  0  0  0  0  0  0
  145.9052  133.8421  162.1436 C   0  0  0  0  0  0  0  0  0  0  0  0
  146.5142  135.2111  161.8161 C   0  0  2  0  0  0  0  0  0  0  0  0
  145.5430  136.3699  162.0192 C   0  0  0  0  0  0  0  0  0  0  0  0
  146.4267  137.5518  162.4293 C   0  0  0  0  0  0  0  0  0  0  0  0
  147.7111  137.0155  162.7310 O   0  0  0  0  0  0  0  0  0  0  0  0
  147.6400  135.5972  162.7911 C   0  0  0  0  0  0  0  0  0  0  0  0
  148.9987  136.1350  159.9930 N   0  0  0  0  0  0  0  0  0  0  0  0
  149.6699  137.1192  159.3890 C   0  0  0  0  0  0  0  0  0  0  0  0
  149.2073  138.0604  158.5643 N   0  0  0  0  0  0  0  0  0  0  0  0
  147.8667  137.9234  158.3563 C   0  0  0  0  0  0  0  0  0  0  0  0
  148.4471  138.5710  154.7764 C   0  0  0  0  0  0  0  0  0  0  0  0
  149.8872  139.1001  154.9047 C   0  0  0  0  0  0  0  0  0  0  0  0
  150.0343  140.2895  154.1406 O   0  0  0  0  0  0  0  0  0  0  0  0
  149.1930  141.3410  154.5958 C   0  0  0  0  0  0  0  0  0  0  0  0
  147.7154  140.9297  154.4585 C   0  0  0  0  0  0  0  0  0  0  0  0
  145.0903  139.2499  153.0298 H   0  0  0  0  0  0  0  0  0  0  0  0
  145.1975  139.7586  155.0504 H   0  0  0  0  0  0  0  0  0  0  0  0
  145.7814  138.1228  155.1766 H   0  0  0  0  0  0  0  0  0  0  0  0
  148.3697  140.1992  157.0849 H   0  0  0  0  0  0  0  0  0  0  0  0
  146.7031  140.6556  157.0065 H   0  0  0  0  0  0  0  0  0  0  0  0
  144.9083  138.5511  157.2220 H   0  0  0  0  0  0  0  0  0  0  0  0
  147.2510  133.2594  159.3406 H   0  0  0  0  0  0  0  0  0  0  0  0
  148.5872  133.6300  160.4286 H   0  0  0  0  0  0  0  0  0  0  0  0
  146.2891  131.9880  161.0523 H   0  0  0  0  0  0  0  0  0  0  0  0
  147.5918  132.4834  162.1311 H   0  0  0  0  0  0  0  0  0  0  0  0
  144.9075  133.7697  161.7075 H   0  0  0  0  0  0  0  0  0  0  0  0
  145.8099  133.6483  163.2126 H   0  0  0  0  0  0  0  0  0  0  0  0
  144.9141  136.5752  161.1543 H   0  0  0  0  0  0  0  0  0  0  0  0
  144.8718  136.1400  162.8480 H   0  0  0  0  0  0  0  0  0  0  0  0
  146.5235  138.2773  161.6213 H   0  0  0  0  0  0  0  0  0  0  0  0
  146.0163  138.0694  163.2967 H   0  0  0  0  0  0  0  0  0  0  0  0
  147.3732  135.3241  163.8129 H   0  0  0  0  0  0  0  0  0  0  0  0
  148.6004  135.1316  162.5677 H   0  0  0  0  0  0  0  0  0  0  0  0
  150.7290  137.1577  159.5956 H   0  0  0  0  0  0  0  0  0  0  0  0
  148.3363  137.6432  155.3372 H   0  0  0  0  0  0  0  0  0  0  0  0
  148.2873  138.2999  153.7318 H   0  0  0  0  0  0  0  0  0  0  0  0
  150.1596  139.2878  155.9431 H   0  0  0  0  0  0  0  0  0  0  0  0
  150.5892  138.3558  154.5286 H   0  0  0  0  0  0  0  0  0  0  0  0
  149.4433  141.6075  155.6231 H   0  0  0  0  0  0  0  0  0  0  0  0
  149.3878  142.2263  153.9905 H   0  0  0  0  0  0  0  0  0  0  0  0
  147.4964  140.8123  153.3964 H   0  0  0  0  0  0  0  0  0  0  0  0
  147.0758  141.7407  154.8087 H   0  0  0  0  0  0  0  0  0  0  0  0
  1  2  1  0  0  0  0
  1 28  1  0  0  0  0
  2  3  1  0  0  0  0
  2 29  1  0  0  0  0
  2 30  1  0  0  0  0
  3 27  1  0  0  0  0
  3  4  1  0  0  0  0
  3 23  1  0  0  0  0
  4  5  1  0  0  0  0
  4 31  1  0  0  0  0
  4 32  1  0  0  0  0
  5 22  1  0  0  0  0
  5  6  1  0  0  0  0
  6  7  2  0  0  0  0
  6 33  1  0  0  0  0
  7  8  1  0  0  0  0
  8 22  2  0  0  0  0
  8  9  1  0  0  0  0
  9 10  1  0  0  0  0
  9 19  2  0  0  0  0
 10 14  1  0  0  0  0
 10 11  1  0  0  0  0
 11 12  1  0  0  0  0
 11 34  1  0  0  0  0
 11 35  1  0  0  0  0
 12 13  1  0  0  0  0
 12 36  1  0  0  0  0
 12 37  1  0  0  0  0
 13 14  1  0  0  0  0
 13 38  1  0  0  0  0
 13 39  1  0  0  0  0
 14 18  1  0  0  0  0
 14 15  1  0  0  0  0
 15 16  1  0  0  0  0
 15 40  1  0  0  0  0
 15 41  1  0  0  0  0
 16 17  1  0  0  0  0
 16 42  1  0  0  0  0
 16 43  1  0  0  0  0
 17 18  1  0  0  0  0
 18 44  1  0  0  0  0
 18 45  1  0  0  0  0
 19 20  1  0  0  0  0
 20 21  2  0  0  0  0
 20 46  1  0  0  0  0
 21 22  1  0  0  0  0
 23 24  1  0  0  0  0
 23 47  1  0  0  0  0
 23 48  1  0  0  0  0
 24 25  1  0  0  0  0
 24 49  1  0  0  0  0
 24 50  1  0  0  0  0
 25 26  1  0  0  0  0
 26 27  1  0  0  0  0
 26 51  1  0  0  0  0
 26 52  1  0  0  0  0
 27 53  1  0  0  0  0
 27 54  1  0  0  0  0
M  END
> <s_m_source_file>
AV-unprocessed.smi

> <i_m_source_file_index>
190

> <i_lp_mmshare_version>
43012

> <i_f3d_flags>
0

> <s_epik_input>
W0NIMl0xW0NIMl1PW0NIMl1bQ0gyXUMxKFtDSDJdW09IXSlbQ0gyXW4oW2NIXW4yKWMoYzIzKW5bY0hdbmMzTihbQ0gyXVtDSDJdW0NIMl00KVtDQF00NVtDSDJdW0NIMl1PW0NIMl01

> <s_epik_cmdline>
J2VwaWtfcHl0aG9uJywgJy1waCcsICc3LjAnLCAnLXRuJywgJzgnLCAnLW1hJywgJzIwMCcsICctbWV0YWxfYmluZGluZycsICctaW1hZScsICc8aW5maWxlLm1hZT4nLCAnLW9tYWUnLCAnPG91dGZpbGUubWFlPic=

> <r_lp_tautomer_probability>
1

> <r_epik_Ionization_Penalty>
0.00423054

> <r_epik_Ionization_Penalty_Charging>
0

> <r_epik_Ionization_Penalty_Neutral>
0.00423054

> <r_epik_State_Penalty>
0.00298851

> <r_epik_Charging_Adjusted_Penalty>
0.00298851

> <i_epik_Tot_Q>
0

> <i_epik_Tot_abs_Q>
0

> <r_epik_Metal_State_Penalty>
-0

> <b_epik_Metal_Only>
0

> <s_lp_Force_Field>
OPLS_2005

> <r_lp_Energy>
69.5451

> <b_lp_Chiralities_Consistent>
1

> <s_lp_Variant>
AV-unprocessed.smi:190-2

> <Gold.Version>
5.8.1

> <Gold.Id.Protein>
6NUR|6NUR_protein|mol2

> <Gold.PLP.Fitness>
43.9578

> <Gold.PLP.PLP>
-35.7580

> <Gold.PLP.part.hbond>
-3.5967

> <Gold.PLP.part.metal>
0.0000

> <Gold.PLP.part.buried>
-6.2275

> <Gold.PLP.part.nonpolar>
-27.6800

> <Gold.PLP.part.repulsive>
0.8594

> <Gold.PLP.ligand.clash>
0.0000

> <Gold.PLP.ligand.torsion>
0.5641

> <Gold.PLP.Chemscore.Hbond>
3.0389

> <Gold.PLP.Chemscore.CHOScore>
0.0000

> <Gold.PLP.Chemscore.Metal>
0.0000

> <Gold.Chemscore.Hbonds>
donor molecule, donor type, donor heavy atom, donor atom, acceptor molecule, acceptor atom, score
      L1  H     1    28       P1 10175  1.00
      P1  H  6896  6909       L1    19  0.22
      P1  H  6931  6943       L1    17  0.85
      P1  H  7989  7998       L1    25  0.86

> <Gold.PLP.Chemscore.Internal.Correction>
0.2112

> <Gold.Rescore>
     Score         DG    S(hbond)    S(metal)    S(lipo)     H(rot)  DE(clash)    DE(int)     intcor
     16.09     -16.80       2.46        0.00      78.17       2.37       0.03       0.68       ----

> <Gold.Chemscore.Fitness>
16.0869

> <Gold.Chemscore.DG>
-16.7992

> <Gold.Chemscore.ZeroCoef>
-5.4800

> <Gold.Chemscore.Hbond>
2.4646

> <Gold.Chemscore.Metal>
0.0000

> <Gold.Chemscore.Lipo>
78.1704

> <Gold.Chemscore.Internal_Hbond>
0.0000

> <Gold.Chemscore.DEClash>
0.0274

> <Gold.Chemscore.DEInternal>
0.6849

> <Gold.Chemscore.Rot>
2.3666

> <Gold.Chemscore.Internal.Correction>
   9.000000E+99

> <Gold.Chemscore.Hbonds>
donor molecule, donor type, donor heavy atom, donor atom, acceptor molecule, acceptor atom, score
      L1  H     1    28       P1 10175  0.99
      P1  H  6896  6909       L1    19  0.01
      P1  H  6931  6943       L1    17  0.46
      P1  H  7989  7998       L1    25  0.73

> <Gold.Chemscore.Hbond.Weighted>
-8.2318

> <Gold.Chemscore.Metal.Weighted>
-0.0000

> <Gold.Chemscore.Lipo.Weighted>
-9.1459

> <Gold.Chemscore.Internal_Hbond.Weighted>
0.0000

> <Gold.Chemscore.DEClash.Weighted>
0.0274

> <Gold.Chemscore.DEInternal.Weighted>
0.6849

> <Gold.Chemscore.Rot.Weighted>
6.0586

> <Gold.Chemscore.Internal.Correction.Weighted>
   9.000000E+99

> <Gold.Protein.RotatedTorsions>
[ 6907 6896 6895 6894 ] final   59.20 input  -60.11 | X-H torsion
[ 7974 7965 7964 7962 ] final -151.36 input  175.53 | X-H torsion
[ 8008 7997 7996 7995 ] final -172.28 input   59.86 | X-H torsion
[ 10167 10162 10161 10158 ] final   67.45 input  -65.29 | X-H torsion
[ 10718 10713 10712 10709 ] final  -21.51 input   66.30 | X-H torsion
[ 10763 10752 10751 10750 ] final  119.37 input  -60.55 | X-H torsion
[ 11005 11000 10999 10996 ] final  -38.64 input  -57.11 | X-H torsion

> <Gold.Protein.ActiveResidues>
 VAL166  LYS551  ARG553  GLY616  TRP617  ASP618  TYR619  PRO620  LYS621  CYS622 
 ASP623  PHE694  ASN695  SER759  ASP760  ASP761  ALA762  ILE779  LEU786  VAL792 
 PHE793  MET794  SER795  GLU796  ALA797  LYS798  CYS799  TRP800  GLU811  SER814 

> <Gold.Protein.RotatedAtoms>
  152.3893  134.6466  160.0113 H   0  0  0  0  0  0  0  0  0  0  0  0  # atno 6907 bound_to 6896
  151.6705  133.3308  159.3203 H   0  0  0  0  0  0  0  0  0  0  0  0  # atno 6908 bound_to 6896
  150.7813  134.6803  159.6485 H   0  0  0  0  0  0  0  0  0  0  0  0  # atno 6909 bound_to 6896
  144.7854  140.4808  143.5810 H   0  0  0  0  0  0  0  0  0  0  0  0  # atno 7974 bound_to 7965
  155.9425  140.1111  157.1044 H   0  0  0  0  0  0  0  0  0  0  0  0  # atno 8008 bound_to 7997
  154.4092  140.1216  156.5012 H   0  0  0  0  0  0  0  0  0  0  0  0  # atno 8009 bound_to 7997
  155.6944  140.3472  155.4909 H   0  0  0  0  0  0  0  0  0  0  0  0  # atno 8010 bound_to 7997
  140.0894  144.5002  150.7109 H   0  0  0  0  0  0  0  0  0  0  0  0  # atno 10167 bound_to 10162
  156.5171  130.4623  149.6616 H   0  0  0  0  0  0  0  0  0  0  0  0  # atno 10718 bound_to 10713
  153.5820  135.3482  155.2878 H   0  0  0  0  0  0  0  0  0  0  0  0  # atno 10763 bound_to 10752
  154.8666  135.4184  154.2610 H   0  0  0  0  0  0  0  0  0  0  0  0  # atno 10764 bound_to 10752
  153.3399  135.7049  153.6947 H   0  0  0  0  0  0  0  0  0  0  0  0  # atno 10765 bound_to 10752
  141.0042  133.6940  156.2080 H   0  0  0  0  0  0  0  0  0  0  0  0  # atno 11005 bound_to 11000
  145.5936  139.1497  143.3168 LP  0  0  0  0  0  0  0  0  0  0  0  0  # atno 17320 bound_to 7965
  146.2083  140.6060  142.9071 LP  0  0  0  0  0  0  0  0  0  0  0  0  # atno 17321 bound_to 7965
  140.7037  143.2452  151.4790 LP  0  0  0  0  0  0  0  0  0  0  0  0  # atno 17342 bound_to 10162
  139.5734  144.1876  152.1868 LP  0  0  0  0  0  0  0  0  0  0  0  0  # atno 17343 bound_to 10162
  156.3185  130.7267  151.2174 LP  0  0  0  0  0  0  0  0  0  0  0  0  # atno 17370 bound_to 10713
  157.7442  131.0462  150.4882 LP  0  0  0  0  0  0  0  0  0  0  0  0  # atno 17371 bound_to 10713
  140.6839  134.4738  157.5589 LP  0  0  0  0  0  0  0  0  0  0  0  0  # atno 17394 bound_to 11000
  139.9055  134.8460  156.1725 LP  0  0  0  0  0  0  0  0  0  0  0  0  # atno 17395 bound_to 11000

$$$$
