AV-unprocessed.smi:686|AV-procd|sdf|3340|dock6
  -GOLD-   22720 0313D 1   1.00000     0.00000
 Structure written by MMmdl.
 41 42  0  0  0  0  0  0  0  0  2 V2000
  147.7084  140.5668  153.1449 C   0  0  0  0  0  0  0  0  0  0  0  0
  147.0221  139.2577  153.5683 C   0  0  1  0  0  0  0  0  0  0  0  0
  146.5486  138.3648  152.4119 C   0  0  0  0  0  0  0  0  0  0  0  0
  146.7046  136.9554  152.8547 N   0  3  2  0  0  0  0  0  0  0  0  0
  145.5634  136.0539  152.5302 C   0  0  0  0  0  0  0  0  0  0  0  0
  145.7956  134.6247  153.0576 C   0  0  0  0  0  0  0  0  0  0  0  0
  145.3134  136.0034  151.0108 C   0  0  0  0  0  0  0  0  0  0  0  0
  147.1167  136.9851  154.2774 C   0  0  0  0  0  0  0  0  0  0  0  0
  147.8304  138.3242  154.4748 C   0  0  1  0  0  0  0  0  0  0  0  0
  149.2321  138.2309  154.0507 N   0  0  0  0  0  0  0  0  0  0  0  0
  150.4224  137.6717  155.1667 S   0  0  0  0  0  0  0  0  0  0  0  0
  149.7492  137.5012  156.4630 O   0  0  0  0  0  0  0  0  0  0  0  0
  151.1169  136.5349  154.5430 O   0  0  0  0  0  0  0  0  0  0  0  0
  151.5684  139.1131  155.2714 C   0  0  0  0  0  0  0  0  0  0  0  0
  151.6297  139.6138  156.6873 C   0  0  0  0  0  0  0  0  0  0  0  0
  150.6779  140.4052  157.3878 C   0  0  0  0  0  0  0  0  0  0  0  0
  151.2347  140.5525  158.6255 C   0  0  0  0  0  0  0  0  0  0  0  0
  152.4285  139.9099  158.6893 O   0  0  0  0  0  0  0  0  0  0  0  0
  152.6741  139.3164  157.4461 N   0  0  0  0  0  0  0  0  0  0  0  0
  148.5863  140.3833  152.5248 H   0  0  0  0  0  0  0  0  0  0  0  0
  148.0276  141.1390  154.0164 H   0  0  0  0  0  0  0  0  0  0  0  0
  147.0263  141.1929  152.5693 H   0  0  0  0  0  0  0  0  0  0  0  0
  146.1312  139.5348  154.1347 H   0  0  0  0  0  0  0  0  0  0  0  0
  145.5170  138.6086  152.1545 H   0  0  0  0  0  0  0  0  0  0  0  0
  147.1562  138.5130  151.5183 H   0  0  0  0  0  0  0  0  0  0  0  0
  144.6693  136.4507  153.0139 H   0  0  0  0  0  0  0  0  0  0  0  0
  144.9784  133.9640  152.7663 H   0  0  0  0  0  0  0  0  0  0  0  0
  145.8506  134.5925  154.1458 H   0  0  0  0  0  0  0  0  0  0  0  0
  146.7194  134.2006  152.6622 H   0  0  0  0  0  0  0  0  0  0  0  0
  144.4919  135.3268  150.7731 H   0  0  0  0  0  0  0  0  0  0  0  0
  146.1958  135.6491  150.4767 H   0  0  0  0  0  0  0  0  0  0  0  0
  145.0474  136.9782  150.6028 H   0  0  0  0  0  0  0  0  0  0  0  0
  146.2282  136.9602  154.9108 H   0  0  0  0  0  0  0  0  0  0  0  0
  147.7318  136.1237  154.5366 H   0  0  0  0  0  0  0  0  0  0  0  0
  147.7958  138.6538  155.5140 H   0  0  0  0  0  0  0  0  0  0  0  0
  149.3384  137.7944  153.1351 H   0  0  0  0  0  0  0  0  0  0  0  0
  152.5489  138.8146  154.8993 H   0  0  0  0  0  0  0  0  0  0  0  0
  151.1877  139.8910  154.6095 H   0  0  0  0  0  0  0  0  0  0  0  0
  149.7349  140.7995  157.0392 H   0  0  0  0  0  0  0  0  0  0  0  0
  150.9198  141.0601  159.5253 H   0  0  0  0  0  0  0  0  0  0  0  0
  147.5048  136.5997  152.3512 H   0  0  0  0  0  0  0  0  0  0  0  0
  1  2  1  0  0  0  0
  1 20  1  0  0  0  0
  1 21  1  0  0  0  0
  1 22  1  0  0  0  0
  2  9  1  0  0  0  0
  2  3  1  0  0  0  0
  2 23  1  0  0  0  0
  3  4  1  0  0  0  0
  3 24  1  0  0  0  0
  3 25  1  0  0  0  0
  4  5  1  0  0  0  0
  4  8  1  0  0  0  0
  4 41  1  0  0  0  0
  5  6  1  0  0  0  0
  5  7  1  0  0  0  0
  5 26  1  0  0  0  0
  6 27  1  0  0  0  0
  6 28  1  0  0  0  0
  6 29  1  0  0  0  0
  7 30  1  0  0  0  0
  7 31  1  0  0  0  0
  7 32  1  0  0  0  0
  8  9  1  0  0  0  0
  8 33  1  0  0  0  0
  8 34  1  0  0  0  0
  9 10  1  0  0  0  0
  9 35  1  0  0  0  0
 10 11  1  0  0  0  0
 10 36  1  0  0  0  0
 11 12  2  0  0  0  0
 11 13  2  0  0  0  0
 11 14  1  0  0  0  0
 14 15  1  0  0  0  0
 14 37  1  0  0  0  0
 14 38  1  0  0  0  0
 15 19  2  0  0  0  0
 15 16  1  0  0  0  0
 16 17  2  0  0  0  0
 16 39  1  0  0  0  0
 17 18  1  0  0  0  0
 17 40  1  0  0  0  0
 18 19  1  0  0  0  0
M  CHG  1   4   1
M  END
> <s_m_source_file>
AV-unprocessed.smi

> <i_m_source_file_index>
686

> <i_lp_mmshare_version>
43012

> <i_f3d_flags>
0

> <s_epik_input>
W0NIM11bQ0BASF0xW0NIMl1OKFtDSF0oW0NIM10pW0NIM10pW0NIMl1bQ0BIXTFbTkhdUyg9TykoPU8pW0NIMl1jMltjSF1bY0hdb24y

> <s_epik_cmdline>
J2VwaWtfcHl0aG9uJywgJy1waCcsICc3LjAnLCAnLXRuJywgJzgnLCAnLW1hJywgJzIwMCcsICctbWV0YWxfYmluZGluZycsICctaW1hZScsICc8aW5maWxlLm1hZT4nLCAnLW9tYWUnLCAnPG91dGZpbGUubWFlPic=

> <r_epik_Ionization_Penalty>
0.00200818

> <r_epik_Ionization_Penalty_Charging>
0.000701289

> <r_epik_Ionization_Penalty_Neutral>
0.00130689

> <r_epik_State_Penalty>
0.00131314

> <r_epik_Charging_Adjusted_Penalty>
0.00201443

> <i_epik_Tot_Q>
1

> <i_epik_Tot_abs_Q>
1

> <r_epik_Metal_State_Penalty>
0.310831

> <b_epik_Metal_Only>
0

> <s_lp_Force_Field>
OPLS_2005

> <r_lp_Energy>
21.9273

> <b_lp_Chiralities_Consistent>
1

> <s_lp_Variant>
AV-unprocessed.smi:686-4

> <Gold.Version>
5.8.1

> <Gold.Id.Protein>
6NUR|6NUR_protein|mol2

> <Gold.PLP.Fitness>
40.5983

> <Gold.PLP.PLP>
-26.5450

> <Gold.PLP.part.hbond>
-4.4936

> <Gold.PLP.part.metal>
0.0000

> <Gold.PLP.part.buried>
0.2049

> <Gold.PLP.part.nonpolar>
-23.4479

> <Gold.PLP.part.repulsive>
1.0491

> <Gold.PLP.ligand.clash>
0.0000

> <Gold.PLP.ligand.torsion>
0.5657

> <Gold.PLP.Chemscore.Hbond>
5.0000

> <Gold.PLP.Chemscore.CHOScore>
0.0000

> <Gold.PLP.Chemscore.Metal>
0.0000

> <Gold.Chemscore.Hbonds>
donor molecule, donor type, donor heavy atom, donor atom, acceptor molecule, acceptor atom, score
      L1  H     4    41       P1  7948  2.00
      L1  H    10    36       P1  7948  1.00
      P1  H  7997  8008       L1    19  1.00
      P1  H 10752 10765       L1    13  0.96

> <Gold.PLP.Chemscore.Internal.Correction>
0.1846

> <Gold.Rescore>
     Score         DG    S(hbond)    S(metal)    S(lipo)     H(rot)  DE(clash)    DE(int)     intcor
     17.43     -19.57       3.64        0.00      58.39       1.91       1.39       0.75       ----

> <Gold.Chemscore.Fitness>
17.4321

> <Gold.Chemscore.DG>
-19.5750

> <Gold.Chemscore.ZeroCoef>
-5.4800

> <Gold.Chemscore.Hbond>
3.6397

> <Gold.Chemscore.Metal>
0.0000

> <Gold.Chemscore.Lipo>
58.3913

> <Gold.Chemscore.Internal_Hbond>
0.0000

> <Gold.Chemscore.DEClash>
1.3939

> <Gold.Chemscore.DEInternal>
0.7490

> <Gold.Chemscore.Rot>
1.9115

> <Gold.Chemscore.Internal.Correction>
   9.000000E+99

> <Gold.Chemscore.Hbonds>
donor molecule, donor type, donor heavy atom, donor atom, acceptor molecule, acceptor atom, score
      L1  H     4    41       P1  7948  0.96
      L1  H    10    36       P1  7948  0.87
      P1  H  7997  8008       L1    19  0.43
      P1  H 10752 10765       L1    13  0.91

> <Gold.Chemscore.Hbond.Weighted>
-12.1567

> <Gold.Chemscore.Metal.Weighted>
-0.0000

> <Gold.Chemscore.Lipo.Weighted>
-6.8318

> <Gold.Chemscore.Internal_Hbond.Weighted>
0.0000

> <Gold.Chemscore.DEClash.Weighted>
1.3939

> <Gold.Chemscore.DEInternal.Weighted>
0.7490

> <Gold.Chemscore.Rot.Weighted>
4.8935

> <Gold.Chemscore.Internal.Correction.Weighted>
   9.000000E+99

> <Gold.Protein.RotatedTorsions>
[ 6907 6896 6895 6894 ] final  -13.95 input  -60.11 | X-H torsion
[ 7974 7965 7964 7962 ] final  160.51 input  175.53 | X-H torsion
[ 8008 7997 7996 7995 ] final  -73.24 input   59.86 | X-H torsion
[ 10167 10162 10161 10158 ] final  -80.31 input  -65.29 | X-H torsion
[ 10718 10713 10712 10709 ] final -130.76 input   66.30 | X-H torsion
[ 10763 10752 10751 10750 ] final  158.53 input  -60.55 | X-H torsion
[ 11005 11000 10999 10996 ] final   59.06 input  -57.11 | X-H torsion

> <Gold.Protein.ActiveResidues>
 VAL166  LYS551  ARG553  GLY616  TRP617  ASP618  TYR619  PRO620  LYS621  CYS622 
 ASP623  PHE694  ASN695  SER759  ASP760  ASP761  ALA762  ILE779  LEU786  VAL792 
 PHE793  MET794  SER795  GLU796  ALA797  LYS798  CYS799  TRP800  GLU811  SER814 

> <Gold.Protein.RotatedAtoms>
  151.3470  135.0876  159.9389 H   0  0  0  0  0  0  0  0  0  0  0  0  # atno 6907 bound_to 6896
  152.5197  133.9390  159.7627 H   0  0  0  0  0  0  0  0  0  0  0  0  # atno 6908 bound_to 6896
  150.9758  133.6243  159.2760 H   0  0  0  0  0  0  0  0  0  0  0  0  # atno 6909 bound_to 6896
  144.7733  139.7767  143.6288 H   0  0  0  0  0  0  0  0  0  0  0  0  # atno 7974 bound_to 7965
  154.5231  140.0783  156.8208 H   0  0  0  0  0  0  0  0  0  0  0  0  # atno 8008 bound_to 7997
  155.3534  140.3414  155.4221 H   0  0  0  0  0  0  0  0  0  0  0  0  # atno 8009 bound_to 7997
  156.1702  140.1617  156.8447 H   0  0  0  0  0  0  0  0  0  0  0  0  # atno 8010 bound_to 7997
  140.4515  143.2481  151.8482 H   0  0  0  0  0  0  0  0  0  0  0  0  # atno 10167 bound_to 10162
  156.2177  130.6958  151.0721 H   0  0  0  0  0  0  0  0  0  0  0  0  # atno 10718 bound_to 10713
  154.2174  135.2783  155.2937 H   0  0  0  0  0  0  0  0  0  0  0  0  # atno 10763 bound_to 10752
  154.5729  135.5613  153.7115 H   0  0  0  0  0  0  0  0  0  0  0  0  # atno 10764 bound_to 10752
  153.0049  135.6326  154.2314 H   0  0  0  0  0  0  0  0  0  0  0  0  # atno 10765 bound_to 10752
  140.0331  134.5982  155.9480 H   0  0  0  0  0  0  0  0  0  0  0  0  # atno 11005 bound_to 11000
  146.1895  139.5128  142.9814 LP  0  0  0  0  0  0  0  0  0  0  0  0  # atno 17320 bound_to 7965
  145.6259  141.0313  143.1889 LP  0  0  0  0  0  0  0  0  0  0  0  0  # atno 17321 bound_to 7965
  139.4797  144.5115  151.8927 LP  0  0  0  0  0  0  0  0  0  0  0  0  # atno 17342 bound_to 10162
  140.4202  144.2254  150.5887 LP  0  0  0  0  0  0  0  0  0  0  0  0  # atno 17343 bound_to 10162
  157.7071  131.0751  150.6628 LP  0  0  0  0  0  0  0  0  0  0  0  0  # atno 17370 bound_to 10713
  156.6690  130.4534  149.5663 LP  0  0  0  0  0  0  0  0  0  0  0  0  # atno 17371 bound_to 10713
  141.1842  133.6552  156.5149 LP  0  0  0  0  0  0  0  0  0  0  0  0  # atno 17394 bound_to 11000
  140.4192  134.7203  157.4880 LP  0  0  0  0  0  0  0  0  0  0  0  0  # atno 17395 bound_to 11000

$$$$
