#       Name:                AV-unprocessed.smi:1120
#       Creating user name   scv26
#       Creation time:       Fri Mar 27 03:37:28 2020


#       File generated by GOLD software.
#

@<TRIPOS>MOLECULE
AV-unprocessed.smi:1120
    51    52     1
SMALL
NO_CHARGES


@<TRIPOS>ATOM
      1 ****        -2.7239   4.3658   1.6920 C.3            1 S1                 0.0000
      2 ****        -2.2097   2.9927   1.2372 C.3            1 S1                 0.0000
      3 ****        -2.5258   1.9011   2.2754 C.3            1 S1                 0.0000
      4 ****        -2.0338   0.5168   1.8201 C.3            1 S1                 0.0000
      5 ****        -0.5422   0.5168   1.4340 C.3            1 S1                 0.0000
      6 ****         0.3073   0.5584   2.6279 N.pl3          1 S1                 0.0000
      7 ****         0.8834  -0.8660   3.4160 S.o2           1 S1                 0.0000
      8 ****         1.1708  -0.4894   4.8082 O.2            1 S1                 0.0000
      9 ****        -0.0543  -1.9608   3.1201 O.2            1 S1                 0.0000
     10 ****         2.5008  -1.1706   2.5701 C.3            1 S1                 0.0000
     11 ****         2.2994  -1.8319   1.2069 C.2            1 S1                 0.0000
     12 ****         2.0570  -3.0363   1.1347 O.2            1 S1                 0.0000
     13 ****         2.4106  -1.0351   0.1327 N.am           1 S1                 0.0000
     14 ****         2.2571  -1.4691  -1.2511 C.3            1 S1                 0.0000
     15 ****         0.7770  -1.5479  -1.6600 C.3            1 S1                 0.0000
     16 ****         0.6000  -1.9756  -3.1045 C.ar           1 S1                 0.0000
     17 ****         0.2593  -3.3068  -3.4254 C.ar           1 S1                 0.0000
     18 ****         0.1087  -3.6524  -4.7825 C.ar           1 S1                 0.0000
     19 ****         0.3046  -2.6591  -5.7615 C.ar           1 S1                 0.0000
     20 ****         0.6444  -1.3589  -5.3375 C.ar           1 S1                 0.0000
     21 ****         0.7912  -1.0170  -4.0390 N.ar           1 S1                 0.0000
     22 ****        -0.1784   1.6606   0.4687 C.3            1 S1                 0.0000
     23 ****        -0.6983   3.0263   0.9473 C.3            1 S1                 0.0000
     24 ****        -2.2425   4.6837   2.6172 H              1 S1                 0.0000
     25 ****        -3.7998   4.3438   1.8668 H              1 S1                 0.0000
     26 ****        -2.5294   5.1276   0.9365 H              1 S1                 0.0000
     27 ****        -2.7268   2.7387   0.3107 H              1 S1                 0.0000
     28 ****        -2.0629   2.1550   3.2299 H              1 S1                 0.0000
     29 ****        -3.6001   1.8604   2.4582 H              1 S1                 0.0000
     30 ****        -2.2300  -0.2261   2.5942 H              1 S1                 0.0000
     31 ****        -2.6188   0.2079   0.9531 H              1 S1                 0.0000
     32 ****        -0.3329  -0.4227   0.9231 H              1 S1                 0.0000
     33 ****         0.3103   1.4177   3.1774 H              1 S1                 0.0000
     34 ****         3.0436  -0.2284   2.4913 H              1 S1                 0.0000
     35 ****         3.0873  -1.8383   3.2015 H              1 S1                 0.0000
     36 ****         2.6150  -0.0578   0.2832 H              1 S1                 0.0000
     37 ****         2.7815  -0.7553  -1.8871 H              1 S1                 0.0000
     38 ****         2.7461  -2.4336  -1.3989 H              1 S1                 0.0000
     39 ****         0.2426  -2.2448  -1.0129 H              1 S1                 0.0000
     40 ****         0.3003  -0.5772  -1.5237 H              1 S1                 0.0000
     41 ****         0.1170  -4.0468  -2.6516 H              1 S1                 0.0000
     42 ****        -0.1522  -4.6610  -5.0670 H              1 S1                 0.0000
     43 ****         0.1975  -2.8880  -6.8115 H              1 S1                 0.0000
     44 ****         0.8023  -0.5723  -6.0604 H              1 S1                 0.0000
     45 ****         0.9002   1.6987   0.3116 H              1 S1                 0.0000
     46 ****        -0.6169   1.4480  -0.5068 H              1 S1                 0.0000
     47 ****        -0.4804   3.7813   0.1912 H              1 S1                 0.0000
     48 ****        -0.1577   3.3275   1.8454 H              1 S1                 0.0000
     49 ****         1.9915  -3.5840   1.9688 LP             1 S1                 0.0000
     50 ****         1.9256  -3.4672   0.2419 LP             1 S1                 0.0000
     51 ****         1.0340  -0.0831  -3.7766 LP             1 S1                 0.0000
@<TRIPOS>BOND
    1    1    2 1     
    2    1   24 1     
    3    1   25 1     
    4    1   26 1     
    5    2   23 1     
    6    2    3 1     
    7    2   27 1     
    8    3    4 1     
    9    3   28 1     
   10    3   29 1     
   11    4    5 1     
   12    4   30 1     
   13    4   31 1     
   14    5    6 1     
   15    5   22 1     
   16    5   32 1     
   17    6    7 1     
   18    6   33 1     
   19    7    8 2     
   20    7    9 2     
   21    7   10 1     
   22   10   11 1     
   23   10   34 1     
   24   10   35 1     
   25   11   12 2     
   26   11   13 am    
   27   13   14 1     
   28   13   36 1     
   29   14   15 1     
   30   14   37 1     
   31   14   38 1     
   32   15   16 1     
   33   15   39 1     
   34   15   40 1     
   35   16   21 ar    
   36   16   17 ar    
   37   17   18 ar    
   38   17   41 1     
   39   18   19 ar    
   40   18   42 1     
   41   19   20 ar    
   42   19   43 1     
   43   20   21 ar    
   44   20   44 1     
   45   22   23 1     
   46   22   45 1     
   47   22   46 1     
   48   23   47 1     
   49   23   48 1     
   50   12   49 1     
   51   12   50 1     
   52   21   51 1     
@<TRIPOS>SUBSTRUCTURE
      1 S1             1
@<TRIPOS>SET
LONE_PAIRS      STATIC     ATOMS    <user>   **** ""
5 8 9 49 50 51
DONOR_HYDROGENS      STATIC     ATOMS    <user>   **** ""
2 33 36
ATOM$BLUE        STATIC     ATOMS    COLORGROUP SYSTEM
5 8 9 49 50 51
ATOM$RED        STATIC     ATOMS    COLORGROUP SYSTEM
2 33 36
