#       Name:                AV-unprocessed.smi:1496
#       Creating user name   scv26
#       Creation time:       Fri Mar 27 06:17:20 2020


#       File generated by GOLD software.
#

@<TRIPOS>MOLECULE
AV-unprocessed.smi:1496
    48    49     1
SMALL
NO_CHARGES


@<TRIPOS>ATOM
      1 ****        -4.4374  -0.9895   0.4489 C.3            1 S1                 0.0000
      2 ****        -3.8269  -0.3258   1.7021 C.3            1 S1                 0.0000
      3 ****        -4.2679  -1.1092   2.9492 C.3            1 S1                 0.0000
      4 ****        -2.2821  -0.2705   1.6368 C.3            1 S1                 0.0000
      5 ****        -1.8104   0.6973   0.6168 N.4            1 S1                 1.0000
      6 ****        -0.3315   0.7048   0.4900 C.3            1 S1                 0.0000
      7 ****         0.1456   1.3143  -0.8424 C.3            1 S1                 0.0000
      8 ****         1.5972   1.2493  -0.9674 N.am           1 S1                 0.0000
      9 ****         2.2861   0.1598  -1.3356 C.2            1 S1                 0.0000
     10 ****         1.7495  -0.9110  -1.6175 O.2            1 S1                 0.0000
     11 ****         3.6076   0.4056  -1.3572 N.am           1 S1                 0.0000
     12 ****         4.6833  -0.4739  -1.6628 C.ar           1 S1                 0.0000
     13 ****         4.5676  -1.8799  -1.7937 C.ar           1 S1                 0.0000
     14 ****         5.7205  -2.6330  -2.0882 C.ar           1 S1                 0.0000
     15 ****         6.9469  -1.9574  -2.2363 C.ar           1 S1                 0.0000
     16 ****         7.0745  -0.6203  -2.1063 N.ar           1 S1                 0.0000
     17 ****         5.9649   0.0951  -1.8243 C.ar           1 S1                 0.0000
     18 ****        -2.3926   2.0358   0.8737 C.3            1 S1                 0.0000
     19 ****        -3.9250   1.9503   0.9124 C.3            1 S1                 0.0000
     20 ****        -4.3387   0.9966   1.8861 O.3            1 S1                 0.0000
     21 ****        -4.1401  -2.0362   0.3781 H              1 S1                 0.0000
     22 ****        -4.1211  -0.5079  -0.4758 H              1 S1                 0.0000
     23 ****        -5.5269  -0.9598   0.4808 H              1 S1                 0.0000
     24 ****        -3.9070  -2.1379   2.9205 H              1 S1                 0.0000
     25 ****        -5.3549  -1.1424   3.0315 H              1 S1                 0.0000
     26 ****        -3.8857  -0.6505   3.8617 H              1 S1                 0.0000
     27 ****        -1.8758   0.0225   2.6066 H              1 S1                 0.0000
     28 ****        -1.8869  -1.2640   1.4196 H              1 S1                 0.0000
     29 ****         0.1105   1.2320   1.3370 H              1 S1                 0.0000
     30 ****         0.0278  -0.3238   0.5463 H              1 S1                 0.0000
     31 ****        -0.3254   0.8075  -1.6866 H              1 S1                 0.0000
     32 ****        -0.1368   2.3640  -0.9130 H              1 S1                 0.0000
     33 ****         2.1135   2.0911  -0.7560 H              1 S1                 0.0000
     34 ****         3.8807   1.3549  -1.1487 H              1 S1                 0.0000
     35 ****         3.6323  -2.4008  -1.6677 H              1 S1                 0.0000
     36 ****         5.6657  -3.7062  -2.1953 H              1 S1                 0.0000
     37 ****         7.8496  -2.5061  -2.4611 H              1 S1                 0.0000
     38 ****         6.1067   1.1615  -1.7250 H              1 S1                 0.0000
     39 ****        -2.0155   2.4246   1.8209 H              1 S1                 0.0000
     40 ****        -2.0967   2.7413   0.0985 H              1 S1                 0.0000
     41 ****        -4.3439   2.9205   1.1799 H              1 S1                 0.0000
     42 ****        -4.3279   1.7027  -0.0697 H              1 S1                 0.0000
     43 ****        -2.1753   0.3766  -0.2689 H              1 S1                 0.0000
     44 ****         0.7541  -0.9973  -1.5774 LP             1 S1                 0.0000
     45 ****         2.3089  -1.6951  -1.8866 LP             1 S1                 0.0000
     46 ****         7.9626  -0.1737  -2.2153 LP             1 S1                 0.0000
     47 ****        -4.0397   1.3215   2.7834 LP             1 S1                 0.0000
     48 ****        -5.3372   0.9470   1.8653 LP             1 S1                 0.0000
@<TRIPOS>BOND
    1    1    2 1     
    2    1   21 1     
    3    1   22 1     
    4    1   23 1     
    5    2   20 1     
    6    2    3 1     
    7    2    4 1     
    8    3   24 1     
    9    3   25 1     
   10    3   26 1     
   11    4    5 1     
   12    4   27 1     
   13    4   28 1     
   14    5    6 1     
   15    5   18 1     
   16    5   43 1     
   17    6    7 1     
   18    6   29 1     
   19    6   30 1     
   20    7    8 1     
   21    7   31 1     
   22    7   32 1     
   23    8    9 am    
   24    8   33 1     
   25    9   10 2     
   26    9   11 am    
   27   11   12 1     
   28   11   34 1     
   29   12   17 ar    
   30   12   13 ar    
   31   13   14 ar    
   32   13   35 1     
   33   14   15 ar    
   34   14   36 1     
   35   15   16 ar    
   36   15   37 1     
   37   16   17 ar    
   38   17   38 1     
   39   18   19 1     
   40   18   39 1     
   41   18   40 1     
   42   19   20 1     
   43   19   41 1     
   44   19   42 1     
   45   10   44 1     
   46   10   45 1     
   47   16   46 1     
   48   20   47 1     
   49   20   48 1     
@<TRIPOS>SUBSTRUCTURE
      1 S1             1
@<TRIPOS>SET
LONE_PAIRS      STATIC     ATOMS    <user>   **** ""
5 44 45 46 47 48
DONOR_HYDROGENS      STATIC     ATOMS    <user>   **** ""
3 43 33 34
ATOM$BLUE        STATIC     ATOMS    COLORGROUP SYSTEM
5 44 45 46 47 48
ATOM$RED        STATIC     ATOMS    COLORGROUP SYSTEM
3 43 33 34
