AV-unprocessed.smi:3291|AV-procd|sdf|12620|dock8
  -GOLD-   2272018553D 1   1.00000     0.00000
 Structure written by MMmdl.
 43 45  0  0  0  0  0  0  0  0  2 V2000
  150.3707  129.1779  154.0593 C   0  0  0  0  0  0  0  0  0  0  0  0
  150.5209  130.5294  154.6975 C   0  0  0  0  0  0  0  0  0  0  0  0
  151.3930  130.6925  155.6765 N   0  0  0  0  0  0  0  0  0  0  0  0
  151.2967  132.0340  156.0537 O   0  0  0  0  0  0  0  0  0  0  0  0
  150.3597  132.6354  155.2782 C   0  0  0  0  0  0  0  0  0  0  0  0
  150.1268  134.0860  155.5420 C   0  0  0  0  0  0  0  0  0  0  0  0
  149.8294  131.7369  154.3878 C   0  0  0  0  0  0  0  0  0  0  0  0
  148.7728  131.9310  153.3205 C   0  0  1  0  0  0  0  0  0  0  0  0
  147.6776  130.8603  153.4339 C   0  0  0  0  0  0  0  0  0  0  0  0
  148.1773  133.3507  153.3486 C   0  0  0  0  0  0  0  0  0  0  0  0
  147.5635  133.7014  152.0497 N   0  3  0  0  0  0  0  0  0  0  0  0
  146.1101  133.4517  151.9489 C   0  0  0  0  0  0  0  0  0  0  0  0
  145.8358  132.6665  150.6791 C   0  0  0  0  0  0  0  0  0  0  0  0
  144.4849  132.0398  150.4218 C   0  0  0  0  0  0  0  0  0  0  0  0
  145.6808  131.1640  150.7105 C   0  0  0  0  0  0  0  0  0  0  0  0
  145.3391  134.7636  151.9536 C   0  0  0  0  0  0  0  0  0  0  0  0
  144.1993  135.0135  150.9912 C   0  0  0  0  0  0  0  0  0  0  0  0
  145.4972  135.7652  150.8317 C   0  0  0  0  0  0  0  0  0  0  0  0
  149.3611  128.7918  154.2004 H   0  0  0  0  0  0  0  0  0  0  0  0
  151.0647  128.4505  154.4818 H   0  0  0  0  0  0  0  0  0  0  0  0
  150.5604  129.2295  152.9872 H   0  0  0  0  0  0  0  0  0  0  0  0
  149.0667  134.3306  155.4885 H   0  0  0  0  0  0  0  0  0  0  0  0
  150.6543  134.6997  154.8125 H   0  0  0  0  0  0  0  0  0  0  0  0
  150.4823  134.3650  156.5341 H   0  0  0  0  0  0  0  0  0  0  0  0
  149.2269  131.8015  152.3373 H   0  0  0  0  0  0  0  0  0  0  0  0
  148.1011  129.8586  153.3537 H   0  0  0  0  0  0  0  0  0  0  0  0
  146.9396  130.9678  152.6387 H   0  0  0  0  0  0  0  0  0  0  0  0
  147.1485  130.9217  154.3848 H   0  0  0  0  0  0  0  0  0  0  0  0
  147.4148  133.4188  154.1257 H   0  0  0  0  0  0  0  0  0  0  0  0
  148.9499  134.0739  153.6046 H   0  0  0  0  0  0  0  0  0  0  0  0
  147.7369  134.6781  151.8588 H   0  0  0  0  0  0  0  0  0  0  0  0
  145.7930  132.8465  152.8002 H   0  0  0  0  0  0  0  0  0  0  0  0
  146.3348  133.0722  149.8004 H   0  0  0  0  0  0  0  0  0  0  0  0
  143.7267  132.1148  151.1986 H   0  0  0  0  0  0  0  0  0  0  0  0
  144.1093  132.0590  149.4007 H   0  0  0  0  0  0  0  0  0  0  0  0
  146.1011  130.5980  149.8814 H   0  0  0  0  0  0  0  0  0  0  0  0
  145.7150  130.6680  151.6786 H   0  0  0  0  0  0  0  0  0  0  0  0
  145.2299  135.1992  152.9456 H   0  0  0  0  0  0  0  0  0  0  0  0
  143.9745  134.2434  150.2560 H   0  0  0  0  0  0  0  0  0  0  0  0
  143.3394  135.5650  151.3658 H   0  0  0  0  0  0  0  0  0  0  0  0
  145.5032  136.8203  151.0976 H   0  0  0  0  0  0  0  0  0  0  0  0
  146.1241  135.4954  149.9844 H   0  0  0  0  0  0  0  0  0  0  0  0
  148.0233  133.1510  151.3385 H   0  0  0  0  0  0  0  0  0  0  0  0
  1  2  1  0  0  0  0
  1 19  1  0  0  0  0
  1 20  1  0  0  0  0
  1 21  1  0  0  0  0
  2  7  1  0  0  0  0
  2  3  2  0  0  0  0
  3  4  1  0  0  0  0
  4  5  1  0  0  0  0
  5  6  1  0  0  0  0
  5  7  2  0  0  0  0
  6 22  1  0  0  0  0
  6 23  1  0  0  0  0
  6 24  1  0  0  0  0
  7  8  1  0  0  0  0
  8  9  1  0  0  0  0
  8 10  1  0  0  0  0
  8 25  1  0  0  0  0
  9 26  1  0  0  0  0
  9 27  1  0  0  0  0
  9 28  1  0  0  0  0
 10 11  1  0  0  0  0
 10 29  1  0  0  0  0
 10 30  1  0  0  0  0
 11 12  1  0  0  0  0
 11 31  1  0  0  0  0
 11 43  1  0  0  0  0
 12 13  1  0  0  0  0
 12 16  1  0  0  0  0
 12 32  1  0  0  0  0
 13 15  1  0  0  0  0
 13 14  1  0  0  0  0
 13 33  1  0  0  0  0
 14 15  1  0  0  0  0
 14 34  1  0  0  0  0
 14 35  1  0  0  0  0
 15 36  1  0  0  0  0
 15 37  1  0  0  0  0
 16 18  1  0  0  0  0
 16 17  1  0  0  0  0
 16 38  1  0  0  0  0
 17 18  1  0  0  0  0
 17 39  1  0  0  0  0
 17 40  1  0  0  0  0
 18 41  1  0  0  0  0
 18 42  1  0  0  0  0
M  CHG  1  11   1
M  END
> <s_m_source_file>
AV-unprocessed.smi

> <i_m_source_file_index>
3291

> <i_lp_mmshare_version>
43012

> <i_f3d_flags>
0

> <s_epik_input>
W0NIM11jMW5vYyhbQ0gzXSljMVtDQEhdKFtDSDNdKVtDSDJdW05IXVtDSF0oW0NIXTJbQ0gyXVtDSDJdMilbQ0hdM1tDSDJdW0NIMl0z

> <s_epik_cmdline>
J2VwaWtfcHl0aG9uJywgJy1waCcsICc3LjAnLCAnLXRuJywgJzgnLCAnLW1hJywgJzIwMCcsICctbWV0YWxfYmluZGluZycsICctaW1hZScsICc8aW5maWxlLm1hZT4nLCAnLW9tYWUnLCAnPG91dGZpbGUubWFlPic=

> <r_lp_tautomer_probability>
1

> <r_epik_Ionization_Penalty>
0.000158108

> <r_epik_Ionization_Penalty_Charging>
0.000158108

> <r_epik_Ionization_Penalty_Neutral>
1.14678e-10

> <r_epik_State_Penalty>
-0

> <r_epik_Charging_Adjusted_Penalty>
0.000158108

> <i_epik_Tot_Q>
1

> <i_epik_Tot_abs_Q>
1

> <r_epik_Metal_State_Penalty>
-0

> <b_epik_Metal_Only>
0

> <s_lp_Force_Field>
OPLS_2005

> <r_lp_Energy>
24.4944

> <b_lp_Chiralities_Consistent>
1

> <s_lp_Variant>
AV-unprocessed.smi:3291-2

> <Gold.Version>
5.8.1

> <Gold.Id.Protein>
6NUR|6NUR_protein|mol2

> <Gold.PLP.Fitness>
40.2613

> <Gold.PLP.PLP>
-36.9044

> <Gold.PLP.part.hbond>
-1.0000

> <Gold.PLP.part.metal>
0.0000

> <Gold.PLP.part.buried>
-4.0899

> <Gold.PLP.part.nonpolar>
-31.0852

> <Gold.PLP.part.repulsive>
0.0365

> <Gold.PLP.ligand.clash>
0.0000

> <Gold.PLP.ligand.torsion>
2.4242

> <Gold.PLP.Chemscore.Hbond>
2.0000

> <Gold.PLP.Chemscore.CHOScore>
0.0000

> <Gold.PLP.Chemscore.Metal>
0.0000

> <Gold.Chemscore.Hbonds>
donor molecule, donor type, donor heavy atom, donor atom, acceptor molecule, acceptor atom, score
      L1  H    11    31       P1  7948  1.98

> <Gold.PLP.Chemscore.Internal.Correction>
2.2054

> <Gold.Rescore>
     Score         DG    S(hbond)    S(metal)    S(lipo)     H(rot)  DE(clash)    DE(int)     intcor
     10.59     -14.94       0.68        0.00      94.28       1.50       0.04       4.31       ----

> <Gold.Chemscore.Fitness>
10.5924

> <Gold.Chemscore.DG>
-14.9434

> <Gold.Chemscore.ZeroCoef>
-5.4800

> <Gold.Chemscore.Hbond>
0.6816

> <Gold.Chemscore.Metal>
0.0000

> <Gold.Chemscore.Lipo>
94.2797

> <Gold.Chemscore.Internal_Hbond>
0.0000

> <Gold.Chemscore.DEClash>
0.0439

> <Gold.Chemscore.DEInternal>
4.3071

> <Gold.Chemscore.Rot>
1.5015

> <Gold.Chemscore.Internal.Correction>
   9.000000E+99

> <Gold.Chemscore.Hbonds>
donor molecule, donor type, donor heavy atom, donor atom, acceptor molecule, acceptor atom, score
      L1  H    11    31       P1  7948  0.37

> <Gold.Chemscore.Hbond.Weighted>
-2.2765

> <Gold.Chemscore.Metal.Weighted>
-0.0000

> <Gold.Chemscore.Lipo.Weighted>
-11.0307

> <Gold.Chemscore.Internal_Hbond.Weighted>
0.0000

> <Gold.Chemscore.DEClash.Weighted>
0.0439

> <Gold.Chemscore.DEInternal.Weighted>
4.3071

> <Gold.Chemscore.Rot.Weighted>
3.8438

> <Gold.Chemscore.Internal.Correction.Weighted>
   9.000000E+99

> <Gold.Protein.RotatedTorsions>
[ 6907 6896 6895 6894 ] final  -34.22 input  -60.11 | X-H torsion
[ 7974 7965 7964 7962 ] final  -29.18 input  175.53 | X-H torsion
[ 8008 7997 7996 7995 ] final  -99.33 input   59.86 | X-H torsion
[ 10167 10162 10161 10158 ] final  -21.31 input  -65.29 | X-H torsion
[ 10718 10713 10712 10709 ] final  128.80 input   66.30 | X-H torsion
[ 10763 10752 10751 10750 ] final   98.57 input  -60.55 | X-H torsion
[ 11005 11000 10999 10996 ] final -114.35 input  -57.11 | X-H torsion

> <Gold.Protein.ActiveResidues>
 VAL166  LYS551  ARG553  GLY616  TRP617  ASP618  TYR619  PRO620  LYS621  CYS622 
 ASP623  PHE694  ASN695  SER759  ASP760  ASP761  ALA762  ILE779  LEU786  VAL792 
 PHE793  MET794  SER795  GLU796  ALA797  LYS798  CYS799  TRP800  GLU811  SER814 

> <Gold.Protein.RotatedAtoms>
  151.0554  134.9701  159.8232 H   0  0  0  0  0  0  0  0  0  0  0  0  # atno 6907 bound_to 6896
  152.5387  134.2484  159.8899 H   0  0  0  0  0  0  0  0  0  0  0  0  # atno 6908 bound_to 6896
  151.2501  133.4311  159.2645 H   0  0  0  0  0  0  0  0  0  0  0  0  # atno 6909 bound_to 6896
  146.1235  140.5379  142.8725 H   0  0  0  0  0  0  0  0  0  0  0  0  # atno 7974 bound_to 7965
  154.8134  140.0448  157.1359 H   0  0  0  0  0  0  0  0  0  0  0  0  # atno 8008 bound_to 7997
  154.9342  140.3044  155.5132 H   0  0  0  0  0  0  0  0  0  0  0  0  # atno 8009 bound_to 7997
  156.2974  140.2317  156.4405 H   0  0  0  0  0  0  0  0  0  0  0  0  # atno 8010 bound_to 7997
  140.7281  143.4640  151.0339 H   0  0  0  0  0  0  0  0  0  0  0  0  # atno 10167 bound_to 10162
  157.5211  131.1098  150.9151 H   0  0  0  0  0  0  0  0  0  0  0  0  # atno 10718 bound_to 10713
  153.2907  135.4144  155.1164 H   0  0  0  0  0  0  0  0  0  0  0  0  # atno 10763 bound_to 10752
  154.8519  135.3517  154.5986 H   0  0  0  0  0  0  0  0  0  0  0  0  # atno 10764 bound_to 10752
  153.6408  135.7057  153.5300 H   0  0  0  0  0  0  0  0  0  0  0  0  # atno 10765 bound_to 10752
  141.0557  133.9616  157.2757 H   0  0  0  0  0  0  0  0  0  0  0  0  # atno 11005 bound_to 11000
  144.7620  140.5443  143.6729 LP  0  0  0  0  0  0  0  0  0  0  0  0  # atno 17320 bound_to 7965
  145.5415  139.1475  143.3444 LP  0  0  0  0  0  0  0  0  0  0  0  0  # atno 17321 bound_to 7965
  139.8327  143.7669  152.3180 LP  0  0  0  0  0  0  0  0  0  0  0  0  # atno 17342 bound_to 10162
  139.7791  144.7451  151.0114 LP  0  0  0  0  0  0  0  0  0  0  0  0  # atno 17343 bound_to 10162
  156.9761  130.5509  149.5293 LP  0  0  0  0  0  0  0  0  0  0  0  0  # atno 17370 bound_to 10713
  156.0354  130.5442  150.8641 LP  0  0  0  0  0  0  0  0  0  0  0  0  # atno 17371 bound_to 10713
  139.9388  135.0193  156.8643 LP  0  0  0  0  0  0  0  0  0  0  0  0  # atno 17394 bound_to 11000
  140.5968  134.0209  155.7521 LP  0  0  0  0  0  0  0  0  0  0  0  0  # atno 17395 bound_to 11000

$$$$
