AV-unprocessed.smi:1360|AV-procd|sdf|5553|dock8
  -GOLD-   22720 5143D 1   1.00000     0.00000
 Structure written by MMmdl.
 36 37  0  0  0  0  0  0  0  0  1 V2000
  147.6530  139.8188  156.2360 C   0  0  0  0  0  0  0  0  0  0  0  0
  148.1133  141.1058  155.5316 C   0  0  2  0  0  0  0  0  0  0  0  0
  148.8777  140.8399  154.2157 C   0  0  0  0  0  0  0  0  0  0  0  0
  149.9252  139.8447  154.3585 N   0  0  0  0  0  0  0  0  0  0  0  0
  149.8839  138.5042  154.0369 C   0  0  0  0  0  0  0  0  0  0  0  0
  151.1024  137.9737  154.3504 C   0  0  0  0  0  0  0  0  0  0  0  0
  151.8293  139.0810  154.8705 C   0  0  0  0  0  0  0  0  0  0  0  0
  151.1213  140.1987  154.8762 N   0  0  0  0  0  0  0  0  0  0  0  0
  148.9457  141.8800  156.4480 N   0  0  0  0  0  0  0  0  0  0  0  0
  149.8974  141.3769  157.2500 C   0  0  0  0  0  0  0  0  0  0  0  0
  150.1689  140.1770  157.3048 O   0  0  0  0  0  0  0  0  0  0  0  0
  150.6606  142.3830  158.1221 C   0  0  1  0  0  0  0  0  0  0  0  0
  151.6671  141.6695  159.0548 C   0  0  0  0  0  0  0  0  0  0  0  0
  152.6122  142.6457  159.7332 C   0  0  0  0  0  0  0  0  0  0  0  0
  152.7835  143.9145  159.3241 C   0  0  0  0  0  0  0  0  0  0  0  0
  152.0543  144.5143  158.1349 C   0  0  0  0  0  0  0  0  0  0  0  0
  151.3805  143.4395  157.2605 C   0  0  0  0  0  0  0  0  0  0  0  0
  146.9505  139.2554  155.6216 H   0  0  0  0  0  0  0  0  0  0  0  0
  147.1472  140.0457  157.1751 H   0  0  0  0  0  0  0  0  0  0  0  0
  148.4971  139.1662  156.4610 H   0  0  0  0  0  0  0  0  0  0  0  0
  147.2174  141.6860  155.3022 H   0  0  0  0  0  0  0  0  0  0  0  0
  148.1923  140.5029  153.4366 H   0  0  0  0  0  0  0  0  0  0  0  0
  149.3311  141.7630  153.8518 H   0  0  0  0  0  0  0  0  0  0  0  0
  149.0025  138.0456  153.6131 H   0  0  0  0  0  0  0  0  0  0  0  0
  151.4251  136.9505  154.2281 H   0  0  0  0  0  0  0  0  0  0  0  0
  152.8430  139.1055  155.2421 H   0  0  0  0  0  0  0  0  0  0  0  0
  148.7898  142.8772  156.4701 H   0  0  0  0  0  0  0  0  0  0  0  0
  149.9365  142.9081  158.7485 H   0  0  0  0  0  0  0  0  0  0  0  0
  151.1279  141.1166  159.8247 H   0  0  0  0  0  0  0  0  0  0  0  0
  152.2718  140.9443  158.5086 H   0  0  0  0  0  0  0  0  0  0  0  0
  153.1736  142.2734  160.5777 H   0  0  0  0  0  0  0  0  0  0  0  0
  153.4616  144.5640  159.8580 H   0  0  0  0  0  0  0  0  0  0  0  0
  151.3084  145.2126  158.5152 H   0  0  0  0  0  0  0  0  0  0  0  0
  152.7563  145.0945  157.5357 H   0  0  0  0  0  0  0  0  0  0  0  0
  152.1393  142.9521  156.6461 H   0  0  0  0  0  0  0  0  0  0  0  0
  150.6842  143.9151  156.5684 H   0  0  0  0  0  0  0  0  0  0  0  0
  1  2  1  0  0  0  0
  1 18  1  0  0  0  0
  1 19  1  0  0  0  0
  1 20  1  0  0  0  0
  2  3  1  0  0  0  0
  2  9  1  0  0  0  0
  2 21  1  0  0  0  0
  3  4  1  0  0  0  0
  3 22  1  0  0  0  0
  3 23  1  0  0  0  0
  4  8  1  0  0  0  0
  4  5  1  0  0  0  0
  5  6  2  0  0  0  0
  5 24  1  0  0  0  0
  6  7  1  0  0  0  0
  6 25  1  0  0  0  0
  7  8  2  0  0  0  0
  7 26  1  0  0  0  0
  9 10  1  0  0  0  0
  9 27  1  0  0  0  0
 10 11  2  0  0  0  0
 10 12  1  0  0  0  0
 12 17  1  0  0  0  0
 12 13  1  0  0  0  0
 12 28  1  0  0  0  0
 13 14  1  0  0  0  0
 13 29  1  0  0  0  0
 13 30  1  0  0  0  0
 14 15  2  0  0  0  0
 14 31  1  0  0  0  0
 15 16  1  0  0  0  0
 15 32  1  0  0  0  0
 16 17  1  0  0  0  0
 16 33  1  0  0  0  0
 16 34  1  0  0  0  0
 17 35  1  0  0  0  0
 17 36  1  0  0  0  0
M  END
> <s_m_source_file>
AV-unprocessed.smi

> <i_m_source_file_index>
1360

> <i_lp_mmshare_version>
43012

> <i_f3d_flags>
0

> <s_epik_input>
bjFbY0hdW2NIXVtjSF1uMVtDSDJdW0NAQEhdKFtDSDNdKVtOSF1DKD1PKVtDQEBIXTJbQ0gyXVtDSF09W0NIXVtDSDJdW0NIMl0y

> <s_epik_cmdline>
J2VwaWtfcHl0aG9uJywgJy1waCcsICc3LjAnLCAnLXRuJywgJzgnLCAnLW1hJywgJzIwMCcsICctbWV0YWxfYmluZGluZycsICctaW1hZScsICc8aW5maWxlLm1hZT4nLCAnLW9tYWUnLCAnPG91dGZpbGUubWFlPic=

> <r_lp_tautomer_probability>
1

> <r_epik_Ionization_Penalty>
0.000315076

> <r_epik_Ionization_Penalty_Charging>
0

> <r_epik_Ionization_Penalty_Neutral>
0.000315076

> <r_epik_State_Penalty>
-0

> <r_epik_Charging_Adjusted_Penalty>
0

> <i_epik_Tot_Q>
0

> <i_epik_Tot_abs_Q>
0

> <r_epik_Metal_State_Penalty>
-0

> <b_epik_Metal_Only>
0

> <s_lp_Force_Field>
OPLS_2005

> <r_lp_Energy>
8.32294

> <b_lp_Chiralities_Consistent>
1

> <s_lp_Variant>
AV-unprocessed.smi:1360-3

> <Gold.Version>
5.8.1

> <Gold.Id.Protein>
6NUR|6NUR_protein|mol2

> <Gold.PLP.Fitness>
45.0255

> <Gold.PLP.PLP>
-38.4116

> <Gold.PLP.part.hbond>
-2.0000

> <Gold.PLP.part.metal>
0.0000

> <Gold.PLP.part.buried>
-2.3510

> <Gold.PLP.part.nonpolar>
-34.6536

> <Gold.PLP.part.repulsive>
0.0766

> <Gold.PLP.ligand.clash>
0.0000

> <Gold.PLP.ligand.torsion>
0.6580

> <Gold.PLP.Chemscore.Hbond>
1.7500

> <Gold.PLP.Chemscore.CHOScore>
0.8831

> <Gold.PLP.Chemscore.Metal>
0.0000

> <Gold.Chemscore.Hbonds>
donor molecule, donor type, donor heavy atom, donor atom, acceptor molecule, acceptor atom, score
      L1  H     9    27       P1  8028  1.00
      P1  H  7989  7998       L1     8  0.70
      L1  C     5    24       P1  7948  0.91

> <Gold.PLP.Chemscore.Internal.Correction>
0.0305

> <Gold.Rescore>
     Score         DG    S(hbond)    S(metal)    S(lipo)     H(rot)  DE(clash)    DE(int)     intcor
     17.22     -19.86       1.90        0.00     101.56       1.51       0.33       2.31       ----

> <Gold.Chemscore.Fitness>
17.2216

> <Gold.Chemscore.DG>
-19.8563

> <Gold.Chemscore.ZeroCoef>
-5.4800

> <Gold.Chemscore.Hbond>
1.9006

> <Gold.Chemscore.Metal>
0.0000

> <Gold.Chemscore.Lipo>
101.5619

> <Gold.Chemscore.Internal_Hbond>
0.0000

> <Gold.Chemscore.DEClash>
0.3277

> <Gold.Chemscore.DEInternal>
2.3069

> <Gold.Chemscore.Rot>
1.5057

> <Gold.Chemscore.Internal.Correction>
   9.000000E+99

> <Gold.Chemscore.Hbonds>
donor molecule, donor type, donor heavy atom, donor atom, acceptor molecule, acceptor atom, score
      L1  H     9    27       P1  8028  0.90
      P1  H  7989  7998       L1     8  0.02

> <Gold.Chemscore.Hbond.Weighted>
-6.3482

> <Gold.Chemscore.Metal.Weighted>
-0.0000

> <Gold.Chemscore.Lipo.Weighted>
-11.8827

> <Gold.Chemscore.Internal_Hbond.Weighted>
0.0000

> <Gold.Chemscore.DEClash.Weighted>
0.3277

> <Gold.Chemscore.DEInternal.Weighted>
2.3069

> <Gold.Chemscore.Rot.Weighted>
3.8546

> <Gold.Chemscore.Internal.Correction.Weighted>
   9.000000E+99

> <Gold.Protein.RotatedTorsions>
[ 6907 6896 6895 6894 ] final -131.98 input  -60.11 | X-H torsion
[ 7974 7965 7964 7962 ] final  -46.66 input  175.53 | X-H torsion
[ 8008 7997 7996 7995 ] final  125.25 input   59.86 | X-H torsion
[ 10167 10162 10161 10158 ] final -156.90 input  -65.29 | X-H torsion
[ 10718 10713 10712 10709 ] final  161.87 input   66.30 | X-H torsion
[ 10763 10752 10751 10750 ] final -171.73 input  -60.55 | X-H torsion
[ 11005 11000 10999 10996 ] final  147.44 input  -57.11 | X-H torsion

> <Gold.Protein.ActiveResidues>
 VAL166  LYS551  ARG553  GLY616  TRP617  ASP618  TYR619  PRO620  LYS621  CYS622 
 ASP623  PHE694  ASN695  SER759  ASP760  ASP761  ALA762  ILE779  LEU786  VAL792 
 PHE793  MET794  SER795  GLU796  ALA797  LYS798  CYS799  TRP800  GLU811  SER814 

> <Gold.Protein.RotatedAtoms>
  150.9572  133.6485  159.2760 H   0  0  0  0  0  0  0  0  0  0  0  0  # atno 6907 bound_to 6896
  151.3820  135.0940  159.9509 H   0  0  0  0  0  0  0  0  0  0  0  0  # atno 6908 bound_to 6896
  152.5133  133.9104  159.7540 H   0  0  0  0  0  0  0  0  0  0  0  0  # atno 6909 bound_to 6896
  145.9696  140.7397  142.9417 H   0  0  0  0  0  0  0  0  0  0  0  0  # atno 7974 bound_to 7965
  156.2828  140.2721  156.1918 H   0  0  0  0  0  0  0  0  0  0  0  0  # atno 8008 bound_to 7997
  155.0450  140.0386  157.2541 H   0  0  0  0  0  0  0  0  0  0  0  0  # atno 8009 bound_to 7997
  154.7242  140.2694  155.6519 H   0  0  0  0  0  0  0  0  0  0  0  0  # atno 8010 bound_to 7997
  139.6813  143.9576  152.2338 H   0  0  0  0  0  0  0  0  0  0  0  0  # atno 10167 bound_to 10162
  157.1304  131.0515  151.2374 H   0  0  0  0  0  0  0  0  0  0  0  0  # atno 10718 bound_to 10713
  154.6273  135.2882  155.0257 H   0  0  0  0  0  0  0  0  0  0  0  0  # atno 10763 bound_to 10752
  154.1431  135.6515  153.4950 H   0  0  0  0  0  0  0  0  0  0  0  0  # atno 10764 bound_to 10752
  153.0263  135.5337  154.7086 H   0  0  0  0  0  0  0  0  0  0  0  0  # atno 10765 bound_to 10752
  140.0876  134.9060  157.1600 H   0  0  0  0  0  0  0  0  0  0  0  0  # atno 11005 bound_to 11000
  144.6833  140.2726  143.7303 LP  0  0  0  0  0  0  0  0  0  0  0  0  # atno 17320 bound_to 7965
  145.7925  139.1932  143.2094 LP  0  0  0  0  0  0  0  0  0  0  0  0  # atno 17321 bound_to 7965
  139.9367  144.6707  150.8308 LP  0  0  0  0  0  0  0  0  0  0  0  0  # atno 17342 bound_to 10162
  140.7653  143.3272  151.2490 LP  0  0  0  0  0  0  0  0  0  0  0  0  # atno 17343 bound_to 10162
  157.4397  130.7537  149.7059 LP  0  0  0  0  0  0  0  0  0  0  0  0  # atno 17370 bound_to 10713
  155.9809  130.4025  150.3502 LP  0  0  0  0  0  0  0  0  0  0  0  0  # atno 17371 bound_to 10713
  140.3398  134.2716  155.7214 LP  0  0  0  0  0  0  0  0  0  0  0  0  # atno 17394 bound_to 11000
  141.2067  133.7825  157.0159 LP  0  0  0  0  0  0  0  0  0  0  0  0  # atno 17395 bound_to 11000

$$$$
