AV-unprocessed.smi:2528|AV-procd|sdf|9957|dock2
  -GOLD-   2272013593D 1   1.00000     0.00000
 Structure written by MMmdl.
 43 45  0  0  0  0  0  0  0  0  1 V2000
  144.7281  136.7595  152.1566 O   0  0  0  0  0  0  0  0  0  0  0  0
  145.9093  136.5698  151.8665 C   0  0  0  0  0  0  0  0  0  0  0  0
  146.8613  137.5070  151.9812 N   0  0  0  0  0  0  0  0  0  0  0  0
  146.6596  138.8628  152.4820 C   0  0  0  0  0  0  0  0  0  0  0  0
  146.5732  138.8863  154.0230 C   0  0  1  0  0  0  0  0  0  0  0  0
  147.8449  138.3526  154.7120 C   0  0  0  0  0  0  0  0  0  0  0  0
  148.9645  139.2842  154.6429 N   0  0  0  0  0  0  0  0  0  0  0  0
  150.1369  138.7481  155.3338 C   0  0  0  0  0  0  0  0  0  0  0  0
  151.3470  139.6924  155.2608 C   0  0  0  0  0  0  0  0  0  0  0  0
  150.9808  141.0698  155.8308 C   0  0  0  0  0  0  0  0  0  0  0  0
  149.7214  141.6075  155.1349 C   0  0  0  0  0  0  0  0  0  0  0  0
  148.5707  140.5813  155.1998 C   0  0  1  0  0  0  0  0  0  0  0  0
  147.3231  141.1297  154.4817 C   0  0  0  0  0  0  0  0  0  0  0  0
  146.2588  140.1826  154.5353 O   0  0  0  0  0  0  0  0  0  0  0  0
  146.4183  135.4159  151.3996 N   0  0  0  0  0  0  0  0  0  0  0  0
  145.7367  134.1977  151.1353 C   0  0  0  0  0  0  0  0  0  0  0  0
  146.5722  133.0927  150.8547 C   0  0  0  0  0  0  0  0  0  0  0  0
  145.9939  131.8388  150.5771 C   0  0  0  0  0  0  0  0  0  0  0  0
  144.5926  131.7217  150.5872 C   0  0  0  0  0  0  0  0  0  0  0  0
  143.8334  132.8706  150.8758 C   0  0  0  0  0  0  0  0  0  0  0  0
  144.3858  134.0731  151.1419 N   0  0  0  0  0  0  0  0  0  0  0  0
  147.8038  137.2597  151.7176 H   0  0  0  0  0  0  0  0  0  0  0  0
  147.5176  139.4537  152.1609 H   0  0  0  0  0  0  0  0  0  0  0  0
  145.7888  139.3316  152.0220 H   0  0  0  0  0  0  0  0  0  0  0  0
  145.7490  138.2324  154.3105 H   0  0  0  0  0  0  0  0  0  0  0  0
  147.6124  138.1477  155.7583 H   0  0  0  0  0  0  0  0  0  0  0  0
  148.1283  137.3965  154.2703 H   0  0  0  0  0  0  0  0  0  0  0  0
  149.8936  138.5544  156.3798 H   0  0  0  0  0  0  0  0  0  0  0  0
  150.4103  137.7866  154.8980 H   0  0  0  0  0  0  0  0  0  0  0  0
  152.1884  139.2695  155.8102 H   0  0  0  0  0  0  0  0  0  0  0  0
  151.6701  139.7955  154.2240 H   0  0  0  0  0  0  0  0  0  0  0  0
  150.7993  140.9863  156.9030 H   0  0  0  0  0  0  0  0  0  0  0  0
  151.8104  141.7661  155.7058 H   0  0  0  0  0  0  0  0  0  0  0  0
  149.4166  142.5462  155.5989 H   0  0  0  0  0  0  0  0  0  0  0  0
  149.9532  141.8367  154.0937 H   0  0  0  0  0  0  0  0  0  0  0  0
  148.3097  140.4410  156.2503 H   0  0  0  0  0  0  0  0  0  0  0  0
  146.9866  142.0514  154.9564 H   0  0  0  0  0  0  0  0  0  0  0  0
  147.5544  141.3809  153.4468 H   0  0  0  0  0  0  0  0  0  0  0  0
  147.4093  135.4083  151.2103 H   0  0  0  0  0  0  0  0  0  0  0  0
  147.6472  133.2003  150.8510 H   0  0  0  0  0  0  0  0  0  0  0  0
  146.6150  130.9826  150.3604 H   0  0  0  0  0  0  0  0  0  0  0  0
  144.1120  130.7771  150.3791 H   0  0  0  0  0  0  0  0  0  0  0  0
  142.7547  132.8238  150.8933 H   0  0  0  0  0  0  0  0  0  0  0  0
  1  2  2  0  0  0  0
  2  3  1  0  0  0  0
  2 15  1  0  0  0  0
  3  4  1  0  0  0  0
  3 22  1  0  0  0  0
  4  5  1  0  0  0  0
  4 23  1  0  0  0  0
  4 24  1  0  0  0  0
  5 14  1  0  0  0  0
  5  6  1  0  0  0  0
  5 25  1  0  0  0  0
  6  7  1  0  0  0  0
  6 26  1  0  0  0  0
  6 27  1  0  0  0  0
  7 12  1  0  0  0  0
  7  8  1  0  0  0  0
  8  9  1  0  0  0  0
  8 28  1  0  0  0  0
  8 29  1  0  0  0  0
  9 10  1  0  0  0  0
  9 30  1  0  0  0  0
  9 31  1  0  0  0  0
 10 11  1  0  0  0  0
 10 32  1  0  0  0  0
 10 33  1  0  0  0  0
 11 12  1  0  0  0  0
 11 34  1  0  0  0  0
 11 35  1  0  0  0  0
 12 13  1  0  0  0  0
 12 36  1  0  0  0  0
 13 14  1  0  0  0  0
 13 37  1  0  0  0  0
 13 38  1  0  0  0  0
 15 16  1  0  0  0  0
 15 39  1  0  0  0  0
 16 21  1  0  0  0  0
 16 17  2  0  0  0  0
 17 18  1  0  0  0  0
 17 40  1  0  0  0  0
 18 19  2  0  0  0  0
 18 41  1  0  0  0  0
 19 20  1  0  0  0  0
 19 42  1  0  0  0  0
 20 21  2  0  0  0  0
 20 43  1  0  0  0  0
M  END
> <s_m_source_file>
AV-unprocessed.smi

> <i_m_source_file_index>
2528

> <i_lp_mmshare_version>
43012

> <i_f3d_flags>
0

> <s_epik_input>
bjFbY0hdW2NIXVtjSF1bY0hdYzFbTkhdQyg9TylbTkhdW0NIMl1bQ0BIXShbQ0gyXTIpT1tDSDJdW0NAQEhdKE4yMylbQ0gyXVtDSDJdW0NIMl1bQ0gyXTM=

> <s_epik_cmdline>
J2VwaWtfcHl0aG9uJywgJy1waCcsICc3LjAnLCAnLXRuJywgJzgnLCAnLW1hJywgJzIwMCcsICctbWV0YWxfYmluZGluZycsICctaW1hZScsICc8aW5maWxlLm1hZT4nLCAnLW9tYWUnLCAnPG91dGZpbGUubWFlPic=

> <r_epik_Ionization_Penalty>
1.14192

> <r_epik_Ionization_Penalty_Charging>
0

> <r_epik_Ionization_Penalty_Neutral>
1.14192

> <r_epik_State_Penalty>
1.20248

> <r_epik_Charging_Adjusted_Penalty>
1.20248

> <i_epik_Tot_Q>
0

> <i_epik_Tot_abs_Q>
0

> <r_epik_Metal_State_Penalty>
1.20248

> <b_epik_Metal_Only>
0

> <s_lp_Force_Field>
OPLS_2005

> <r_lp_Energy>
38.6775

> <b_lp_Chiralities_Consistent>
1

> <s_lp_Variant>
AV-unprocessed.smi:2528-10

> <Gold.Version>
5.8.1

> <Gold.Id.Protein>
6NUR|6NUR_protein|mol2

> <Gold.PLP.Fitness>
43.2184

> <Gold.PLP.PLP>
-35.0929

> <Gold.PLP.part.hbond>
-1.7806

> <Gold.PLP.part.metal>
0.0000

> <Gold.PLP.part.buried>
-4.2587

> <Gold.PLP.part.nonpolar>
-30.6530

> <Gold.PLP.part.repulsive>
1.6877

> <Gold.PLP.ligand.clash>
0.0000

> <Gold.PLP.ligand.torsion>
0.1535

> <Gold.PLP.Chemscore.Hbond>
1.8080

> <Gold.PLP.Chemscore.CHOScore>
1.0000

> <Gold.PLP.Chemscore.Metal>
0.0000

> <Gold.Chemscore.Hbonds>
donor molecule, donor type, donor heavy atom, donor atom, acceptor molecule, acceptor atom, score
      L1  H     3    22       P1  7948  0.94
      L1  H    15    39       P1  7948  0.80
      L1  C    20    43       P1 10186  0.51

> <Gold.PLP.Chemscore.Internal.Correction>
0.0085

> <Gold.Rescore>
     Score         DG    S(hbond)    S(metal)    S(lipo)     H(rot)  DE(clash)    DE(int)     intcor
     15.92     -17.55       1.81        0.00      79.26       1.27       0.26       1.38       ----

> <Gold.Chemscore.Fitness>
15.9176

> <Gold.Chemscore.DG>
-17.5545

> <Gold.Chemscore.ZeroCoef>
-5.4800

> <Gold.Chemscore.Hbond>
1.8119

> <Gold.Chemscore.Metal>
0.0000

> <Gold.Chemscore.Lipo>
79.2566

> <Gold.Chemscore.Internal_Hbond>
0.0000

> <Gold.Chemscore.DEClash>
0.2592

> <Gold.Chemscore.DEInternal>
1.3777

> <Gold.Chemscore.Rot>
1.2696

> <Gold.Chemscore.Internal.Correction>
   9.000000E+99

> <Gold.Chemscore.Hbonds>
donor molecule, donor type, donor heavy atom, donor atom, acceptor molecule, acceptor atom, score
      L1  H     3    22       P1  7948  0.84
      L1  H    15    39       P1  7948  0.56

> <Gold.Chemscore.Hbond.Weighted>
-6.0517

> <Gold.Chemscore.Metal.Weighted>
-0.0000

> <Gold.Chemscore.Lipo.Weighted>
-9.2730

> <Gold.Chemscore.Internal_Hbond.Weighted>
0.0000

> <Gold.Chemscore.DEClash.Weighted>
0.2592

> <Gold.Chemscore.DEInternal.Weighted>
1.3777

> <Gold.Chemscore.Rot.Weighted>
3.2502

> <Gold.Chemscore.Internal.Correction.Weighted>
   9.000000E+99

> <Gold.Protein.RotatedTorsions>
[ 6907 6896 6895 6894 ] final   12.72 input  -60.11 | X-H torsion
[ 7974 7965 7964 7962 ] final -115.04 input  175.53 | X-H torsion
[ 8008 7997 7996 7995 ] final -109.22 input   59.86 | X-H torsion
[ 10167 10162 10161 10158 ] final  -12.39 input  -65.29 | X-H torsion
[ 10718 10713 10712 10709 ] final   -2.55 input   66.30 | X-H torsion
[ 10763 10752 10751 10750 ] final -133.95 input  -60.55 | X-H torsion
[ 11005 11000 10999 10996 ] final  159.83 input  -57.11 | X-H torsion

> <Gold.Protein.ActiveResidues>
 VAL166  LYS551  ARG553  GLY616  TRP617  ASP618  TYR619  PRO620  LYS621  CYS622 
 ASP623  PHE694  ASN695  SER759  ASP760  ASP761  ALA762  ILE779  LEU786  VAL792 
 PHE793  MET794  SER795  GLU796  ALA797  LYS798  CYS799  TRP800  GLU811  SER814 

> <Gold.Protein.RotatedAtoms>
  151.7749  135.0777  160.0365 H   0  0  0  0  0  0  0  0  0  0  0  0  # atno 6907 bound_to 6896
  152.3263  133.5904  159.5787 H   0  0  0  0  0  0  0  0  0  0  0  0  # atno 6908 bound_to 6896
  150.7397  133.9851  159.3631 H   0  0  0  0  0  0  0  0  0  0  0  0  # atno 6909 bound_to 6896
  145.1131  140.8623  143.3858 H   0  0  0  0  0  0  0  0  0  0  0  0  # atno 7974 bound_to 7965
  154.9561  140.0400  157.2167 H   0  0  0  0  0  0  0  0  0  0  0  0  # atno 8008 bound_to 7997
  154.7933  140.2839  155.5953 H   0  0  0  0  0  0  0  0  0  0  0  0  # atno 8009 bound_to 7997
  156.2952  140.2569  156.2785 H   0  0  0  0  0  0  0  0  0  0  0  0  # atno 8010 bound_to 7997
  140.7160  143.5537  150.9272 H   0  0  0  0  0  0  0  0  0  0  0  0  # atno 10167 bound_to 10162
  156.7892  130.5356  149.5738 H   0  0  0  0  0  0  0  0  0  0  0  0  # atno 10718 bound_to 10713
  154.8726  135.3750  154.4656 H   0  0  0  0  0  0  0  0  0  0  0  0  # atno 10763 bound_to 10752
  153.5320  135.7027  153.5683 H   0  0  0  0  0  0  0  0  0  0  0  0  # atno 10764 bound_to 10752
  153.3883  135.3979  155.1870 H   0  0  0  0  0  0  0  0  0  0  0  0  # atno 10765 bound_to 10752
  140.2000  134.8345  157.3007 H   0  0  0  0  0  0  0  0  0  0  0  0  # atno 11005 bound_to 11000
  145.0825  139.2949  143.5776 LP  0  0  0  0  0  0  0  0  0  0  0  0  # atno 17320 bound_to 7965
  146.3525  140.0336  142.8648 LP  0  0  0  0  0  0  0  0  0  0  0  0  # atno 17321 bound_to 7965
  139.9262  143.6547  152.3086 LP  0  0  0  0  0  0  0  0  0  0  0  0  # atno 17342 bound_to 10162
  139.6982  144.7638  151.1319 LP  0  0  0  0  0  0  0  0  0  0  0  0  # atno 17343 bound_to 10162
  156.1170  130.6082  151.0135 LP  0  0  0  0  0  0  0  0  0  0  0  0  # atno 17370 bound_to 10713
  157.6609  131.0881  150.7841 LP  0  0  0  0  0  0  0  0  0  0  0  0  # atno 17371 bound_to 10713
  140.2065  134.4191  155.7635 LP  0  0  0  0  0  0  0  0  0  0  0  0  # atno 17394 bound_to 11000
  141.2227  133.7097  156.8268 LP  0  0  0  0  0  0  0  0  0  0  0  0  # atno 17395 bound_to 11000

$$$$
