AV-unprocessed.smi:2986|AV-procd|sdf|11384|dock1
  -GOLD-   2272016303D 1   1.00000     0.00000
 Structure written by MMmdl.
 42 44  0  0  0  0  0  0  0  0  3 V2000
  153.2269  137.1879  157.0644 C   0  0  0  0  0  0  0  0  0  0  0  0
  152.8549  137.5553  155.7479 O   0  0  0  0  0  0  0  0  0  0  0  0
  152.5631  138.9386  155.6309 C   0  0  0  0  0  0  0  0  0  0  0  0
  151.3856  139.3047  156.5455 C   0  0  0  0  0  0  0  0  0  0  0  0
  151.2437  140.7582  156.7160 N   0  0  0  0  0  0  0  0  0  0  0  0
  150.5677  141.6688  155.9615 C   0  0  0  0  0  0  0  0  0  0  0  0
  149.6361  141.3301  154.5034 S   0  0  0  0  0  0  0  0  0  0  0  0
  148.7037  139.8181  154.8698 C   0  0  0  0  0  0  0  0  0  0  0  0
  147.2011  139.9940  154.6482 C   0  0  0  0  0  0  0  0  0  0  0  0
  146.6355  139.2939  153.8069 O   0  0  0  0  0  0  0  0  0  0  0  0
  146.6769  140.9481  155.4552 N   0  5  0  0  0  0  0  0  0  0  0  0
  146.0776  142.0200  154.9158 C   0  0  0  0  0  0  0  0  0  0  0  0
  146.3954  142.6135  153.6635 C   0  0  0  0  0  0  0  0  0  0  0  0
  145.5216  143.6605  153.5838 C   0  0  0  0  0  0  0  0  0  0  0  0
  145.2815  144.7045  152.5479 C   0  0  0  0  0  0  0  0  0  0  0  0
  144.7420  143.7107  154.6971 O   0  0  0  0  0  0  0  0  0  0  0  0
  145.1087  142.6610  155.5480 N   0  0  0  0  0  0  0  0  0  0  0  0
  150.7454  142.8922  156.5320 N   0  3  0  0  0  0  0  0  0  0  0  0
  151.5525  142.7661  157.6635 C   0  0  0  0  0  0  0  0  0  0  0  0
  152.0122  143.7218  158.5643 C   0  0  0  0  0  0  0  0  0  0  0  0
  152.8315  143.2590  159.6149 C   0  0  0  0  0  0  0  0  0  0  0  0
  153.1638  141.8945  159.7402 C   0  0  0  0  0  0  0  0  0  0  0  0
  152.6898  140.9341  158.8226 C   0  0  0  0  0  0  0  0  0  0  0  0
  151.8791  141.3987  157.7869 C   0  0  0  0  0  0  0  0  0  0  0  0
  153.4427  136.1201  157.0991 H   0  0  0  0  0  0  0  0  0  0  0  0
  152.4226  137.3919  157.7725 H   0  0  0  0  0  0  0  0  0  0  0  0
  154.1214  137.7231  157.3860 H   0  0  0  0  0  0  0  0  0  0  0  0
  153.4398  139.5293  155.9024 H   0  0  0  0  0  0  0  0  0  0  0  0
  152.3151  139.1805  154.5964 H   0  0  0  0  0  0  0  0  0  0  0  0
  150.4541  138.9289  156.1214 H   0  0  0  0  0  0  0  0  0  0  0  0
  151.4870  138.8348  157.5235 H   0  0  0  0  0  0  0  0  0  0  0  0
  149.1045  138.9993  154.2692 H   0  0  0  0  0  0  0  0  0  0  0  0
  148.8710  139.5505  155.9134 H   0  0  0  0  0  0  0  0  0  0  0  0
  147.1394  142.3154  152.9401 H   0  0  0  0  0  0  0  0  0  0  0  0
  146.1216  144.7652  151.8557 H   0  0  0  0  0  0  0  0  0  0  0  0
  145.1512  145.6843  153.0073 H   0  0  0  0  0  0  0  0  0  0  0  0
  144.3841  144.4768  151.9727 H   0  0  0  0  0  0  0  0  0  0  0  0
  151.7605  144.7680  158.4685 H   0  0  0  0  0  0  0  0  0  0  0  0
  153.2145  143.9646  160.3380 H   0  0  0  0  0  0  0  0  0  0  0  0
  153.7969  141.5769  160.5563 H   0  0  0  0  0  0  0  0  0  0  0  0
  152.9563  139.8924  158.9255 H   0  0  0  0  0  0  0  0  0  0  0  0
  150.3442  143.7472  156.1689 H   0  0  0  0  0  0  0  0  0  0  0  0
  1  2  1  0  0  0  0
  1 25  1  0  0  0  0
  1 26  1  0  0  0  0
  1 27  1  0  0  0  0
  2  3  1  0  0  0  0
  3  4  1  0  0  0  0
  3 28  1  0  0  0  0
  3 29  1  0  0  0  0
  4  5  1  0  0  0  0
  4 30  1  0  0  0  0
  4 31  1  0  0  0  0
  5 24  1  0  0  0  0
  5  6  1  0  0  0  0
  6  7  1  0  0  0  0
  6 18  2  0  0  0  0
  7  8  1  0  0  0  0
  8  9  1  0  0  0  0
  8 32  1  0  0  0  0
  8 33  1  0  0  0  0
  9 10  2  0  0  0  0
  9 11  1  0  0  0  0
 11 12  1  0  0  0  0
 12 17  2  0  0  0  0
 12 13  1  0  0  0  0
 13 14  2  0  0  0  0
 13 34  1  0  0  0  0
 14 15  1  0  0  0  0
 14 16  1  0  0  0  0
 15 35  1  0  0  0  0
 15 36  1  0  0  0  0
 15 37  1  0  0  0  0
 16 17  1  0  0  0  0
 18 19  1  0  0  0  0
 18 42  1  0  0  0  0
 19 24  2  0  0  0  0
 19 20  1  0  0  0  0
 20 21  2  0  0  0  0
 20 38  1  0  0  0  0
 21 22  1  0  0  0  0
 21 39  1  0  0  0  0
 22 23  2  0  0  0  0
 22 40  1  0  0  0  0
 23 24  1  0  0  0  0
 23 41  1  0  0  0  0
M  CHG  1  11  -1
M  CHG  1  18   1
M  END
> <s_m_source_file>
AV-unprocessed.smi

> <i_m_source_file_index>
2986

> <i_lp_mmshare_version>
43012

> <i_f3d_flags>
0

> <s_epik_input>
W2NIXTFbY0hdW2NIXVtjSF1jKGMxMiluKFtDSDJdW0NIMl1PW0NIM10pYyhuMilTW0NIMl1DKD1PKVtOSF1jM1tjSF1jKFtDSDNdKW9uMw==

> <s_epik_cmdline>
J2VwaWtfcHl0aG9uJywgJy1waCcsICc3LjAnLCAnLXRuJywgJzgnLCAnLW1hJywgJzIwMCcsICctbWV0YWxfYmluZGluZycsICctaW1hZScsICc8aW5maWxlLm1hZT4nLCAnLW9tYWUnLCAnPG91dGZpbGUubWFlPic=

> <r_epik_Ionization_Penalty>
5.85337

> <r_epik_Ionization_Penalty_Charging>
5.85335

> <r_epik_Ionization_Penalty_Neutral>
1.96301e-05

> <r_epik_State_Penalty>
6.06575

> <r_epik_Charging_Adjusted_Penalty>
11.9191

> <i_epik_Tot_Q>
0

> <i_epik_Tot_abs_Q>
2

> <r_epik_Metal_State_Penalty>
2.64129

> <b_epik_Metal_Only>
1

> <s_lp_Force_Field>
OPLS_2005

> <r_lp_Energy>
5.16942

> <b_lp_Chiralities_Consistent>
1

> <s_lp_Variant>
AV-unprocessed.smi:2986-4

> <Gold.Version>
5.8.1

> <Gold.Id.Protein>
6NUR|6NUR_protein|mol2

> <Gold.PLP.Fitness>
51.1511

> <Gold.PLP.PLP>
-47.3602

> <Gold.PLP.part.hbond>
-2.0000

> <Gold.PLP.part.metal>
0.0000

> <Gold.PLP.part.buried>
-6.0147

> <Gold.PLP.part.nonpolar>
-40.4148

> <Gold.PLP.part.repulsive>
0.6121

> <Gold.PLP.ligand.clash>
0.0000

> <Gold.PLP.ligand.torsion>
1.7632

> <Gold.PLP.Chemscore.Hbond>
2.2254

> <Gold.PLP.Chemscore.CHOScore>
0.0000

> <Gold.PLP.Chemscore.Metal>
0.0000

> <Gold.Chemscore.Hbonds>
donor molecule, donor type, donor heavy atom, donor atom, acceptor molecule, acceptor atom, score
      L1  H    18    42       P1  8028  2.00
      P1  H 10752 10765       L1     2  0.27

> <Gold.PLP.Chemscore.Internal.Correction>
0.6411

> <Gold.Rescore>
     Score         DG    S(hbond)    S(metal)    S(lipo)     H(rot)  DE(clash)    DE(int)     intcor
     14.60     -16.46       0.97        0.00     116.03       2.27       0.04       1.82       ----

> <Gold.Chemscore.Fitness>
14.6008

> <Gold.Chemscore.DG>
-16.4613

> <Gold.Chemscore.ZeroCoef>
-5.4800

> <Gold.Chemscore.Hbond>
0.9662

> <Gold.Chemscore.Metal>
0.0000

> <Gold.Chemscore.Lipo>
116.0265

> <Gold.Chemscore.Internal_Hbond>
0.0000

> <Gold.Chemscore.DEClash>
0.0392

> <Gold.Chemscore.DEInternal>
1.8214

> <Gold.Chemscore.Rot>
2.2738

> <Gold.Chemscore.Internal.Correction>
   9.000000E+99

> <Gold.Chemscore.Hbonds>
donor molecule, donor type, donor heavy atom, donor atom, acceptor molecule, acceptor atom, score
      L1  H    18    42       P1  8028  0.95
      P1  H 10752 10765       L1     2  0.07

> <Gold.Chemscore.Hbond.Weighted>
-3.2271

> <Gold.Chemscore.Metal.Weighted>
-0.0000

> <Gold.Chemscore.Lipo.Weighted>
-13.5751

> <Gold.Chemscore.Internal_Hbond.Weighted>
0.0000

> <Gold.Chemscore.DEClash.Weighted>
0.0392

> <Gold.Chemscore.DEInternal.Weighted>
1.8214

> <Gold.Chemscore.Rot.Weighted>
5.8209

> <Gold.Chemscore.Internal.Correction.Weighted>
   9.000000E+99

> <Gold.Protein.RotatedTorsions>
[ 6907 6896 6895 6894 ] final   13.26 input  -60.11 | X-H torsion
[ 7974 7965 7964 7962 ] final -132.76 input  175.53 | X-H torsion
[ 8008 7997 7996 7995 ] final   27.91 input   59.86 | X-H torsion
[ 10167 10162 10161 10158 ] final  175.56 input  -65.29 | X-H torsion
[ 10718 10713 10712 10709 ] final  -61.44 input   66.30 | X-H torsion
[ 10763 10752 10751 10750 ] final -171.24 input  -60.55 | X-H torsion
[ 11005 11000 10999 10996 ] final   -4.40 input  -57.11 | X-H torsion

> <Gold.Protein.ActiveResidues>
 VAL166  LYS551  ARG553  GLY616  TRP617  ASP618  TYR619  PRO620  LYS621  CYS622 
 ASP623  PHE694  ASN695  SER759  ASP760  ASP761  ALA762  ILE779  LEU786  VAL792 
 PHE793  MET794  SER795  GLU796  ALA797  LYS798  CYS799  TRP800  GLU811  SER814 

> <Gold.Protein.RotatedAtoms>
  151.7834  135.0755  160.0376 H   0  0  0  0  0  0  0  0  0  0  0  0  # atno 6907 bound_to 6896
  152.3207  133.5846  159.5751 H   0  0  0  0  0  0  0  0  0  0  0  0  # atno 6908 bound_to 6896
  150.7368  133.9931  159.3655 H   0  0  0  0  0  0  0  0  0  0  0  0  # atno 6909 bound_to 6896
  144.9255  140.7066  143.4938 H   0  0  0  0  0  0  0  0  0  0  0  0  # atno 7974 bound_to 7965
  155.0504  140.3179  155.4694 H   0  0  0  0  0  0  0  0  0  0  0  0  # atno 8008 bound_to 7997
  156.2836  140.2147  156.5573 H   0  0  0  0  0  0  0  0  0  0  0  0  # atno 8009 bound_to 7997
  154.7215  140.0489  157.0632 H   0  0  0  0  0  0  0  0  0  0  0  0  # atno 8010 bound_to 7997
  139.5182  144.3017  152.0373 H   0  0  0  0  0  0  0  0  0  0  0  0  # atno 10167 bound_to 10162
  156.0922  130.4198  150.0994 H   0  0  0  0  0  0  0  0  0  0  0  0  # atno 10718 bound_to 10713
  154.6326  135.2888  155.0198 H   0  0  0  0  0  0  0  0  0  0  0  0  # atno 10763 bound_to 10752
  154.1353  135.6527  153.4934 H   0  0  0  0  0  0  0  0  0  0  0  0  # atno 10764 bound_to 10752
  153.0287  135.5320  154.7160 H   0  0  0  0  0  0  0  0  0  0  0  0  # atno 10765 bound_to 10752
  140.6798  133.9163  155.8548 H   0  0  0  0  0  0  0  0  0  0  0  0  # atno 11005 bound_to 11000
  145.3226  139.1784  143.4579 LP  0  0  0  0  0  0  0  0  0  0  0  0  # atno 17320 bound_to 7965
  146.3224  140.3245  142.8636 LP  0  0  0  0  0  0  0  0  0  0  0  0  # atno 17321 bound_to 7965
  140.2464  144.4215  150.6239 LP  0  0  0  0  0  0  0  0  0  0  0  0  # atno 17342 bound_to 10162
  140.6255  143.2181  151.6606 LP  0  0  0  0  0  0  0  0  0  0  0  0  # atno 17343 bound_to 10162
  156.9002  130.9617  151.3577 LP  0  0  0  0  0  0  0  0  0  0  0  0  # atno 17370 bound_to 10713
  157.6074  130.8557  149.8896 LP  0  0  0  0  0  0  0  0  0  0  0  0  # atno 17371 bound_to 10713
  141.0326  134.0734  157.3996 LP  0  0  0  0  0  0  0  0  0  0  0  0  # atno 17394 bound_to 11000
  139.8955  135.0141  156.7006 LP  0  0  0  0  0  0  0  0  0  0  0  0  # atno 17395 bound_to 11000

$$$$
