AV-unprocessed.smi:298|AV-procd|sdf|2262|dock9
  -GOLD-   2262022153D 1   1.00000     0.00000
 Structure written by MMmdl.
 38 40  0  0  0  0  0  0  0  0  1 V2000
  153.9130  141.7361  162.0593 C   0  0  0  0  0  0  0  0  0  0  0  0
  153.2012  141.7059  160.7184 C   0  0  0  0  0  0  0  0  0  0  0  0
  153.4139  140.6098  159.8519 C   0  0  0  0  0  0  0  0  0  0  0  0
  152.7677  140.5412  158.5983 C   0  0  0  0  0  0  0  0  0  0  0  0
  152.8250  139.5754  157.6078 N   0  0  0  0  0  0  0  0  0  0  0  0
  152.0011  140.0793  156.6933 C   0  0  0  0  0  0  0  0  0  0  0  0
  151.4155  141.2588  156.9753 N   0  0  0  0  0  0  0  0  0  0  0  0
  150.4824  141.9954  156.1422 C   0  0  0  0  0  0  0  0  0  0  0  0
  149.3804  141.0915  155.5492 C   0  0  1  0  0  0  0  0  0  0  0  0
  148.3539  141.8890  154.9900 O   0  0  0  0  0  0  0  0  0  0  0  0
  149.9015  140.0990  154.4868 C   0  0  0  0  0  0  0  0  0  0  0  0
  150.1362  138.7590  155.0004 N   0  0  0  0  0  0  0  0  0  0  0  0
  150.6525  137.6797  154.4034 C   0  0  0  0  0  0  0  0  0  0  0  0
  150.7152  136.6081  155.1838 N   0  0  0  0  0  0  0  0  0  0  0  0
  150.1885  137.1453  156.3224 C   0  0  0  0  0  0  0  0  0  0  0  0
  150.0270  136.3548  157.5310 C   0  0  0  0  0  0  0  0  0  0  0  0
  149.8988  135.7252  158.4936 N   0  0  0  0  0  0  0  0  0  0  0  0
  149.8292  138.4263  156.2780 N   0  0  0  0  0  0  0  0  0  0  0  0
  151.8964  141.6083  158.2324 C   0  0  0  0  0  0  0  0  0  0  0  0
  151.6776  142.7050  159.0846 C   0  0  0  0  0  0  0  0  0  0  0  0
  152.3307  142.7575  160.3337 C   0  0  0  0  0  0  0  0  0  0  0  0
  152.0854  143.9446  161.2482 C   0  0  0  0  0  0  0  0  0  0  0  0
  154.5532  140.8633  162.1898 H   0  0  0  0  0  0  0  0  0  0  0  0
  153.1899  141.7450  162.8752 H   0  0  0  0  0  0  0  0  0  0  0  0
  154.5391  142.6249  162.1408 H   0  0  0  0  0  0  0  0  0  0  0  0
  154.0756  139.8081  160.1453 H   0  0  0  0  0  0  0  0  0  0  0  0
  151.8085  139.5597  155.7660 H   0  0  0  0  0  0  0  0  0  0  0  0
  150.0509  142.7963  156.7435 H   0  0  0  0  0  0  0  0  0  0  0  0
  151.0443  142.4770  155.3408 H   0  0  0  0  0  0  0  0  0  0  0  0
  148.9283  140.5157  156.3576 H   0  0  0  0  0  0  0  0  0  0  0  0
  148.4827  142.7832  155.2677 H   0  0  0  0  0  0  0  0  0  0  0  0
  149.1792  140.0238  153.6731 H   0  0  0  0  0  0  0  0  0  0  0  0
  150.8257  140.4697  154.0409 H   0  0  0  0  0  0  0  0  0  0  0  0
  150.9833  137.6773  153.3750 H   0  0  0  0  0  0  0  0  0  0  0  0
  151.0092  143.4970  158.7801 H   0  0  0  0  0  0  0  0  0  0  0  0
  151.3769  144.6470  160.8078 H   0  0  0  0  0  0  0  0  0  0  0  0
  153.0160  144.4811  161.4354 H   0  0  0  0  0  0  0  0  0  0  0  0
  151.6773  143.6140  162.2035 H   0  0  0  0  0  0  0  0  0  0  0  0
  1  2  1  0  0  0  0
  1 23  1  0  0  0  0
  1 24  1  0  0  0  0
  1 25  1  0  0  0  0
  2 21  1  0  0  0  0
  2  3  2  0  0  0  0
  3  4  1  0  0  0  0
  3 26  1  0  0  0  0
  4 19  2  0  0  0  0
  4  5  1  0  0  0  0
  5  6  2  0  0  0  0
  6  7  1  0  0  0  0
  6 27  1  0  0  0  0
  7  8  1  0  0  0  0
  7 19  1  0  0  0  0
  8  9  1  0  0  0  0
  8 28  1  0  0  0  0
  8 29  1  0  0  0  0
  9 10  1  0  0  0  0
  9 11  1  0  0  0  0
  9 30  1  0  0  0  0
 10 31  1  0  0  0  0
 11 12  1  0  0  0  0
 11 32  1  0  0  0  0
 11 33  1  0  0  0  0
 12 18  1  0  0  0  0
 12 13  1  0  0  0  0
 13 14  2  0  0  0  0
 13 34  1  0  0  0  0
 14 15  1  0  0  0  0
 15 16  1  0  0  0  0
 15 18  2  0  0  0  0
 16 17  3  0  0  0  0
 19 20  1  0  0  0  0
 20 21  2  0  0  0  0
 20 35  1  0  0  0  0
 21 22  1  0  0  0  0
 22 36  1  0  0  0  0
 22 37  1  0  0  0  0
 22 38  1  0  0  0  0
M  END
> <s_m_source_file>
AV-unprocessed.smi

> <i_m_source_file_index>
298

> <i_lp_mmshare_version>
43012

> <i_f3d_flags>
0

> <s_epik_input>
W0NIM11jKFtjSF0xKWMoW0NIM10pW2NIXWMoYzEyKW4oW2NIXW4yKVtDSDJdW0NASF0oW09IXSlbQ0gyXW4zW2NIXW5jKG4zKUMjTg==

> <s_epik_cmdline>
J2VwaWtfcHl0aG9uJywgJy1waCcsICc3LjAnLCAnLXRuJywgJzgnLCAnLW1hJywgJzIwMCcsICctbWV0YWxfYmluZGluZycsICctaW1hZScsICc8aW5maWxlLm1hZT4nLCAnLW9tYWUnLCAnPG91dGZpbGUubWFlPic=

> <r_epik_Ionization_Penalty>
0.0968684

> <r_epik_Ionization_Penalty_Charging>
0

> <r_epik_Ionization_Penalty_Neutral>
0.0968684

> <r_epik_State_Penalty>
0.0870047

> <r_epik_Charging_Adjusted_Penalty>
0.0870047

> <i_epik_Tot_Q>
0

> <i_epik_Tot_abs_Q>
0

> <r_epik_Metal_State_Penalty>
0.0746849

> <b_epik_Metal_Only>
0

> <s_lp_Force_Field>
OPLS_2005

> <r_lp_Energy>
12.6861

> <b_lp_Chiralities_Consistent>
1

> <s_lp_Variant>
AV-unprocessed.smi:298-2

> <Gold.Version>
5.8.1

> <Gold.Id.Protein>
6NUR|6NUR_protein|mol2

> <Gold.PLP.Fitness>
52.1848

> <Gold.PLP.PLP>
-41.8809

> <Gold.PLP.part.hbond>
-3.0000

> <Gold.PLP.part.metal>
0.0000

> <Gold.PLP.part.buried>
-2.7349

> <Gold.PLP.part.nonpolar>
-36.1724

> <Gold.PLP.part.repulsive>
0.1315

> <Gold.PLP.ligand.clash>
0.0000

> <Gold.PLP.ligand.torsion>
0.8141

> <Gold.PLP.Chemscore.Hbond>
2.9500

> <Gold.PLP.Chemscore.CHOScore>
1.0232

> <Gold.PLP.Chemscore.Metal>
0.0000

> <Gold.Chemscore.Hbonds>
donor molecule, donor type, donor heavy atom, donor atom, acceptor molecule, acceptor atom, score
      L1  H    10    31       P1  8028  1.00
      P1  H  6896  6908       L1    17  1.00
      P1  H  7997  8009       L1     5  0.90
      L1  C    13    34       P1  7948  0.03
      L1  C    13    34       P1  7949  0.99

> <Gold.PLP.Chemscore.Internal.Correction>
0.0128

> <Gold.Rescore>
     Score         DG    S(hbond)    S(metal)    S(lipo)     H(rot)  DE(clash)    DE(int)     intcor
     13.42     -16.11       2.07        0.00      98.23       3.03       0.15       2.54       ----

> <Gold.Chemscore.Fitness>
13.4165

> <Gold.Chemscore.DG>
-16.1098

> <Gold.Chemscore.ZeroCoef>
-5.4800

> <Gold.Chemscore.Hbond>
2.0651

> <Gold.Chemscore.Metal>
0.0000

> <Gold.Chemscore.Lipo>
98.2323

> <Gold.Chemscore.Internal_Hbond>
0.0000

> <Gold.Chemscore.DEClash>
0.1535

> <Gold.Chemscore.DEInternal>
2.5398

> <Gold.Chemscore.Rot>
3.0316

> <Gold.Chemscore.Internal.Correction>
   9.000000E+99

> <Gold.Chemscore.Hbonds>
donor molecule, donor type, donor heavy atom, donor atom, acceptor molecule, acceptor atom, score
      L1  H    10    31       P1  8028  0.96
      P1  H  6896  6908       L1    17  0.99
      P1  H  7997  8009       L1     5  0.05

> <Gold.Chemscore.Hbond.Weighted>
-6.8974

> <Gold.Chemscore.Metal.Weighted>
-0.0000

> <Gold.Chemscore.Lipo.Weighted>
-11.4932

> <Gold.Chemscore.Internal_Hbond.Weighted>
0.0000

> <Gold.Chemscore.DEClash.Weighted>
0.1535

> <Gold.Chemscore.DEInternal.Weighted>
2.5398

> <Gold.Chemscore.Rot.Weighted>
7.7609

> <Gold.Chemscore.Internal.Correction.Weighted>
   9.000000E+99

> <Gold.Protein.RotatedTorsions>
[ 6907 6896 6895 6894 ] final  178.22 input  -60.11 | X-H torsion
[ 7974 7965 7964 7962 ] final  -61.70 input  175.53 | X-H torsion
[ 8008 7997 7996 7995 ] final  167.03 input   59.86 | X-H torsion
[ 10167 10162 10161 10158 ] final   73.44 input  -65.29 | X-H torsion
[ 10718 10713 10712 10709 ] final   52.61 input   66.30 | X-H torsion
[ 10763 10752 10751 10750 ] final  -17.73 input  -60.55 | X-H torsion
[ 11005 11000 10999 10996 ] final  136.20 input  -57.11 | X-H torsion

> <Gold.Protein.ActiveResidues>
 VAL166  LYS551  ARG553  GLY616  TRP617  ASP618  TYR619  PRO620  LYS621  CYS622 
 ASP623  PHE694  ASN695  SER759  ASP760  ASP761  ALA762  ILE779  LEU786  VAL792 
 PHE793  MET794  SER795  GLU796  ALA797  LYS798  CYS799  TRP800  GLU811  SER814 

> <Gold.Protein.RotatedAtoms>
  151.6914  133.3311  159.3243 H   0  0  0  0  0  0  0  0  0  0  0  0  # atno 6907 bound_to 6896
  150.7777  134.6695  159.6393 H   0  0  0  0  0  0  0  0  0  0  0  0  # atno 6908 bound_to 6896
  152.3825  134.6571  160.0189 H   0  0  0  0  0  0  0  0  0  0  0  0  # atno 6909 bound_to 6896
  145.8003  140.8659  143.0235 H   0  0  0  0  0  0  0  0  0  0  0  0  # atno 7974 bound_to 7965
  156.1668  140.1627  156.8517 H   0  0  0  0  0  0  0  0  0  0  0  0  # atno 8008 bound_to 7997
  154.5216  140.0777  156.8217 H   0  0  0  0  0  0  0  0  0  0  0  0  # atno 8009 bound_to 7997
  155.3594  140.3394  155.4243 H   0  0  0  0  0  0  0  0  0  0  0  0  # atno 8010 bound_to 7997
  140.0245  144.5515  150.7556 H   0  0  0  0  0  0  0  0  0  0  0  0  # atno 10167 bound_to 10162
  157.5091  130.8488  149.8412 H   0  0  0  0  0  0  0  0  0  0  0  0  # atno 10718 bound_to 10713
  153.5784  135.7006  153.5474 H   0  0  0  0  0  0  0  0  0  0  0  0  # atno 10763 bound_to 10752
  153.3282  135.4054  155.1473 H   0  0  0  0  0  0  0  0  0  0  0  0  # atno 10764 bound_to 10752
  154.8621  135.3712  154.5310 H   0  0  0  0  0  0  0  0  0  0  0  0  # atno 10765 bound_to 10752
  140.0030  134.9471  157.0113 H   0  0  0  0  0  0  0  0  0  0  0  0  # atno 11005 bound_to 11000
  144.6770  140.0249  143.7483 LP  0  0  0  0  0  0  0  0  0  0  0  0  # atno 17320 bound_to 7965
  145.9885  139.2996  143.0999 LP  0  0  0  0  0  0  0  0  0  0  0  0  # atno 17321 bound_to 7965
  140.7328  143.2710  151.3888 LP  0  0  0  0  0  0  0  0  0  0  0  0  # atno 17342 bound_to 10162
  139.6117  144.1084  152.2306 LP  0  0  0  0  0  0  0  0  0  0  0  0  # atno 17343 bound_to 10162
  156.0277  130.3774  150.1776 LP  0  0  0  0  0  0  0  0  0  0  0  0  # atno 17370 bound_to 10713
  156.9965  130.9909  151.3401 LP  0  0  0  0  0  0  0  0  0  0  0  0  # atno 17371 bound_to 10713
  140.4693  134.1403  155.7201 LP  0  0  0  0  0  0  0  0  0  0  0  0  # atno 17394 bound_to 11000
  141.1656  133.8709  157.1724 LP  0  0  0  0  0  0  0  0  0  0  0  0  # atno 17395 bound_to 11000

$$$$
