AV-unprocessed.smi:1893|AV-procd|sdf|7671|dock4
  -GOLD-   22720 9403D 1   1.00000     0.00000
 Structure written by MMmdl.
 43 44  0  0  0  0  0  0  0  0  2 V2000
  151.2990  144.8388  158.7544 C   0  0  0  0  0  0  0  0  0  0  0  0
  151.5338  143.4279  159.3358 C   0  0  2  0  0  0  0  0  0  0  0  0
  152.5786  143.5386  160.4693 C   0  0  0  0  0  0  0  0  0  0  0  0
  152.8837  142.1829  161.1095 C   0  0  0  0  0  0  0  0  0  0  0  0
  153.3342  141.2051  160.0254 C   0  0  0  0  0  0  0  0  0  0  0  0
  152.2717  141.1003  158.9230 C   0  0  0  0  0  0  0  0  0  0  0  0
  151.9663  142.4244  158.3064 N   0  3  1  0  0  0  0  0  0  0  0  0
  151.0274  142.2862  157.1557 C   0  0  0  0  0  0  0  0  0  0  0  0
  149.8167  141.3810  157.4674 C   0  0  0  0  0  0  0  0  0  0  0  0
  148.9125  141.2988  156.3266 N   0  0  0  0  0  0  0  0  0  0  0  0
  149.2856  141.0077  155.0700 C   0  0  0  0  0  0  0  0  0  0  0  0
  150.4490  140.7444  154.7625 O   0  0  0  0  0  0  0  0  0  0  0  0
  148.1756  141.0328  154.0066 C   0  0  2  0  0  0  0  0  0  0  0  0
  147.2739  142.2799  154.1086 C   0  0  0  0  0  0  0  0  0  0  0  0
  147.4040  139.7968  154.0562 N   0  0  0  0  0  0  0  0  0  0  0  0
  147.4705  138.7113  153.2822 C   0  0  0  0  0  0  0  0  0  0  0  0
  146.6435  137.7405  153.6432 N   0  0  0  0  0  0  0  0  0  0  0  0
  146.0564  138.3317  154.7258 C   0  0  0  0  0  0  0  0  0  0  0  0
  146.4835  139.5586  155.0241 N   0  0  0  0  0  0  0  0  0  0  0  0
  151.1726  145.5717  159.5519 H   0  0  0  0  0  0  0  0  0  0  0  0
  150.3939  144.8989  158.1514 H   0  0  0  0  0  0  0  0  0  0  0  0
  152.1415  145.1641  158.1433 H   0  0  0  0  0  0  0  0  0  0  0  0
  150.5951  143.0797  159.7705 H   0  0  0  0  0  0  0  0  0  0  0  0
  153.5020  143.9683  160.0778 H   0  0  0  0  0  0  0  0  0  0  0  0
  152.2246  144.2253  161.2393 H   0  0  0  0  0  0  0  0  0  0  0  0
  153.6579  142.2887  161.8699 H   0  0  0  0  0  0  0  0  0  0  0  0
  151.9959  141.7996  161.6144 H   0  0  0  0  0  0  0  0  0  0  0  0
  154.2815  141.5348  159.5963 H   0  0  0  0  0  0  0  0  0  0  0  0
  153.5160  140.2230  160.4630 H   0  0  0  0  0  0  0  0  0  0  0  0
  152.6389  140.4003  158.1749 H   0  0  0  0  0  0  0  0  0  0  0  0
  151.3555  140.6699  159.3305 H   0  0  0  0  0  0  0  0  0  0  0  0
  150.6964  143.2735  156.8303 H   0  0  0  0  0  0  0  0  0  0  0  0
  151.5323  141.8418  156.3024 H   0  0  0  0  0  0  0  0  0  0  0  0
  150.1481  140.3817  157.7555 H   0  0  0  0  0  0  0  0  0  0  0  0
  149.2334  141.7691  158.3008 H   0  0  0  0  0  0  0  0  0  0  0  0
  147.9375  141.4985  156.4988 H   0  0  0  0  0  0  0  0  0  0  0  0
  148.6649  141.0676  153.0315 H   0  0  0  0  0  0  0  0  0  0  0  0
  147.8581  143.1965  154.0199 H   0  0  0  0  0  0  0  0  0  0  0  0
  146.7364  142.3211  155.0569 H   0  0  0  0  0  0  0  0  0  0  0  0
  146.5320  142.2885  153.3096 H   0  0  0  0  0  0  0  0  0  0  0  0
  148.1421  138.6268  152.4403 H   0  0  0  0  0  0  0  0  0  0  0  0
  145.2971  137.8401  155.3162 H   0  0  0  0  0  0  0  0  0  0  0  0
  152.8328  142.7762  157.9247 H   0  0  0  0  0  0  0  0  0  0  0  0
  1  2  1  0  0  0  0
  1 20  1  0  0  0  0
  1 21  1  0  0  0  0
  1 22  1  0  0  0  0
  2  7  1  0  0  0  0
  2  3  1  0  0  0  0
  2 23  1  0  0  0  0
  3  4  1  0  0  0  0
  3 24  1  0  0  0  0
  3 25  1  0  0  0  0
  4  5  1  0  0  0  0
  4 26  1  0  0  0  0
  4 27  1  0  0  0  0
  5  6  1  0  0  0  0
  5 28  1  0  0  0  0
  5 29  1  0  0  0  0
  6  7  1  0  0  0  0
  6 30  1  0  0  0  0
  6 31  1  0  0  0  0
  7  8  1  0  0  0  0
  7 43  1  0  0  0  0
  8  9  1  0  0  0  0
  8 32  1  0  0  0  0
  8 33  1  0  0  0  0
  9 10  1  0  0  0  0
  9 34  1  0  0  0  0
  9 35  1  0  0  0  0
 10 11  1  0  0  0  0
 10 36  1  0  0  0  0
 11 12  2  0  0  0  0
 11 13  1  0  0  0  0
 13 14  1  0  0  0  0
 13 15  1  0  0  0  0
 13 37  1  0  0  0  0
 14 38  1  0  0  0  0
 14 39  1  0  0  0  0
 14 40  1  0  0  0  0
 15 19  1  0  0  0  0
 15 16  1  0  0  0  0
 16 17  2  0  0  0  0
 16 41  1  0  0  0  0
 17 18  1  0  0  0  0
 18 19  2  0  0  0  0
 18 42  1  0  0  0  0
M  CHG  1   7   1
M  END
> <s_m_source_file>
AV-unprocessed.smi

> <i_m_source_file_index>
1893

> <i_lp_mmshare_version>
43012

> <i_f3d_flags>
0

> <s_epik_input>
W0NIM11bQ0BASF0xW0NIMl1bQ0gyXVtDSDJdW0NIMl1OMVtDSDJdW0NIMl1bTkhdQyg9TylbQ0BIXShbQ0gzXSluMltjSF1uW2NIXW4y

> <s_epik_cmdline>
J2VwaWtfcHl0aG9uJywgJy1waCcsICc3LjAnLCAnLXRuJywgJzgnLCAnLW1hJywgJzIwMCcsICctbWV0YWxfYmluZGluZycsICctaW1hZScsICc8aW5maWxlLm1hZT4nLCAnLW9tYWUnLCAnPG91dGZpbGUubWFlPic=

> <r_lp_tautomer_probability>
1

> <r_epik_Ionization_Penalty>
0.00266409

> <r_epik_Ionization_Penalty_Charging>
0.00265606

> <r_epik_Ionization_Penalty_Neutral>
8.02794e-06

> <r_epik_State_Penalty>
0.00184955

> <r_epik_Charging_Adjusted_Penalty>
0.00450561

> <i_epik_Tot_Q>
1

> <i_epik_Tot_abs_Q>
1

> <r_epik_Metal_State_Penalty>
-0

> <b_epik_Metal_Only>
0

> <s_lp_Force_Field>
OPLS_2005

> <r_lp_Energy>
24.7489

> <b_lp_Chiralities_Consistent>
1

> <s_lp_Variant>
AV-unprocessed.smi:1893-1

> <Gold.Version>
5.8.1

> <Gold.Id.Protein>
6NUR|6NUR_protein|mol2

> <Gold.PLP.Fitness>
43.4207

> <Gold.PLP.PLP>
-36.8689

> <Gold.PLP.part.hbond>
-1.0000

> <Gold.PLP.part.metal>
0.0000

> <Gold.PLP.part.buried>
-5.3583

> <Gold.PLP.part.nonpolar>
-31.2955

> <Gold.PLP.part.repulsive>
0.3875

> <Gold.PLP.ligand.clash>
0.0000

> <Gold.PLP.ligand.torsion>
0.9816

> <Gold.PLP.Chemscore.Hbond>
0.8960

> <Gold.PLP.Chemscore.CHOScore>
1.8991

> <Gold.PLP.Chemscore.Metal>
0.0000

> <Gold.Chemscore.Hbonds>
donor molecule, donor type, donor heavy atom, donor atom, acceptor molecule, acceptor atom, score
      P1  H  7989  7998       L1    12  0.86
      L1  C    16    41       P1  7948  0.68
      L1  C    16    41       P1  7957  1.00

> <Gold.PLP.Chemscore.Internal.Correction>
0.1297

> <Gold.Rescore>
     Score         DG    S(hbond)    S(metal)    S(lipo)     H(rot)  DE(clash)    DE(int)     intcor
     12.02     -13.18       0.95        0.00      94.16       2.54       0.00       1.16       ----

> <Gold.Chemscore.Fitness>
12.0208

> <Gold.Chemscore.DG>
-13.1770

> <Gold.Chemscore.ZeroCoef>
-5.4800

> <Gold.Chemscore.Hbond>
0.9511

> <Gold.Chemscore.Metal>
0.0000

> <Gold.Chemscore.Lipo>
94.1626

> <Gold.Chemscore.Internal_Hbond>
0.0000

> <Gold.Chemscore.DEClash>
0.0000

> <Gold.Chemscore.DEInternal>
1.1561

> <Gold.Chemscore.Rot>
2.5377

> <Gold.Chemscore.Internal.Correction>
   9.000000E+99

> <Gold.Chemscore.Hbonds>
donor molecule, donor type, donor heavy atom, donor atom, acceptor molecule, acceptor atom, score
      P1  H  7989  7998       L1    12  0.85

> <Gold.Chemscore.Hbond.Weighted>
-3.1765

> <Gold.Chemscore.Metal.Weighted>
-0.0000

> <Gold.Chemscore.Lipo.Weighted>
-11.0170

> <Gold.Chemscore.Internal_Hbond.Weighted>
0.0000

> <Gold.Chemscore.DEClash.Weighted>
0.0000

> <Gold.Chemscore.DEInternal.Weighted>
1.1561

> <Gold.Chemscore.Rot.Weighted>
6.4966

> <Gold.Chemscore.Internal.Correction.Weighted>
   9.000000E+99

> <Gold.Protein.RotatedTorsions>
[ 6907 6896 6895 6894 ] final  129.71 input  -60.11 | X-H torsion
[ 7974 7965 7964 7962 ] final  -40.02 input  175.53 | X-H torsion
[ 8008 7997 7996 7995 ] final  -31.55 input   59.86 | X-H torsion
[ 10167 10162 10161 10158 ] final -114.39 input  -65.29 | X-H torsion
[ 10718 10713 10712 10709 ] final  111.04 input   66.30 | X-H torsion
[ 10763 10752 10751 10750 ] final   39.27 input  -60.55 | X-H torsion
[ 11005 11000 10999 10996 ] final -109.64 input  -57.11 | X-H torsion

> <Gold.Protein.ActiveResidues>
 VAL166  LYS551  ARG553  GLY616  TRP617  ASP618  TYR619  PRO620  LYS621  CYS622 
 ASP623  PHE694  ASN695  SER759  ASP760  ASP761  ALA762  ILE779  LEU786  VAL792 
 PHE793  MET794  SER795  GLU796  ALA797  LYS798  CYS799  TRP800  GLU811  SER814 

> <Gold.Protein.RotatedAtoms>
  152.3597  133.6282  159.6005 H   0  0  0  0  0  0  0  0  0  0  0  0  # atno 6907 bound_to 6896
  150.7593  133.9443  159.3474 H   0  0  0  0  0  0  0  0  0  0  0  0  # atno 6908 bound_to 6896
  151.7282  135.0881  160.0347 H   0  0  0  0  0  0  0  0  0  0  0  0  # atno 6909 bound_to 6896
  146.0343  140.6691  142.9117 H   0  0  0  0  0  0  0  0  0  0  0  0  # atno 7974 bound_to 7965
  154.4210  140.1761  156.1585 H   0  0  0  0  0  0  0  0  0  0  0  0  # atno 8008 bound_to 7997
  155.9858  140.3373  155.6681 H   0  0  0  0  0  0  0  0  0  0  0  0  # atno 8009 bound_to 7997
  155.6439  140.0683  157.2600 H   0  0  0  0  0  0  0  0  0  0  0  0  # atno 8010 bound_to 7997
  140.1014  143.4609  152.1809 H   0  0  0  0  0  0  0  0  0  0  0  0  # atno 10167 bound_to 10162
  157.6465  131.0943  150.6690 H   0  0  0  0  0  0  0  0  0  0  0  0  # atno 10718 bound_to 10713
  152.9973  135.6225  154.2438 H   0  0  0  0  0  0  0  0  0  0  0  0  # atno 10763 bound_to 10752
  154.2178  135.2797  155.2937 H   0  0  0  0  0  0  0  0  0  0  0  0  # atno 10764 bound_to 10752
  154.5554  135.5721  153.7018 H   0  0  0  0  0  0  0  0  0  0  0  0  # atno 10765 bound_to 10752
  141.0836  133.9177  157.2234 H   0  0  0  0  0  0  0  0  0  0  0  0  # atno 11005 bound_to 11000
  144.7045  140.3793  143.7129 LP  0  0  0  0  0  0  0  0  0  0  0  0  # atno 17320 bound_to 7965
  145.6989  139.1656  143.2604 LP  0  0  0  0  0  0  0  0  0  0  0  0  # atno 17321 bound_to 7965
  139.5669  144.7440  151.3998 LP  0  0  0  0  0  0  0  0  0  0  0  0  # atno 17342 bound_to 10162
  140.6975  143.7712  150.7350 LP  0  0  0  0  0  0  0  0  0  0  0  0  # atno 17343 bound_to 10162
  156.7006  130.4622  149.5574 LP  0  0  0  0  0  0  0  0  0  0  0  0  # atno 17370 bound_to 10713
  156.1798  130.6491  151.0937 LP  0  0  0  0  0  0  0  0  0  0  0  0  # atno 17371 bound_to 10713
  139.9652  135.0144  156.9368 LP  0  0  0  0  0  0  0  0  0  0  0  0  # atno 17394 bound_to 11000
  140.5413  134.0717  155.7342 LP  0  0  0  0  0  0  0  0  0  0  0  0  # atno 17395 bound_to 11000

$$$$
