AV-unprocessed.smi:243|AV-procd|sdf|1854|dock1
  -GOLD-   2262020483D 1   1.00000     0.00000
 Structure written by MMmdl.
 58 61  0  0  0  0  0  0  0  0  2 V2000
  146.2649  129.3787  152.6355 C   0  0  0  0  0  0  0  0  0  0  0  0
  145.5221  130.5863  152.0462 C   0  0  0  0  0  0  0  0  0  0  0  0
  146.4401  131.6931  151.6645 N   0  3  2  0  0  0  0  0  0  0  0  0
  147.0619  132.3733  152.8291 C   0  0  0  0  0  0  0  0  0  0  0  0
  146.0608  133.2874  153.5537 C   0  0  0  0  0  0  0  0  0  0  0  0
  145.4548  134.3254  152.5863 C   0  0  2  0  0  0  0  0  0  0  0  0
  144.4956  135.2057  153.2689 N   0  0  0  0  0  0  0  0  0  0  0  0
  143.1877  134.6984  153.6783 C   0  0  0  0  0  0  0  0  0  0  0  0
  144.9248  136.3564  153.8578 C   0  0  0  0  0  0  0  0  0  0  0  0
  144.6181  136.5929  155.1618 N   0  0  0  0  0  0  0  0  0  0  0  0
  145.0157  137.7177  155.7626 C   0  0  0  0  0  0  0  0  0  0  0  0
  145.7241  138.7270  155.2561 N   0  0  0  0  0  0  0  0  0  0  0  0
  146.0500  138.4966  153.9526 C   0  0  0  0  0  0  0  0  0  0  0  0
  145.6925  137.3522  153.1827 C   0  0  0  0  0  0  0  0  0  0  0  0
  146.2100  137.4750  151.8977 N   0  0  0  0  0  0  0  0  0  0  0  0
  146.8245  138.6257  151.9048 C   0  0  0  0  0  0  0  0  0  0  0  0
  146.7881  139.3024  153.1025 N   0  0  0  0  0  0  0  0  0  0  0  0
  147.3889  140.5955  153.3930 C   0  0  0  0  0  0  0  0  0  0  0  0
  148.4758  140.5448  154.4934 C   0  0  2  0  0  0  0  0  0  0  0  0
  147.8827  140.1402  155.7151 O   0  0  0  0  0  0  0  0  0  0  0  0
  149.1544  141.8910  154.7136 C   0  0  0  0  0  0  0  0  0  0  0  0
  150.5431  141.4937  155.1951 C   0  0  0  0  0  0  0  0  0  0  0  0
  150.8481  140.3712  154.3855 O   0  0  0  0  0  0  0  0  0  0  0  0
  149.6623  139.6051  154.1924 C   0  0  0  0  0  0  0  0  0  0  0  0
  144.8404  133.6270  151.3470 C   0  0  1  0  0  0  0  0  0  0  0  0
  144.3381  134.6419  150.3051 C   0  0  0  0  0  0  0  0  0  0  0  0
  145.8744  132.6759  150.7008 C   0  0  0  0  0  0  0  0  0  0  0  0
  145.5557  128.6365  153.0029 H   0  0  0  0  0  0  0  0  0  0  0  0
  146.8961  129.6740  153.4740 H   0  0  0  0  0  0  0  0  0  0  0  0
  146.8931  128.8824  151.8965 H   0  0  0  0  0  0  0  0  0  0  0  0
  144.9066  130.2778  151.2015 H   0  0  0  0  0  0  0  0  0  0  0  0
  144.8312  130.9508  152.8074 H   0  0  0  0  0  0  0  0  0  0  0  0
  147.4791  131.6389  153.5189 H   0  0  0  0  0  0  0  0  0  0  0  0
  147.9046  132.9677  152.4737 H   0  0  0  0  0  0  0  0  0  0  0  0
  145.2779  132.6813  154.0093 H   0  0  0  0  0  0  0  0  0  0  0  0
  146.5665  133.7943  154.3758 H   0  0  0  0  0  0  0  0  0  0  0  0
  146.2740  134.9354  152.2033 H   0  0  0  0  0  0  0  0  0  0  0  0
  142.9733  134.9487  154.7180 H   0  0  0  0  0  0  0  0  0  0  0  0
  143.1287  133.6145  153.5875 H   0  0  0  0  0  0  0  0  0  0  0  0
  142.4053  135.1259  153.0510 H   0  0  0  0  0  0  0  0  0  0  0  0
  144.7256  137.8241  156.7976 H   0  0  0  0  0  0  0  0  0  0  0  0
  147.3274  139.0113  151.0299 H   0  0  0  0  0  0  0  0  0  0  0  0
  147.8116  140.9866  152.4667 H   0  0  0  0  0  0  0  0  0  0  0  0
  146.5946  141.2859  153.6804 H   0  0  0  0  0  0  0  0  0  0  0  0
  146.9441  140.1331  155.6058 H   0  0  0  0  0  0  0  0  0  0  0  0
  149.2473  142.4273  153.7681 H   0  0  0  0  0  0  0  0  0  0  0  0
  148.6263  142.5412  155.4125 H   0  0  0  0  0  0  0  0  0  0  0  0
  151.2776  142.2900  155.0731 H   0  0  0  0  0  0  0  0  0  0  0  0
  150.5247  141.1961  156.2447 H   0  0  0  0  0  0  0  0  0  0  0  0
  149.6712  138.7281  154.8420 H   0  0  0  0  0  0  0  0  0  0  0  0
  149.6585  139.2489  153.1629 H   0  0  0  0  0  0  0  0  0  0  0  0
  143.9818  133.0323  151.6573 H   0  0  0  0  0  0  0  0  0  0  0  0
  145.1455  135.2878  149.9589 H   0  0  0  0  0  0  0  0  0  0  0  0
  143.5538  135.2808  150.7119 H   0  0  0  0  0  0  0  0  0  0  0  0
  143.9213  134.1351  149.4346 H   0  0  0  0  0  0  0  0  0  0  0  0
  146.7028  133.2632  150.3016 H   0  0  0  0  0  0  0  0  0  0  0  0
  145.4393  132.1635  149.8435 H   0  0  0  0  0  0  0  0  0  0  0  0
  147.2035  131.2400  151.1827 H   0  0  0  0  0  0  0  0  0  0  0  0
  1  2  1  0  0  0  0
  1 28  1  0  0  0  0
  1 29  1  0  0  0  0
  1 30  1  0  0  0  0
  2  3  1  0  0  0  0
  2 31  1  0  0  0  0
  2 32  1  0  0  0  0
  3 27  1  0  0  0  0
  3  4  1  0  0  0  0
  3 58  1  0  0  0  0
  4  5  1  0  0  0  0
  4 33  1  0  0  0  0
  4 34  1  0  0  0  0
  5  6  1  0  0  0  0
  5 35  1  0  0  0  0
  5 36  1  0  0  0  0
  6  7  1  0  0  0  0
  6 25  1  0  0  0  0
  6 37  1  0  0  0  0
  7  8  1  0  0  0  0
  7  9  1  0  0  0  0
  8 38  1  0  0  0  0
  8 39  1  0  0  0  0
  8 40  1  0  0  0  0
  9 14  1  0  0  0  0
  9 10  2  0  0  0  0
 10 11  1  0  0  0  0
 11 12  2  0  0  0  0
 11 41  1  0  0  0  0
 12 13  1  0  0  0  0
 13 17  1  0  0  0  0
 13 14  2  0  0  0  0
 14 15  1  0  0  0  0
 15 16  2  0  0  0  0
 16 17  1  0  0  0  0
 16 42  1  0  0  0  0
 17 18  1  0  0  0  0
 18 19  1  0  0  0  0
 18 43  1  0  0  0  0
 18 44  1  0  0  0  0
 19 24  1  0  0  0  0
 19 20  1  0  0  0  0
 19 21  1  0  0  0  0
 20 45  1  0  0  0  0
 21 22  1  0  0  0  0
 21 46  1  0  0  0  0
 21 47  1  0  0  0  0
 22 23  1  0  0  0  0
 22 48  1  0  0  0  0
 22 49  1  0  0  0  0
 23 24  1  0  0  0  0
 24 50  1  0  0  0  0
 24 51  1  0  0  0  0
 25 26  1  0  0  0  0
 25 27  1  0  0  0  0
 25 52  1  0  0  0  0
 26 53  1  0  0  0  0
 26 54  1  0  0  0  0
 26 55  1  0  0  0  0
 27 56  1  0  0  0  0
 27 57  1  0  0  0  0
M  CHG  1   3   1
M  END
> <s_m_source_file>
AV-unprocessed.smi

> <i_m_source_file_index>
243

> <i_lp_mmshare_version>
43012

> <i_f3d_flags>
0

> <s_epik_input>
W0NIM11bQ0gyXU4xW0NIMl1bQ0gyXVtDQEhdKFtDQEBIXShbQ0gzXSlbQ0gyXTEpTihbQ0gzXSljKG5bY0hdbjIpYyhjMjMpbltjSF1uM1tDSDJdW0NAQF00KFtPSF0pW0NIMl1bQ0gyXU9bQ0gyXTQ=

> <s_epik_cmdline>
J2VwaWtfcHl0aG9uJywgJy1waCcsICc3LjAnLCAnLXRuJywgJzgnLCAnLW1hJywgJzIwMCcsICctbWV0YWxfYmluZGluZycsICctaW1hZScsICc8aW5maWxlLm1hZT4nLCAnLW9tYWUnLCAnPG91dGZpbGUubWFlPic=

> <r_lp_tautomer_probability>
1

> <r_epik_Ionization_Penalty>
0.00253099

> <r_epik_Ionization_Penalty_Charging>
0.00137877

> <r_epik_Ionization_Penalty_Neutral>
0.00115221

> <r_epik_State_Penalty>
-0

> <r_epik_Charging_Adjusted_Penalty>
0.00137877

> <i_epik_Tot_Q>
1

> <i_epik_Tot_abs_Q>
1

> <r_epik_Metal_State_Penalty>
-0

> <b_epik_Metal_Only>
0

> <s_lp_Force_Field>
OPLS_2005

> <r_lp_Energy>
46.0239

> <b_lp_Chiralities_Consistent>
1

> <s_lp_Variant>
AV-unprocessed.smi:243-7

> <Gold.Version>
5.8.1

> <Gold.Id.Protein>
6NUR|6NUR_protein|mol2

> <Gold.PLP.Fitness>
48.0088

> <Gold.PLP.PLP>
-41.2068

> <Gold.PLP.part.hbond>
-2.0000

> <Gold.PLP.part.metal>
0.0000

> <Gold.PLP.part.buried>
-1.3561

> <Gold.PLP.part.nonpolar>
-38.7512

> <Gold.PLP.part.repulsive>
1.0518

> <Gold.PLP.ligand.clash>
0.0000

> <Gold.PLP.ligand.torsion>
1.3147

> <Gold.PLP.Chemscore.Hbond>
2.0000

> <Gold.PLP.Chemscore.CHOScore>
0.9792

> <Gold.PLP.Chemscore.Metal>
0.0000

> <Gold.Chemscore.Hbonds>
donor molecule, donor type, donor heavy atom, donor atom, acceptor molecule, acceptor atom, score
      L1  H     3    58       P1 10747  1.00
      P1  H  7989  7998       L1    23  0.39
      L1  C    16    42       P1  7957  0.87

> <Gold.PLP.Chemscore.Internal.Correction>
0.4939

> <Gold.Rescore>
     Score         DG    S(hbond)    S(metal)    S(lipo)     H(rot)  DE(clash)    DE(int)     intcor
     14.31     -17.23       1.92        0.00      94.70       2.24       1.25       1.67       ----

> <Gold.Chemscore.Fitness>
14.3101

> <Gold.Chemscore.DG>
-17.2287

> <Gold.Chemscore.ZeroCoef>
-5.4800

> <Gold.Chemscore.Hbond>
1.9155

> <Gold.Chemscore.Metal>
0.0000

> <Gold.Chemscore.Lipo>
94.7024

> <Gold.Chemscore.Internal_Hbond>
0.0000

> <Gold.Chemscore.DEClash>
1.2469

> <Gold.Chemscore.DEInternal>
1.6718

> <Gold.Chemscore.Rot>
2.2379

> <Gold.Chemscore.Internal.Correction>
   9.000000E+99

> <Gold.Chemscore.Hbonds>
donor molecule, donor type, donor heavy atom, donor atom, acceptor molecule, acceptor atom, score
      L1  H     3    58       P1 10747  0.93
      P1  H  7989  7998       L1    23  0.14

> <Gold.Chemscore.Hbond.Weighted>
-6.3977

> <Gold.Chemscore.Metal.Weighted>
-0.0000

> <Gold.Chemscore.Lipo.Weighted>
-11.0802

> <Gold.Chemscore.Internal_Hbond.Weighted>
0.0000

> <Gold.Chemscore.DEClash.Weighted>
1.2469

> <Gold.Chemscore.DEInternal.Weighted>
1.6718

> <Gold.Chemscore.Rot.Weighted>
5.7291

> <Gold.Chemscore.Internal.Correction.Weighted>
   9.000000E+99

> <Gold.Protein.RotatedTorsions>
[ 6907 6896 6895 6894 ] final -132.59 input  -60.11 | X-H torsion
[ 7974 7965 7964 7962 ] final   45.42 input  175.53 | X-H torsion
[ 8008 7997 7996 7995 ] final  128.13 input   59.86 | X-H torsion
[ 10167 10162 10161 10158 ] final   97.11 input  -65.29 | X-H torsion
[ 10718 10713 10712 10709 ] final  -97.60 input   66.30 | X-H torsion
[ 10763 10752 10751 10750 ] final  177.45 input  -60.55 | X-H torsion
[ 11005 11000 10999 10996 ] final -139.11 input  -57.11 | X-H torsion

> <Gold.Protein.ActiveResidues>
 VAL166  LYS551  ARG553  GLY616  TRP617  ASP618  TYR619  PRO620  LYS621  CYS622 
 ASP623  PHE694  ASN695  SER759  ASP760  ASP761  ALA762  ILE779  LEU786  VAL792 
 PHE793  MET794  SER795  GLU796  ALA797  LYS798  CYS799  TRP800  GLU811  SER814 

> <Gold.Protein.RotatedAtoms>
  150.9641  133.6413  159.2748 H   0  0  0  0  0  0  0  0  0  0  0  0  # atno 6907 bound_to 6896
  151.3725  135.0924  159.9480 H   0  0  0  0  0  0  0  0  0  0  0  0  # atno 6908 bound_to 6896
  152.5159  133.9192  159.7581 H   0  0  0  0  0  0  0  0  0  0  0  0  # atno 6909 bound_to 6896
  146.0481  139.4966  142.9736 H   0  0  0  0  0  0  0  0  0  0  0  0  # atno 7974 bound_to 7965
  156.2908  140.2652  156.2386 H   0  0  0  0  0  0  0  0  0  0  0  0  # atno 8008 bound_to 7997
  155.0000  140.0388  157.2374 H   0  0  0  0  0  0  0  0  0  0  0  0  # atno 8009 bound_to 7997
  154.7610  140.2760  155.6219 H   0  0  0  0  0  0  0  0  0  0  0  0  # atno 8010 bound_to 7997
  139.7831  144.6881  150.9995 H   0  0  0  0  0  0  0  0  0  0  0  0  # atno 10167 bound_to 10162
  156.0087  130.5201  150.6399 H   0  0  0  0  0  0  0  0  0  0  0  0  # atno 10718 bound_to 10713
  154.4946  135.2780  155.1469 H   0  0  0  0  0  0  0  0  0  0  0  0  # atno 10763 bound_to 10752
  154.3127  135.6225  153.5476 H   0  0  0  0  0  0  0  0  0  0  0  0  # atno 10764 bound_to 10752
  152.9893  135.5723  154.5375 H   0  0  0  0  0  0  0  0  0  0  0  0  # atno 10765 bound_to 10752
  140.8551  134.2238  157.4739 H   0  0  0  0  0  0  0  0  0  0  0  0  # atno 11005 bound_to 11000
  145.6771  141.0201  143.1626 LP  0  0  0  0  0  0  0  0  0  0  0  0  # atno 17320 bound_to 7965
  144.7108  139.8378  143.7415 LP  0  0  0  0  0  0  0  0  0  0  0  0  # atno 17321 bound_to 7965
  140.7819  143.4461  151.0480 LP  0  0  0  0  0  0  0  0  0  0  0  0  # atno 17342 bound_to 10162
  139.8141  143.7910  152.3173 LP  0  0  0  0  0  0  0  0  0  0  0  0  # atno 17343 bound_to 10162
  157.4181  131.0833  151.1157 LP  0  0  0  0  0  0  0  0  0  0  0  0  # atno 17370 bound_to 10713
  157.1768  130.6291  149.5658 LP  0  0  0  0  0  0  0  0  0  0  0  0  # atno 17371 bound_to 10713
  139.8705  134.9702  156.4694 LP  0  0  0  0  0  0  0  0  0  0  0  0  # atno 17394 bound_to 11000
  140.8746  133.7963  155.9401 LP  0  0  0  0  0  0  0  0  0  0  0  0  # atno 17395 bound_to 11000

$$$$
