AV-unprocessed.smi:2044|AV-procd|sdf|8305|dock4
  -GOLD-   2272010573D 1   1.00000     0.00000
 Structure written by MMmdl.
 39 40  0  0  0  0  0  0  0  0  3 V2000
  145.6144  136.1019  162.3212 C   0  0  0  0  0  0  0  0  0  0  0  0
  146.6543  135.9162  161.2695 C   0  0  0  0  0  0  0  0  0  0  0  0
  146.9037  134.9102  160.3798 C   0  0  0  0  0  0  0  0  0  0  0  0
  148.0410  135.3806  159.6681 C   0  0  0  0  0  0  0  0  0  0  0  0
  148.6787  134.7304  158.6827 N   0  5  0  0  0  0  0  0  0  0  0  0
  148.9129  135.3460  157.5018 C   0  0  0  0  0  0  0  0  0  0  0  0
  148.6941  136.5306  157.2378 O   0  0  0  0  0  0  0  0  0  0  0  0
  149.4209  134.5324  156.5643 N   0  0  0  0  0  0  0  0  0  0  0  0
  149.7767  134.9018  155.1963 C   0  0  0  0  0  0  0  0  0  0  0  0
  149.5386  133.7569  154.1773 C   0  0  1  0  0  0  0  0  0  0  0  0
  149.5816  132.3751  154.8755 C   0  0  0  0  0  0  0  0  0  0  0  0
  148.2650  134.0057  153.4251 N   0  3  0  0  0  0  0  0  0  0  0  0
  147.9910  132.9593  152.4024 C   0  0  0  0  0  0  0  0  0  0  0  0
  146.7378  133.3026  151.5816 C   0  0  0  0  0  0  0  0  0  0  0  0
  145.6252  133.4451  152.4520 O   0  0  0  0  0  0  0  0  0  0  0  0
  145.8199  134.5060  153.3752 C   0  0  0  0  0  0  0  0  0  0  0  0
  147.0476  134.2174  154.2563 C   0  0  0  0  0  0  0  0  0  0  0  0
  148.4546  136.5607  160.0984 N   0  0  0  0  0  0  0  0  0  0  0  0
  147.5666  136.9142  161.1213 O   0  0  0  0  0  0  0  0  0  0  0  0
  145.7007  135.3318  163.0874 H   0  0  0  0  0  0  0  0  0  0  0  0
  144.6153  136.0405  161.8898 H   0  0  0  0  0  0  0  0  0  0  0  0
  145.7135  137.0735  162.8058 H   0  0  0  0  0  0  0  0  0  0  0  0
  146.3589  133.9862  160.2550 H   0  0  0  0  0  0  0  0  0  0  0  0
  149.5797  133.5716  156.8311 H   0  0  0  0  0  0  0  0  0  0  0  0
  149.2429  135.7996  154.8803 H   0  0  0  0  0  0  0  0  0  0  0  0
  150.8273  135.1826  155.2327 H   0  0  0  0  0  0  0  0  0  0  0  0
  150.3570  133.7624  153.4551 H   0  0  0  0  0  0  0  0  0  0  0  0
  150.5205  132.2197  155.4056 H   0  0  0  0  0  0  0  0  0  0  0  0
  149.5155  131.5520  154.1645 H   0  0  0  0  0  0  0  0  0  0  0  0
  148.7748  132.2693  155.6014 H   0  0  0  0  0  0  0  0  0  0  0  0
  148.8300  132.8473  151.7185 H   0  0  0  0  0  0  0  0  0  0  0  0
  147.8551  131.9951  152.8946 H   0  0  0  0  0  0  0  0  0  0  0  0
  146.8867  134.2155  151.0023 H   0  0  0  0  0  0  0  0  0  0  0  0
  146.5262  132.5051  150.8692 H   0  0  0  0  0  0  0  0  0  0  0  0
  145.9372  135.4513  152.8424 H   0  0  0  0  0  0  0  0  0  0  0  0
  144.9279  134.6005  153.9949 H   0  0  0  0  0  0  0  0  0  0  0  0
  146.8670  133.3371  154.8753 H   0  0  0  0  0  0  0  0  0  0  0  0
  147.1750  135.0695  154.9235 H   0  0  0  0  0  0  0  0  0  0  0  0
  148.4060  134.8727  152.9264 H   0  0  0  0  0  0  0  0  0  0  0  0
  1  2  1  0  0  0  0
  1 20  1  0  0  0  0
  1 21  1  0  0  0  0
  1 22  1  0  0  0  0
  2 19  1  0  0  0  0
  2  3  2  0  0  0  0
  3  4  1  0  0  0  0
  3 23  1  0  0  0  0
  4  5  1  0  0  0  0
  4 18  2  0  0  0  0
  5  6  1  0  0  0  0
  6  7  2  0  0  0  0
  6  8  1  0  0  0  0
  8  9  1  0  0  0  0
  8 24  1  0  0  0  0
  9 10  1  0  0  0  0
  9 25  1  0  0  0  0
  9 26  1  0  0  0  0
 10 11  1  0  0  0  0
 10 12  1  0  0  0  0
 10 27  1  0  0  0  0
 11 28  1  0  0  0  0
 11 29  1  0  0  0  0
 11 30  1  0  0  0  0
 12 17  1  0  0  0  0
 12 13  1  0  0  0  0
 12 39  1  0  0  0  0
 13 14  1  0  0  0  0
 13 31  1  0  0  0  0
 13 32  1  0  0  0  0
 14 15  1  0  0  0  0
 14 33  1  0  0  0  0
 14 34  1  0  0  0  0
 15 16  1  0  0  0  0
 16 17  1  0  0  0  0
 16 35  1  0  0  0  0
 16 36  1  0  0  0  0
 17 37  1  0  0  0  0
 17 38  1  0  0  0  0
 18 19  1  0  0  0  0
M  CHG  1   5  -1
M  CHG  1  12   1
M  END
> <s_m_source_file>
AV-unprocessed.smi

> <i_m_source_file_index>
2044

> <i_lp_mmshare_version>
43012

> <i_f3d_flags>
0

> <s_epik_input>
W0NIM11jMVtjSF1jKG5vMSlbTkhdQyg9TylbTkhdW0NIMl1bQ0BIXShbQ0gzXSlOMltDSDJdW0NIMl1PW0NIMl1bQ0gyXTI=

> <s_epik_cmdline>
J2VwaWtfcHl0aG9uJywgJy1waCcsICc3LjAnLCAnLXRuJywgJzgnLCAnLW1hJywgJzIwMCcsICctbWV0YWxfYmluZGluZycsICctaW1hZScsICc8aW5maWxlLm1hZT4nLCAnLW9tYWUnLCAnPG91dGZpbGUubWFlPic=

> <r_epik_Ionization_Penalty>
6.73014

> <r_epik_Ionization_Penalty_Charging>
6.73004

> <r_epik_Ionization_Penalty_Neutral>
9.51297e-05

> <r_epik_State_Penalty>
6.93052

> <r_epik_Charging_Adjusted_Penalty>
13.6606

> <i_epik_Tot_Q>
0

> <i_epik_Tot_abs_Q>
2

> <r_epik_Metal_State_Penalty>
2.86736

> <b_epik_Metal_Only>
1

> <s_lp_Force_Field>
OPLS_2005

> <r_lp_Energy>
8.75772

> <b_lp_Chiralities_Consistent>
1

> <s_lp_Variant>
AV-unprocessed.smi:2044-8

> <Gold.Version>
5.8.1

> <Gold.Id.Protein>
6NUR|6NUR_protein|mol2

> <Gold.PLP.Fitness>
41.1606

> <Gold.PLP.PLP>
-26.8323

> <Gold.PLP.part.hbond>
-4.8900

> <Gold.PLP.part.metal>
0.0000

> <Gold.PLP.part.buried>
-3.3920

> <Gold.PLP.part.nonpolar>
-19.1356

> <Gold.PLP.part.repulsive>
0.1560

> <Gold.PLP.ligand.clash>
0.2024

> <Gold.PLP.ligand.torsion>
1.2342

> <Gold.PLP.Chemscore.Hbond>
5.6380

> <Gold.PLP.Chemscore.CHOScore>
0.0000

> <Gold.PLP.Chemscore.Metal>
0.0000

> <Gold.Chemscore.Hbonds>
donor molecule, donor type, donor heavy atom, donor atom, acceptor molecule, acceptor atom, score
      L1  H    12    39       P1  7948  2.00
      P1  H  6896  6908       L1     5  1.24
      P1  H  6931  6943       L1    19  0.37
      P1  H  6934  6947       L1    19  0.67

> <Gold.PLP.Chemscore.Internal.Correction>
0.0852

> <Gold.Rescore>
     Score         DG    S(hbond)    S(metal)    S(lipo)     H(rot)  DE(clash)    DE(int)     intcor
     11.86     -14.46       2.05        0.00      53.08       1.59       0.13       2.46       ----

> <Gold.Chemscore.Fitness>
11.8590

> <Gold.Chemscore.DG>
-14.4555

> <Gold.Chemscore.ZeroCoef>
-5.4800

> <Gold.Chemscore.Hbond>
2.0487

> <Gold.Chemscore.Metal>
0.0000

> <Gold.Chemscore.Lipo>
53.0845

> <Gold.Chemscore.Internal_Hbond>
0.0000

> <Gold.Chemscore.DEClash>
0.1349

> <Gold.Chemscore.DEInternal>
2.4616

> <Gold.Chemscore.Rot>
1.5930

> <Gold.Chemscore.Internal.Correction>
   9.000000E+99

> <Gold.Chemscore.Hbonds>
donor molecule, donor type, donor heavy atom, donor atom, acceptor molecule, acceptor atom, score
      L1  H    12    39       P1  7948  0.60
      P1  H  6896  6908       L1     5  0.06
      P1  H  6931  6943       L1    19  0.02
      P1  H  6934  6947       L1    19  0.39

> <Gold.Chemscore.Hbond.Weighted>
-6.8426

> <Gold.Chemscore.Metal.Weighted>
-0.0000

> <Gold.Chemscore.Lipo.Weighted>
-6.2109

> <Gold.Chemscore.Internal_Hbond.Weighted>
0.0000

> <Gold.Chemscore.DEClash.Weighted>
0.1349

> <Gold.Chemscore.DEInternal.Weighted>
2.4616

> <Gold.Chemscore.Rot.Weighted>
4.0781

> <Gold.Chemscore.Internal.Correction.Weighted>
   9.000000E+99

> <Gold.Protein.RotatedTorsions>
[ 6907 6896 6895 6894 ] final  170.73 input  -60.11 | X-H torsion
[ 7974 7965 7964 7962 ] final -102.50 input  175.53 | X-H torsion
[ 8008 7997 7996 7995 ] final  104.78 input   59.86 | X-H torsion
[ 10167 10162 10161 10158 ] final  -21.23 input  -65.29 | X-H torsion
[ 10718 10713 10712 10709 ] final -121.00 input   66.30 | X-H torsion
[ 10763 10752 10751 10750 ] final   83.98 input  -60.55 | X-H torsion
[ 11005 11000 10999 10996 ] final   50.50 input  -57.11 | X-H torsion

> <Gold.Protein.ActiveResidues>
 VAL166  LYS551  ARG553  GLY616  TRP617  ASP618  TYR619  PRO620  LYS621  CYS622 
 ASP623  PHE694  ASN695  SER759  ASP760  ASP761  ALA762  ILE779  LEU786  VAL792 
 PHE793  MET794  SER795  GLU796  ALA797  LYS798  CYS799  TRP800  GLU811  SER814 

> <Gold.Protein.RotatedAtoms>
  151.8114  133.3382  159.3556 H   0  0  0  0  0  0  0  0  0  0  0  0  # atno 6907 bound_to 6896
  150.7325  134.5660  159.5876 H   0  0  0  0  0  0  0  0  0  0  0  0  # atno 6908 bound_to 6896
  152.3072  134.7542  160.0396 H   0  0  0  0  0  0  0  0  0  0  0  0  # atno 6909 bound_to 6896
  145.2679  140.9289  143.3003 H   0  0  0  0  0  0  0  0  0  0  0  0  # atno 7974 bound_to 7965
  156.1602  140.3142  155.8795 H   0  0  0  0  0  0  0  0  0  0  0  0  # atno 8008 bound_to 7997
  155.3797  140.0487  157.3061 H   0  0  0  0  0  0  0  0  0  0  0  0  # atno 8009 bound_to 7997
  154.5139  140.2174  155.9113 H   0  0  0  0  0  0  0  0  0  0  0  0  # atno 8010 bound_to 7997
  140.7281  143.4647  151.0330 H   0  0  0  0  0  0  0  0  0  0  0  0  # atno 10167 bound_to 10162
  156.1302  130.6390  150.9609 H   0  0  0  0  0  0  0  0  0  0  0  0  # atno 10718 bound_to 10713
  153.1340  135.4671  154.9394 H   0  0  0  0  0  0  0  0  0  0  0  0  # atno 10763 bound_to 10752
  154.7690  135.3153  154.8231 H   0  0  0  0  0  0  0  0  0  0  0  0  # atno 10764 bound_to 10752
  153.8767  135.6898  153.4824 H   0  0  0  0  0  0  0  0  0  0  0  0  # atno 10765 bound_to 10752
  140.1012  134.5079  155.8761 H   0  0  0  0  0  0  0  0  0  0  0  0  # atno 11005 bound_to 11000
  144.9361  139.4243  143.6472 LP  0  0  0  0  0  0  0  0  0  0  0  0  # atno 17320 bound_to 7965
  146.3255  139.8297  142.8911 LP  0  0  0  0  0  0  0  0  0  0  0  0  # atno 17321 bound_to 7965
  139.8334  143.7660  152.3180 LP  0  0  0  0  0  0  0  0  0  0  0  0  # atno 17342 bound_to 10162
  139.7784  144.7453  151.0124 LP  0  0  0  0  0  0  0  0  0  0  0  0  # atno 17343 bound_to 10162
  157.6481  131.0901  150.8111 LP  0  0  0  0  0  0  0  0  0  0  0  0  # atno 17370 bound_to 10713
  156.8196  130.4979  149.5345 LP  0  0  0  0  0  0  0  0  0  0  0  0  # atno 17371 bound_to 10713
  141.2106  133.6697  156.6522 LP  0  0  0  0  0  0  0  0  0  0  0  0  # atno 17394 bound_to 11000
  140.3217  134.8002  157.4258 LP  0  0  0  0  0  0  0  0  0  0  0  0  # atno 17395 bound_to 11000

$$$$
