#       Name:                AV-unprocessed.smi:2973
#       Creating user name   scv26
#       Creation time:       Fri Mar 27 16:24:49 2020


#       File generated by GOLD software.
#

@<TRIPOS>MOLECULE
AV-unprocessed.smi:2973
    56    58     1
SMALL
NO_CHARGES


@<TRIPOS>ATOM
      1 ****        -0.2056   3.2053   0.3850 C.3            1 S1                 0.0000
      2 ****        -1.7005   3.4228   0.7019 C.3            1 S1                 0.0000
      3 ****        -1.9160   3.5964   2.2210 C.3            1 S1                 0.0000
      4 ****        -3.3830   3.9092   2.5545 C.3            1 S1                 0.0000
      5 ****        -4.3265   2.8311   2.0034 C.3            1 S1                 0.0000
      6 ****        -4.1302   2.6417   0.4887 C.3            1 S1                 0.0000
      7 ****        -2.6595   2.3479   0.0979 C.3            1 S1                 0.0000
      8 ****        -2.5418   2.2952  -1.3490 N.am           1 S1                 0.0000
      9 ****        -2.1622   1.0956  -1.8055 C.2            1 S1                 0.0000
     10 ****        -1.9884   0.8100  -2.9892 O.2            1 S1                 0.0000
     11 ****        -2.0002   0.2751  -0.7528 N.am           1 S1                 0.0000
     12 ****        -1.5423  -1.1165  -0.8569 C.3            1 S1                 0.0000
     13 ****        -0.0143  -1.2483  -0.9348 C.2            1 S1                 0.0000
     14 ****         0.7218  -0.3161  -0.6071 O.2            1 S1                 0.0000
     15 ****         0.4478  -2.4303  -1.3684 N.am           1 S1                 0.0000
     16 ****         1.8554  -2.7684  -1.5436 C.3            1 S1                 0.0000
     17 ****         2.5240  -3.1463  -0.2115 C.3            1 S1                 0.0000
     18 ****         3.9725  -3.5559  -0.3987 C.ar           1 S1                 0.0000
     19 ****         4.3340  -4.9191  -0.4527 C.ar           1 S1                 0.0000
     20 ****         5.6901  -5.2462  -0.6458 C.ar           1 S1                 0.0000
     21 ****         6.6274  -4.2034  -0.7775 C.ar           1 S1                 0.0000
     22 ****         6.1649  -2.8741  -0.7096 C.ar           1 S1                 0.0000
     23 ****         4.8670  -2.5496  -0.5253 N.ar           1 S1                 0.0000
     24 ****        -2.2594   0.9023   0.4028 C.2            1 S1                 0.0000
     25 ****        -2.1852   0.4207   1.5336 O.2            1 S1                 0.0000
     26 ****         0.1781   2.2942   0.8447 H              1 S1                 0.0000
     27 ****         0.3941   4.0347   0.7602 H              1 S1                 0.0000
     28 ****        -0.0254   3.1391  -0.6878 H              1 S1                 0.0000
     29 ****        -1.9685   4.3741   0.2391 H              1 S1                 0.0000
     30 ****        -1.6005   2.7000   2.7552 H              1 S1                 0.0000
     31 ****        -1.2860   4.4051   2.5931 H              1 S1                 0.0000
     32 ****        -3.5083   3.9951   3.6341 H              1 S1                 0.0000
     33 ****        -3.6531   4.8789   2.1345 H              1 S1                 0.0000
     34 ****        -4.1566   1.8906   2.5275 H              1 S1                 0.0000
     35 ****        -5.3609   3.1083   2.2076 H              1 S1                 0.0000
     36 ****        -4.7857   1.8427   0.1385 H              1 S1                 0.0000
     37 ****        -4.4641   3.5449  -0.0241 H              1 S1                 0.0000
     38 ****        -2.7254   3.0935  -1.9395 H              1 S1                 0.0000
     39 ****        -1.8971  -1.6990  -0.0051 H              1 S1                 0.0000
     40 ****        -1.9872  -1.5806  -1.7391 H              1 S1                 0.0000
     41 ****        -0.2260  -3.1422  -1.6113 H              1 S1                 0.0000
     42 ****         1.9145  -3.6077  -2.2371 H              1 S1                 0.0000
     43 ****         2.3831  -1.9382  -2.0164 H              1 S1                 0.0000
     44 ****         2.4827  -2.3074   0.4847 H              1 S1                 0.0000
     45 ****         1.9784  -3.9639   0.2619 H              1 S1                 0.0000
     46 ****         3.5908  -5.6968  -0.3534 H              1 S1                 0.0000
     47 ****         6.0045  -6.2783  -0.6940 H              1 S1                 0.0000
     48 ****         7.6754  -4.4162  -0.9277 H              1 S1                 0.0000
     49 ****         6.8557  -2.0497  -0.8080 H              1 S1                 0.0000
     50 ****        -2.1320   1.5019  -3.6967 LP             1 S1                 0.0000
     51 ****        -1.7036  -0.1141  -3.2439 LP             1 S1                 0.0000
     52 ****         0.3261   0.5436  -0.2840 LP             1 S1                 0.0000
     53 ****         1.7148  -0.4193  -0.6641 LP             1 S1                 0.0000
     54 ****         4.5760  -1.5938  -0.4836 LP             1 S1                 0.0000
     55 ****        -2.3942   0.9852   2.3322 LP             1 S1                 0.0000
     56 ****        -1.9161  -0.5349   1.6534 LP             1 S1                 0.0000
@<TRIPOS>BOND
    1    1    2 1     
    2    1   26 1     
    3    1   27 1     
    4    1   28 1     
    5    2    7 1     
    6    2    3 1     
    7    2   29 1     
    8    3    4 1     
    9    3   30 1     
   10    3   31 1     
   11    4    5 1     
   12    4   32 1     
   13    4   33 1     
   14    5    6 1     
   15    5   34 1     
   16    5   35 1     
   17    6    7 1     
   18    6   36 1     
   19    6   37 1     
   20    7   24 1     
   21    7    8 1     
   22    8    9 am    
   23    8   38 1     
   24    9   10 2     
   25    9   11 am    
   26   11   12 1     
   27   11   24 am    
   28   12   13 1     
   29   12   39 1     
   30   12   40 1     
   31   13   14 2     
   32   13   15 am    
   33   15   16 1     
   34   15   41 1     
   35   16   17 1     
   36   16   42 1     
   37   16   43 1     
   38   17   18 1     
   39   17   44 1     
   40   17   45 1     
   41   18   23 ar    
   42   18   19 ar    
   43   19   20 ar    
   44   19   46 1     
   45   20   21 ar    
   46   20   47 1     
   47   21   22 ar    
   48   21   48 1     
   49   22   23 ar    
   50   22   49 1     
   51   24   25 2     
   52   10   50 1     
   53   10   51 1     
   54   14   52 1     
   55   14   53 1     
   56   23   54 1     
   57   25   55 1     
   58   25   56 1     
@<TRIPOS>SUBSTRUCTURE
      1 S1             1
@<TRIPOS>SET
LONE_PAIRS      STATIC     ATOMS    <user>   **** ""
7 50 51 52 53 54 55 56
DONOR_HYDROGENS      STATIC     ATOMS    <user>   **** ""
2 38 41
ATOM$BLUE        STATIC     ATOMS    COLORGROUP SYSTEM
7 50 51 52 53 54 55 56
ATOM$RED        STATIC     ATOMS    COLORGROUP SYSTEM
2 38 41
