AV-unprocessed.smi:1827|AV-procd|sdf|7419|dock3
  -GOLD-   22720 9103D 1   1.00000     0.00000
 Structure written by MMmdl.
 43 44  0  0  0  0  0  0  0  0  1 V2000
  143.6613  134.9161  154.1375 C   0  0  0  0  0  0  0  0  0  0  0  0
  142.4687  135.8262  154.0342 C   0  0  0  0  0  0  0  0  0  0  0  0
  141.2564  135.3071  154.1808 N   0  0  0  0  0  0  0  0  0  0  0  0
  140.4190  136.3636  154.1033 N   0  0  0  0  0  0  0  0  0  0  0  0
  141.0648  137.5637  153.9088 C   0  0  0  0  0  0  0  0  0  0  0  0
  140.3342  138.8612  153.8106 C   0  0  0  0  0  0  0  0  0  0  0  0
  142.3882  137.2394  153.8313 C   0  0  0  0  0  0  0  0  0  0  0  0
  143.4344  138.1802  153.6622 N   0  0  0  0  0  0  0  0  0  0  0  0
  144.6740  138.1047  154.1693 C   0  0  0  0  0  0  0  0  0  0  0  0
  145.1063  137.1646  154.8360 O   0  0  0  0  0  0  0  0  0  0  0  0
  145.4025  139.1810  153.8414 N   0  0  0  0  0  0  0  0  0  0  0  0
  146.7887  139.4104  154.2371 C   0  0  0  0  0  0  0  0  0  0  0  0
  146.9147  139.5204  155.7657 C   0  0  0  0  0  0  0  0  0  0  0  0
  148.3475  139.8993  156.1772 C   0  0  0  0  0  0  0  0  0  0  0  0
  148.7443  141.1692  155.5604 N   0  0  0  0  0  0  0  0  0  0  0  0
  150.0727  141.5683  156.0791 C   0  0  0  0  0  0  0  0  0  0  0  0
  151.1648  140.5044  155.9145 C   0  0  0  0  0  0  0  0  0  0  0  0
  151.7796  140.0840  157.0228 N   0  0  0  0  0  0  0  0  0  0  0  0
  151.4450  140.0652  154.8012 O   0  0  0  0  0  0  0  0  0  0  0  0
  148.7219  141.0512  154.0950 C   0  0  0  0  0  0  0  0  0  0  0  0
  147.3048  140.7090  153.6014 C   0  0  0  0  0  0  0  0  0  0  0  0
  139.4190  136.2514  154.1916 H   0  0  0  0  0  0  0  0  0  0  0  0
  144.5140  135.4304  154.5805 H   0  0  0  0  0  0  0  0  0  0  0  0
  143.9609  134.5506  153.1552 H   0  0  0  0  0  0  0  0  0  0  0  0
  143.4478  134.0475  154.7613 H   0  0  0  0  0  0  0  0  0  0  0  0
  141.0251  139.7042  153.8192 H   0  0  0  0  0  0  0  0  0  0  0  0
  139.6465  138.9830  154.6476 H   0  0  0  0  0  0  0  0  0  0  0  0
  139.7566  138.9097  152.8875 H   0  0  0  0  0  0  0  0  0  0  0  0
  143.2480  138.9411  153.0258 H   0  0  0  0  0  0  0  0  0  0  0  0
  144.9647  139.9000  153.2844 H   0  0  0  0  0  0  0  0  0  0  0  0
  147.4060  138.5821  153.8838 H   0  0  0  0  0  0  0  0  0  0  0  0
  146.2183  140.2701  156.1450 H   0  0  0  0  0  0  0  0  0  0  0  0
  146.6376  138.5762  156.2359 H   0  0  0  0  0  0  0  0  0  0  0  0
  148.3879  139.9873  157.2637 H   0  0  0  0  0  0  0  0  0  0  0  0
  149.0431  139.1058  155.8978 H   0  0  0  0  0  0  0  0  0  0  0  0
  150.4156  142.4572  155.5475 H   0  0  0  0  0  0  0  0  0  0  0  0
  149.9872  141.8513  157.1302 H   0  0  0  0  0  0  0  0  0  0  0  0
  152.5055  139.3850  156.9635 H   0  0  0  0  0  0  0  0  0  0  0  0
  151.5148  140.4692  157.9179 H   0  0  0  0  0  0  0  0  0  0  0  0
  149.0250  141.9860  153.6240 H   0  0  0  0  0  0  0  0  0  0  0  0
  149.4312  140.2887  153.7686 H   0  0  0  0  0  0  0  0  0  0  0  0
  147.3068  140.6166  152.5147 H   0  0  0  0  0  0  0  0  0  0  0  0
  146.6322  141.5346  153.8399 H   0  0  0  0  0  0  0  0  0  0  0  0
  1  2  1  0  0  0  0
  1 23  1  0  0  0  0
  1 24  1  0  0  0  0
  1 25  1  0  0  0  0
  2  7  1  0  0  0  0
  2  3  2  0  0  0  0
  3  4  1  0  0  0  0
  4 22  1  0  0  0  0
  4  5  1  0  0  0  0
  5  6  1  0  0  0  0
  5  7  2  0  0  0  0
  6 26  1  0  0  0  0
  6 27  1  0  0  0  0
  6 28  1  0  0  0  0
  7  8  1  0  0  0  0
  8  9  1  0  0  0  0
  8 29  1  0  0  0  0
  9 10  2  0  0  0  0
  9 11  1  0  0  0  0
 11 12  1  0  0  0  0
 11 30  1  0  0  0  0
 12 21  1  0  0  0  0
 12 13  1  0  0  0  0
 12 31  1  0  0  0  0
 13 14  1  0  0  0  0
 13 32  1  0  0  0  0
 13 33  1  0  0  0  0
 14 15  1  0  0  0  0
 14 34  1  0  0  0  0
 14 35  1  0  0  0  0
 15 16  1  0  0  0  0
 15 20  1  0  0  0  0
 16 17  1  0  0  0  0
 16 36  1  0  0  0  0
 16 37  1  0  0  0  0
 17 18  1  0  0  0  0
 17 19  2  0  0  0  0
 18 38  1  0  0  0  0
 18 39  1  0  0  0  0
 20 21  1  0  0  0  0
 20 40  1  0  0  0  0
 20 41  1  0  0  0  0
 21 42  1  0  0  0  0
 21 43  1  0  0  0  0
M  END
> <s_m_source_file>
AV-unprocessed.smi

> <i_m_source_file_index>
1827

> <i_lp_mmshare_version>
43012

> <i_f3d_flags>
0

> <s_epik_input>
W0NIM11jMW5bbkhdYyhbQ0gzXSljMVtOSF1DKD1PKVtOSF1bQ0hdMltDSDJdW0NIMl1OKFtDSDJdW0NIMl0yKVtDSDJdQyg9TylbTkgyXQ==

> <s_epik_cmdline>
J2VwaWtfcHl0aG9uJywgJy1waCcsICc3LjAnLCAnLXRuJywgJzgnLCAnLW1hJywgJzIwMCcsICctbWV0YWxfYmluZGluZycsICctaW1hZScsICc8aW5maWxlLm1hZT4nLCAnLW9tYWUnLCAnPG91dGZpbGUubWFlPic=

> <r_lp_tautomer_probability>
0.5

> <r_epik_Ionization_Penalty>
0.165173

> <r_epik_Ionization_Penalty_Charging>
0

> <r_epik_Ionization_Penalty_Neutral>
0.165173

> <r_epik_State_Penalty>
0.154069

> <r_epik_Charging_Adjusted_Penalty>
0.154069

> <i_epik_Tot_Q>
0

> <i_epik_Tot_abs_Q>
0

> <r_epik_Metal_State_Penalty>
0.171338

> <b_epik_Metal_Only>
0

> <s_lp_Force_Field>
OPLS_2005

> <r_lp_Energy>
14.0389

> <b_lp_Chiralities_Consistent>
1

> <s_lp_Variant>
AV-unprocessed.smi:1827-1

> <Gold.Version>
5.8.1

> <Gold.Id.Protein>
6NUR|6NUR_protein|mol2

> <Gold.PLP.Fitness>
36.7224

> <Gold.PLP.PLP>
-25.2077

> <Gold.PLP.part.hbond>
-4.0000

> <Gold.PLP.part.metal>
0.0000

> <Gold.PLP.part.buried>
-4.8841

> <Gold.PLP.part.nonpolar>
-17.8865

> <Gold.PLP.part.repulsive>
0.4886

> <Gold.PLP.ligand.clash>
0.0000

> <Gold.PLP.ligand.torsion>
0.2460

> <Gold.PLP.Chemscore.Hbond>
3.8880

> <Gold.PLP.Chemscore.CHOScore>
0.0000

> <Gold.PLP.Chemscore.Metal>
0.0000

> <Gold.Chemscore.Hbonds>
donor molecule, donor type, donor heavy atom, donor atom, acceptor molecule, acceptor atom, score
      L1  H     8    29       P1 10175  0.99
      L1  H    11    30       P1 10175  1.00
      P1  H  7989  7998       L1    19  1.00
      P1  H 11000 11005       L1     3  0.80

> <Gold.PLP.Chemscore.Internal.Correction>
0.3427

> <Gold.Rescore>
     Score         DG    S(hbond)    S(metal)    S(lipo)     H(rot)  DE(clash)    DE(int)     intcor
     14.59     -17.72       3.57        0.00      45.61       1.96       0.13       3.00       ----

> <Gold.Chemscore.Fitness>
14.5942

> <Gold.Chemscore.DG>
-17.7232

> <Gold.Chemscore.ZeroCoef>
-5.4800

> <Gold.Chemscore.Hbond>
3.5715

> <Gold.Chemscore.Metal>
0.0000

> <Gold.Chemscore.Lipo>
45.6059

> <Gold.Chemscore.Internal_Hbond>
0.0000

> <Gold.Chemscore.DEClash>
0.1334

> <Gold.Chemscore.DEInternal>
2.9956

> <Gold.Chemscore.Rot>
1.9616

> <Gold.Chemscore.Internal.Correction>
   9.000000E+99

> <Gold.Chemscore.Hbonds>
donor molecule, donor type, donor heavy atom, donor atom, acceptor molecule, acceptor atom, score
      L1  H     8    29       P1 10175  0.94
      L1  H    11    30       P1 10175  0.95
      P1  H  7989  7998       L1    19  0.94
      P1  H 11000 11005       L1     3  0.17

> <Gold.Chemscore.Hbond.Weighted>
-11.9289

> <Gold.Chemscore.Metal.Weighted>
-0.0000

> <Gold.Chemscore.Lipo.Weighted>
-5.3359

> <Gold.Chemscore.Internal_Hbond.Weighted>
0.0000

> <Gold.Chemscore.DEClash.Weighted>
0.1334

> <Gold.Chemscore.DEInternal.Weighted>
2.9956

> <Gold.Chemscore.Rot.Weighted>
5.0216

> <Gold.Chemscore.Internal.Correction.Weighted>
   9.000000E+99

> <Gold.Protein.RotatedTorsions>
[ 6907 6896 6895 6894 ] final  -70.43 input  -60.11 | X-H torsion
[ 7974 7965 7964 7962 ] final   90.73 input  175.53 | X-H torsion
[ 8008 7997 7996 7995 ] final -165.62 input   59.86 | X-H torsion
[ 10167 10162 10161 10158 ] final   14.61 input  -65.29 | X-H torsion
[ 10718 10713 10712 10709 ] final  -89.04 input   66.30 | X-H torsion
[ 10763 10752 10751 10750 ] final -154.28 input  -60.55 | X-H torsion
[ 11005 11000 10999 10996 ] final   28.93 input  -57.11 | X-H torsion

> <Gold.Protein.ActiveResidues>
 VAL166  LYS551  ARG553  GLY616  TRP617  ASP618  TYR619  PRO620  LYS621  CYS622 
 ASP623  PHE694  ASN695  SER759  ASP760  ASP761  ALA762  ILE779  LEU786  VAL792 
 PHE793  MET794  SER795  GLU796  ALA797  LYS798  CYS799  TRP800  GLU811  SER814 

> <Gold.Protein.RotatedAtoms>
  150.7258  134.5454  159.5767 H   0  0  0  0  0  0  0  0  0  0  0  0  # atno 6907 bound_to 6896
  152.2954  134.7670  160.0378 H   0  0  0  0  0  0  0  0  0  0  0  0  # atno 6908 bound_to 6896
  151.8269  133.3367  159.3638 H   0  0  0  0  0  0  0  0  0  0  0  0  # atno 6909 bound_to 6896
  145.5151  139.2278  143.2703 H   0  0  0  0  0  0  0  0  0  0  0  0  # atno 7974 bound_to 7965
  155.8523  140.0965  157.1667 H   0  0  0  0  0  0  0  0  0  0  0  0  # atno 8008 bound_to 7997
  154.3986  140.1381  156.3921 H   0  0  0  0  0  0  0  0  0  0  0  0  # atno 8009 bound_to 7997
  155.7948  140.3454  155.5372 H   0  0  0  0  0  0  0  0  0  0  0  0  # atno 8010 bound_to 7997
  140.5924  143.8770  150.6886 H   0  0  0  0  0  0  0  0  0  0  0  0  # atno 10167 bound_to 10162
  155.9984  130.4857  150.5110 H   0  0  0  0  0  0  0  0  0  0  0  0  # atno 10718 bound_to 10713
  154.7869  135.3193  154.7865 H   0  0  0  0  0  0  0  0  0  0  0  0  # atno 10763 bound_to 10752
  153.8563  135.6857  153.4791 H   0  0  0  0  0  0  0  0  0  0  0  0  # atno 10764 bound_to 10752
  153.1524  135.4694  154.9595 H   0  0  0  0  0  0  0  0  0  0  0  0  # atno 10765 bound_to 10752
  140.3103  134.2657  155.7735 H   0  0  0  0  0  0  0  0  0  0  0  0  # atno 11005 bound_to 11000
  146.2142  140.5960  142.9046 LP  0  0  0  0  0  0  0  0  0  0  0  0  # atno 17320 bound_to 7965
  144.7706  140.5629  143.6672 LP  0  0  0  0  0  0  0  0  0  0  0  0  # atno 17321 bound_to 7965
  140.2296  143.3746  152.1577 LP  0  0  0  0  0  0  0  0  0  0  0  0  # atno 17342 bound_to 10162
  139.5236  144.7073  151.5315 LP  0  0  0  0  0  0  0  0  0  0  0  0  # atno 17343 bound_to 10162
  157.3083  131.0659  151.2019 LP  0  0  0  0  0  0  0  0  0  0  0  0  # atno 17370 bound_to 10713
  157.2974  130.6826  149.6146 LP  0  0  0  0  0  0  0  0  0  0  0  0  # atno 17371 bound_to 10713
  141.2109  133.7704  156.9897 LP  0  0  0  0  0  0  0  0  0  0  0  0  # atno 17394 bound_to 11000
  140.1031  134.9523  157.1953 LP  0  0  0  0  0  0  0  0  0  0  0  0  # atno 17395 bound_to 11000

$$$$
