AV-unprocessed.smi:1410|AV-procd|sdf|5736|dock3
  -GOLD-   22720 5373D 1   1.00000     0.00000
 Structure written by MMmdl.
 39 40  0  0  0  0  0  0  0  0  3 V2000
  151.2551  134.2835  157.1489 N   0  5  0  0  0  0  0  0  0  0  0  0
  151.7374  134.9749  156.0987 C   0  0  0  0  0  0  0  0  0  0  0  0
  152.8037  135.5807  156.0173 O   0  0  0  0  0  0  0  0  0  0  0  0
  150.7728  134.9786  154.9085 C   0  0  0  0  0  0  0  0  0  0  0  0
  150.2785  136.3540  154.6471 N   0  3  2  0  0  0  0  0  0  0  0  0
  151.3734  137.3420  154.4464 C   0  0  0  0  0  0  0  0  0  0  0  0
  150.8142  138.7226  154.0613 C   0  0  0  0  0  0  0  0  0  0  0  0
  149.8023  139.2437  155.1002 C   0  0  2  0  0  0  0  0  0  0  0  0
  150.4536  139.5943  156.3621 N   0  0  0  0  0  0  0  0  0  0  0  0
  150.5384  140.8308  156.8743 C   0  0  0  0  0  0  0  0  0  0  0  0
  150.0563  141.8232  156.3292 O   0  0  0  0  0  0  0  0  0  0  0  0
  151.2288  140.8302  158.0279 N   0  0  0  0  0  0  0  0  0  0  0  0
  151.5673  141.9292  158.8634 C   0  0  0  0  0  0  0  0  0  0  0  0
  150.9630  143.1729  158.5857 C   0  0  0  0  0  0  0  0  0  0  0  0
  151.2909  144.2823  159.3905 C   0  0  0  0  0  0  0  0  0  0  0  0
  152.1659  144.2217  160.4160 N   0  0  0  0  0  0  0  0  0  0  0  0
  152.7543  143.0340  160.6714 C   0  0  0  0  0  0  0  0  0  0  0  0
  152.4972  141.8640  159.9289 C   0  0  0  0  0  0  0  0  0  0  0  0
  148.7145  138.1816  155.3329 C   0  0  0  0  0  0  0  0  0  0  0  0
  149.3137  136.8064  155.6820 C   0  0  0  0  0  0  0  0  0  0  0  0
  150.2458  134.3141  157.3368 H   0  0  0  0  0  0  0  0  0  0  0  0
  151.3358  134.6162  154.0473 H   0  0  0  0  0  0  0  0  0  0  0  0
  149.9358  134.2894  155.0413 H   0  0  0  0  0  0  0  0  0  0  0  0
  151.9718  137.4156  155.3557 H   0  0  0  0  0  0  0  0  0  0  0  0
  152.0461  137.0054  153.6575 H   0  0  0  0  0  0  0  0  0  0  0  0
  151.6311  139.4326  153.9285 H   0  0  0  0  0  0  0  0  0  0  0  0
  150.3229  138.6476  153.0904 H   0  0  0  0  0  0  0  0  0  0  0  0
  149.3218  140.1414  154.7068 H   0  0  0  0  0  0  0  0  0  0  0  0
  150.8786  138.8389  156.8793 H   0  0  0  0  0  0  0  0  0  0  0  0
  151.6189  139.9428  158.3085 H   0  0  0  0  0  0  0  0  0  0  0  0
  150.2557  143.2793  157.7762 H   0  0  0  0  0  0  0  0  0  0  0  0
  150.8383  145.2450  159.2037 H   0  0  0  0  0  0  0  0  0  0  0  0
  153.4575  143.0155  161.4909 H   0  0  0  0  0  0  0  0  0  0  0  0
  153.0216  140.9565  160.1840 H   0  0  0  0  0  0  0  0  0  0  0  0
  148.0322  138.5046  156.1203 H   0  0  0  0  0  0  0  0  0  0  0  0
  148.1100  138.0861  154.4299 H   0  0  0  0  0  0  0  0  0  0  0  0
  148.5050  136.0799  155.7710 H   0  0  0  0  0  0  0  0  0  0  0  0
  149.8122  136.8431  156.6518 H   0  0  0  0  0  0  0  0  0  0  0  0
  149.7653  136.3029  153.7786 H   0  0  0  0  0  0  0  0  0  0  0  0
  1  2  1  0  0  0  0
  1 21  1  0  0  0  0
  2  3  2  0  0  0  0
  2  4  1  0  0  0  0
  4  5  1  0  0  0  0
  4 22  1  0  0  0  0
  4 23  1  0  0  0  0
  5 20  1  0  0  0  0
  5  6  1  0  0  0  0
  5 39  1  0  0  0  0
  6  7  1  0  0  0  0
  6 24  1  0  0  0  0
  6 25  1  0  0  0  0
  7  8  1  0  0  0  0
  7 26  1  0  0  0  0
  7 27  1  0  0  0  0
  8  9  1  0  0  0  0
  8 19  1  0  0  0  0
  8 28  1  0  0  0  0
  9 10  1  0  0  0  0
  9 29  1  0  0  0  0
 10 11  2  0  0  0  0
 10 12  1  0  0  0  0
 12 13  1  0  0  0  0
 12 30  1  0  0  0  0
 13 18  1  0  0  0  0
 13 14  2  0  0  0  0
 14 15  1  0  0  0  0
 14 31  1  0  0  0  0
 15 16  2  0  0  0  0
 15 32  1  0  0  0  0
 16 17  1  0  0  0  0
 17 18  2  0  0  0  0
 17 33  1  0  0  0  0
 18 34  1  0  0  0  0
 19 20  1  0  0  0  0
 19 35  1  0  0  0  0
 19 36  1  0  0  0  0
 20 37  1  0  0  0  0
 20 38  1  0  0  0  0
M  CHG  1   1  -1
M  CHG  1   5   1
M  END
> <s_m_source_file>
AV-unprocessed.smi

> <i_m_source_file_index>
1410

> <i_lp_mmshare_version>
43012

> <i_f3d_flags>
0

> <s_epik_input>
W05IMl1DKD1PKVtDSDJdTjFbQ0gyXVtDSDJdW0NIXShbQ0gyXVtDSDJdMSlbTkhdQyg9TylbTkhdYzJbY0hdW2NIXW5bY0hdW2NIXTI=

> <s_epik_cmdline>
J2VwaWtfcHl0aG9uJywgJy1waCcsICc3LjAnLCAnLXRuJywgJzgnLCAnLW1hJywgJzIwMCcsICctbWV0YWxfYmluZGluZycsICctaW1hZScsICc8aW5maWxlLm1hZT4nLCAnLW9tYWUnLCAnPG91dGZpbGUubWFlPic=

> <r_epik_Ionization_Penalty>
5.8279

> <r_epik_Ionization_Penalty_Charging>
5.7288

> <r_epik_Ionization_Penalty_Neutral>
0.0990993

> <r_epik_State_Penalty>
6.63321

> <r_epik_Charging_Adjusted_Penalty>
12.362

> <i_epik_Tot_Q>
0

> <i_epik_Tot_abs_Q>
2

> <r_epik_Metal_State_Penalty>
2.69435

> <b_epik_Metal_Only>
1

> <s_lp_Force_Field>
OPLS_2005

> <r_lp_Energy>
12.1382

> <b_lp_Chiralities_Consistent>
1

> <s_lp_Variant>
AV-unprocessed.smi:1410-8

> <Gold.Version>
5.8.1

> <Gold.Id.Protein>
6NUR|6NUR_protein|mol2

> <Gold.PLP.Fitness>
47.4528

> <Gold.PLP.PLP>
-33.0918

> <Gold.PLP.part.hbond>
-3.0000

> <Gold.PLP.part.metal>
0.0000

> <Gold.PLP.part.buried>
-5.1274

> <Gold.PLP.part.nonpolar>
-25.9276

> <Gold.PLP.part.repulsive>
0.3156

> <Gold.PLP.ligand.clash>
0.0000

> <Gold.PLP.ligand.torsion>
0.1175

> <Gold.PLP.Chemscore.Hbond>
4.8560

> <Gold.PLP.Chemscore.CHOScore>
0.0000

> <Gold.PLP.Chemscore.Metal>
0.0000

> <Gold.Chemscore.Hbonds>
donor molecule, donor type, donor heavy atom, donor atom, acceptor molecule, acceptor atom, score
      L1  H     5    39       P1  7948  1.92

> <Gold.PLP.Chemscore.Internal.Correction>
0.0281

> <Gold.Rescore>
     Score         DG    S(hbond)    S(metal)    S(lipo)     H(rot)  DE(clash)    DE(int)     intcor
     15.94     -19.10       2.66        0.00      82.94       1.94       0.24       2.92       ----

> <Gold.Chemscore.Fitness>
15.9442

> <Gold.Chemscore.DG>
-19.1033

> <Gold.Chemscore.ZeroCoef>
-5.4800

> <Gold.Chemscore.Hbond>
2.6572

> <Gold.Chemscore.Metal>
0.0000

> <Gold.Chemscore.Lipo>
82.9448

> <Gold.Chemscore.Internal_Hbond>
0.0000

> <Gold.Chemscore.DEClash>
0.2380

> <Gold.Chemscore.DEInternal>
2.9211

> <Gold.Chemscore.Rot>
1.9361

> <Gold.Chemscore.Internal.Correction>
   9.000000E+99

> <Gold.Chemscore.Hbonds>
donor molecule, donor type, donor heavy atom, donor atom, acceptor molecule, acceptor atom, score
      L1  H     5    39       P1  7948  0.32

> <Gold.Chemscore.Hbond.Weighted>
-8.8751

> <Gold.Chemscore.Metal.Weighted>
-0.0000

> <Gold.Chemscore.Lipo.Weighted>
-9.7045

> <Gold.Chemscore.Internal_Hbond.Weighted>
0.0000

> <Gold.Chemscore.DEClash.Weighted>
0.2380

> <Gold.Chemscore.DEInternal.Weighted>
2.9211

> <Gold.Chemscore.Rot.Weighted>
4.9563

> <Gold.Chemscore.Internal.Correction.Weighted>
   9.000000E+99

> <Gold.Protein.RotatedTorsions>
[ 6907 6896 6895 6894 ] final   16.09 input  -60.11 | X-H torsion
[ 7974 7965 7964 7962 ] final   22.84 input  175.53 | X-H torsion
[ 8008 7997 7996 7995 ] final -111.11 input   59.86 | X-H torsion
[ 10167 10162 10161 10158 ] final  -61.34 input  -65.29 | X-H torsion
[ 10718 10713 10712 10709 ] final  179.62 input   66.30 | X-H torsion
[ 10763 10752 10751 10750 ] final  -31.23 input  -60.55 | X-H torsion
[ 11005 11000 10999 10996 ] final  -67.97 input  -57.11 | X-H torsion

> <Gold.Protein.ActiveResidues>
 VAL166  LYS551  ARG553  GLY616  TRP617  ASP618  TYR619  PRO620  LYS621  CYS622 
 ASP623  PHE694  ASN695  SER759  ASP760  ASP761  ALA762  ILE779  LEU786  VAL792 
 PHE793  MET794  SER795  GLU796  ALA797  LYS798  CYS799  TRP800  GLU811  SER814 

> <Gold.Protein.RotatedAtoms>
  151.8283  135.0629  160.0433 H   0  0  0  0  0  0  0  0  0  0  0  0  # atno 6907 bound_to 6896
  152.2899  133.5547  159.5559 H   0  0  0  0  0  0  0  0  0  0  0  0  # atno 6908 bound_to 6896
  150.7225  134.0359  159.3791 H   0  0  0  0  0  0  0  0  0  0  0  0  # atno 6909 bound_to 6896
  146.2011  139.7829  142.8761 H   0  0  0  0  0  0  0  0  0  0  0  0  # atno 7974 bound_to 7965
  154.9848  140.0396  157.2294 H   0  0  0  0  0  0  0  0  0  0  0  0  # atno 8008 bound_to 7997
  154.7681  140.2797  155.6137 H   0  0  0  0  0  0  0  0  0  0  0  0  # atno 8009 bound_to 7997
  156.2916  140.2615  156.2477 H   0  0  0  0  0  0  0  0  0  0  0  0  # atno 8010 bound_to 7997
  140.6012  143.2362  151.5924 H   0  0  0  0  0  0  0  0  0  0  0  0  # atno 10167 bound_to 10162
  156.8730  130.9790  151.3071 H   0  0  0  0  0  0  0  0  0  0  0  0  # atno 10718 bound_to 10713
  153.7939  135.6895  153.4867 H   0  0  0  0  0  0  0  0  0  0  0  0  # atno 10763 bound_to 10752
  153.1732  135.4535  154.9928 H   0  0  0  0  0  0  0  0  0  0  0  0  # atno 10764 bound_to 10752
  154.8033  135.3346  154.7433 H   0  0  0  0  0  0  0  0  0  0  0  0  # atno 10765 bound_to 10752
  141.1521  133.6730  156.6374 H   0  0  0  0  0  0  0  0  0  0  0  0  # atno 11005 bound_to 11000
  145.3480  141.0301  143.3354 LP  0  0  0  0  0  0  0  0  0  0  0  0  # atno 17320 bound_to 7965
  144.8686  139.5072  143.6778 LP  0  0  0  0  0  0  0  0  0  0  0  0  # atno 17321 bound_to 7965
  139.5292  144.2966  152.1108 LP  0  0  0  0  0  0  0  0  0  0  0  0  # atno 17342 bound_to 10162
  140.2147  144.4527  150.6369 LP  0  0  0  0  0  0  0  0  0  0  0  0  # atno 17343 bound_to 10162
  157.6184  130.8636  149.9068 LP  0  0  0  0  0  0  0  0  0  0  0  0  # atno 17370 bound_to 10713
  156.0716  130.3684  150.0763 LP  0  0  0  0  0  0  0  0  0  0  0  0  # atno 17371 bound_to 10713
  140.3419  134.7841  157.4404 LP  0  0  0  0  0  0  0  0  0  0  0  0  # atno 17394 bound_to 11000
  140.0931  134.5574  155.8425 LP  0  0  0  0  0  0  0  0  0  0  0  0  # atno 17395 bound_to 11000

$$$$
