AV-unprocessed.smi:1019|AV-procd|sdf|4451|dock7
  -GOLD-   22720 2423D 1   1.00000     0.00000
 Structure written by MMmdl.
 43 45  0  0  0  0  0  0  0  0  1 V2000
  150.5001  139.4369  155.8528 C   0  0  0  0  0  0  0  0  0  0  0  0
  150.4603  140.8992  155.8573 N   0  0  0  0  0  0  0  0  0  0  0  0
  149.8702  141.4023  157.0989 C   0  0  0  0  0  0  0  0  0  0  0  0
  150.7830  142.3261  157.8882 C   0  0  0  0  0  0  0  0  0  0  0  0
  151.0333  143.6371  157.4301 C   0  0  0  0  0  0  0  0  0  0  0  0
  151.8793  144.4932  158.1619 C   0  0  0  0  0  0  0  0  0  0  0  0
  152.4761  144.0425  159.3554 C   0  0  0  0  0  0  0  0  0  0  0  0
  152.2267  142.7356  159.8169 C   0  0  0  0  0  0  0  0  0  0  0  0
  151.3811  141.8789  159.0855 C   0  0  0  0  0  0  0  0  0  0  0  0
  149.7325  141.4259  154.6993 C   0  0  0  0  0  0  0  0  0  0  0  0
  148.4312  140.6854  154.3260 C   0  0  2  0  0  0  0  0  0  0  0  0
  148.7459  139.6387  153.4275 O   0  0  0  0  0  0  0  0  0  0  0  0
  147.4168  141.6358  153.6616 C   0  0  0  0  0  0  0  0  0  0  0  0
  146.5079  142.2418  154.6189 N   0  0  0  0  0  0  0  0  0  0  0  0
  146.4072  141.9548  155.9310 C   0  0  0  0  0  0  0  0  0  0  0  0
  145.5075  142.6338  156.6368 N   0  0  0  0  0  0  0  0  0  0  0  0
  144.9588  143.4584  155.6695 C   0  0  0  0  0  0  0  0  0  0  0  0
  143.9413  144.4344  155.7671 C   0  0  0  0  0  0  0  0  0  0  0  0
  143.5401  145.1646  154.6290 C   0  0  0  0  0  0  0  0  0  0  0  0
  144.1478  144.9301  153.3785 C   0  0  0  0  0  0  0  0  0  0  0  0
  145.1640  143.9630  153.2565 C   0  0  0  0  0  0  0  0  0  0  0  0
  145.5628  143.2375  154.3947 C   0  0  0  0  0  0  0  0  0  0  0  0
  151.0164  139.0527  154.9747 H   0  0  0  0  0  0  0  0  0  0  0  0
  149.4943  139.0152  155.8702 H   0  0  0  0  0  0  0  0  0  0  0  0
  151.0400  139.0542  156.7191 H   0  0  0  0  0  0  0  0  0  0  0  0
  148.9688  141.9733  156.8725 H   0  0  0  0  0  0  0  0  0  0  0  0
  149.5543  140.5691  157.7287 H   0  0  0  0  0  0  0  0  0  0  0  0
  150.5786  143.9871  156.5147 H   0  0  0  0  0  0  0  0  0  0  0  0
  152.0700  145.4954  157.8072 H   0  0  0  0  0  0  0  0  0  0  0  0
  153.1246  144.6988  159.9168 H   0  0  0  0  0  0  0  0  0  0  0  0
  152.6842  142.3892  160.7321 H   0  0  0  0  0  0  0  0  0  0  0  0
  151.1959  140.8773  159.4452 H   0  0  0  0  0  0  0  0  0  0  0  0
  149.5059  142.4785  154.8758 H   0  0  0  0  0  0  0  0  0  0  0  0
  150.3845  141.4109  153.8245 H   0  0  0  0  0  0  0  0  0  0  0  0
  147.9619  140.2511  155.2076 H   0  0  0  0  0  0  0  0  0  0  0  0
  148.8835  140.0095  152.5694 H   0  0  0  0  0  0  0  0  0  0  0  0
  147.9411  142.4378  153.1402 H   0  0  0  0  0  0  0  0  0  0  0  0
  146.8322  141.1071  152.9077 H   0  0  0  0  0  0  0  0  0  0  0  0
  147.0305  141.2037  156.3941 H   0  0  0  0  0  0  0  0  0  0  0  0
  143.4684  144.6217  156.7198 H   0  0  0  0  0  0  0  0  0  0  0  0
  142.7616  145.9083  154.7162 H   0  0  0  0  0  0  0  0  0  0  0  0
  143.8329  145.4937  152.5124 H   0  0  0  0  0  0  0  0  0  0  0  0
  145.6303  143.7808  152.2998 H   0  0  0  0  0  0  0  0  0  0  0  0
  1  2  1  0  0  0  0
  1 23  1  0  0  0  0
  1 24  1  0  0  0  0
  1 25  1  0  0  0  0
  2  3  1  0  0  0  0
  2 10  1  0  0  0  0
  3  4  1  0  0  0  0
  3 26  1  0  0  0  0
  3 27  1  0  0  0  0
  4  9  1  0  0  0  0
  4  5  2  0  0  0  0
  5  6  1  0  0  0  0
  5 28  1  0  0  0  0
  6  7  2  0  0  0  0
  6 29  1  0  0  0  0
  7  8  1  0  0  0  0
  7 30  1  0  0  0  0
  8  9  2  0  0  0  0
  8 31  1  0  0  0  0
  9 32  1  0  0  0  0
 10 11  1  0  0  0  0
 10 33  1  0  0  0  0
 10 34  1  0  0  0  0
 11 12  1  0  0  0  0
 11 13  1  0  0  0  0
 11 35  1  0  0  0  0
 12 36  1  0  0  0  0
 13 14  1  0  0  0  0
 13 37  1  0  0  0  0
 13 38  1  0  0  0  0
 14 22  1  0  0  0  0
 14 15  1  0  0  0  0
 15 16  2  0  0  0  0
 15 39  1  0  0  0  0
 16 17  1  0  0  0  0
 17 22  2  0  0  0  0
 17 18  1  0  0  0  0
 18 19  2  0  0  0  0
 18 40  1  0  0  0  0
 19 20  1  0  0  0  0
 19 41  1  0  0  0  0
 20 21  2  0  0  0  0
 20 42  1  0  0  0  0
 21 22  1  0  0  0  0
 21 43  1  0  0  0  0
M  END
> <s_m_source_file>
AV-unprocessed.smi

> <i_m_source_file_index>
1019

> <i_lp_mmshare_version>
43012

> <i_f3d_flags>
0

> <s_epik_input>
W2NIXTFbY0hdW2NIXVtjSF1bY0hdYzFbQ0gyXU4oW0NIM10pW0NIMl1bQ0BIXShbT0hdKVtDSDJdbihbY0hdbjIpYyhjMjMpW2NIXVtjSF1bY0hdW2NIXTM=

> <s_epik_cmdline>
J2VwaWtfcHl0aG9uJywgJy1waCcsICc3LjAnLCAnLXRuJywgJzgnLCAnLW1hJywgJzIwMCcsICctbWV0YWxfYmluZGluZycsICctaW1hZScsICc8aW5maWxlLm1hZT4nLCAnLW9tYWUnLCAnPG91dGZpbGUubWFlPic=

> <r_epik_Ionization_Penalty>
1.56741

> <r_epik_Ionization_Penalty_Charging>
0

> <r_epik_Ionization_Penalty_Neutral>
1.56741

> <r_epik_State_Penalty>
1.62466

> <r_epik_Charging_Adjusted_Penalty>
1.62466

> <i_epik_Tot_Q>
0

> <i_epik_Tot_abs_Q>
0

> <r_epik_Metal_State_Penalty>
1.58486

> <b_epik_Metal_Only>
0

> <s_lp_Force_Field>
OPLS_2005

> <r_lp_Energy>
24.0301

> <b_lp_Chiralities_Consistent>
1

> <s_lp_Variant>
AV-unprocessed.smi:1019-9

> <Gold.Version>
5.8.1

> <Gold.Id.Protein>
6NUR|6NUR_protein|mol2

> <Gold.PLP.Fitness>
49.5972

> <Gold.PLP.PLP>
-50.2075

> <Gold.PLP.part.hbond>
-1.0000

> <Gold.PLP.part.metal>
0.0000

> <Gold.PLP.part.buried>
-5.8236

> <Gold.PLP.part.nonpolar>
-44.2702

> <Gold.PLP.part.repulsive>
0.1689

> <Gold.PLP.ligand.clash>
0.0000

> <Gold.PLP.ligand.torsion>
1.8829

> <Gold.PLP.Chemscore.Hbond>
1.0000

> <Gold.PLP.Chemscore.CHOScore>
0.0000

> <Gold.PLP.Chemscore.Metal>
0.0000

> <Gold.Chemscore.Hbonds>
donor molecule, donor type, donor heavy atom, donor atom, acceptor molecule, acceptor atom, score
      L1  H    12    36       P1  7957  1.00

> <Gold.PLP.Chemscore.Internal.Correction>
0.1556

> <Gold.Rescore>
     Score         DG    S(hbond)    S(metal)    S(lipo)     H(rot)  DE(clash)    DE(int)     intcor
     15.79     -18.71       0.99        0.00     134.38       2.27       0.25       2.67       ----

> <Gold.Chemscore.Fitness>
15.7934

> <Gold.Chemscore.DG>
-18.7114

> <Gold.Chemscore.ZeroCoef>
-5.4800

> <Gold.Chemscore.Hbond>
0.9915

> <Gold.Chemscore.Metal>
0.0000

> <Gold.Chemscore.Lipo>
134.3826

> <Gold.Chemscore.Internal_Hbond>
0.0000

> <Gold.Chemscore.DEClash>
0.2463

> <Gold.Chemscore.DEInternal>
2.6718

> <Gold.Chemscore.Rot>
2.2667

> <Gold.Chemscore.Internal.Correction>
   9.000000E+99

> <Gold.Chemscore.Hbonds>
donor molecule, donor type, donor heavy atom, donor atom, acceptor molecule, acceptor atom, score
      L1  H    12    36       P1  7957  0.94

> <Gold.Chemscore.Hbond.Weighted>
-3.3115

> <Gold.Chemscore.Metal.Weighted>
-0.0000

> <Gold.Chemscore.Lipo.Weighted>
-15.7228

> <Gold.Chemscore.Internal_Hbond.Weighted>
0.0000

> <Gold.Chemscore.DEClash.Weighted>
0.2463

> <Gold.Chemscore.DEInternal.Weighted>
2.6718

> <Gold.Chemscore.Rot.Weighted>
5.8028

> <Gold.Chemscore.Internal.Correction.Weighted>
   9.000000E+99

> <Gold.Protein.RotatedTorsions>
[ 6907 6896 6895 6894 ] final   16.62 input  -60.11 | X-H torsion
[ 7974 7965 7964 7962 ] final   10.28 input  175.53 | X-H torsion
[ 8008 7997 7996 7995 ] final    8.78 input   59.86 | X-H torsion
[ 10167 10162 10161 10158 ] final  -57.42 input  -65.29 | X-H torsion
[ 10718 10713 10712 10709 ] final -151.11 input   66.30 | X-H torsion
[ 10763 10752 10751 10750 ] final  -97.93 input  -60.55 | X-H torsion
[ 11005 11000 10999 10996 ] final  161.87 input  -57.11 | X-H torsion

> <Gold.Protein.ActiveResidues>
 VAL166  LYS551  ARG553  GLY616  TRP617  ASP618  TYR619  PRO620  LYS621  CYS622 
 ASP623  PHE694  ASN695  SER759  ASP760  ASP761  ALA762  ILE779  LEU786  VAL792 
 PHE793  MET794  SER795  GLU796  ALA797  LYS798  CYS799  TRP800  GLU811  SER814 

> <Gold.Protein.RotatedAtoms>
  151.8368  135.0603  160.0443 H   0  0  0  0  0  0  0  0  0  0  0  0  # atno 6907 bound_to 6896
  152.2839  133.5492  159.5523 H   0  0  0  0  0  0  0  0  0  0  0  0  # atno 6908 bound_to 6896
  150.7201  134.0441  159.3818 H   0  0  0  0  0  0  0  0  0  0  0  0  # atno 6909 bound_to 6896
  146.2391  139.9657  142.8453 H   0  0  0  0  0  0  0  0  0  0  0  0  # atno 7974 bound_to 7965
  154.7714  140.2802  155.6135 H   0  0  0  0  0  0  0  0  0  0  0  0  # atno 8008 bound_to 7997
  156.2934  140.2641  156.2445 H   0  0  0  0  0  0  0  0  0  0  0  0  # atno 8009 bound_to 7997
  154.9896  140.0374  157.2303 H   0  0  0  0  0  0  0  0  0  0  0  0  # atno 8010 bound_to 7997
  140.6259  143.2438  151.5365 H   0  0  0  0  0  0  0  0  0  0  0  0  # atno 10167 bound_to 10162
  156.4549  130.8185  151.2416 H   0  0  0  0  0  0  0  0  0  0  0  0  # atno 10718 bound_to 10713
  154.7371  135.5028  153.9059 H   0  0  0  0  0  0  0  0  0  0  0  0  # atno 10763 bound_to 10752
  153.1006  135.6684  153.9689 H   0  0  0  0  0  0  0  0  0  0  0  0  # atno 10764 bound_to 10752
  153.9476  135.3061  155.3419 H   0  0  0  0  0  0  0  0  0  0  0  0  # atno 10765 bound_to 10752
  140.2201  134.8202  157.3211 H   0  0  0  0  0  0  0  0  0  0  0  0  # atno 11005 bound_to 11000
  145.1728  140.9729  143.4311 LP  0  0  0  0  0  0  0  0  0  0  0  0  # atno 17320 bound_to 7965
  145.0013  139.3596  143.6166 LP  0  0  0  0  0  0  0  0  0  0  0  0  # atno 17321 bound_to 7965
  139.5479  144.2472  152.1477 LP  0  0  0  0  0  0  0  0  0  0  0  0  # atno 17342 bound_to 10162
  140.1703  144.4942  150.6583 LP  0  0  0  0  0  0  0  0  0  0  0  0  # atno 17343 bound_to 10162
  157.7501  131.0126  150.3390 LP  0  0  0  0  0  0  0  0  0  0  0  0  # atno 17370 bound_to 10713
  156.3777  130.3875  149.7126 LP  0  0  0  0  0  0  0  0  0  0  0  0  # atno 17371 bound_to 10713
  140.1858  134.4432  155.7744 LP  0  0  0  0  0  0  0  0  0  0  0  0  # atno 17394 bound_to 11000
  141.2223  133.7004  156.7945 LP  0  0  0  0  0  0  0  0  0  0  0  0  # atno 17395 bound_to 11000

$$$$
