AV-unprocessed.smi:179|AV-procd|sdf|1449|dock1
  -GOLD-   2262019243D 1   1.00000     0.00000
 Structure written by MMmdl.
 44 47  0  0  0  0  0  0  0  0  1 V2000
  146.3156  131.6209  149.6085 O   0  0  0  0  0  0  0  0  0  0  0  0
  145.4400  131.9476  150.6692 C   0  0  0  0  0  0  0  0  0  0  0  0
  144.7672  133.3219  150.4807 C   0  0  0  0  0  0  0  0  0  0  0  0
  143.9679  133.2613  149.1654 C   0  0  0  0  0  0  0  0  0  0  0  0
  142.9375  132.2955  149.2267 O   0  0  0  0  0  0  0  0  0  0  0  0
  144.0035  133.9083  151.6921 C   0  0  0  0  0  0  0  0  0  0  0  0
  144.5777  135.2903  151.3701 C   0  0  0  0  0  0  0  0  0  0  0  0
  144.8792  136.2341  152.4106 N   0  0  0  0  0  0  0  0  0  0  0  0
  146.1305  136.6908  152.7620 C   0  0  0  0  0  0  0  0  0  0  0  0
  146.1565  137.5551  153.7393 N   0  0  0  0  0  0  0  0  0  0  0  0
  144.8218  137.7099  154.0895 C   0  0  0  0  0  0  0  0  0  0  0  0
  144.1546  138.4991  155.0651 C   0  0  0  0  0  0  0  0  0  0  0  0
  144.8639  139.3613  155.9469 N   0  0  0  0  0  0  0  0  0  0  0  0
  146.2972  139.4814  155.6972 C   0  0  0  0  0  0  0  0  0  0  0  0
  146.0965  140.9786  155.4461 C   0  0  0  0  0  0  0  0  0  0  0  0
  146.7485  141.8351  156.3620 O   0  0  0  0  0  0  0  0  0  0  0  0
  146.4986  141.5476  154.0797 C   0  0  0  0  0  0  0  0  0  0  0  0
  146.1124  142.8197  153.9718 F   0  0  0  0  0  0  0  0  0  0  0  0
  147.8158  141.4890  153.8906 F   0  0  0  0  0  0  0  0  0  0  0  0
  144.6041  140.7804  155.7317 C   0  0  0  0  0  0  0  0  0  0  0  0
  142.8002  138.3845  155.1186 N   0  0  0  0  0  0  0  0  0  0  0  0
  142.1479  137.5685  154.2858 C   0  0  0  0  0  0  0  0  0  0  0  0
  142.6458  136.7825  153.3311 N   0  0  0  0  0  0  0  0  0  0  0  0
  144.0036  136.8850  153.2660 C   0  0  0  0  0  0  0  0  0  0  0  0
  145.6850  134.5615  150.6034 C   0  0  0  0  0  0  0  0  0  0  0  0
  147.1220  131.2913  149.9746 H   0  0  0  0  0  0  0  0  0  0  0  0
  144.6926  131.1567  150.7404 H   0  0  0  0  0  0  0  0  0  0  0  0
  146.0195  131.9172  151.5923 H   0  0  0  0  0  0  0  0  0  0  0  0
  143.5085  134.2233  148.9370 H   0  0  0  0  0  0  0  0  0  0  0  0
  144.6180  133.0266  148.3219 H   0  0  0  0  0  0  0  0  0  0  0  0
  142.1058  132.7437  149.2535 H   0  0  0  0  0  0  0  0  0  0  0  0
  142.9168  133.8512  151.6236 H   0  0  0  0  0  0  0  0  0  0  0  0
  144.3465  133.5206  152.6519 H   0  0  0  0  0  0  0  0  0  0  0  0
  143.9210  135.8059  150.6671 H   0  0  0  0  0  0  0  0  0  0  0  0
  147.0327  136.3629  152.2665 H   0  0  0  0  0  0  0  0  0  0  0  0
  146.8872  139.2636  156.5878 H   0  0  0  0  0  0  0  0  0  0  0  0
  146.6640  138.9313  154.8298 H   0  0  0  0  0  0  0  0  0  0  0  0
  147.3852  142.3304  155.8695 H   0  0  0  0  0  0  0  0  0  0  0  0
  146.0431  140.9971  153.2554 H   0  0  0  0  0  0  0  0  0  0  0  0
  143.9541  140.9970  154.8829 H   0  0  0  0  0  0  0  0  0  0  0  0
  144.2596  141.2764  156.6398 H   0  0  0  0  0  0  0  0  0  0  0  0
  141.0744  137.5413  154.4014 H   0  0  0  0  0  0  0  0  0  0  0  0
  146.5762  134.3913  151.2080 H   0  0  0  0  0  0  0  0  0  0  0  0
  145.9520  135.0272  149.6543 H   0  0  0  0  0  0  0  0  0  0  0  0
  1  2  1  0  0  0  0
  1 26  1  0  0  0  0
  2  3  1  0  0  0  0
  2 27  1  0  0  0  0
  2 28  1  0  0  0  0
  3 25  1  0  0  0  0
  3  4  1  0  0  0  0
  3  6  1  0  0  0  0
  4  5  1  0  0  0  0
  4 29  1  0  0  0  0
  4 30  1  0  0  0  0
  5 31  1  0  0  0  0
  6  7  1  0  0  0  0
  6 32  1  0  0  0  0
  6 33  1  0  0  0  0
  7  8  1  0  0  0  0
  7 25  1  0  0  0  0
  7 34  1  0  0  0  0
  8 24  1  0  0  0  0
  8  9  1  0  0  0  0
  9 10  2  0  0  0  0
  9 35  1  0  0  0  0
 10 11  1  0  0  0  0
 11 24  2  0  0  0  0
 11 12  1  0  0  0  0
 12 13  1  0  0  0  0
 12 21  2  0  0  0  0
 13 20  1  0  0  0  0
 13 14  1  0  0  0  0
 14 15  1  0  0  0  0
 14 36  1  0  0  0  0
 14 37  1  0  0  0  0
 15 16  1  0  0  0  0
 15 17  1  0  0  0  0
 15 20  1  0  0  0  0
 16 38  1  0  0  0  0
 17 18  1  0  0  0  0
 17 19  1  0  0  0  0
 17 39  1  0  0  0  0
 20 40  1  0  0  0  0
 20 41  1  0  0  0  0
 21 22  1  0  0  0  0
 22 23  2  0  0  0  0
 22 42  1  0  0  0  0
 23 24  1  0  0  0  0
 25 43  1  0  0  0  0
 25 44  1  0  0  0  0
M  END
> <s_m_source_file>
AV-unprocessed.smi

> <i_m_source_file_index>
179

> <i_lp_mmshare_version>
43012

> <i_f3d_flags>
0

> <s_epik_input>
W09IXVtDSDJdQzEoW0NIMl1bT0hdKVtDSDJdW0NIXShbQ0gyXTEpbihbY0hdbjIpYyhjMjMpbltjSF1uYzNOKFtDSDJdNClbQ0gyXUM0KFtPSF0pW0NIXShGKUY=

> <s_epik_cmdline>
J2VwaWtfcHl0aG9uJywgJy1waCcsICc3LjAnLCAnLXRuJywgJzgnLCAnLW1hJywgJzIwMCcsICctbWV0YWxfYmluZGluZycsICctaW1hZScsICc8aW5maWxlLm1hZT4nLCAnLW9tYWUnLCAnPG91dGZpbGUubWFlPic=

> <r_lp_tautomer_probability>
1

> <r_epik_Ionization_Penalty>
0.00851647

> <r_epik_Ionization_Penalty_Charging>
0

> <r_epik_Ionization_Penalty_Neutral>
0.00851647

> <r_epik_State_Penalty>
0.00617896

> <r_epik_Charging_Adjusted_Penalty>
0.00617896

> <i_epik_Tot_Q>
0

> <i_epik_Tot_abs_Q>
0

> <r_epik_Metal_State_Penalty>
0.00609441

> <b_epik_Metal_Only>
0

> <s_lp_Force_Field>
OPLS_2005

> <r_lp_Energy>
53.402

> <b_lp_Chiralities_Consistent>
1

> <s_lp_Variant>
AV-unprocessed.smi:179-1

> <Gold.Version>
5.8.1

> <Gold.Id.Protein>
6NUR|6NUR_protein|mol2

> <Gold.PLP.Fitness>
45.5012

> <Gold.PLP.PLP>
-34.8943

> <Gold.PLP.part.hbond>
-3.4372

> <Gold.PLP.part.metal>
0.0000

> <Gold.PLP.part.buried>
-2.5055

> <Gold.PLP.part.nonpolar>
-28.4455

> <Gold.PLP.part.repulsive>
0.4733

> <Gold.PLP.ligand.clash>
0.0000

> <Gold.PLP.ligand.torsion>
0.3429

> <Gold.PLP.Chemscore.Hbond>
2.5363

> <Gold.PLP.Chemscore.CHOScore>
1.0000

> <Gold.PLP.Chemscore.Metal>
0.0000

> <Gold.Chemscore.Hbonds>
donor molecule, donor type, donor heavy atom, donor atom, acceptor molecule, acceptor atom, score
      L1  H     1    26       P1 10747  1.00
      L1  H     5    31       P1 10186  1.00
      P1  H 10785 10796       L1     5  0.52
      L1  C     9    35       P1  7948  0.80

> <Gold.PLP.Chemscore.Internal.Correction>
0.6840

> <Gold.Rescore>
     Score         DG    S(hbond)    S(metal)    S(lipo)     H(rot)  DE(clash)    DE(int)     intcor
      6.87      -8.92       2.32        0.00      55.59       4.22       0.13       1.92       ----

> <Gold.Chemscore.Fitness>
6.8714

> <Gold.Chemscore.DG>
-8.9238

> <Gold.Chemscore.ZeroCoef>
-5.4800

> <Gold.Chemscore.Hbond>
2.3206

> <Gold.Chemscore.Metal>
0.0000

> <Gold.Chemscore.Lipo>
55.5900

> <Gold.Chemscore.Internal_Hbond>
0.0000

> <Gold.Chemscore.DEClash>
0.1315

> <Gold.Chemscore.DEInternal>
1.9209

> <Gold.Chemscore.Rot>
4.2230

> <Gold.Chemscore.Internal.Correction>
   9.000000E+99

> <Gold.Chemscore.Hbonds>
donor molecule, donor type, donor heavy atom, donor atom, acceptor molecule, acceptor atom, score
      L1  H     1    26       P1 10747  1.00
      L1  H     5    31       P1 10186  0.92
      P1  H 10785 10796       L1     5  0.51

> <Gold.Chemscore.Hbond.Weighted>
-7.7507

> <Gold.Chemscore.Metal.Weighted>
-0.0000

> <Gold.Chemscore.Lipo.Weighted>
-6.5040

> <Gold.Chemscore.Internal_Hbond.Weighted>
0.0000

> <Gold.Chemscore.DEClash.Weighted>
0.1315

> <Gold.Chemscore.DEInternal.Weighted>
1.9209

> <Gold.Chemscore.Rot.Weighted>
10.8110

> <Gold.Chemscore.Internal.Correction.Weighted>
   9.000000E+99

> <Gold.Protein.RotatedTorsions>
[ 6907 6896 6895 6894 ] final  -26.49 input  -60.11 | X-H torsion
[ 7974 7965 7964 7962 ] final -107.84 input  175.53 | X-H torsion
[ 8008 7997 7996 7995 ] final  113.69 input   59.86 | X-H torsion
[ 10167 10162 10161 10158 ] final   -5.45 input  -65.29 | X-H torsion
[ 10718 10713 10712 10709 ] final -150.79 input   66.30 | X-H torsion
[ 10763 10752 10751 10750 ] final  -11.89 input  -60.55 | X-H torsion
[ 11005 11000 10999 10996 ] final  -81.73 input  -57.11 | X-H torsion

> <Gold.Protein.ActiveResidues>
 VAL166  LYS551  ARG553  GLY616  TRP617  ASP618  TYR619  PRO620  LYS621  CYS622 
 ASP623  PHE694  ASN695  SER759  ASP760  ASP761  ALA762  ILE779  LEU786  VAL792 
 PHE793  MET794  SER795  GLU796  ALA797  LYS798  CYS799  TRP800  GLU811  SER814 

> <Gold.Protein.RotatedAtoms>
  151.1603  135.0270  159.8707 H   0  0  0  0  0  0  0  0  0  0  0  0  # atno 6907 bound_to 6896
  152.5451  134.1287  159.8440 H   0  0  0  0  0  0  0  0  0  0  0  0  # atno 6908 bound_to 6896
  151.1381  133.4944  159.2630 H   0  0  0  0  0  0  0  0  0  0  0  0  # atno 6909 bound_to 6896
  145.2003  140.9053  143.3373 H   0  0  0  0  0  0  0  0  0  0  0  0  # atno 7974 bound_to 7965
  156.2274  140.2974  156.0102 H   0  0  0  0  0  0  0  0  0  0  0  0  # atno 8008 bound_to 7997
  155.2318  140.0419  157.2980 H   0  0  0  0  0  0  0  0  0  0  0  0  # atno 8009 bound_to 7997
  154.5938  140.2409  155.7891 H   0  0  0  0  0  0  0  0  0  0  0  0  # atno 8010 bound_to 7997
  140.6963  143.6307  150.8525 H   0  0  0  0  0  0  0  0  0  0  0  0  # atno 10167 bound_to 10162
  156.4508  130.8167  151.2397 H   0  0  0  0  0  0  0  0  0  0  0  0  # atno 10718 bound_to 10713
  153.4904  135.7017  153.5887 H   0  0  0  0  0  0  0  0  0  0  0  0  # atno 10763 bound_to 10752
  153.4062  135.3860  155.2020 H   0  0  0  0  0  0  0  0  0  0  0  0  # atno 10764 bound_to 10752
  154.8717  135.3893  154.4364 H   0  0  0  0  0  0  0  0  0  0  0  0  # atno 10765 bound_to 10752
  141.1665  133.7210  156.8466 H   0  0  0  0  0  0  0  0  0  0  0  0  # atno 11005 bound_to 11000
  144.9954  139.3649  143.6194 LP  0  0  0  0  0  0  0  0  0  0  0  0  # atno 17320 bound_to 7965
  146.3419  139.9155  142.8774 LP  0  0  0  0  0  0  0  0  0  0  0  0  # atno 17321 bound_to 7965
  140.0025  143.5728  152.2870 LP  0  0  0  0  0  0  0  0  0  0  0  0  # atno 17342 bound_to 10162
  139.6423  144.7655  151.2314 LP  0  0  0  0  0  0  0  0  0  0  0  0  # atno 17343 bound_to 10162
  157.7503  131.0138  150.3441 LP  0  0  0  0  0  0  0  0  0  0  0  0  # atno 17370 bound_to 10713
  156.3819  130.3882  149.7095 LP  0  0  0  0  0  0  0  0  0  0  0  0  # atno 17371 bound_to 10713
  140.1945  134.8941  157.3099 LP  0  0  0  0  0  0  0  0  0  0  0  0  # atno 17394 bound_to 11000
  140.2254  134.3973  155.7546 LP  0  0  0  0  0  0  0  0  0  0  0  0  # atno 17395 bound_to 11000

$$$$
