AV-unprocessed.smi:1203|AV-procd|sdf|5033|dock5
  -GOLD-   22720 4 53D 1   1.00000     0.00000
 Structure written by MMmdl.
 39 40  0  0  0  0  0  0  0  0  1 V2000
  154.3714  136.6045  162.3966 C   0  0  0  0  0  0  0  0  0  0  0  0
  154.9974  135.7054  160.9200 S   0  0  0  0  0  0  0  0  0  0  0  0
  155.6481  134.4682  161.3768 O   0  0  0  0  0  0  0  0  0  0  0  0
  153.9350  135.6432  159.9047 O   0  0  0  0  0  0  0  0  0  0  0  0
  156.2363  136.7587  160.3268 N   0  0  0  0  0  0  0  0  0  0  0  0
  157.5538  136.1852  160.0110 C   0  0  0  0  0  0  0  0  0  0  0  0
  158.5654  137.3068  160.2396 C   0  0  0  0  0  0  0  0  0  0  0  0
  157.8996  138.1541  161.3147 C   0  0  0  0  0  0  0  0  0  0  0  0
  156.4029  138.0751  160.9663 C   0  0  1  0  0  0  0  0  0  0  0  0
  155.9045  139.2274  160.0788 C   0  0  0  0  0  0  0  0  0  0  0  0
  156.3670  139.4124  158.9523 O   0  0  0  0  0  0  0  0  0  0  0  0
  154.9433  139.9983  160.6062 N   0  0  0  0  0  0  0  0  0  0  0  0
  154.3290  141.1368  159.9349 C   0  0  0  0  0  0  0  0  0  0  0  0
  153.4507  141.9522  160.8986 C   0  0  0  0  0  0  0  0  0  0  0  0
  152.7697  143.1376  160.2364 C   0  0  0  0  0  0  0  0  0  0  0  0
  153.0536  143.4769  158.8976 C   0  0  0  0  0  0  0  0  0  0  0  0
  152.4080  144.5911  158.3282 C   0  0  0  0  0  0  0  0  0  0  0  0
  151.5014  145.3196  159.1239 C   0  0  0  0  0  0  0  0  0  0  0  0
  151.2180  145.0016  160.4053 N   0  0  0  0  0  0  0  0  0  0  0  0
  151.8413  143.9315  160.9436 C   0  0  0  0  0  0  0  0  0  0  0  0
  153.5966  136.0098  162.8797 H   0  0  0  0  0  0  0  0  0  0  0  0
  153.9523  137.5635  162.0932 H   0  0  0  0  0  0  0  0  0  0  0  0
  155.1905  136.7699  163.0961 H   0  0  0  0  0  0  0  0  0  0  0  0
  157.7618  135.3538  160.6853 H   0  0  0  0  0  0  0  0  0  0  0  0
  157.5768  135.8069  158.9887 H   0  0  0  0  0  0  0  0  0  0  0  0
  159.5462  136.9368  160.5387 H   0  0  0  0  0  0  0  0  0  0  0  0
  158.6890  137.8904  159.3265 H   0  0  0  0  0  0  0  0  0  0  0  0
  158.0694  137.7054  162.2945 H   0  0  0  0  0  0  0  0  0  0  0  0
  158.2983  139.1686  161.3543 H   0  0  0  0  0  0  0  0  0  0  0  0
  155.8312  138.1058  161.8953 H   0  0  0  0  0  0  0  0  0  0  0  0
  154.6146  139.7806  161.5364 H   0  0  0  0  0  0  0  0  0  0  0  0
  155.1202  141.7687  159.5288 H   0  0  0  0  0  0  0  0  0  0  0  0
  153.7292  140.7950  159.0899 H   0  0  0  0  0  0  0  0  0  0  0  0
  152.6870  141.3075  161.3349 H   0  0  0  0  0  0  0  0  0  0  0  0
  154.0583  142.3090  161.7314 H   0  0  0  0  0  0  0  0  0  0  0  0
  153.7568  142.8967  158.3181 H   0  0  0  0  0  0  0  0  0  0  0  0
  152.6033  144.8815  157.3066 H   0  0  0  0  0  0  0  0  0  0  0  0
  150.9893  146.1802  158.7197 H   0  0  0  0  0  0  0  0  0  0  0  0
  151.5948  143.7069  161.9711 H   0  0  0  0  0  0  0  0  0  0  0  0
  1  2  1  0  0  0  0
  1 21  1  0  0  0  0
  1 22  1  0  0  0  0
  1 23  1  0  0  0  0
  2  3  2  0  0  0  0
  2  4  2  0  0  0  0
  2  5  1  0  0  0  0
  5  9  1  0  0  0  0
  5  6  1  0  0  0  0
  6  7  1  0  0  0  0
  6 24  1  0  0  0  0
  6 25  1  0  0  0  0
  7  8  1  0  0  0  0
  7 26  1  0  0  0  0
  7 27  1  0  0  0  0
  8  9  1  0  0  0  0
  8 28  1  0  0  0  0
  8 29  1  0  0  0  0
  9 10  1  0  0  0  0
  9 30  1  0  0  0  0
 10 11  2  0  0  0  0
 10 12  1  0  0  0  0
 12 13  1  0  0  0  0
 12 31  1  0  0  0  0
 13 14  1  0  0  0  0
 13 32  1  0  0  0  0
 13 33  1  0  0  0  0
 14 15  1  0  0  0  0
 14 34  1  0  0  0  0
 14 35  1  0  0  0  0
 15 20  1  0  0  0  0
 15 16  2  0  0  0  0
 16 17  1  0  0  0  0
 16 36  1  0  0  0  0
 17 18  2  0  0  0  0
 17 37  1  0  0  0  0
 18 19  1  0  0  0  0
 18 38  1  0  0  0  0
 19 20  2  0  0  0  0
 20 39  1  0  0  0  0
M  END
> <s_m_source_file>
AV-unprocessed.smi

> <i_m_source_file_index>
1203

> <i_lp_mmshare_version>
43012

> <i_f3d_flags>
0

> <s_epik_input>
W0NIM11TKD1PKSg9TylOMVtDSDJdW0NIMl1bQ0gyXVtDQEhdMUMoPU8pW05IXVtDSDJdW0NIMl1jMltjSF1bY0hdW2NIXW5bY0hdMg==

> <s_epik_cmdline>
J2VwaWtfcHl0aG9uJywgJy1waCcsICc3LjAnLCAnLXRuJywgJzgnLCAnLW1hJywgJzIwMCcsICctbWV0YWxfYmluZGluZycsICctaW1hZScsICc8aW5maWxlLm1hZT4nLCAnLW9tYWUnLCAnPG91dGZpbGUubWFlPic=

> <r_epik_Ionization_Penalty>
0.0126915

> <r_epik_Ionization_Penalty_Charging>
0

> <r_epik_Ionization_Penalty_Neutral>
0.0126915

> <r_epik_State_Penalty>
0.0098379

> <r_epik_Charging_Adjusted_Penalty>
0.0098379

> <i_epik_Tot_Q>
0

> <i_epik_Tot_abs_Q>
0

> <r_epik_Metal_State_Penalty>
0.00962905

> <b_epik_Metal_Only>
0

> <s_lp_Force_Field>
OPLS_2005

> <r_lp_Energy>
6.50252

> <b_lp_Chiralities_Consistent>
1

> <s_lp_Variant>
AV-unprocessed.smi:1203-1

> <Gold.Version>
5.8.1

> <Gold.Id.Protein>
6NUR|6NUR_protein|mol2

> <Gold.PLP.Fitness>
42.9137

> <Gold.PLP.PLP>
-37.0818

> <Gold.PLP.part.hbond>
-2.0000

> <Gold.PLP.part.metal>
0.0000

> <Gold.PLP.part.buried>
-4.9251

> <Gold.PLP.part.nonpolar>
-30.6165

> <Gold.PLP.part.repulsive>
0.2783

> <Gold.PLP.ligand.clash>
0.0000

> <Gold.PLP.ligand.torsion>
0.3448

> <Gold.PLP.Chemscore.Hbond>
2.0000

> <Gold.PLP.Chemscore.CHOScore>
0.0000

> <Gold.PLP.Chemscore.Metal>
0.0000

> <Gold.Chemscore.Hbonds>
donor molecule, donor type, donor heavy atom, donor atom, acceptor molecule, acceptor atom, score
      P1  H  6896  6907       L1     4  1.00
      P1  H  7997  8009       L1    11  1.00

> <Gold.PLP.Chemscore.Internal.Correction>
0.5215

> <Gold.Rescore>
     Score         DG    S(hbond)    S(metal)    S(lipo)     H(rot)  DE(clash)    DE(int)     intcor
     18.54     -18.85       2.00        0.00      98.90       1.90       0.00       0.32       ----

> <Gold.Chemscore.Fitness>
18.5362

> <Gold.Chemscore.DG>
-18.8529

> <Gold.Chemscore.ZeroCoef>
-5.4800

> <Gold.Chemscore.Hbond>
1.9950

> <Gold.Chemscore.Metal>
0.0000

> <Gold.Chemscore.Lipo>
98.8970

> <Gold.Chemscore.Internal_Hbond>
0.0000

> <Gold.Chemscore.DEClash>
0.0009

> <Gold.Chemscore.DEInternal>
0.3158

> <Gold.Chemscore.Rot>
1.8990

> <Gold.Chemscore.Internal.Correction>
   9.000000E+99

> <Gold.Chemscore.Hbonds>
donor molecule, donor type, donor heavy atom, donor atom, acceptor molecule, acceptor atom, score
      P1  H  6896  6907       L1     4  1.00
      P1  H  7997  8009       L1    11  0.99

> <Gold.Chemscore.Hbond.Weighted>
-6.6633

> <Gold.Chemscore.Metal.Weighted>
-0.0000

> <Gold.Chemscore.Lipo.Weighted>
-11.5709

> <Gold.Chemscore.Internal_Hbond.Weighted>
0.0000

> <Gold.Chemscore.DEClash.Weighted>
0.0009

> <Gold.Chemscore.DEInternal.Weighted>
0.3158

> <Gold.Chemscore.Rot.Weighted>
4.8613

> <Gold.Chemscore.Internal.Correction.Weighted>
   9.000000E+99

> <Gold.Protein.RotatedTorsions>
[ 6907 6896 6895 6894 ] final   63.15 input  -60.11 | X-H torsion
[ 7974 7965 7964 7962 ] final  156.36 input  175.53 | X-H torsion
[ 8008 7997 7996 7995 ] final   71.26 input   59.86 | X-H torsion
[ 10167 10162 10161 10158 ] final   75.65 input  -65.29 | X-H torsion
[ 10718 10713 10712 10709 ] final  137.10 input   66.30 | X-H torsion
[ 10763 10752 10751 10750 ] final  100.63 input  -60.55 | X-H torsion
[ 11005 11000 10999 10996 ] final  140.28 input  -57.11 | X-H torsion

> <Gold.Protein.ActiveResidues>
 VAL166  LYS551  ARG553  GLY616  TRP617  ASP618  TYR619  PRO620  LYS621  CYS622 
 ASP623  PHE694  ASN695  SER759  ASP760  ASP761  ALA762  ILE779  LEU786  VAL792 
 PHE793  MET794  SER795  GLU796  ALA797  LYS798  CYS799  TRP800  GLU811  SER814 

> <Gold.Protein.RotatedAtoms>
  152.4230  134.5920  159.9976 H   0  0  0  0  0  0  0  0  0  0  0  0  # atno 6907 bound_to 6896
  151.6065  133.3345  159.3066 H   0  0  0  0  0  0  0  0  0  0  0  0  # atno 6908 bound_to 6896
  150.8118  134.7315  159.6760 H   0  0  0  0  0  0  0  0  0  0  0  0  # atno 6909 bound_to 6896
  144.7968  139.7193  143.6198 H   0  0  0  0  0  0  0  0  0  0  0  0  # atno 7974 bound_to 7965
  155.7512  140.3488  155.5151 H   0  0  0  0  0  0  0  0  0  0  0  0  # atno 8008 bound_to 7997
  155.9002  140.1033  157.1376 H   0  0  0  0  0  0  0  0  0  0  0  0  # atno 8009 bound_to 7997
  154.4043  140.1287  156.4414 H   0  0  0  0  0  0  0  0  0  0  0  0  # atno 8010 bound_to 7997
  140.0007  144.5688  150.7740 H   0  0  0  0  0  0  0  0  0  0  0  0  # atno 10167 bound_to 10162
  157.4396  131.1056  151.0158 H   0  0  0  0  0  0  0  0  0  0  0  0  # atno 10718 bound_to 10713
  153.3164  135.4072  155.1380 H   0  0  0  0  0  0  0  0  0  0  0  0  # atno 10763 bound_to 10752
  154.8589  135.3577  154.5654 H   0  0  0  0  0  0  0  0  0  0  0  0  # atno 10764 bound_to 10752
  153.6085  135.7068  153.5415 H   0  0  0  0  0  0  0  0  0  0  0  0  # atno 10765 bound_to 10752
  140.0316  134.9349  157.0673 H   0  0  0  0  0  0  0  0  0  0  0  0  # atno 11005 bound_to 11000
  146.2238  139.5685  142.9600 LP  0  0  0  0  0  0  0  0  0  0  0  0  # atno 17320 bound_to 7965
  145.5653  141.0400  143.2203 LP  0  0  0  0  0  0  0  0  0  0  0  0  # atno 17321 bound_to 7965
  140.7420  143.2826  151.3556 LP  0  0  0  0  0  0  0  0  0  0  0  0  # atno 17342 bound_to 10162
  139.6274  144.0787  152.2446 LP  0  0  0  0  0  0  0  0  0  0  0  0  # atno 17343 bound_to 10162
  157.1025  130.5988  149.5463 LP  0  0  0  0  0  0  0  0  0  0  0  0  # atno 17370 bound_to 10713
  155.9944  130.5007  150.7417 LP  0  0  0  0  0  0  0  0  0  0  0  0  # atno 17371 bound_to 10713
  140.4217  134.1874  155.7165 LP  0  0  0  0  0  0  0  0  0  0  0  0  # atno 17394 bound_to 11000
  141.1834  133.8365  157.1176 LP  0  0  0  0  0  0  0  0  0  0  0  0  # atno 17395 bound_to 11000

$$$$
