AV-unprocessed.smi:1885|AV-procd|sdf|7651|dock7
  -GOLD-   22720 9383D 1   1.00000     0.00000
 Structure written by MMmdl.
 43 45  0  0  0  0  0  0  0  0  1 V2000
  141.1029  145.4512  153.8911 C   0  0  0  0  0  0  0  0  0  0  0  0
  141.5497  144.4865  154.8325 O   0  0  0  0  0  0  0  0  0  0  0  0
  142.8450  144.0273  154.7244 C   0  0  0  0  0  0  0  0  0  0  0  0
  143.7922  144.5265  153.7949 C   0  0  0  0  0  0  0  0  0  0  0  0
  145.0951  143.9937  153.7482 C   0  0  0  0  0  0  0  0  0  0  0  0
  145.4697  142.9531  154.6220 C   0  0  0  0  0  0  0  0  0  0  0  0
  146.8672  142.3694  154.5634 C   0  0  0  0  0  0  0  0  0  0  0  0
  146.8454  141.0237  154.1176 O   0  0  0  0  0  0  0  0  0  0  0  0
  148.0420  140.6323  153.4648 C   0  0  0  0  0  0  0  0  0  0  0  0
  149.1116  140.2563  154.5084 C   0  0  1  0  0  0  0  0  0  0  0  0
  150.2196  139.6741  153.8551 O   0  0  0  0  0  0  0  0  0  0  0  0
  149.5842  141.4103  155.4196 C   0  0  0  0  0  0  0  0  0  0  0  0
  150.3262  140.9496  156.5808 N   0  0  0  0  0  0  0  0  0  0  0  0
  150.7909  139.7051  156.8037 C   0  0  0  0  0  0  0  0  0  0  0  0
  151.4368  139.4915  157.9465 N   0  0  0  0  0  0  0  0  0  0  0  0
  151.3968  140.7465  158.5297 C   0  0  0  0  0  0  0  0  0  0  0  0
  151.9067  141.1987  159.7677 C   0  0  0  0  0  0  0  0  0  0  0  0
  151.7490  142.5448  160.1581 C   0  0  0  0  0  0  0  0  0  0  0  0
  152.2433  142.9611  161.3482 F   0  0  0  0  0  0  0  0  0  0  0  0
  151.0812  143.4588  159.3167 C   0  0  0  0  0  0  0  0  0  0  0  0
  150.9357  144.7498  159.6982 F   0  0  0  0  0  0  0  0  0  0  0  0
  150.5607  143.0304  158.0808 C   0  0  0  0  0  0  0  0  0  0  0  0
  150.7174  141.6853  157.6960 C   0  0  0  0  0  0  0  0  0  0  0  0
  144.5361  142.4609  155.5555 C   0  0  0  0  0  0  0  0  0  0  0  0
  143.2343  142.9949  155.6022 C   0  0  0  0  0  0  0  0  0  0  0  0
  140.0614  145.6982  154.0963 H   0  0  0  0  0  0  0  0  0  0  0  0
  141.1562  145.0669  152.8713 H   0  0  0  0  0  0  0  0  0  0  0  0
  141.6804  146.3738  153.9611 H   0  0  0  0  0  0  0  0  0  0  0  0
  143.5430  145.3170  153.1034 H   0  0  0  0  0  0  0  0  0  0  0  0
  145.8021  144.3822  153.0299 H   0  0  0  0  0  0  0  0  0  0  0  0
  147.4789  142.9740  153.8915 H   0  0  0  0  0  0  0  0  0  0  0  0
  147.3188  142.4247  155.5547 H   0  0  0  0  0  0  0  0  0  0  0  0
  147.8376  139.7595  152.8422 H   0  0  0  0  0  0  0  0  0  0  0  0
  148.3975  141.4200  152.7985 H   0  0  0  0  0  0  0  0  0  0  0  0
  148.6902  139.4730  155.1397 H   0  0  0  0  0  0  0  0  0  0  0  0
  150.0100  139.5816  152.9380 H   0  0  0  0  0  0  0  0  0  0  0  0
  150.2125  142.1038  154.8593 H   0  0  0  0  0  0  0  0  0  0  0  0
  148.7259  141.9854  155.7686 H   0  0  0  0  0  0  0  0  0  0  0  0
  150.6369  138.9085  156.0903 H   0  0  0  0  0  0  0  0  0  0  0  0
  152.4217  140.5086  160.4194 H   0  0  0  0  0  0  0  0  0  0  0  0
  150.0402  143.7279  157.4418 H   0  0  0  0  0  0  0  0  0  0  0  0
  144.8139  141.6676  156.2339 H   0  0  0  0  0  0  0  0  0  0  0  0
  142.5252  142.6051  156.3177 H   0  0  0  0  0  0  0  0  0  0  0  0
  1  2  1  0  0  0  0
  1 26  1  0  0  0  0
  1 27  1  0  0  0  0
  1 28  1  0  0  0  0
  2  3  1  0  0  0  0
  3 25  1  0  0  0  0
  3  4  2  0  0  0  0
  4  5  1  0  0  0  0
  4 29  1  0  0  0  0
  5  6  2  0  0  0  0
  5 30  1  0  0  0  0
  6  7  1  0  0  0  0
  6 24  1  0  0  0  0
  7  8  1  0  0  0  0
  7 31  1  0  0  0  0
  7 32  1  0  0  0  0
  8  9  1  0  0  0  0
  9 10  1  0  0  0  0
  9 33  1  0  0  0  0
  9 34  1  0  0  0  0
 10 11  1  0  0  0  0
 10 12  1  0  0  0  0
 10 35  1  0  0  0  0
 11 36  1  0  0  0  0
 12 13  1  0  0  0  0
 12 37  1  0  0  0  0
 12 38  1  0  0  0  0
 13 23  1  0  0  0  0
 13 14  1  0  0  0  0
 14 15  2  0  0  0  0
 14 39  1  0  0  0  0
 15 16  1  0  0  0  0
 16 23  2  0  0  0  0
 16 17  1  0  0  0  0
 17 18  2  0  0  0  0
 17 40  1  0  0  0  0
 18 19  1  0  0  0  0
 18 20  1  0  0  0  0
 20 21  1  0  0  0  0
 20 22  2  0  0  0  0
 22 23  1  0  0  0  0
 22 41  1  0  0  0  0
 24 25  2  0  0  0  0
 24 42  1  0  0  0  0
 25 43  1  0  0  0  0
M  END
> <s_m_source_file>
AV-unprocessed.smi

> <i_m_source_file_index>
1885

> <i_lp_mmshare_version>
43012

> <i_f3d_flags>
0

> <s_epik_input>
W0NIM11PYzFbY0hdW2NIXWMoW2NIXVtjSF0xKVtDSDJdT1tDSDJdW0NASF0oW09IXSlbQ0gyXW4oW2NIXW4yKWMoYzIzKVtjSF1jKEYpYyhGKVtjSF0z

> <s_epik_cmdline>
J2VwaWtfcHl0aG9uJywgJy1waCcsICc3LjAnLCAnLXRuJywgJzgnLCAnLW1hJywgJzIwMCcsICctbWV0YWxfYmluZGluZycsICctaW1hZScsICc8aW5maWxlLm1hZT4nLCAnLW9tYWUnLCAnPG91dGZpbGUubWFlPic=

> <r_lp_tautomer_probability>
1

> <r_epik_Ionization_Penalty>
0.0160256

> <r_epik_Ionization_Penalty_Charging>
0

> <r_epik_Ionization_Penalty_Neutral>
0.0160256

> <r_epik_State_Penalty>
0.0126263

> <r_epik_Charging_Adjusted_Penalty>
0.0126263

> <i_epik_Tot_Q>
0

> <i_epik_Tot_abs_Q>
0

> <r_epik_Metal_State_Penalty>
1.27616e-05

> <b_epik_Metal_Only>
0

> <s_lp_Force_Field>
OPLS_2005

> <r_lp_Energy>
16.1037

> <b_lp_Chiralities_Consistent>
1

> <s_lp_Variant>
AV-unprocessed.smi:1885-2

> <Gold.Version>
5.8.1

> <Gold.Id.Protein>
6NUR|6NUR_protein|mol2

> <Gold.PLP.Fitness>
56.7567

> <Gold.PLP.PLP>
-51.9045

> <Gold.PLP.part.hbond>
-2.0000

> <Gold.PLP.part.metal>
0.0000

> <Gold.PLP.part.buried>
-3.6621

> <Gold.PLP.part.nonpolar>
-47.1229

> <Gold.PLP.part.repulsive>
0.1961

> <Gold.PLP.ligand.clash>
0.0000

> <Gold.PLP.ligand.torsion>
0.5499

> <Gold.PLP.Chemscore.Hbond>
1.9120

> <Gold.PLP.Chemscore.CHOScore>
0.0000

> <Gold.PLP.Chemscore.Metal>
0.0000

> <Gold.Chemscore.Hbonds>
donor molecule, donor type, donor heavy atom, donor atom, acceptor molecule, acceptor atom, score
      L1  H    11    36       P1  7957  1.00
      P1  H  7989  7998       L1    11  0.54

> <Gold.PLP.Chemscore.Internal.Correction>
0.2161

> <Gold.Rescore>
     Score         DG    S(hbond)    S(metal)    S(lipo)     H(rot)  DE(clash)    DE(int)     intcor
     15.37     -16.22       1.53        0.00     112.29       2.93       0.09       0.76       ----

> <Gold.Chemscore.Fitness>
15.3743

> <Gold.Chemscore.DG>
-16.2218

> <Gold.Chemscore.ZeroCoef>
-5.4800

> <Gold.Chemscore.Hbond>
1.5308

> <Gold.Chemscore.Metal>
0.0000

> <Gold.Chemscore.Lipo>
112.2950

> <Gold.Chemscore.Internal_Hbond>
0.0000

> <Gold.Chemscore.DEClash>
0.0914

> <Gold.Chemscore.DEInternal>
0.7561

> <Gold.Chemscore.Rot>
2.9335

> <Gold.Chemscore.Internal.Correction>
   9.000000E+99

> <Gold.Chemscore.Hbonds>
donor molecule, donor type, donor heavy atom, donor atom, acceptor molecule, acceptor atom, score
      L1  H    11    36       P1  7957  0.99
      P1  H  7989  7998       L1    11  0.03

> <Gold.Chemscore.Hbond.Weighted>
-5.1129

> <Gold.Chemscore.Metal.Weighted>
-0.0000

> <Gold.Chemscore.Lipo.Weighted>
-13.1385

> <Gold.Chemscore.Internal_Hbond.Weighted>
0.0000

> <Gold.Chemscore.DEClash.Weighted>
0.0914

> <Gold.Chemscore.DEInternal.Weighted>
0.7561

> <Gold.Chemscore.Rot.Weighted>
7.5097

> <Gold.Chemscore.Internal.Correction.Weighted>
   9.000000E+99

> <Gold.Protein.RotatedTorsions>
[ 6907 6896 6895 6894 ] final  -71.33 input  -60.11 | X-H torsion
[ 7974 7965 7964 7962 ] final  100.57 input  175.53 | X-H torsion
[ 8008 7997 7996 7995 ] final   -3.99 input   59.86 | X-H torsion
[ 10167 10162 10161 10158 ] final  119.11 input  -65.29 | X-H torsion
[ 10718 10713 10712 10709 ] final   -6.13 input   66.30 | X-H torsion
[ 10763 10752 10751 10750 ] final   11.76 input  -60.55 | X-H torsion
[ 11005 11000 10999 10996 ] final   69.52 input  -57.11 | X-H torsion

> <Gold.Protein.ActiveResidues>
 VAL166  LYS551  ARG553  GLY616  TRP617  ASP618  TYR619  PRO620  LYS621  CYS622 
 ASP623  PHE694  ASN695  SER759  ASP760  ASP761  ALA762  ILE779  LEU786  VAL792 
 PHE793  MET794  SER795  GLU796  ALA797  LYS798  CYS799  TRP800  GLU811  SER814 

> <Gold.Protein.RotatedAtoms>
  150.7217  134.5325  159.5706 H   0  0  0  0  0  0  0  0  0  0  0  0  # atno 6907 bound_to 6896
  152.2854  134.7778  160.0397 H   0  0  0  0  0  0  0  0  0  0  0  0  # atno 6908 bound_to 6896
  151.8410  133.3388  159.3680 H   0  0  0  0  0  0  0  0  0  0  0  0  # atno 6909 bound_to 6896
  145.3838  139.2375  143.3389 H   0  0  0  0  0  0  0  0  0  0  0  0  # atno 7974 bound_to 7965
  154.6190  140.2495  155.7573 H   0  0  0  0  0  0  0  0  0  0  0  0  # atno 8008 bound_to 7997
  156.2416  140.2930  156.0408 H   0  0  0  0  0  0  0  0  0  0  0  0  # atno 8009 bound_to 7997
  155.1928  140.0392  157.2893 H   0  0  0  0  0  0  0  0  0  0  0  0  # atno 8010 bound_to 7997
  139.6067  144.7071  151.2937 H   0  0  0  0  0  0  0  0  0  0  0  0  # atno 10167 bound_to 10162
  156.7364  130.5196  149.5834 H   0  0  0  0  0  0  0  0  0  0  0  0  # atno 10718 bound_to 10713
  153.1892  135.6840  153.8374 H   0  0  0  0  0  0  0  0  0  0  0  0  # atno 10763 bound_to 10752
  153.7679  135.3200  155.3348 H   0  0  0  0  0  0  0  0  0  0  0  0  # atno 10764 bound_to 10752
  154.8107  135.4719  154.0607 H   0  0  0  0  0  0  0  0  0  0  0  0  # atno 10765 bound_to 10752
  139.9649  134.6997  156.0566 H   0  0  0  0  0  0  0  0  0  0  0  0  # atno 11005 bound_to 11000
  146.2829  140.4510  142.8769 LP  0  0  0  0  0  0  0  0  0  0  0  0  # atno 17320 bound_to 7965
  144.8488  140.6970  143.6181 LP  0  0  0  0  0  0  0  0  0  0  0  0  # atno 17321 bound_to 7965
  140.7290  143.6920  150.7914 LP  0  0  0  0  0  0  0  0  0  0  0  0  # atno 17342 bound_to 10162
  140.0507  143.5252  152.2675 LP  0  0  0  0  0  0  0  0  0  0  0  0  # atno 17343 bound_to 10162
  156.1494  130.6299  151.0575 LP  0  0  0  0  0  0  0  0  0  0  0  0  # atno 17370 bound_to 10713
  157.6837  131.0831  150.7301 LP  0  0  0  0  0  0  0  0  0  0  0  0  # atno 17371 bound_to 10713
  141.1328  133.6582  156.3512 LP  0  0  0  0  0  0  0  0  0  0  0  0  # atno 17394 bound_to 11000
  140.5418  134.6113  157.5382 LP  0  0  0  0  0  0  0  0  0  0  0  0  # atno 17395 bound_to 11000

$$$$
