AV-unprocessed.smi:2121|AV-procd|sdf|8645|dock5
  -GOLD-   2272011393D 1   1.00000     0.00000
 Structure written by MMmdl.
 49 50  0  0  0  0  0  0  0  0  1 V2000
  153.7977  141.5349  161.5726 C   0  0  0  0  0  0  0  0  0  0  0  0
  153.1838  142.0925  160.2840 C   0  0  1  0  0  0  0  0  0  0  0  0
  152.6909  140.9722  159.3511 C   0  0  0  0  0  0  0  0  0  0  0  0
  152.0048  141.5416  158.1954 N   0  0  0  0  0  0  0  0  0  0  0  0
  151.7492  140.7005  157.0923 C   0  0  0  0  0  0  0  0  0  0  0  0
  150.4482  140.6335  156.5421 C   0  0  0  0  0  0  0  0  0  0  0  0
  150.2103  139.7888  155.4415 C   0  0  0  0  0  0  0  0  0  0  0  0
  151.2771  139.0253  154.9192 C   0  0  0  0  0  0  0  0  0  0  0  0
  151.1114  138.0898  153.7278 C   0  0  0  0  0  0  0  0  0  0  0  0
  150.4403  136.8293  154.0291 N   0  0  0  0  0  0  0  0  0  0  0  0
  150.8037  135.9769  154.9991 C   0  0  0  0  0  0  0  0  0  0  0  0
  151.7872  136.1534  155.7201 O   0  0  0  0  0  0  0  0  0  0  0  0
  149.9143  134.7367  155.1786 C   0  0  1  0  0  0  0  0  0  0  0  0
  148.7456  135.1053  156.1072 C   0  0  0  0  0  0  0  0  0  0  0  0
  149.3616  134.3131  153.8926 N   0  0  0  0  0  0  0  0  0  0  0  0
  149.3884  133.0583  153.4189 C   0  0  0  0  0  0  0  0  0  0  0  0
  148.8308  132.9595  152.2119 N   0  0  0  0  0  0  0  0  0  0  0  0
  149.8706  132.0974  154.0157 O   0  0  0  0  0  0  0  0  0  0  0  0
  152.5402  139.1651  155.5285 C   0  0  0  0  0  0  0  0  0  0  0  0
  152.7751  139.9766  156.5809 N   0  0  0  0  0  0  0  0  0  0  0  0
  150.9163  142.4432  158.5595 C   0  0  0  0  0  0  0  0  0  0  0  0
  151.4025  143.5294  159.5393 C   0  0  2  0  0  0  0  0  0  0  0  0
  152.2376  144.6321  158.8644 C   0  0  0  0  0  0  0  0  0  0  0  0
  152.0869  142.9321  160.6433 O   0  0  0  0  0  0  0  0  0  0  0  0
  154.6505  140.8916  161.3547 H   0  0  0  0  0  0  0  0  0  0  0  0
  153.0704  140.9483  162.1347 H   0  0  0  0  0  0  0  0  0  0  0  0
  154.1465  142.3413  162.2182 H   0  0  0  0  0  0  0  0  0  0  0  0
  153.9467  142.6824  159.7757 H   0  0  0  0  0  0  0  0  0  0  0  0
  153.5411  140.3714  159.0256 H   0  0  0  0  0  0  0  0  0  0  0  0
  152.0072  140.3097  159.8838 H   0  0  0  0  0  0  0  0  0  0  0  0
  149.6394  141.2281  156.9400 H   0  0  0  0  0  0  0  0  0  0  0  0
  149.2207  139.7399  155.0122 H   0  0  0  0  0  0  0  0  0  0  0  0
  150.5284  138.6086  152.9668 H   0  0  0  0  0  0  0  0  0  0  0  0
  152.0882  137.8899  153.2836 H   0  0  0  0  0  0  0  0  0  0  0  0
  149.6226  136.6045  153.4808 H   0  0  0  0  0  0  0  0  0  0  0  0
  150.4875  133.9193  155.6206 H   0  0  0  0  0  0  0  0  0  0  0  0
  149.1047  135.4279  157.0853 H   0  0  0  0  0  0  0  0  0  0  0  0
  148.0927  134.2471  156.2696 H   0  0  0  0  0  0  0  0  0  0  0  0
  148.1351  135.9102  155.6946 H   0  0  0  0  0  0  0  0  0  0  0  0
  148.9481  135.0323  153.3180 H   0  0  0  0  0  0  0  0  0  0  0  0
  148.7838  132.0660  151.7450 H   0  0  0  0  0  0  0  0  0  0  0  0
  148.4526  133.7848  151.7699 H   0  0  0  0  0  0  0  0  0  0  0  0
  153.3904  138.6096  155.1605 H   0  0  0  0  0  0  0  0  0  0  0  0
  150.4676  142.9158  157.6866 H   0  0  0  0  0  0  0  0  0  0  0  0
  150.1304  141.8519  159.0313 H   0  0  0  0  0  0  0  0  0  0  0  0
  150.5205  144.0154  159.9573 H   0  0  0  0  0  0  0  0  0  0  0  0
  151.6455  145.1595  158.1161 H   0  0  0  0  0  0  0  0  0  0  0  0
  153.1169  144.2349  158.3579 H   0  0  0  0  0  0  0  0  0  0  0  0
  152.5750  145.3670  159.5954 H   0  0  0  0  0  0  0  0  0  0  0  0
  1  2  1  0  0  0  0
  1 25  1  0  0  0  0
  1 26  1  0  0  0  0
  1 27  1  0  0  0  0
  2 24  1  0  0  0  0
  2  3  1  0  0  0  0
  2 28  1  0  0  0  0
  3  4  1  0  0  0  0
  3 29  1  0  0  0  0
  3 30  1  0  0  0  0
  4  5  1  0  0  0  0
  4 21  1  0  0  0  0
  5 20  1  0  0  0  0
  5  6  2  0  0  0  0
  6  7  1  0  0  0  0
  6 31  1  0  0  0  0
  7  8  2  0  0  0  0
  7 32  1  0  0  0  0
  8  9  1  0  0  0  0
  8 19  1  0  0  0  0
  9 10  1  0  0  0  0
  9 33  1  0  0  0  0
  9 34  1  0  0  0  0
 10 11  1  0  0  0  0
 10 35  1  0  0  0  0
 11 12  2  0  0  0  0
 11 13  1  0  0  0  0
 13 14  1  0  0  0  0
 13 15  1  0  0  0  0
 13 36  1  0  0  0  0
 14 37  1  0  0  0  0
 14 38  1  0  0  0  0
 14 39  1  0  0  0  0
 15 16  1  0  0  0  0
 15 40  1  0  0  0  0
 16 17  1  0  0  0  0
 16 18  2  0  0  0  0
 17 41  1  0  0  0  0
 17 42  1  0  0  0  0
 19 20  2  0  0  0  0
 19 43  1  0  0  0  0
 21 22  1  0  0  0  0
 21 44  1  0  0  0  0
 21 45  1  0  0  0  0
 22 23  1  0  0  0  0
 22 24  1  0  0  0  0
 22 46  1  0  0  0  0
 23 47  1  0  0  0  0
 23 48  1  0  0  0  0
 23 49  1  0  0  0  0
M  END
> <s_m_source_file>
AV-unprocessed.smi

> <i_m_source_file_index>
2121

> <i_lp_mmshare_version>
43012

> <i_f3d_flags>
0

> <s_epik_input>
W0NIM11bQ0BASF0xW0NIMl1OKFtDSDJdW0NASF0oTzEpW0NIM10pYzJbY0hdW2NIXWMoW2NIXW4yKVtDSDJdW05IXUMoPU8pW0NASF0oW0NIM10pW05IXUMoPU8pW05IMl0=

> <s_epik_cmdline>
J2VwaWtfcHl0aG9uJywgJy1waCcsICc3LjAnLCAnLXRuJywgJzgnLCAnLW1hJywgJzIwMCcsICctbWV0YWxfYmluZGluZycsICctaW1hZScsICc8aW5maWxlLm1hZT4nLCAnLW9tYWUnLCAnPG91dGZpbGUubWFlPic=

> <r_lp_tautomer_probability>
1

> <r_epik_Ionization_Penalty>
0.0063713

> <r_epik_Ionization_Penalty_Charging>
0

> <r_epik_Ionization_Penalty_Neutral>
0.0063713

> <r_epik_State_Penalty>
0.00467069

> <r_epik_Charging_Adjusted_Penalty>
0.00467069

> <i_epik_Tot_Q>
0

> <i_epik_Tot_abs_Q>
0

> <r_epik_Metal_State_Penalty>
-0

> <b_epik_Metal_Only>
0

> <s_lp_Force_Field>
OPLS_2005

> <r_lp_Energy>
11.1976

> <b_lp_Chiralities_Consistent>
1

> <s_lp_Variant>
AV-unprocessed.smi:2121-6

> <Gold.Version>
5.8.1

> <Gold.Id.Protein>
6NUR|6NUR_protein|mol2

> <Gold.PLP.Fitness>
57.7255

> <Gold.PLP.PLP>
-45.6082

> <Gold.PLP.part.hbond>
-6.3384

> <Gold.PLP.part.metal>
0.0000

> <Gold.PLP.part.buried>
-0.8195

> <Gold.PLP.part.nonpolar>
-36.1578

> <Gold.PLP.part.repulsive>
0.2406

> <Gold.PLP.ligand.clash>
0.0000

> <Gold.PLP.ligand.torsion>
1.2078

> <Gold.PLP.Chemscore.Hbond>
4.7235

> <Gold.PLP.Chemscore.CHOScore>
0.0000

> <Gold.PLP.Chemscore.Metal>
0.0000

> <Gold.Chemscore.Hbonds>
donor molecule, donor type, donor heavy atom, donor atom, acceptor molecule, acceptor atom, score
      L1  H    10    35       P1  7948  0.91
      L1  H    15    40       P1  7948  1.00
      L1  H    17    41       P1 10747  1.00
      P1  H  7997  8010       L1    20  0.90
      P1  H 10752 10764       L1    12  1.00

> <Gold.PLP.Chemscore.Internal.Correction>
0.3624

> <Gold.Rescore>
     Score         DG    S(hbond)    S(metal)    S(lipo)     H(rot)  DE(clash)    DE(int)     intcor
     19.65     -22.87       3.52        0.00     104.76       2.58       0.94       2.29       ----

> <Gold.Chemscore.Fitness>
19.6477

> <Gold.Chemscore.DG>
-22.8718

> <Gold.Chemscore.ZeroCoef>
-5.4800

> <Gold.Chemscore.Hbond>
3.5177

> <Gold.Chemscore.Metal>
0.0000

> <Gold.Chemscore.Lipo>
104.7631

> <Gold.Chemscore.Internal_Hbond>
0.0000

> <Gold.Chemscore.DEClash>
0.9363

> <Gold.Chemscore.DEInternal>
2.2878

> <Gold.Chemscore.Rot>
2.5838

> <Gold.Chemscore.Internal.Correction>
   9.000000E+99

> <Gold.Chemscore.Hbonds>
donor molecule, donor type, donor heavy atom, donor atom, acceptor molecule, acceptor atom, score
      L1  H    10    35       P1  7948  0.53
      L1  H    15    40       P1  7948  0.33
      L1  H    17    41       P1 10747  0.96
      P1  H  7997  8010       L1    20  0.17
      P1  H 10752 10764       L1    12  0.45

> <Gold.Chemscore.Hbond.Weighted>
-11.7490

> <Gold.Chemscore.Metal.Weighted>
-0.0000

> <Gold.Chemscore.Lipo.Weighted>
-12.2573

> <Gold.Chemscore.Internal_Hbond.Weighted>
0.0000

> <Gold.Chemscore.DEClash.Weighted>
0.9363

> <Gold.Chemscore.DEInternal.Weighted>
2.2878

> <Gold.Chemscore.Rot.Weighted>
6.6145

> <Gold.Chemscore.Internal.Correction.Weighted>
   9.000000E+99

> <Gold.Protein.RotatedTorsions>
[ 6907 6896 6895 6894 ] final  157.31 input  -60.11 | X-H torsion
[ 7974 7965 7964 7962 ] final   71.84 input  175.53 | X-H torsion
[ 8008 7997 7996 7995 ] final   75.39 input   59.86 | X-H torsion
[ 10167 10162 10161 10158 ] final  -95.69 input  -65.29 | X-H torsion
[ 10718 10713 10712 10709 ] final   19.32 input   66.30 | X-H torsion
[ 10763 10752 10751 10750 ] final  -43.93 input  -60.55 | X-H torsion
[ 11005 11000 10999 10996 ] final  -74.80 input  -57.11 | X-H torsion

> <Gold.Protein.ActiveResidues>
 VAL166  LYS551  ARG553  GLY616  TRP617  ASP618  TYR619  PRO620  LYS621  CYS622 
 ASP623  PHE694  ASN695  SER759  ASP760  ASP761  ALA762  ILE779  LEU786  VAL792 
 PHE793  MET794  SER795  GLU796  ALA797  LYS798  CYS799  TRP800  GLU811  SER814 

> <Gold.Protein.RotatedAtoms>
  152.0169  133.3883  159.4242 H   0  0  0  0  0  0  0  0  0  0  0  0  # atno 6907 bound_to 6896
  150.6894  134.3669  159.4984 H   0  0  0  0  0  0  0  0  0  0  0  0  # atno 6908 bound_to 6896
  152.1437  134.9042  160.0603 H   0  0  0  0  0  0  0  0  0  0  0  0  # atno 6909 bound_to 6896
  145.7608  139.2800  143.1377 H   0  0  0  0  0  0  0  0  0  0  0  0  # atno 7974 bound_to 7965
  155.8123  140.3473  155.5465 H   0  0  0  0  0  0  0  0  0  0  0  0  # atno 8008 bound_to 7997
  155.8428  140.0944  157.1744 H   0  0  0  0  0  0  0  0  0  0  0  0  # atno 8009 bound_to 7997
  154.4005  140.1391  156.3737 H   0  0  0  0  0  0  0  0  0  0  0  0  # atno 8010 bound_to 7997
  140.3015  143.3159  152.0243 H   0  0  0  0  0  0  0  0  0  0  0  0  # atno 10167 bound_to 10162
  157.1087  130.6499  149.5891 H   0  0  0  0  0  0  0  0  0  0  0  0  # atno 10718 bound_to 10713
  154.0037  135.6690  153.4761 H   0  0  0  0  0  0  0  0  0  0  0  0  # atno 10763 bound_to 10752
  153.0651  135.5005  154.8177 H   0  0  0  0  0  0  0  0  0  0  0  0  # atno 10764 bound_to 10752
  154.7037  135.3084  154.9266 H   0  0  0  0  0  0  0  0  0  0  0  0  # atno 10765 bound_to 10752
  141.1639  133.6924  156.7419 H   0  0  0  0  0  0  0  0  0  0  0  0  # atno 11005 bound_to 11000
  146.0266  140.8298  142.9897 LP  0  0  0  0  0  0  0  0  0  0  0  0  # atno 17320 bound_to 7965
  144.6831  140.2706  143.7306 LP  0  0  0  0  0  0  0  0  0  0  0  0  # atno 17321 bound_to 7965
  139.4914  144.6452  151.6794 LP  0  0  0  0  0  0  0  0  0  0  0  0  # atno 17342 bound_to 10162
  140.5646  144.0211  150.6186 LP  0  0  0  0  0  0  0  0  0  0  0  0  # atno 17343 bound_to 10162
  155.9855  130.4886  150.7037 LP  0  0  0  0  0  0  0  0  0  0  0  0  # atno 17370 bound_to 10713
  157.4578  131.0880  151.0778 LP  0  0  0  0  0  0  0  0  0  0  0  0  # atno 17371 bound_to 10713
  140.2668  134.8424  157.3810 LP  0  0  0  0  0  0  0  0  0  0  0  0  # atno 17394 bound_to 11000
  140.1559  134.4790  155.7928 LP  0  0  0  0  0  0  0  0  0  0  0  0  # atno 17395 bound_to 11000

$$$$
