AV-unprocessed.smi:2417|AV-procd|sdf|9549|dock3
  -GOLD-   2272013183D 1   1.00000     0.00000
 Structure written by MMmdl.
 38 39  0  0  0  0  0  0  0  0  1 V2000
  154.1658  136.7656  160.8221 C   0  0  0  0  0  0  0  0  0  0  0  0
  153.4866  137.1785  159.5282 C   0  0  0  0  0  0  0  0  0  0  0  0
  152.0959  137.0376  159.5045 N   0  0  0  0  0  0  0  0  0  0  0  0
  151.4331  137.3620  158.4429 C   0  0  0  0  0  0  0  0  0  0  0  0
  152.0733  137.8644  157.2985 N   0  0  0  0  0  0  0  0  0  0  0  0
  151.2044  138.1940  156.1569 C   0  0  0  0  0  0  0  0  0  0  0  0
  151.3820  139.6583  155.6953 C   0  0  1  0  0  0  0  0  0  0  0  0
  150.7859  139.8515  154.4285 O   0  0  0  0  0  0  0  0  0  0  0  0
  150.7593  140.6762  156.6648 C   0  0  0  0  0  0  0  0  0  0  0  0
  151.5394  140.7544  157.8522 O   0  0  0  0  0  0  0  0  0  0  0  0
  151.6611  141.9778  158.4749 C   0  0  0  0  0  0  0  0  0  0  0  0
  150.9307  143.0510  157.9237 C   0  0  0  0  0  0  0  0  0  0  0  0
  150.9932  144.3356  158.4973 C   0  0  0  0  0  0  0  0  0  0  0  0
  151.7926  144.5603  159.6331 C   0  0  0  0  0  0  0  0  0  0  0  0
  151.8544  145.7944  160.1866 F   0  0  0  0  0  0  0  0  0  0  0  0
  152.5282  143.4992  160.1925 C   0  0  0  0  0  0  0  0  0  0  0  0
  152.4650  142.2142  159.6190 C   0  0  0  0  0  0  0  0  0  0  0  0
  153.4267  138.0242  157.2336 C   0  0  0  0  0  0  0  0  0  0  0  0
  153.9792  138.4493  156.2169 O   0  0  0  0  0  0  0  0  0  0  0  0
  154.1679  137.6523  158.4494 C   0  0  0  0  0  0  0  0  0  0  0  0
  155.6816  137.8224  158.4154 C   0  0  0  0  0  0  0  0  0  0  0  0
  154.7019  137.6084  161.2593 H   0  0  0  0  0  0  0  0  0  0  0  0
  154.8747  135.9576  160.6394 H   0  0  0  0  0  0  0  0  0  0  0  0
  153.4410  136.4132  161.5570 H   0  0  0  0  0  0  0  0  0  0  0  0
  150.3485  137.2638  158.3700 H   0  0  0  0  0  0  0  0  0  0  0  0
  151.3474  137.5079  155.3192 H   0  0  0  0  0  0  0  0  0  0  0  0
  150.1674  138.0334  156.4577 H   0  0  0  0  0  0  0  0  0  0  0  0
  152.4411  139.8994  155.5963 H   0  0  0  0  0  0  0  0  0  0  0  0
  149.9790  140.3289  154.5479 H   0  0  0  0  0  0  0  0  0  0  0  0
  150.7492  141.6542  156.1809 H   0  0  0  0  0  0  0  0  0  0  0  0
  149.7255  140.4070  156.8891 H   0  0  0  0  0  0  0  0  0  0  0  0
  150.3146  142.8876  157.0517 H   0  0  0  0  0  0  0  0  0  0  0  0
  150.4271  145.1475  158.0653 H   0  0  0  0  0  0  0  0  0  0  0  0
  153.1426  143.6705  161.0641 H   0  0  0  0  0  0  0  0  0  0  0  0
  153.0435  141.4265  160.0767 H   0  0  0  0  0  0  0  0  0  0  0  0
  156.1105  137.2052  157.6252 H   0  0  0  0  0  0  0  0  0  0  0  0
  156.1667  137.5428  159.3492 H   0  0  0  0  0  0  0  0  0  0  0  0
  155.9393  138.8620  158.2104 H   0  0  0  0  0  0  0  0  0  0  0  0
  1  2  1  0  0  0  0
  1 22  1  0  0  0  0
  1 23  1  0  0  0  0
  1 24  1  0  0  0  0
  2 20  2  0  0  0  0
  2  3  1  0  0  0  0
  3  4  2  0  0  0  0
  4  5  1  0  0  0  0
  4 25  1  0  0  0  0
  5  6  1  0  0  0  0
  5 18  1  0  0  0  0
  6  7  1  0  0  0  0
  6 26  1  0  0  0  0
  6 27  1  0  0  0  0
  7  8  1  0  0  0  0
  7  9  1  0  0  0  0
  7 28  1  0  0  0  0
  8 29  1  0  0  0  0
  9 10  1  0  0  0  0
  9 30  1  0  0  0  0
  9 31  1  0  0  0  0
 10 11  1  0  0  0  0
 11 17  1  0  0  0  0
 11 12  2  0  0  0  0
 12 13  1  0  0  0  0
 12 32  1  0  0  0  0
 13 14  2  0  0  0  0
 13 33  1  0  0  0  0
 14 15  1  0  0  0  0
 14 16  1  0  0  0  0
 16 17  2  0  0  0  0
 16 34  1  0  0  0  0
 17 35  1  0  0  0  0
 18 19  2  0  0  0  0
 18 20  1  0  0  0  0
 20 21  1  0  0  0  0
 21 36  1  0  0  0  0
 21 37  1  0  0  0  0
 21 38  1  0  0  0  0
M  END
> <s_m_source_file>
AV-unprocessed.smi

> <i_m_source_file_index>
2417

> <i_lp_mmshare_version>
43012

> <i_f3d_flags>
0

> <s_epik_input>
W0NIM11jMW5bY0hdbihjKD1PKWMxW0NIM10pW0NIMl1bQ0BIXShbT0hdKVtDSDJdT2MyW2NIXVtjSF1jKEYpW2NIXVtjSF0y

> <s_epik_cmdline>
J2VwaWtfcHl0aG9uJywgJy1waCcsICc3LjAnLCAnLXRuJywgJzgnLCAnLW1hJywgJzIwMCcsICctbWV0YWxfYmluZGluZycsICctaW1hZScsICc8aW5maWxlLm1hZT4nLCAnLW9tYWUnLCAnPG91dGZpbGUubWFlPic=

> <r_lp_tautomer_probability>
1

> <r_epik_Ionization_Penalty>
3.65384e-05

> <r_epik_Ionization_Penalty_Charging>
8.23007e-08

> <r_epik_Ionization_Penalty_Neutral>
3.64561e-05

> <r_epik_State_Penalty>
-0

> <r_epik_Charging_Adjusted_Penalty>
8.23007e-08

> <i_epik_Tot_Q>
0

> <i_epik_Tot_abs_Q>
0

> <r_epik_Metal_State_Penalty>
-0

> <b_epik_Metal_Only>
0

> <s_lp_Force_Field>
OPLS_2005

> <r_lp_Energy>
22.9041

> <b_lp_Chiralities_Consistent>
1

> <s_lp_Variant>
AV-unprocessed.smi:2417-2

> <Gold.Version>
5.8.1

> <Gold.Id.Protein>
6NUR|6NUR_protein|mol2

> <Gold.PLP.Fitness>
44.4580

> <Gold.PLP.PLP>
-39.6147

> <Gold.PLP.part.hbond>
-2.7460

> <Gold.PLP.part.metal>
0.0000

> <Gold.PLP.part.buried>
-5.5550

> <Gold.PLP.part.nonpolar>
-31.3861

> <Gold.PLP.part.repulsive>
0.0000

> <Gold.PLP.ligand.clash>
2.0413

> <Gold.PLP.ligand.torsion>
0.4410

> <Gold.PLP.Chemscore.Hbond>
2.5440

> <Gold.PLP.Chemscore.CHOScore>
0.0000

> <Gold.PLP.Chemscore.Metal>
0.0000

> <Gold.Chemscore.Hbonds>
donor molecule, donor type, donor heavy atom, donor atom, acceptor molecule, acceptor atom, score
      P1  H  6896  6908       L1     3  1.00
      P1  H  7989  7998       L1     8  1.00
      P1  H  7997  8009       L1    19  0.53

> <Gold.PLP.Chemscore.Internal.Correction>
0.1346

> <Gold.Rescore>
     Score         DG    S(hbond)    S(metal)    S(lipo)     H(rot)  DE(clash)    DE(int)     intcor
     14.64     -16.87       2.10        0.00      92.87       2.54       0.04       2.19       ----

> <Gold.Chemscore.Fitness>
14.6361

> <Gold.Chemscore.DG>
-16.8672

> <Gold.Chemscore.ZeroCoef>
-5.4800

> <Gold.Chemscore.Hbond>
2.0996

> <Gold.Chemscore.Metal>
0.0000

> <Gold.Chemscore.Lipo>
92.8665

> <Gold.Chemscore.Internal_Hbond>
0.0000

> <Gold.Chemscore.DEClash>
0.0424

> <Gold.Chemscore.DEInternal>
2.1887

> <Gold.Chemscore.Rot>
2.5355

> <Gold.Chemscore.Internal.Correction>
   9.000000E+99

> <Gold.Chemscore.Hbonds>
donor molecule, donor type, donor heavy atom, donor atom, acceptor molecule, acceptor atom, score
      P1  H  6896  6908       L1     3  0.32
      P1  H  7989  7998       L1     8  0.29
      P1  H  7997  8009       L1    19  0.43

> <Gold.Chemscore.Hbond.Weighted>
-7.0126

> <Gold.Chemscore.Metal.Weighted>
-0.0000

> <Gold.Chemscore.Lipo.Weighted>
-10.8654

> <Gold.Chemscore.Internal_Hbond.Weighted>
0.0000

> <Gold.Chemscore.DEClash.Weighted>
0.0424

> <Gold.Chemscore.DEInternal.Weighted>
2.1887

> <Gold.Chemscore.Rot.Weighted>
6.4908

> <Gold.Chemscore.Internal.Correction.Weighted>
   9.000000E+99

> <Gold.Protein.RotatedTorsions>
[ 6907 6896 6895 6894 ] final -103.97 input  -60.11 | X-H torsion
[ 7974 7965 7964 7962 ] final   47.07 input  175.53 | X-H torsion
[ 8008 7997 7996 7995 ] final -163.76 input   59.86 | X-H torsion
[ 10167 10162 10161 10158 ] final -173.61 input  -65.29 | X-H torsion
[ 10718 10713 10712 10709 ] final  -99.41 input   66.30 | X-H torsion
[ 10763 10752 10751 10750 ] final  -33.06 input  -60.55 | X-H torsion
[ 11005 11000 10999 10996 ] final  -89.41 input  -57.11 | X-H torsion

> <Gold.Protein.ActiveResidues>
 VAL166  LYS551  ARG553  GLY616  TRP617  ASP618  TYR619  PRO620  LYS621  CYS622 
 ASP623  PHE694  ASN695  SER759  ASP760  ASP761  ALA762  ILE779  LEU786  VAL792 
 PHE793  MET794  SER795  GLU796  ALA797  LYS798  CYS799  TRP800  GLU811  SER814 

> <Gold.Protein.RotatedAtoms>
  150.7265  134.0348  159.3745 H   0  0  0  0  0  0  0  0  0  0  0  0  # atno 6907 bound_to 6896
  151.8319  135.0616  160.0447 H   0  0  0  0  0  0  0  0  0  0  0  0  # atno 6908 bound_to 6896
  152.2927  133.5541  159.5604 H   0  0  0  0  0  0  0  0  0  0  0  0  # atno 6909 bound_to 6896
  146.0332  139.4788  142.9825 H   0  0  0  0  0  0  0  0  0  0  0  0  # atno 7974 bound_to 7965
  155.8259  140.0926  157.1821 H   0  0  0  0  0  0  0  0  0  0  0  0  # atno 8008 bound_to 7997
  154.3979  140.1428  156.3616 H   0  0  0  0  0  0  0  0  0  0  0  0  # atno 8009 bound_to 7997
  155.8217  140.3446  155.5521 H   0  0  0  0  0  0  0  0  0  0  0  0  # atno 8010 bound_to 7997
  139.5679  144.1712  152.1340 H   0  0  0  0  0  0  0  0  0  0  0  0  # atno 10167 bound_to 10162
  156.0133  130.5281  150.6667 H   0  0  0  0  0  0  0  0  0  0  0  0  # atno 10718 bound_to 10713
  153.8239  135.6872  153.4823 H   0  0  0  0  0  0  0  0  0  0  0  0  # atno 10763 bound_to 10752
  153.1552  135.4602  154.9692 H   0  0  0  0  0  0  0  0  0  0  0  0  # atno 10764 bound_to 10752
  154.7916  135.3303  154.7709 H   0  0  0  0  0  0  0  0  0  0  0  0  # atno 10765 bound_to 10752
  141.1585  133.7628  156.9591 H   0  0  0  0  0  0  0  0  0  0  0  0  # atno 11005 bound_to 11000
  145.7007  141.0137  143.1506 LP  0  0  0  0  0  0  0  0  0  0  0  0  # atno 17320 bound_to 7965
  144.7040  139.8641  143.7436 LP  0  0  0  0  0  0  0  0  0  0  0  0  # atno 17321 bound_to 7965
  140.1239  144.5349  150.6845 LP  0  0  0  0  0  0  0  0  0  0  0  0  # atno 17342 bound_to 10162
  140.6963  143.2406  151.4992 LP  0  0  0  0  0  0  0  0  0  0  0  0  # atno 17343 bound_to 10162
  157.4398  131.0860  151.0955 LP  0  0  0  0  0  0  0  0  0  0  0  0  # atno 17370 bound_to 10713
  157.1503  130.6181  149.5580 LP  0  0  0  0  0  0  0  0  0  0  0  0  # atno 17371 bound_to 10713
  140.1205  134.9420  157.2197 LP  0  0  0  0  0  0  0  0  0  0  0  0  # atno 17394 bound_to 11000
  140.3078  134.3058  155.7274 LP  0  0  0  0  0  0  0  0  0  0  0  0  # atno 17395 bound_to 11000

$$$$
