AV-unprocessed.smi:1978|AV-procd|sdf|8014|dock3
  -GOLD-   2272010203D 1   1.00000     0.00000
 Structure written by MMmdl.
 44 45  0  0  0  0  0  0  0  0  3 V2000
  152.7604  142.5299  161.1259 C   0  0  0  0  0  0  0  0  0  0  0  0
  152.5735  141.7970  159.8420 C   0  0  0  0  0  0  0  0  0  0  0  0
  151.6901  141.9397  158.8093 C   0  0  0  0  0  0  0  0  0  0  0  0
  152.0756  140.9085  157.9116 C   0  0  0  0  0  0  0  0  0  0  0  0
  151.3835  140.7208  156.6858 N   0  0  0  0  0  0  0  0  0  0  0  0
  151.7721  140.0363  155.5943 C   0  0  0  0  0  0  0  0  0  0  0  0
  152.8598  139.4478  155.5808 O   0  0  0  0  0  0  0  0  0  0  0  0
  150.8489  140.0940  154.5955 N   0  5  0  0  0  0  0  0  0  0  0  0
  149.6360  139.2784  154.5419 C   0  0  0  0  0  0  0  0  0  0  0  0
  148.6633  139.8141  153.4445 C   0  0  2  0  0  0  0  0  0  0  0  0
  147.9953  141.1307  153.9486 C   0  0  0  0  0  0  0  0  0  0  0  0
  147.6842  138.7413  153.0333 N   0  3  2  0  0  0  0  0  0  0  0  0
  146.8231  139.0892  151.8561 C   0  0  0  0  0  0  0  0  0  0  0  0
  146.1731  137.8267  151.2659 C   0  0  0  0  0  0  0  0  0  0  0  0
  145.3531  137.0725  152.3191 C   0  0  0  0  0  0  0  0  0  0  0  0
  146.2056  136.8102  153.5706 C   0  0  0  0  0  0  0  0  0  0  0  0
  146.8658  138.0966  154.1131 C   0  0  2  0  0  0  0  0  0  0  0  0
  145.8230  139.0448  154.7541 C   0  0  0  0  0  0  0  0  0  0  0  0
  153.1037  140.2016  158.3572 N   0  0  0  0  0  0  0  0  0  0  0  0
  153.4276  140.7670  159.5961 O   0  0  0  0  0  0  0  0  0  0  0  0
  152.0378  143.3406  161.2207 H   0  0  0  0  0  0  0  0  0  0  0  0
  153.7605  142.9597  161.1830 H   0  0  0  0  0  0  0  0  0  0  0  0
  152.6299  141.8593  161.9753 H   0  0  0  0  0  0  0  0  0  0  0  0
  150.8962  142.6651  158.7132 H   0  0  0  0  0  0  0  0  0  0  0  0
  150.4804  141.1666  156.6232 H   0  0  0  0  0  0  0  0  0  0  0  0
  149.8872  138.2392  154.3323 H   0  0  0  0  0  0  0  0  0  0  0  0
  149.1134  139.2551  155.4989 H   0  0  0  0  0  0  0  0  0  0  0  0
  149.2384  140.0656  152.5513 H   0  0  0  0  0  0  0  0  0  0  0  0
  148.7272  141.8890  154.2362 H   0  0  0  0  0  0  0  0  0  0  0  0
  147.3504  140.9640  154.8138 H   0  0  0  0  0  0  0  0  0  0  0  0
  147.3896  141.6143  153.1862 H   0  0  0  0  0  0  0  0  0  0  0  0
  146.0637  139.8160  152.1427 H   0  0  0  0  0  0  0  0  0  0  0  0
  147.3892  139.5689  151.0593 H   0  0  0  0  0  0  0  0  0  0  0  0
  145.5368  138.0940  150.4216 H   0  0  0  0  0  0  0  0  0  0  0  0
  146.9502  137.1709  150.8706 H   0  0  0  0  0  0  0  0  0  0  0  0
  144.4655  137.6490  152.5793 H   0  0  0  0  0  0  0  0  0  0  0  0
  144.9924  136.1292  151.9075 H   0  0  0  0  0  0  0  0  0  0  0  0
  145.5961  136.3422  154.3446 H   0  0  0  0  0  0  0  0  0  0  0  0
  146.9846  136.0878  153.3222 H   0  0  0  0  0  0  0  0  0  0  0  0
  147.5340  137.7550  154.9022 H   0  0  0  0  0  0  0  0  0  0  0  0
  145.3731  138.5784  155.6310 H   0  0  0  0  0  0  0  0  0  0  0  0
  145.0079  139.2923  154.0757 H   0  0  0  0  0  0  0  0  0  0  0  0
  146.2556  139.9894  155.0781 H   0  0  0  0  0  0  0  0  0  0  0  0
  148.2860  137.9984  152.7072 H   0  0  0  0  0  0  0  0  0  0  0  0
  1  2  1  0  0  0  0
  1 21  1  0  0  0  0
  1 22  1  0  0  0  0
  1 23  1  0  0  0  0
  2 20  1  0  0  0  0
  2  3  2  0  0  0  0
  3  4  1  0  0  0  0
  3 24  1  0  0  0  0
  4  5  1  0  0  0  0
  4 19  2  0  0  0  0
  5  6  1  0  0  0  0
  5 25  1  0  0  0  0
  6  7  2  0  0  0  0
  6  8  1  0  0  0  0
  8  9  1  0  0  0  0
  9 10  1  0  0  0  0
  9 26  1  0  0  0  0
  9 27  1  0  0  0  0
 10 11  1  0  0  0  0
 10 12  1  0  0  0  0
 10 28  1  0  0  0  0
 11 29  1  0  0  0  0
 11 30  1  0  0  0  0
 11 31  1  0  0  0  0
 12 17  1  0  0  0  0
 12 13  1  0  0  0  0
 12 44  1  0  0  0  0
 13 14  1  0  0  0  0
 13 32  1  0  0  0  0
 13 33  1  0  0  0  0
 14 15  1  0  0  0  0
 14 34  1  0  0  0  0
 14 35  1  0  0  0  0
 15 16  1  0  0  0  0
 15 36  1  0  0  0  0
 15 37  1  0  0  0  0
 16 17  1  0  0  0  0
 16 38  1  0  0  0  0
 16 39  1  0  0  0  0
 17 18  1  0  0  0  0
 17 40  1  0  0  0  0
 18 41  1  0  0  0  0
 18 42  1  0  0  0  0
 18 43  1  0  0  0  0
 19 20  1  0  0  0  0
M  CHG  1   8  -1
M  CHG  1  12   1
M  END
> <s_m_source_file>
AV-unprocessed.smi

> <i_m_source_file_index>
1978

> <i_lp_mmshare_version>
43012

> <i_f3d_flags>
0

> <s_epik_input>
W0NIM11jMVtjSF1jKG5vMSlbTkhdQyg9TylbTkhdW0NIMl1bQ0BIXShbQ0gzXSlOMltDSDJdW0NIMl1bQ0gyXVtDSDJdW0NASF0yW0NIM10=

> <s_epik_cmdline>
J2VwaWtfcHl0aG9uJywgJy1waCcsICc3LjAnLCAnLXRuJywgJzgnLCAnLW1hJywgJzIwMCcsICctbWV0YWxfYmluZGluZycsICctaW1hZScsICc8aW5maWxlLm1hZT4nLCAnLW9tYWUnLCAnPG91dGZpbGUubWFlPic=

> <r_epik_Ionization_Penalty>
6.7666

> <r_epik_Ionization_Penalty_Charging>
6.7666

> <r_epik_Ionization_Penalty_Neutral>
5.77131e-06

> <r_epik_State_Penalty>
6.79217

> <r_epik_Charging_Adjusted_Penalty>
13.5588

> <i_epik_Tot_Q>
0

> <i_epik_Tot_abs_Q>
2

> <r_epik_Metal_State_Penalty>
2.72569

> <b_epik_Metal_Only>
1

> <s_lp_Force_Field>
OPLS_2005

> <r_lp_Energy>
25.8045

> <b_lp_Chiralities_Consistent>
1

> <s_lp_Variant>
AV-unprocessed.smi:1978-23

> <Gold.Version>
5.8.1

> <Gold.Id.Protein>
6NUR|6NUR_protein|mol2

> <Gold.PLP.Fitness>
44.9349

> <Gold.PLP.PLP>
-33.7358

> <Gold.PLP.part.hbond>
-5.0000

> <Gold.PLP.part.metal>
0.0000

> <Gold.PLP.part.buried>
4.5563

> <Gold.PLP.part.nonpolar>
-33.1349

> <Gold.PLP.part.repulsive>
0.2441

> <Gold.PLP.ligand.clash>
0.0000

> <Gold.PLP.ligand.torsion>
1.0480

> <Gold.PLP.Chemscore.Hbond>
4.3920

> <Gold.PLP.Chemscore.CHOScore>
0.0000

> <Gold.PLP.Chemscore.Metal>
0.0000

> <Gold.Chemscore.Hbonds>
donor molecule, donor type, donor heavy atom, donor atom, acceptor molecule, acceptor atom, score
      L1  H    12    44       P1  7948  1.92
      P1  H  7989  7998       L1     8  1.00
      P1  H  7997  8008       L1     7  0.77
      P1  H  7997  8010       L1    19  0.24

> <Gold.PLP.Chemscore.Internal.Correction>
0.1191

> <Gold.Rescore>
     Score         DG    S(hbond)    S(metal)    S(lipo)     H(rot)  DE(clash)    DE(int)     intcor
     16.15     -19.66       2.54        0.00      81.88       1.52       2.12       1.40       ----

> <Gold.Chemscore.Fitness>
16.1462

> <Gold.Chemscore.DG>
-19.6637

> <Gold.Chemscore.ZeroCoef>
-5.4800

> <Gold.Chemscore.Hbond>
2.5427

> <Gold.Chemscore.Metal>
0.0000

> <Gold.Chemscore.Lipo>
81.8780

> <Gold.Chemscore.Internal_Hbond>
0.0000

> <Gold.Chemscore.DEClash>
2.1171

> <Gold.Chemscore.DEInternal>
1.4004

> <Gold.Chemscore.Rot>
1.5190

> <Gold.Chemscore.Internal.Correction>
   9.000000E+99

> <Gold.Chemscore.Hbonds>
donor molecule, donor type, donor heavy atom, donor atom, acceptor molecule, acceptor atom, score
      L1  H    12    44       P1  7948  0.90
      P1  H  7989  7998       L1     8  0.33
      P1  H  7997  8008       L1     7  0.77
      P1  H  7997  8010       L1    19  0.11

> <Gold.Chemscore.Hbond.Weighted>
-8.4927

> <Gold.Chemscore.Metal.Weighted>
-0.0000

> <Gold.Chemscore.Lipo.Weighted>
-9.5797

> <Gold.Chemscore.Internal_Hbond.Weighted>
0.0000

> <Gold.Chemscore.DEClash.Weighted>
2.1171

> <Gold.Chemscore.DEInternal.Weighted>
1.4004

> <Gold.Chemscore.Rot.Weighted>
3.8886

> <Gold.Chemscore.Internal.Correction.Weighted>
   9.000000E+99

> <Gold.Protein.RotatedTorsions>
[ 6907 6896 6895 6894 ] final -109.26 input  -60.11 | X-H torsion
[ 7974 7965 7964 7962 ] final   53.48 input  175.53 | X-H torsion
[ 8008 7997 7996 7995 ] final    0.50 input   59.86 | X-H torsion
[ 10167 10162 10161 10158 ] final    4.71 input  -65.29 | X-H torsion
[ 10718 10713 10712 10709 ] final   60.27 input   66.30 | X-H torsion
[ 10763 10752 10751 10750 ] final  -97.24 input  -60.55 | X-H torsion
[ 11005 11000 10999 10996 ] final  -51.55 input  -57.11 | X-H torsion

> <Gold.Protein.ActiveResidues>
 VAL166  LYS551  ARG553  GLY616  TRP617  ASP618  TYR619  PRO620  LYS621  CYS622 
 ASP623  PHE694  ASN695  SER759  ASP760  ASP761  ALA762  ILE779  LEU786  VAL792 
 PHE793  MET794  SER795  GLU796  ALA797  LYS798  CYS799  TRP800  GLU811  SER814 

> <Gold.Protein.RotatedAtoms>
  150.7551  133.9556  159.3499 H   0  0  0  0  0  0  0  0  0  0  0  0  # atno 6907 bound_to 6896
  151.7477  135.0838  160.0335 H   0  0  0  0  0  0  0  0  0  0  0  0  # atno 6908 bound_to 6896
  152.3487  133.6116  159.5965 H   0  0  0  0  0  0  0  0  0  0  0  0  # atno 6909 bound_to 6896
  145.9707  139.4146  143.0192 H   0  0  0  0  0  0  0  0  0  0  0  0  # atno 7974 bound_to 7965
  154.6688  140.2607  155.7029 H   0  0  0  0  0  0  0  0  0  0  0  0  # atno 8008 bound_to 7997
  156.2650  140.2833  156.1111 H   0  0  0  0  0  0  0  0  0  0  0  0  # atno 8009 bound_to 7997
  155.1199  140.0377  157.2737 H   0  0  0  0  0  0  0  0  0  0  0  0  # atno 8010 bound_to 7997
  140.6521  143.7520  150.7591 H   0  0  0  0  0  0  0  0  0  0  0  0  # atno 10167 bound_to 10162
  157.5740  130.8929  149.9315 H   0  0  0  0  0  0  0  0  0  0  0  0  # atno 10718 bound_to 10713
  154.7310  135.5054  153.8964 H   0  0  0  0  0  0  0  0  0  0  0  0  # atno 10763 bound_to 10752
  153.0950  135.6670  153.9789 H   0  0  0  0  0  0  0  0  0  0  0  0  # atno 10764 bound_to 10752
  153.9590  135.3050  155.3414 H   0  0  0  0  0  0  0  0  0  0  0  0  # atno 10765 bound_to 10752
  141.0877  133.6639  156.3894 H   0  0  0  0  0  0  0  0  0  0  0  0  # atno 11005 bound_to 11000
  145.7910  140.9814  143.1049 LP  0  0  0  0  0  0  0  0  0  0  0  0  # atno 17320 bound_to 7965
  144.6836  139.9682  143.7481 LP  0  0  0  0  0  0  0  0  0  0  0  0  # atno 17321 bound_to 7965
  140.1172  143.4645  152.2335 LP  0  0  0  0  0  0  0  0  0  0  0  0  # atno 17342 bound_to 10162
  139.5737  144.7476  151.3822 LP  0  0  0  0  0  0  0  0  0  0  0  0  # atno 17343 bound_to 10162
  156.0785  130.3676  150.0628 LP  0  0  0  0  0  0  0  0  0  0  0  0  # atno 17370 bound_to 10713
  156.8777  130.9546  151.3603 LP  0  0  0  0  0  0  0  0  0  0  0  0  # atno 17371 bound_to 10713
  140.5324  134.6199  157.5354 LP  0  0  0  0  0  0  0  0  0  0  0  0  # atno 17394 bound_to 11000
  139.9698  134.7312  156.0065 LP  0  0  0  0  0  0  0  0  0  0  0  0  # atno 17395 bound_to 11000

$$$$
