AV-unprocessed.smi:928|AV-procd|sdf|4194|dock3
  -GOLD-   22720 2103D 1   1.00000     0.00000
 Structure written by MMmdl.
 43 44  0  0  0  0  0  0  0  0  1 V2000
  152.2420  143.1133  158.3262 C   0  0  0  0  0  0  0  0  0  0  0  0
  150.9865  142.2464  158.4694 C   0  0  0  0  0  0  0  0  0  0  0  0
  150.7129  141.4031  157.2681 C   0  0  0  0  0  0  0  0  0  0  0  0
  150.5758  141.8192  155.9667 C   0  0  0  0  0  0  0  0  0  0  0  0
  150.3279  140.7826  155.0644 N   0  0  0  0  0  0  0  0  0  0  0  0
  150.2698  139.5901  155.6611 C   0  0  0  0  0  0  0  0  0  0  0  0
  150.0626  138.3091  154.9189 C   0  0  0  0  0  0  0  0  0  0  0  0
  148.7558  137.5774  155.2802 C   0  0  0  0  0  0  0  0  0  0  0  0
  148.3839  136.5743  154.2859 N   0  0  0  0  0  0  0  0  0  0  0  0
  147.2724  135.8256  154.3147 C   0  0  0  0  0  0  0  0  0  0  0  0
  146.4251  135.8776  155.2058 O   0  0  0  0  0  0  0  0  0  0  0  0
  147.1917  135.0225  153.2455 N   0  0  0  0  0  0  0  0  0  0  0  0
  146.0909  134.1082  152.9490 C   0  0  1  0  0  0  0  0  0  0  0  0
  144.8472  134.9723  152.6508 C   0  0  0  0  0  0  0  0  0  0  0  0
  143.6621  134.1433  152.1380 C   0  0  0  0  0  0  0  0  0  0  0  0
  144.0595  133.3397  150.8940 C   0  0  0  0  0  0  0  0  0  0  0  0
  145.2475  132.4219  151.2068 C   0  0  0  0  0  0  0  0  0  0  0  0
  146.4597  133.2088  151.7422 C   0  0  2  0  0  0  0  0  0  0  0  0
  147.4272  132.2555  152.1347 O   0  0  0  0  0  0  0  0  0  0  0  0
  150.5274  139.6733  157.4013 S   0  0  0  0  0  0  0  0  0  0  0  0
  152.4074  143.7087  159.2243 H   0  0  0  0  0  0  0  0  0  0  0  0
  152.1542  143.8001  157.4838 H   0  0  0  0  0  0  0  0  0  0  0  0
  153.1279  142.4982  158.1663 H   0  0  0  0  0  0  0  0  0  0  0  0
  151.0903  141.6067  159.3465 H   0  0  0  0  0  0  0  0  0  0  0  0
  150.1257  142.8864  158.6642 H   0  0  0  0  0  0  0  0  0  0  0  0
  150.6424  142.8308  155.5943 H   0  0  0  0  0  0  0  0  0  0  0  0
  150.0820  138.5237  153.8500 H   0  0  0  0  0  0  0  0  0  0  0  0
  150.9130  137.6551  155.1143 H   0  0  0  0  0  0  0  0  0  0  0  0
  148.8788  137.0688  156.2364 H   0  0  0  0  0  0  0  0  0  0  0  0
  147.9498  138.2993  155.4226 H   0  0  0  0  0  0  0  0  0  0  0  0
  149.0153  136.4529  153.5077 H   0  0  0  0  0  0  0  0  0  0  0  0
  147.9414  135.0582  152.5704 H   0  0  0  0  0  0  0  0  0  0  0  0
  145.8632  133.4807  153.8135 H   0  0  0  0  0  0  0  0  0  0  0  0
  144.5513  135.5184  153.5477 H   0  0  0  0  0  0  0  0  0  0  0  0
  145.0946  135.7266  151.9019 H   0  0  0  0  0  0  0  0  0  0  0  0
  143.3188  133.4667  152.9219 H   0  0  0  0  0  0  0  0  0  0  0  0
  142.8235  134.7999  151.9050 H   0  0  0  0  0  0  0  0  0  0  0  0
  143.2128  132.7467  150.5469 H   0  0  0  0  0  0  0  0  0  0  0  0
  144.3194  134.0182  150.0805 H   0  0  0  0  0  0  0  0  0  0  0  0
  144.9354  131.6798  151.9435 H   0  0  0  0  0  0  0  0  0  0  0  0
  145.5289  131.8660  150.3116 H   0  0  0  0  0  0  0  0  0  0  0  0
  146.8734  133.8189  150.9378 H   0  0  0  0  0  0  0  0  0  0  0  0
  147.9439  132.0240  151.3777 H   0  0  0  0  0  0  0  0  0  0  0  0
  1  2  1  0  0  0  0
  1 21  1  0  0  0  0
  1 22  1  0  0  0  0
  1 23  1  0  0  0  0
  2  3  1  0  0  0  0
  2 24  1  0  0  0  0
  2 25  1  0  0  0  0
  3 20  1  0  0  0  0
  3  4  2  0  0  0  0
  4  5  1  0  0  0  0
  4 26  1  0  0  0  0
  5  6  2  0  0  0  0
  6  7  1  0  0  0  0
  6 20  1  0  0  0  0
  7  8  1  0  0  0  0
  7 27  1  0  0  0  0
  7 28  1  0  0  0  0
  8  9  1  0  0  0  0
  8 29  1  0  0  0  0
  8 30  1  0  0  0  0
  9 10  1  0  0  0  0
  9 31  1  0  0  0  0
 10 11  2  0  0  0  0
 10 12  1  0  0  0  0
 12 13  1  0  0  0  0
 12 32  1  0  0  0  0
 13 18  1  0  0  0  0
 13 14  1  0  0  0  0
 13 33  1  0  0  0  0
 14 15  1  0  0  0  0
 14 34  1  0  0  0  0
 14 35  1  0  0  0  0
 15 16  1  0  0  0  0
 15 36  1  0  0  0  0
 15 37  1  0  0  0  0
 16 17  1  0  0  0  0
 16 38  1  0  0  0  0
 16 39  1  0  0  0  0
 17 18  1  0  0  0  0
 17 40  1  0  0  0  0
 17 41  1  0  0  0  0
 18 19  1  0  0  0  0
 18 42  1  0  0  0  0
 19 43  1  0  0  0  0
M  END
> <s_m_source_file>
AV-unprocessed.smi

> <i_m_source_file_index>
928

> <i_lp_mmshare_version>
43012

> <i_f3d_flags>
0

> <s_epik_input>
W0NIM11bQ0gyXWMxW2NIXW5jKHMxKVtDSDJdW0NIMl1bTkhdQyg9TylbTkhdW0NAQEhdMltDSDJdW0NIMl1bQ0gyXVtDSDJdW0NASF0yW09IXQ==

> <s_epik_cmdline>
J2VwaWtfcHl0aG9uJywgJy1waCcsICc3LjAnLCAnLXRuJywgJzgnLCAnLW1hJywgJzIwMCcsICctbWV0YWxfYmluZGluZycsICctaW1hZScsICc8aW5maWxlLm1hZT4nLCAnLW9tYWUnLCAnPG91dGZpbGUubWFlPic=

> <r_epik_Ionization_Penalty>
0.000957396

> <r_epik_Ionization_Penalty_Charging>
0

> <r_epik_Ionization_Penalty_Neutral>
0.000957396

> <r_epik_State_Penalty>
0.000586538

> <r_epik_Charging_Adjusted_Penalty>
0.000586538

> <i_epik_Tot_Q>
0

> <i_epik_Tot_abs_Q>
0

> <r_epik_Metal_State_Penalty>
-0

> <b_epik_Metal_Only>
0

> <s_lp_Force_Field>
OPLS_2005

> <r_lp_Energy>
-1.18646

> <b_lp_Chiralities_Consistent>
1

> <s_lp_Variant>
AV-unprocessed.smi:928-4

> <Gold.Version>
5.8.1

> <Gold.Id.Protein>
6NUR|6NUR_protein|mol2

> <Gold.PLP.Fitness>
42.6751

> <Gold.PLP.PLP>
-29.7218

> <Gold.PLP.part.hbond>
-3.8938

> <Gold.PLP.part.metal>
0.0000

> <Gold.PLP.part.buried>
-4.5737

> <Gold.PLP.part.nonpolar>
-21.3765

> <Gold.PLP.part.repulsive>
0.1322

> <Gold.PLP.ligand.clash>
0.0000

> <Gold.PLP.ligand.torsion>
0.1809

> <Gold.PLP.Chemscore.Hbond>
3.4320

> <Gold.PLP.Chemscore.CHOScore>
0.9970

> <Gold.PLP.Chemscore.Metal>
0.0000

> <Gold.Chemscore.Hbonds>
donor molecule, donor type, donor heavy atom, donor atom, acceptor molecule, acceptor atom, score
      L1  H     9    31       P1  7948  0.82
      L1  H    12    32       P1  7948  0.80
      L1  H    19    43       P1 10747  1.00
      P1  H  7989  7998       L1     5  0.82
      L1  C     4    26       P1  8028  0.89

> <Gold.PLP.Chemscore.Internal.Correction>
0.0283

> <Gold.Rescore>
     Score         DG    S(hbond)    S(metal)    S(lipo)     H(rot)  DE(clash)    DE(int)     intcor
     20.01     -20.30       3.37        0.00      78.71       2.21       0.14       0.15       ----

> <Gold.Chemscore.Fitness>
20.0135

> <Gold.Chemscore.DG>
-20.3041

> <Gold.Chemscore.ZeroCoef>
-5.4800

> <Gold.Chemscore.Hbond>
3.3738

> <Gold.Chemscore.Metal>
0.0000

> <Gold.Chemscore.Lipo>
78.7096

> <Gold.Chemscore.Internal_Hbond>
0.0000

> <Gold.Chemscore.DEClash>
0.1400

> <Gold.Chemscore.DEInternal>
0.1505

> <Gold.Chemscore.Rot>
2.2084

> <Gold.Chemscore.Internal.Correction>
   9.000000E+99

> <Gold.Chemscore.Hbonds>
donor molecule, donor type, donor heavy atom, donor atom, acceptor molecule, acceptor atom, score
      L1  H     9    31       P1  7948  0.81
      L1  H    12    32       P1  7948  0.75
      L1  H    19    43       P1 10747  0.98
      P1  H  7989  7998       L1     5  0.52

> <Gold.Chemscore.Hbond.Weighted>
-11.2686

> <Gold.Chemscore.Metal.Weighted>
-0.0000

> <Gold.Chemscore.Lipo.Weighted>
-9.2090

> <Gold.Chemscore.Internal_Hbond.Weighted>
0.0000

> <Gold.Chemscore.DEClash.Weighted>
0.1400

> <Gold.Chemscore.DEInternal.Weighted>
0.1505

> <Gold.Chemscore.Rot.Weighted>
5.6535

> <Gold.Chemscore.Internal.Correction.Weighted>
   9.000000E+99

> <Gold.Protein.RotatedTorsions>
[ 6907 6896 6895 6894 ] final   98.83 input  -60.11 | X-H torsion
[ 7974 7965 7964 7962 ] final   16.97 input  175.53 | X-H torsion
[ 8008 7997 7996 7995 ] final  -33.47 input   59.86 | X-H torsion
[ 10167 10162 10161 10158 ] final    3.32 input  -65.29 | X-H torsion
[ 10718 10713 10712 10709 ] final  117.42 input   66.30 | X-H torsion
[ 10763 10752 10751 10750 ] final  -97.00 input  -60.55 | X-H torsion
[ 11005 11000 10999 10996 ] final -139.45 input  -57.11 | X-H torsion

> <Gold.Protein.ActiveResidues>
 VAL166  LYS551  ARG553  GLY616  TRP617  ASP618  TYR619  PRO620  LYS621  CYS622 
 ASP623  PHE694  ASN695  SER759  ASP760  ASP761  ALA762  ILE779  LEU786  VAL792 
 PHE793  MET794  SER795  GLU796  ALA797  LYS798  CYS799  TRP800  GLU811  SER814 

> <Gold.Protein.RotatedAtoms>
  152.5403  134.0522  159.8114 H   0  0  0  0  0  0  0  0  0  0  0  0  # atno 6907 bound_to 6896
  151.0662  133.5496  159.2638 H   0  0  0  0  0  0  0  0  0  0  0  0  # atno 6908 bound_to 6896
  151.2376  135.0585  159.9066 H   0  0  0  0  0  0  0  0  0  0  0  0  # atno 6909 bound_to 6896
  146.2233  139.8671  142.8594 H   0  0  0  0  0  0  0  0  0  0  0  0  # atno 7974 bound_to 7965
  154.4148  140.1710  156.1892 H   0  0  0  0  0  0  0  0  0  0  0  0  # atno 8008 bound_to 7997
  155.9617  140.3393  155.6473 H   0  0  0  0  0  0  0  0  0  0  0  0  # atno 8009 bound_to 7997
  155.6740  140.0715  157.2500 H   0  0  0  0  0  0  0  0  0  0  0  0  # atno 8010 bound_to 7997
  140.6591  143.7349  150.7707 H   0  0  0  0  0  0  0  0  0  0  0  0  # atno 10167 bound_to 10162
  157.6097  131.1037  150.7612 H   0  0  0  0  0  0  0  0  0  0  0  0  # atno 10718 bound_to 10713
  154.7289  135.5063  153.8931 H   0  0  0  0  0  0  0  0  0  0  0  0  # atno 10763 bound_to 10752
  153.0931  135.6665  153.9824 H   0  0  0  0  0  0  0  0  0  0  0  0  # atno 10764 bound_to 10752
  153.9630  135.3046  155.3411 H   0  0  0  0  0  0  0  0  0  0  0  0  # atno 10765 bound_to 10752
  140.8518  134.2276  157.4756 H   0  0  0  0  0  0  0  0  0  0  0  0  # atno 11005 bound_to 11000
  145.2646  141.0088  143.3807 LP  0  0  0  0  0  0  0  0  0  0  0  0  # atno 17320 bound_to 7965
  144.9271  139.4342  143.6513 LP  0  0  0  0  0  0  0  0  0  0  0  0  # atno 17321 bound_to 7965
  140.1015  143.4783  152.2422 LP  0  0  0  0  0  0  0  0  0  0  0  0  # atno 17342 bound_to 10162
  139.5821  144.7515  151.3614 LP  0  0  0  0  0  0  0  0  0  0  0  0  # atno 17343 bound_to 10162
  156.7993  130.4915  149.5372 LP  0  0  0  0  0  0  0  0  0  0  0  0  # atno 17370 bound_to 10713
  156.1196  130.6100  151.0173 LP  0  0  0  0  0  0  0  0  0  0  0  0  # atno 17371 bound_to 10713
  139.8704  134.9687  156.4640 LP  0  0  0  0  0  0  0  0  0  0  0  0  # atno 17394 bound_to 11000
  140.8782  133.7938  155.9437 LP  0  0  0  0  0  0  0  0  0  0  0  0  # atno 17395 bound_to 11000

$$$$
