AV-unprocessed.smi:443|AV-procd|sdf|2586|dock8
  -GOLD-   2262022573D 1   1.00000     0.00000
 Structure written by MMmdl.
 48 49  0  0  0  0  0  0  0  0  1 V2000
  147.5631  138.2122  155.5123 C   0  0  0  0  0  0  0  0  0  0  0  0
  148.4891  137.8778  156.6501 C   0  0  0  0  0  0  0  0  0  0  0  0
  149.7502  138.0772  156.4477 N   0  0  0  0  0  0  0  0  0  0  0  0
  150.6865  137.8026  157.4245 N   0  0  0  0  0  0  0  0  0  0  0  0
  152.0628  138.1419  157.0475 C   0  0  0  0  0  0  0  0  0  0  0  0
  152.1535  139.5789  156.4796 C   0  0  1  0  0  0  0  0  0  0  0  0
  151.7280  139.5725  155.1317 O   0  0  0  0  0  0  0  0  0  0  0  0
  151.2686  140.5776  157.2398 C   0  0  0  0  0  0  0  0  0  0  0  0
  151.9788  141.0369  158.3823 O   0  0  0  0  0  0  0  0  0  0  0  0
  152.0272  142.3927  158.6355 C   0  0  0  0  0  0  0  0  0  0  0  0
  151.6433  143.3701  157.6807 C   0  0  0  0  0  0  0  0  0  0  0  0
  151.7218  144.7419  157.9822 C   0  0  0  0  0  0  0  0  0  0  0  0
  152.1852  145.1593  159.2407 C   0  0  0  0  0  0  0  0  0  0  0  0
  152.5654  144.2020  160.1971 C   0  0  0  0  0  0  0  0  0  0  0  0
  152.4878  142.8203  159.9085 C   0  0  0  0  0  0  0  0  0  0  0  0
  152.8958  141.8126  160.9847 C   0  0  0  0  0  0  0  0  0  0  0  0
  153.2170  142.5111  162.3164 C   0  0  0  0  0  0  0  0  0  0  0  0
  154.0590  140.9237  160.5178 C   0  0  0  0  0  0  0  0  0  0  0  0
  150.3986  137.3051  158.6607 C   0  0  0  0  0  0  0  0  0  0  0  0
  151.2673  137.0805  159.5047 O   0  0  0  0  0  0  0  0  0  0  0  0
  148.9685  137.0807  158.8832 C   0  0  0  0  0  0  0  0  0  0  0  0
  148.6211  136.5594  160.1659 C   0  0  0  0  0  0  0  0  0  0  0  0
  148.3262  136.1540  161.2093 N   0  0  0  0  0  0  0  0  0  0  0  0
  148.0370  137.3561  157.9365 C   0  0  0  0  0  0  0  0  0  0  0  0
  146.5407  137.1459  158.1246 C   0  0  0  0  0  0  0  0  0  0  0  0
  146.8413  137.4128  155.3451 H   0  0  0  0  0  0  0  0  0  0  0  0
  148.1074  138.3554  154.5792 H   0  0  0  0  0  0  0  0  0  0  0  0
  147.0126  139.1296  155.7207 H   0  0  0  0  0  0  0  0  0  0  0  0
  152.7417  138.0018  157.8913 H   0  0  0  0  0  0  0  0  0  0  0  0
  152.4115  137.4220  156.3044 H   0  0  0  0  0  0  0  0  0  0  0  0
  153.1831  139.9399  156.4995 H   0  0  0  0  0  0  0  0  0  0  0  0
  151.1119  138.8657  155.0141 H   0  0  0  0  0  0  0  0  0  0  0  0
  151.0357  141.4218  156.5885 H   0  0  0  0  0  0  0  0  0  0  0  0
  150.3304  140.1044  157.5355 H   0  0  0  0  0  0  0  0  0  0  0  0
  151.2848  143.0948  156.7007 H   0  0  0  0  0  0  0  0  0  0  0  0
  151.4275  145.4745  157.2453 H   0  0  0  0  0  0  0  0  0  0  0  0
  152.2477  146.2121  159.4737 H   0  0  0  0  0  0  0  0  0  0  0  0
  152.9173  144.5374  161.1615 H   0  0  0  0  0  0  0  0  0  0  0  0
  152.0609  141.1426  161.1849 H   0  0  0  0  0  0  0  0  0  0  0  0
  152.3599  143.0834  162.6726 H   0  0  0  0  0  0  0  0  0  0  0  0
  154.0595  143.1965  162.2229 H   0  0  0  0  0  0  0  0  0  0  0  0
  153.4730  141.7872  163.0898 H   0  0  0  0  0  0  0  0  0  0  0  0
  153.8013  140.3928  159.6010 H   0  0  0  0  0  0  0  0  0  0  0  0
  154.3058  140.1758  161.2718 H   0  0  0  0  0  0  0  0  0  0  0  0
  154.9606  141.5053  160.3240 H   0  0  0  0  0  0  0  0  0  0  0  0
  146.2831  136.9452  159.1640 H   0  0  0  0  0  0  0  0  0  0  0  0
  146.1999  136.2996  157.5274 H   0  0  0  0  0  0  0  0  0  0  0  0
  145.9805  138.0306  157.8206 H   0  0  0  0  0  0  0  0  0  0  0  0
  1  2  1  0  0  0  0
  1 26  1  0  0  0  0
  1 27  1  0  0  0  0
  1 28  1  0  0  0  0
  2 24  1  0  0  0  0
  2  3  2  0  0  0  0
  3  4  1  0  0  0  0
  4  5  1  0  0  0  0
  4 19  1  0  0  0  0
  5  6  1  0  0  0  0
  5 29  1  0  0  0  0
  5 30  1  0  0  0  0
  6  7  1  0  0  0  0
  6  8  1  0  0  0  0
  6 31  1  0  0  0  0
  7 32  1  0  0  0  0
  8  9  1  0  0  0  0
  8 33  1  0  0  0  0
  8 34  1  0  0  0  0
  9 10  1  0  0  0  0
 10 15  1  0  0  0  0
 10 11  2  0  0  0  0
 11 12  1  0  0  0  0
 11 35  1  0  0  0  0
 12 13  2  0  0  0  0
 12 36  1  0  0  0  0
 13 14  1  0  0  0  0
 13 37  1  0  0  0  0
 14 15  2  0  0  0  0
 14 38  1  0  0  0  0
 15 16  1  0  0  0  0
 16 17  1  0  0  0  0
 16 18  1  0  0  0  0
 16 39  1  0  0  0  0
 17 40  1  0  0  0  0
 17 41  1  0  0  0  0
 17 42  1  0  0  0  0
 18 43  1  0  0  0  0
 18 44  1  0  0  0  0
 18 45  1  0  0  0  0
 19 20  2  0  0  0  0
 19 21  1  0  0  0  0
 21 22  1  0  0  0  0
 21 24  2  0  0  0  0
 22 23  3  0  0  0  0
 24 25  1  0  0  0  0
 25 46  1  0  0  0  0
 25 47  1  0  0  0  0
 25 48  1  0  0  0  0
M  END
> <s_m_source_file>
AV-unprocessed.smi

> <i_m_source_file_index>
443

> <i_lp_mmshare_version>
43012

> <i_f3d_flags>
0

> <s_epik_input>
TiNDYyhjMVtDSDNdKWMoPU8pbihuYzFbQ0gzXSlbQ0gyXVtDQEhdKFtPSF0pW0NIMl1PYzJbY0hdW2NIXVtjSF1bY0hdYzJbQ0hdKFtDSDNdKVtDSDNd

> <s_epik_cmdline>
J2VwaWtfcHl0aG9uJywgJy1waCcsICc3LjAnLCAnLXRuJywgJzgnLCAnLW1hJywgJzIwMCcsICctbWV0YWxfYmluZGluZycsICctaW1hZScsICc8aW5maWxlLm1hZT4nLCAnLW9tYWUnLCAnPG91dGZpbGUubWFlPic=

> <r_lp_tautomer_probability>
1

> <r_epik_Ionization_Penalty>
1.17331e-07

> <r_epik_Ionization_Penalty_Charging>
1.57223e-10

> <r_epik_Ionization_Penalty_Neutral>
1.17174e-07

> <r_epik_State_Penalty>
-0

> <r_epik_Charging_Adjusted_Penalty>
1.57223e-10

> <i_epik_Tot_Q>
0

> <i_epik_Tot_abs_Q>
0

> <r_epik_Metal_State_Penalty>
-0

> <b_epik_Metal_Only>
0

> <s_lp_Force_Field>
OPLS_2005

> <r_lp_Energy>
30.2937

> <b_lp_Chiralities_Consistent>
1

> <s_lp_Variant>
AV-unprocessed.smi:443-2

> <Gold.Version>
5.8.1

> <Gold.Id.Protein>
6NUR|6NUR_protein|mol2

> <Gold.PLP.Fitness>
51.0860

> <Gold.PLP.PLP>
-46.9255

> <Gold.PLP.part.hbond>
-2.1351

> <Gold.PLP.part.metal>
0.0000

> <Gold.PLP.part.buried>
-7.0391

> <Gold.PLP.part.nonpolar>
-36.9045

> <Gold.PLP.part.repulsive>
0.0000

> <Gold.PLP.ligand.clash>
0.0000

> <Gold.PLP.ligand.torsion>
1.0585

> <Gold.PLP.Chemscore.Hbond>
2.0725

> <Gold.PLP.Chemscore.CHOScore>
0.0000

> <Gold.PLP.Chemscore.Metal>
0.0000

> <Gold.Chemscore.Hbonds>
donor molecule, donor type, donor heavy atom, donor atom, acceptor molecule, acceptor atom, score
      P1  H  6896  6908       L1    20  1.00
      P1  H  6931  6943       L1    23  0.04
      P1  H  7989  7998       L1     7  0.88

> <Gold.PLP.Chemscore.Internal.Correction>
0.0600

> <Gold.Rescore>
     Score         DG    S(hbond)    S(metal)    S(lipo)     H(rot)  DE(clash)    DE(int)     intcor
     17.86     -20.11       1.93        0.00     122.71       2.41       0.04       2.21       ----

> <Gold.Chemscore.Fitness>
17.8586

> <Gold.Chemscore.DG>
-20.1080

> <Gold.Chemscore.ZeroCoef>
-5.4800

> <Gold.Chemscore.Hbond>
1.9271

> <Gold.Chemscore.Metal>
0.0000

> <Gold.Chemscore.Lipo>
122.7093

> <Gold.Chemscore.Internal_Hbond>
0.0000

> <Gold.Chemscore.DEClash>
0.0358

> <Gold.Chemscore.DEInternal>
2.2136

> <Gold.Chemscore.Rot>
2.4084

> <Gold.Chemscore.Internal.Correction>
   9.000000E+99

> <Gold.Chemscore.Hbonds>
donor molecule, donor type, donor heavy atom, donor atom, acceptor molecule, acceptor atom, score
      P1  H  6896  6908       L1    20  0.68
      P1  H  7989  7998       L1     7  0.62

> <Gold.Chemscore.Hbond.Weighted>
-6.4365

> <Gold.Chemscore.Metal.Weighted>
-0.0000

> <Gold.Chemscore.Lipo.Weighted>
-14.3570

> <Gold.Chemscore.Internal_Hbond.Weighted>
0.0000

> <Gold.Chemscore.DEClash.Weighted>
0.0358

> <Gold.Chemscore.DEInternal.Weighted>
2.2136

> <Gold.Chemscore.Rot.Weighted>
6.1655

> <Gold.Chemscore.Internal.Correction.Weighted>
   9.000000E+99

> <Gold.Protein.RotatedTorsions>
[ 6907 6896 6895 6894 ] final -137.99 input  -60.11 | X-H torsion
[ 7974 7965 7964 7962 ] final  179.37 input  175.53 | X-H torsion
[ 8008 7997 7996 7995 ] final  122.85 input   59.86 | X-H torsion
[ 10167 10162 10161 10158 ] final  156.97 input  -65.29 | X-H torsion
[ 10718 10713 10712 10709 ] final   62.25 input   66.30 | X-H torsion
[ 10763 10752 10751 10750 ] final   49.13 input  -60.55 | X-H torsion
[ 11005 11000 10999 10996 ] final  -26.38 input  -57.11 | X-H torsion

> <Gold.Protein.ActiveResidues>
 VAL166  LYS551  ARG553  GLY616  TRP617  ASP618  TYR619  PRO620  LYS621  CYS622 
 ASP623  PHE694  ASN695  SER759  ASP760  ASP761  ALA762  ILE779  LEU786  VAL792 
 PHE793  MET794  SER795  GLU796  ALA797  LYS798  CYS799  TRP800  GLU811  SER814 

> <Gold.Protein.RotatedAtoms>
  151.0294  133.5804  159.2662 H   0  0  0  0  0  0  0  0  0  0  0  0  # atno 6907 bound_to 6896
  151.2891  135.0736  159.9207 H   0  0  0  0  0  0  0  0  0  0  0  0  # atno 6908 bound_to 6896
  152.5341  133.9995  159.7942 H   0  0  0  0  0  0  0  0  0  0  0  0  # atno 6909 bound_to 6896
  144.7146  140.0538  143.6434 H   0  0  0  0  0  0  0  0  0  0  0  0  # atno 7974 bound_to 7965
  156.2743  140.2776  156.1533 H   0  0  0  0  0  0  0  0  0  0  0  0  # atno 8008 bound_to 7997
  155.0830  140.0388  157.2663 H   0  0  0  0  0  0  0  0  0  0  0  0  # atno 8009 bound_to 7997
  154.6949  140.2637  155.6782 H   0  0  0  0  0  0  0  0  0  0  0  0  # atno 8010 bound_to 7997
  139.4822  144.4960  151.8239 H   0  0  0  0  0  0  0  0  0  0  0  0  # atno 10167 bound_to 10162
  157.5887  130.9040  149.9564 H   0  0  0  0  0  0  0  0  0  0  0  0  # atno 10718 bound_to 10713
  152.9788  135.5921  154.4039 H   0  0  0  0  0  0  0  0  0  0  0  0  # atno 10763 bound_to 10752
  154.3682  135.2767  155.2283 H   0  0  0  0  0  0  0  0  0  0  0  0  # atno 10764 bound_to 10752
  154.4251  135.6050  153.6088 H   0  0  0  0  0  0  0  0  0  0  0  0  # atno 10765 bound_to 10752
  140.9024  133.7515  156.0561 H   0  0  0  0  0  0  0  0  0  0  0  0  # atno 11005 bound_to 11000
  145.9922  139.3024  143.0978 LP  0  0  0  0  0  0  0  0  0  0  0  0  # atno 17320 bound_to 7965
  145.8890  140.9315  143.0562 LP  0  0  0  0  0  0  0  0  0  0  0  0  # atno 17321 bound_to 7965
  140.4449  144.1936  150.5893 LP  0  0  0  0  0  0  0  0  0  0  0  0  # atno 17342 bound_to 10162
  140.4645  143.2436  151.9174 LP  0  0  0  0  0  0  0  0  0  0  0  0  # atno 17343 bound_to 10162
  156.0939  130.3661  150.0342 LP  0  0  0  0  0  0  0  0  0  0  0  0  # atno 17370 bound_to 10713
  156.8469  130.9445  151.3628 LP  0  0  0  0  0  0  0  0  0  0  0  0  # atno 17371 bound_to 10713
  140.8213  134.3286  157.5380 LP  0  0  0  0  0  0  0  0  0  0  0  0  # atno 17394 bound_to 11000
  139.8744  134.9311  156.3518 LP  0  0  0  0  0  0  0  0  0  0  0  0  # atno 17395 bound_to 11000

$$$$
