AV-unprocessed.smi:1809|AV-procd|sdf|7324|dock5
  -GOLD-   22720 8583D 1   1.00000     0.00000
 Structure written by MMmdl.
 39 41  0  0  0  0  0  0  0  0  3 V2000
  146.9231  134.0250  162.9740 C   0  0  0  0  0  0  0  0  0  0  0  0
  147.1642  135.0938  161.9637 C   0  0  0  0  0  0  0  0  0  0  0  0
  147.3611  136.3714  162.2973 N   0  0  0  0  0  0  0  0  0  0  0  0
  147.5564  137.1778  161.1853 N   0  0  0  0  0  0  0  0  0  0  0  0
  147.4958  136.5023  160.0288 C   0  0  0  0  0  0  0  0  0  0  0  0
  147.6583  137.0997  158.8366 N   0  5  0  0  0  0  0  0  0  0  0  0
  148.8349  136.9897  158.1806 C   0  0  0  0  0  0  0  0  0  0  0  0
  149.9229  136.6852  158.6755 O   0  0  0  0  0  0  0  0  0  0  0  0
  148.7488  137.2557  156.8698 N   0  0  0  0  0  0  0  0  0  0  0  0
  149.8584  137.2347  155.9228 C   0  0  0  0  0  0  0  0  0  0  0  0
  149.9226  138.5301  155.0952 C   0  0  1  0  0  0  0  0  0  0  0  0
  148.6049  138.8062  154.3553 C   0  0  0  0  0  0  0  0  0  0  0  0
  148.6732  140.0752  153.5876 N   0  3  1  0  0  0  0  0  0  0  0  0
  147.3443  140.5099  153.1032 C   0  0  0  0  0  0  0  0  0  0  0  0
  146.8327  141.5647  154.1019 C   0  0  0  0  0  0  0  0  0  0  0  0
  147.9700  141.7679  155.1094 C   0  0  0  0  0  0  0  0  0  0  0  0
  149.1938  141.2079  154.3845 C   0  0  1  0  0  0  0  0  0  0  0  0
  150.3943  140.8280  155.2760 C   0  0  0  0  0  0  0  0  0  0  0  0
  150.1491  139.6200  155.9805 O   0  0  0  0  0  0  0  0  0  0  0  0
  147.2085  134.7749  160.2378 S   0  0  0  0  0  0  0  0  0  0  0  0
  145.8933  134.0737  163.3281 H   0  0  0  0  0  0  0  0  0  0  0  0
  147.5944  134.1500  163.8238 H   0  0  0  0  0  0  0  0  0  0  0  0
  147.0965  133.0425  162.5349 H   0  0  0  0  0  0  0  0  0  0  0  0
  147.8393  137.4984  156.5049 H   0  0  0  0  0  0  0  0  0  0  0  0
  150.7938  137.0807  156.4632 H   0  0  0  0  0  0  0  0  0  0  0  0
  149.7353  136.3735  155.2656 H   0  0  0  0  0  0  0  0  0  0  0  0
  150.7364  138.4583  154.3713 H   0  0  0  0  0  0  0  0  0  0  0  0
  148.3785  137.9893  153.6690 H   0  0  0  0  0  0  0  0  0  0  0  0
  147.7862  138.8512  155.0756 H   0  0  0  0  0  0  0  0  0  0  0  0
  147.4712  140.9673  152.1213 H   0  0  0  0  0  0  0  0  0  0  0  0
  146.6497  139.6769  152.9832 H   0  0  0  0  0  0  0  0  0  0  0  0
  146.6067  142.4961  153.5814 H   0  0  0  0  0  0  0  0  0  0  0  0
  145.9204  141.2386  154.6024 H   0  0  0  0  0  0  0  0  0  0  0  0
  148.0941  142.8116  155.3998 H   0  0  0  0  0  0  0  0  0  0  0  0
  147.7703  141.1923  156.0144 H   0  0  0  0  0  0  0  0  0  0  0  0
  149.5274  141.9691  153.6769 H   0  0  0  0  0  0  0  0  0  0  0  0
  151.2945  140.7137  154.6696 H   0  0  0  0  0  0  0  0  0  0  0  0
  150.6022  141.6244  155.9910 H   0  0  0  0  0  0  0  0  0  0  0  0
  149.2878  139.9191  152.8012 H   0  0  0  0  0  0  0  0  0  0  0  0
  1  2  1  0  0  0  0
  1 21  1  0  0  0  0
  1 22  1  0  0  0  0
  1 23  1  0  0  0  0
  2 20  1  0  0  0  0
  2  3  2  0  0  0  0
  3  4  1  0  0  0  0
  4  5  2  0  0  0  0
  5  6  1  0  0  0  0
  5 20  1  0  0  0  0
  6  7  1  0  0  0  0
  7  8  2  0  0  0  0
  7  9  1  0  0  0  0
  9 10  1  0  0  0  0
  9 24  1  0  0  0  0
 10 11  1  0  0  0  0
 10 25  1  0  0  0  0
 10 26  1  0  0  0  0
 11 19  1  0  0  0  0
 11 12  1  0  0  0  0
 11 27  1  0  0  0  0
 12 13  1  0  0  0  0
 12 28  1  0  0  0  0
 12 29  1  0  0  0  0
 13 17  1  0  0  0  0
 13 14  1  0  0  0  0
 13 39  1  0  0  0  0
 14 15  1  0  0  0  0
 14 30  1  0  0  0  0
 14 31  1  0  0  0  0
 15 16  1  0  0  0  0
 15 32  1  0  0  0  0
 15 33  1  0  0  0  0
 16 17  1  0  0  0  0
 16 34  1  0  0  0  0
 16 35  1  0  0  0  0
 17 18  1  0  0  0  0
 17 36  1  0  0  0  0
 18 19  1  0  0  0  0
 18 37  1  0  0  0  0
 18 38  1  0  0  0  0
M  CHG  1   6  -1
M  CHG  1  13   1
M  END
> <s_m_source_file>
AV-unprocessed.smi

> <i_m_source_file_index>
1809

> <i_lp_mmshare_version>
43012

> <i_f3d_flags>
0

> <s_epik_input>
W0NIM11jMW5uYyhzMSlbTkhdQyg9TylbTkhdW0NIMl1bQ0BIXShbQ0gyXTIpT1tDSDJdW0NAQEhdKE4yMylbQ0gyXVtDSDJdW0NIMl0z

> <s_epik_cmdline>
J2VwaWtfcHl0aG9uJywgJy1waCcsICc3LjAnLCAnLXRuJywgJzgnLCAnLW1hJywgJzIwMCcsICctbWV0YWxfYmluZGluZycsICctaW1hZScsICc8aW5maWxlLm1hZT4nLCAnLW9tYWUnLCAnPG91dGZpbGUubWFlPic=

> <r_lp_tautomer_probability>
1

> <r_epik_Ionization_Penalty>
3.2601

> <r_epik_Ionization_Penalty_Charging>
3.1406

> <r_epik_Ionization_Penalty_Neutral>
0.119497

> <r_epik_State_Penalty>
3.08894

> <r_epik_Charging_Adjusted_Penalty>
6.22954

> <i_epik_Tot_Q>
0

> <i_epik_Tot_abs_Q>
2

> <r_epik_Metal_State_Penalty>
0.510807

> <b_epik_Metal_Only>
1

> <s_lp_Force_Field>
OPLS_2005

> <r_lp_Energy>
28.9947

> <b_lp_Chiralities_Consistent>
1

> <s_lp_Variant>
AV-unprocessed.smi:1809-16

> <Gold.Version>
5.8.1

> <Gold.Id.Protein>
6NUR|6NUR_protein|mol2

> <Gold.PLP.Fitness>
37.7023

> <Gold.PLP.PLP>
-29.3221

> <Gold.PLP.part.hbond>
-3.5487

> <Gold.PLP.part.metal>
0.0000

> <Gold.PLP.part.buried>
-0.6432

> <Gold.PLP.part.nonpolar>
-25.8954

> <Gold.PLP.part.repulsive>
0.1321

> <Gold.PLP.ligand.clash>
0.0000

> <Gold.PLP.ligand.torsion>
0.8433

> <Gold.PLP.Chemscore.Hbond>
3.3482

> <Gold.PLP.Chemscore.CHOScore>
0.0000

> <Gold.PLP.Chemscore.Metal>
0.0000

> <Gold.Chemscore.Hbonds>
donor molecule, donor type, donor heavy atom, donor atom, acceptor molecule, acceptor atom, score
      L1  H    13    39       P1  7957  1.00
      P1  H  6896  6909       L1     8  0.41
      P1  H  6931  6943       L1     4  0.82
      P1  H  6934  6947       L1     4  0.93

> <Gold.PLP.Chemscore.Internal.Correction>
0.0225

> <Gold.Rescore>
     Score         DG    S(hbond)    S(metal)    S(lipo)     H(rot)  DE(clash)    DE(int)     intcor
     18.20     -19.27       2.81        0.00      66.61       1.32       0.14       0.93       ----

> <Gold.Chemscore.Fitness>
18.1977

> <Gold.Chemscore.DG>
-19.2676

> <Gold.Chemscore.ZeroCoef>
-5.4800

> <Gold.Chemscore.Hbond>
2.8098

> <Gold.Chemscore.Metal>
0.0000

> <Gold.Chemscore.Lipo>
66.6148

> <Gold.Chemscore.Internal_Hbond>
0.0000

> <Gold.Chemscore.DEClash>
0.1361

> <Gold.Chemscore.DEInternal>
0.9338

> <Gold.Chemscore.Rot>
1.3246

> <Gold.Chemscore.Internal.Correction>
   9.000000E+99

> <Gold.Chemscore.Hbonds>
donor molecule, donor type, donor heavy atom, donor atom, acceptor molecule, acceptor atom, score
      L1  H    13    39       P1  7957  0.94
      P1  H  6896  6909       L1     8  0.39
      P1  H  6931  6943       L1     4  0.16
      P1  H  6934  6947       L1     4  0.73

> <Gold.Chemscore.Hbond.Weighted>
-9.3846

> <Gold.Chemscore.Metal.Weighted>
-0.0000

> <Gold.Chemscore.Lipo.Weighted>
-7.7939

> <Gold.Chemscore.Internal_Hbond.Weighted>
0.0000

> <Gold.Chemscore.DEClash.Weighted>
0.1361

> <Gold.Chemscore.DEInternal.Weighted>
0.9338

> <Gold.Chemscore.Rot.Weighted>
3.3910

> <Gold.Chemscore.Internal.Correction.Weighted>
   9.000000E+99

> <Gold.Protein.RotatedTorsions>
[ 6907 6896 6895 6894 ] final   78.32 input  -60.11 | X-H torsion
[ 7974 7965 7964 7962 ] final  -30.10 input  175.53 | X-H torsion
[ 8008 7997 7996 7995 ] final  -67.50 input   59.86 | X-H torsion
[ 10167 10162 10161 10158 ] final -159.77 input  -65.29 | X-H torsion
[ 10718 10713 10712 10709 ] final   47.80 input   66.30 | X-H torsion
[ 10763 10752 10751 10750 ] final   75.24 input  -60.55 | X-H torsion
[ 11005 11000 10999 10996 ] final  178.56 input  -57.11 | X-H torsion

> <Gold.Protein.ActiveResidues>
 VAL166  LYS551  ARG553  GLY616  TRP617  ASP618  TYR619  PRO620  LYS621  CYS622 
 ASP623  PHE694  ASN695  SER759  ASP760  ASP761  ALA762  ILE779  LEU786  VAL792 
 PHE793  MET794  SER795  GLU796  ALA797  LYS798  CYS799  TRP800  GLU811  SER814 

> <Gold.Protein.RotatedAtoms>
  152.5154  134.3683  159.9308 H   0  0  0  0  0  0  0  0  0  0  0  0  # atno 6907 bound_to 6896
  151.3636  133.3874  159.2700 H   0  0  0  0  0  0  0  0  0  0  0  0  # atno 6908 bound_to 6896
  150.9632  134.9036  159.7801 H   0  0  0  0  0  0  0  0  0  0  0  0  # atno 6909 bound_to 6896
  146.1168  140.5497  142.8753 H   0  0  0  0  0  0  0  0  0  0  0  0  # atno 7974 bound_to 7965
  154.4804  140.0891  156.7364 H   0  0  0  0  0  0  0  0  0  0  0  0  # atno 8008 bound_to 7997
  155.4485  140.3456  155.4280 H   0  0  0  0  0  0  0  0  0  0  0  0  # atno 8009 bound_to 7997
  156.1183  140.1467  156.9230 H   0  0  0  0  0  0  0  0  0  0  0  0  # atno 8010 bound_to 7997
  139.6590  143.9947  152.2213 H   0  0  0  0  0  0  0  0  0  0  0  0  # atno 10167 bound_to 10162
  157.4622  130.8203  149.7898 H   0  0  0  0  0  0  0  0  0  0  0  0  # atno 10718 bound_to 10713
  153.0641  135.4996  154.8161 H   0  0  0  0  0  0  0  0  0  0  0  0  # atno 10763 bound_to 10752
  154.6928  135.2987  154.9457 H   0  0  0  0  0  0  0  0  0  0  0  0  # atno 10764 bound_to 10752
  154.0207  135.6742  153.4825 H   0  0  0  0  0  0  0  0  0  0  0  0  # atno 10765 bound_to 10752
  140.3965  134.6816  157.4537 H   0  0  0  0  0  0  0  0  0  0  0  0  # atno 11005 bound_to 11000
  144.7560  140.5308  143.6768 LP  0  0  0  0  0  0  0  0  0  0  0  0  # atno 17320 bound_to 7965
  145.5550  139.1477  143.3373 LP  0  0  0  0  0  0  0  0  0  0  0  0  # atno 17321 bound_to 7965
  139.9681  144.6512  150.8015 LP  0  0  0  0  0  0  0  0  0  0  0  0  # atno 17342 bound_to 10162
  140.7572  143.3081  151.2913 LP  0  0  0  0  0  0  0  0  0  0  0  0  # atno 17343 bound_to 10162
  156.0034  130.3868  150.2521 LP  0  0  0  0  0  0  0  0  0  0  0  0  # atno 17370 bound_to 10713
  157.0700  131.0114  151.3193 LP  0  0  0  0  0  0  0  0  0  0  0  0  # atno 17371 bound_to 10713
  140.0368  134.6326  155.9033 LP  0  0  0  0  0  0  0  0  0  0  0  0  # atno 17394 bound_to 11000
  141.1872  133.6559  156.5272 LP  0  0  0  0  0  0  0  0  0  0  0  0  # atno 17395 bound_to 11000

$$$$
