AV-unprocessed.smi:1381|AV-procd|sdf|5609|dock4
  -GOLD-   22720 5213D 1   1.00000     0.00000
 Structure written by MMmdl.
 41 42  0  0  0  0  0  0  0  0  2 V2000
  146.0216  134.2958  162.1288 C   0  0  0  0  0  0  0  0  0  0  0  0
  147.0076  135.1455  161.4032 C   0  0  0  0  0  0  0  0  0  0  0  0
  147.9859  134.8600  160.4937 C   0  0  0  0  0  0  0  0  0  0  0  0
  148.5409  136.1360  160.2020 C   0  0  0  0  0  0  0  0  0  0  0  0
  149.5560  136.3825  159.3594 N   0  5  0  0  0  0  0  0  0  0  0  0
  149.4502  137.3626  158.4322 C   0  0  0  0  0  0  0  0  0  0  0  0
  148.8133  137.3072  157.3777 O   0  0  0  0  0  0  0  0  0  0  0  0
  150.1254  138.4767  158.7456 N   0  0  0  0  0  0  0  0  0  0  0  0
  150.1802  139.6855  157.9345 C   0  0  0  0  0  0  0  0  0  0  0  0
  151.6115  139.9151  157.4239 C   0  0  0  0  0  0  0  0  0  0  0  0
  152.3385  140.9979  158.0848 N   0  0  0  0  0  0  0  0  0  0  0  0
  152.5377  140.7502  159.5106 C   0  0  0  0  0  0  0  0  0  0  0  0
  153.2804  141.9111  160.2006 C   0  0  2  0  0  0  0  0  0  0  0  0
  153.4099  141.6985  161.7127 C   0  0  0  0  0  0  0  0  0  0  0  0
  152.5652  143.1238  159.9795 O   0  0  0  0  0  0  0  0  0  0  0  0
  152.3909  143.4306  158.5992 C   0  0  2  0  0  0  0  0  0  0  0  0
  151.6269  144.7546  158.4918 C   0  0  0  0  0  0  0  0  0  0  0  0
  151.6424  142.2686  157.9193 C   0  0  0  0  0  0  0  0  0  0  0  0
  147.9632  137.1072  160.8889 N   0  0  0  0  0  0  0  0  0  0  0  0
  146.9732  136.4815  161.6559 O   0  0  0  0  0  0  0  0  0  0  0  0
  146.4847  133.3676  162.4638 H   0  0  0  0  0  0  0  0  0  0  0  0
  145.1836  134.0412  161.4801 H   0  0  0  0  0  0  0  0  0  0  0  0
  145.6277  134.8116  163.0047 H   0  0  0  0  0  0  0  0  0  0  0  0
  148.2582  133.8945  160.0947 H   0  0  0  0  0  0  0  0  0  0  0  0
  150.6369  138.4830  159.6157 H   0  0  0  0  0  0  0  0  0  0  0  0
  149.4779  139.5771  157.1079 H   0  0  0  0  0  0  0  0  0  0  0  0
  149.8572  140.5425  158.5279 H   0  0  0  0  0  0  0  0  0  0  0  0
  152.1636  138.9850  157.5680 H   0  0  0  0  0  0  0  0  0  0  0  0
  151.5924  140.0881  156.3467 H   0  0  0  0  0  0  0  0  0  0  0  0
  151.5725  140.5963  159.9959 H   0  0  0  0  0  0  0  0  0  0  0  0
  153.1103  139.8350  159.6573 H   0  0  0  0  0  0  0  0  0  0  0  0
  154.2800  142.0081  159.7738 H   0  0  0  0  0  0  0  0  0  0  0  0
  153.9619  140.7848  161.9341 H   0  0  0  0  0  0  0  0  0  0  0  0
  152.4306  141.6215  162.1856 H   0  0  0  0  0  0  0  0  0  0  0  0
  153.9406  142.5288  162.1788 H   0  0  0  0  0  0  0  0  0  0  0  0
  153.3721  143.5542  158.1372 H   0  0  0  0  0  0  0  0  0  0  0  0
  151.4849  145.0424  157.4499 H   0  0  0  0  0  0  0  0  0  0  0  0
  152.1704  145.5590  158.9877 H   0  0  0  0  0  0  0  0  0  0  0  0
  150.6431  144.6816  158.9562 H   0  0  0  0  0  0  0  0  0  0  0  0
  151.5265  142.4884  156.8573 H   0  0  0  0  0  0  0  0  0  0  0  0
  150.6356  142.1937  158.3333 H   0  0  0  0  0  0  0  0  0  0  0  0
  1  2  1  0  0  0  0
  1 21  1  0  0  0  0
  1 22  1  0  0  0  0
  1 23  1  0  0  0  0
  2 20  1  0  0  0  0
  2  3  2  0  0  0  0
  3  4  1  0  0  0  0
  3 24  1  0  0  0  0
  4  5  1  0  0  0  0
  4 19  2  0  0  0  0
  5  6  1  0  0  0  0
  6  7  2  0  0  0  0
  6  8  1  0  0  0  0
  8  9  1  0  0  0  0
  8 25  1  0  0  0  0
  9 10  1  0  0  0  0
  9 26  1  0  0  0  0
  9 27  1  0  0  0  0
 10 11  1  0  0  0  0
 10 28  1  0  0  0  0
 10 29  1  0  0  0  0
 11 18  1  0  0  0  0
 11 12  1  0  0  0  0
 12 13  1  0  0  0  0
 12 30  1  0  0  0  0
 12 31  1  0  0  0  0
 13 14  1  0  0  0  0
 13 15  1  0  0  0  0
 13 32  1  0  0  0  0
 14 33  1  0  0  0  0
 14 34  1  0  0  0  0
 14 35  1  0  0  0  0
 15 16  1  0  0  0  0
 16 17  1  0  0  0  0
 16 18  1  0  0  0  0
 16 36  1  0  0  0  0
 17 37  1  0  0  0  0
 17 38  1  0  0  0  0
 17 39  1  0  0  0  0
 18 40  1  0  0  0  0
 18 41  1  0  0  0  0
 19 20  1  0  0  0  0
M  CHG  1   5  -1
M  END
> <s_m_source_file>
AV-unprocessed.smi

> <i_m_source_file_index>
1381

> <i_lp_mmshare_version>
43012

> <i_f3d_flags>
0

> <s_epik_input>
W0NIM11jMVtjSF1jKG5vMSlbTkhdQyg9TylbTkhdW0NIMl1bQ0gyXU4yW0NIMl1bQ0BASF0oW0NIM10pT1tDQEBIXShbQ0gzXSlbQ0gyXTI=

> <s_epik_cmdline>
J2VwaWtfcHl0aG9uJywgJy1waCcsICc3LjAnLCAnLXRuJywgJzgnLCAnLW1hJywgJzIwMCcsICctbWV0YWxfYmluZGluZycsICctaW1hZScsICc8aW5maWxlLm1hZT4nLCAnLW9tYWUnLCAnPG91dGZpbGUubWFlPic=

> <r_epik_Ionization_Penalty>
6.88366

> <r_epik_Ionization_Penalty_Charging>
6.57198

> <r_epik_Ionization_Penalty_Neutral>
0.311678

> <r_epik_State_Penalty>
6.77619

> <r_epik_Charging_Adjusted_Penalty>
13.3482

> <i_epik_Tot_Q>
-1

> <i_epik_Tot_abs_Q>
1

> <r_epik_Metal_State_Penalty>
2.70524

> <b_epik_Metal_Only>
1

> <s_lp_Force_Field>
OPLS_2005

> <r_lp_Energy>
13.5181

> <b_lp_Chiralities_Consistent>
1

> <s_lp_Variant>
AV-unprocessed.smi:1381-8

> <Gold.Version>
5.8.1

> <Gold.Id.Protein>
6NUR|6NUR_protein|mol2

> <Gold.PLP.Fitness>
46.9149

> <Gold.PLP.PLP>
-38.6925

> <Gold.PLP.part.hbond>
-2.9795

> <Gold.PLP.part.metal>
0.0000

> <Gold.PLP.part.buried>
-5.9935

> <Gold.PLP.part.nonpolar>
-29.9759

> <Gold.PLP.part.repulsive>
0.2152

> <Gold.PLP.ligand.clash>
0.0000

> <Gold.PLP.ligand.torsion>
1.4840

> <Gold.PLP.Chemscore.Hbond>
3.7120

> <Gold.PLP.Chemscore.CHOScore>
0.0000

> <Gold.PLP.Chemscore.Metal>
0.0000

> <Gold.Chemscore.Hbonds>
donor molecule, donor type, donor heavy atom, donor atom, acceptor molecule, acceptor atom, score
      P1  H  6896  6909       L1     5  2.00
      P1  H  6931  6943       L1    19  0.93
      P1  H  6934  6947       L1    19  0.64

> <Gold.PLP.Chemscore.Internal.Correction>
0.0543

> <Gold.Rescore>
     Score         DG    S(hbond)    S(metal)    S(lipo)     H(rot)  DE(clash)    DE(int)     intcor
     17.83     -19.38       2.07        0.00      93.44       1.54       0.05       1.50       ----

> <Gold.Chemscore.Fitness>
17.8336

> <Gold.Chemscore.DG>
-19.3768

> <Gold.Chemscore.ZeroCoef>
-5.4800

> <Gold.Chemscore.Hbond>
2.0684

> <Gold.Chemscore.Metal>
0.0000

> <Gold.Chemscore.Lipo>
93.4434

> <Gold.Chemscore.Internal_Hbond>
0.0000

> <Gold.Chemscore.DEClash>
0.0460

> <Gold.Chemscore.DEInternal>
1.4971

> <Gold.Chemscore.Rot>
1.5409

> <Gold.Chemscore.Internal.Correction>
   9.000000E+99

> <Gold.Chemscore.Hbonds>
donor molecule, donor type, donor heavy atom, donor atom, acceptor molecule, acceptor atom, score
      P1  H  6896  6909       L1     5  0.43
      P1  H  6931  6943       L1    19  0.75
      P1  H  6934  6947       L1    19  0.12

> <Gold.Chemscore.Hbond.Weighted>
-6.9085

> <Gold.Chemscore.Metal.Weighted>
-0.0000

> <Gold.Chemscore.Lipo.Weighted>
-10.9329

> <Gold.Chemscore.Internal_Hbond.Weighted>
0.0000

> <Gold.Chemscore.DEClash.Weighted>
0.0460

> <Gold.Chemscore.DEInternal.Weighted>
1.4971

> <Gold.Chemscore.Rot.Weighted>
3.9446

> <Gold.Chemscore.Internal.Correction.Weighted>
   9.000000E+99

> <Gold.Protein.RotatedTorsions>
[ 6907 6896 6895 6894 ] final   72.52 input  -60.11 | X-H torsion
[ 7974 7965 7964 7962 ] final  149.93 input  175.53 | X-H torsion
[ 8008 7997 7996 7995 ] final   21.59 input   59.86 | X-H torsion
[ 10167 10162 10161 10158 ] final  105.28 input  -65.29 | X-H torsion
[ 10718 10713 10712 10709 ] final -136.21 input   66.30 | X-H torsion
[ 10763 10752 10751 10750 ] final -149.04 input  -60.55 | X-H torsion
[ 11005 11000 10999 10996 ] final -156.48 input  -57.11 | X-H torsion

> <Gold.Protein.ActiveResidues>
 VAL166  LYS551  ARG553  GLY616  TRP617  ASP618  TYR619  PRO620  LYS621  CYS622 
 ASP623  PHE694  ASN695  SER759  ASP760  ASP761  ALA762  ILE779  LEU786  VAL792 
 PHE793  MET794  SER795  GLU796  ALA797  LYS798  CYS799  TRP800  GLU811  SER814 

> <Gold.Protein.RotatedAtoms>
  152.4872  134.4560  159.9589 H   0  0  0  0  0  0  0  0  0  0  0  0  # atno 6907 bound_to 6896
  151.4554  133.3600  159.2809 H   0  0  0  0  0  0  0  0  0  0  0  0  # atno 6908 bound_to 6896
  150.8993  134.8428  159.7409 H   0  0  0  0  0  0  0  0  0  0  0  0  # atno 6909 bound_to 6896
  144.8401  139.6343  143.6020 H   0  0  0  0  0  0  0  0  0  0  0  0  # atno 7974 bound_to 7965
  154.9529  140.3068  155.5066 H   0  0  0  0  0  0  0  0  0  0  0  0  # atno 8008 bound_to 7997
  156.2985  140.2315  156.4546 H   0  0  0  0  0  0  0  0  0  0  0  0  # atno 8009 bound_to 7997
  154.8037  140.0432  157.1280 H   0  0  0  0  0  0  0  0  0  0  0  0  # atno 8010 bound_to 7997
  139.7106  144.7078  151.1034 H   0  0  0  0  0  0  0  0  0  0  0  0  # atno 10167 bound_to 10162
  156.2745  130.7285  151.1263 H   0  0  0  0  0  0  0  0  0  0  0  0  # atno 10718 bound_to 10713
  154.8199  135.3319  154.7067 H   0  0  0  0  0  0  0  0  0  0  0  0  # atno 10763 bound_to 10752
  153.7702  135.6926  153.4912 H   0  0  0  0  0  0  0  0  0  0  0  0  # atno 10764 bound_to 10752
  153.2050  135.4502  155.0261 H   0  0  0  0  0  0  0  0  0  0  0  0  # atno 10765 bound_to 10752
  140.6751  134.4205  157.5230 H   0  0  0  0  0  0  0  0  0  0  0  0  # atno 11005 bound_to 11000
  146.2695  139.6600  142.9306 LP  0  0  0  0  0  0  0  0  0  0  0  0  # atno 17320 bound_to 7965
  145.4711  141.0436  143.2698 LP  0  0  0  0  0  0  0  0  0  0  0  0  # atno 17321 bound_to 7965
  140.7732  143.5298  150.9436 LP  0  0  0  0  0  0  0  0  0  0  0  0  # atno 17342 bound_to 10162
  139.8983  143.6867  152.3135 LP  0  0  0  0  0  0  0  0  0  0  0  0  # atno 17343 bound_to 10162
  157.7295  131.0624  150.5772 LP  0  0  0  0  0  0  0  0  0  0  0  0  # atno 17370 bound_to 10713
  156.5871  130.4319  149.5952 LP  0  0  0  0  0  0  0  0  0  0  0  0  # atno 17371 bound_to 10713
  139.8969  134.8649  156.2067 LP  0  0  0  0  0  0  0  0  0  0  0  0  # atno 17394 bound_to 11000
  141.0361  133.6962  156.1516 LP  0  0  0  0  0  0  0  0  0  0  0  0  # atno 17395 bound_to 11000

$$$$
