#       Name:                AV-unprocessed.smi:1946
#       Creating user name   scv26
#       Creation time:       Fri Mar 27 10:01:16 2020


#       File generated by GOLD software.
#

@<TRIPOS>MOLECULE
AV-unprocessed.smi:1946
    41    43     1
SMALL
NO_CHARGES


@<TRIPOS>ATOM
      1 ****        -6.0554   0.8234  -0.6295 C.3            1 S1                 0.0000
      2 ****        -5.5900   0.2908   1.0677 S.o2           1 S1                 0.0000
      3 ****        -6.0450   1.3242   2.0108 O.2            1 S1                 0.0000
      4 ****        -6.0307  -1.1016   1.2460 O.2            1 S1                 0.0000
      5 ****        -3.8012   0.3085   1.0410 C.ar           1 S1                 0.0000
      6 ****        -3.0996  -0.8330   0.6059 C.ar           1 S1                 0.0000
      7 ****        -1.6922  -0.8096   0.5591 C.ar           1 S1                 0.0000
      8 ****        -0.9846   0.3532   0.9386 C.ar           1 S1                 0.0000
      9 ****         0.5353   0.3812   0.8879 C.3            1 S1                 0.0000
     10 ****         1.1075  -0.7628   1.4927 O.3            1 S1                 0.0000
     11 ****         1.0467   0.5231  -0.5596 C.3            1 S1                 0.0000
     12 ****         2.4949   0.6053  -0.6356 N.pl3          1 S1                 0.0000
     13 ****         3.2545   1.7032  -0.4584 C.2            1 S1                 0.0000
     14 ****         4.5717   1.5585  -0.5719 N.2            1 S1                 0.0000
     15 ****         4.6805   0.2077  -0.8554 C.ar           1 S1                 0.0000
     16 ****         5.8228  -0.5905  -1.0905 C.ar           1 S1                 0.0000
     17 ****         5.6881  -1.9680  -1.3627 C.ar           1 S1                 0.0000
     18 ****         4.4125  -2.5677  -1.4032 C.ar           1 S1                 0.0000
     19 ****         3.2598  -1.7925  -1.1727 C.ar           1 S1                 0.0000
     20 ****         3.3982  -0.4181  -0.9026 C.ar           1 S1                 0.0000
     21 ****        -1.6990   1.4982   1.3543 C.ar           1 S1                 0.0000
     22 ****        -3.1067   1.4801   1.4020 C.ar           1 S1                 0.0000
     23 ****        -7.1414   0.8443  -0.7171 H              1 S1                 0.0000
     24 ****        -5.6466   0.1222  -1.3568 H              1 S1                 0.0000
     25 ****        -5.6570   1.8194  -0.8211 H              1 S1                 0.0000
     26 ****        -3.6325  -1.7243   0.3088 H              1 S1                 0.0000
     27 ****        -1.1563  -1.6873   0.2282 H              1 S1                 0.0000
     28 ****         0.8806   1.2405   1.4643 H              1 S1                 0.0000
     29 ****         0.8664  -0.7710   2.4064 H              1 S1                 0.0000
     30 ****         0.7139  -0.3181  -1.1691 H              1 S1                 0.0000
     31 ****         0.6313   1.4217  -1.0175 H              1 S1                 0.0000
     32 ****         2.8154   2.6639  -0.2321 H              1 S1                 0.0000
     33 ****         6.8049  -0.1423  -1.0604 H              1 S1                 0.0000
     34 ****         6.5686  -2.5680  -1.5401 H              1 S1                 0.0000
     35 ****         4.3193  -3.6238  -1.6101 H              1 S1                 0.0000
     36 ****         2.2814  -2.2486  -1.1994 H              1 S1                 0.0000
     37 ****        -1.1701   2.3967   1.6369 H              1 S1                 0.0000
     38 ****        -3.6450   2.3622   1.7161 H              1 S1                 0.0000
     39 ****         2.1032  -0.7275   1.4068 LP             1 S1                 0.0000
     40 ****         0.7635  -1.5885   1.0456 LP             1 S1                 0.0000
     41 ****         5.2932   2.2444  -0.4774 LP             1 S1                 0.0000
@<TRIPOS>BOND
    1    1    2 1     
    2    1   23 1     
    3    1   24 1     
    4    1   25 1     
    5    2    3 2     
    6    2    4 2     
    7    2    5 1     
    8    5   22 ar    
    9    5    6 ar    
   10    6    7 ar    
   11    6   26 1     
   12    7    8 ar    
   13    7   27 1     
   14    8    9 1     
   15    8   21 ar    
   16    9   10 1     
   17    9   11 1     
   18    9   28 1     
   19   10   29 1     
   20   11   12 1     
   21   11   30 1     
   22   11   31 1     
   23   12   20 1     
   24   12   13 1     
   25   13   14 2     
   26   13   32 1     
   27   14   15 1     
   28   15   20 ar    
   29   15   16 ar    
   30   16   17 ar    
   31   16   33 1     
   32   17   18 ar    
   33   17   34 1     
   34   18   19 ar    
   35   18   35 1     
   36   19   20 ar    
   37   19   36 1     
   38   21   22 ar    
   39   21   37 1     
   40   22   38 1     
   41   10   39 1     
   42   10   40 1     
   43   14   41 1     
@<TRIPOS>SUBSTRUCTURE
      1 S1             1
@<TRIPOS>SET
LONE_PAIRS      STATIC     ATOMS    <user>   **** ""
5 3 4 39 40 41
DONOR_HYDROGENS      STATIC     ATOMS    <user>   **** ""
1 29
ATOM$BLUE        STATIC     ATOMS    COLORGROUP SYSTEM
5 3 4 39 40 41
ATOM$RED        STATIC     ATOMS    COLORGROUP SYSTEM
1 29
