AV-unprocessed.smi:2124|AV-procd|sdf|8657|dock7
  -GOLD-   2272011403D 1   1.00000     0.00000
 Structure written by MMmdl.
 47 49  0  0  0  0  0  0  0  0  1 V2000
  146.6436  139.2772  152.8648 C   0  0  0  0  0  0  0  0  0  0  0  0
  147.5802  139.0230  154.0273 C   0  0  0  0  0  0  0  0  0  0  0  0
  147.2030  138.5399  155.1653 N   0  0  0  0  0  0  0  0  0  0  0  0
  148.1637  138.3508  156.1686 C   0  0  0  0  0  0  0  0  0  0  0  0
  147.6422  137.7851  157.4786 C   0  0  0  0  0  0  0  0  0  0  0  0
  149.4781  138.6623  155.9692 C   0  0  0  0  0  0  0  0  0  0  0  0
  150.5448  138.4740  157.0469 C   0  0  0  0  0  0  0  0  0  0  0  0
  150.5832  139.5527  158.1322 C   0  0  0  0  0  0  0  0  0  0  0  0
  149.6010  139.7422  158.8498 O   0  0  0  0  0  0  0  0  0  0  0  0
  151.7291  140.2436  158.2426 N   0  0  0  0  0  0  0  0  0  0  0  0
  152.0174  141.2862  159.2269 C   0  0  1  0  0  0  0  0  0  0  0  0
  153.2409  140.8553  160.0504 C   0  0  0  0  0  0  0  0  0  0  0  0
  152.2334  142.6423  158.5113 C   0  0  1  0  0  0  0  0  0  0  0  0
  150.9856  143.2121  157.7968 C   0  0  0  0  0  0  0  0  0  0  0  0
  150.9293  144.6660  158.3001 C   0  0  1  0  0  0  0  0  0  0  0  0
  150.4441  144.6716  159.7612 C   0  0  0  0  0  0  0  0  0  0  0  0
  151.6645  144.1249  160.5236 C   0  0  0  0  0  0  0  0  0  0  0  0
  152.6745  143.8378  159.3932 C   0  0  2  0  0  0  0  0  0  0  0  0
  152.4057  145.0107  158.4555 C   0  0  0  0  0  0  0  0  0  0  0  0
  149.8977  139.2117  154.6653 C   0  0  0  0  0  0  0  0  0  0  0  0
  151.0510  139.5294  154.3795 O   0  0  0  0  0  0  0  0  0  0  0  0
  148.9058  139.3600  153.7590 N   0  0  0  0  0  0  0  0  0  0  0  0
  149.1418  139.7338  152.8515 H   0  0  0  0  0  0  0  0  0  0  0  0
  145.8826  140.0043  153.1484 H   0  0  0  0  0  0  0  0  0  0  0  0
  146.1440  138.3523  152.5761 H   0  0  0  0  0  0  0  0  0  0  0  0
  147.1765  139.6628  151.9947 H   0  0  0  0  0  0  0  0  0  0  0  0
  148.1082  136.8234  157.6938 H   0  0  0  0  0  0  0  0  0  0  0  0
  146.5628  137.6320  157.4422 H   0  0  0  0  0  0  0  0  0  0  0  0
  147.8535  138.4665  158.3029 H   0  0  0  0  0  0  0  0  0  0  0  0
  150.3895  137.5019  157.5166 H   0  0  0  0  0  0  0  0  0  0  0  0
  151.5372  138.4095  156.6000 H   0  0  0  0  0  0  0  0  0  0  0  0
  152.4741  140.0162  157.6001 H   0  0  0  0  0  0  0  0  0  0  0  0
  151.1748  141.3727  159.9131 H   0  0  0  0  0  0  0  0  0  0  0  0
  153.4542  141.5670  160.8479 H   0  0  0  0  0  0  0  0  0  0  0  0
  154.1322  140.7761  159.4272 H   0  0  0  0  0  0  0  0  0  0  0  0
  153.0749  139.8849  160.5198 H   0  0  0  0  0  0  0  0  0  0  0  0
  153.0103  142.4946  157.7583 H   0  0  0  0  0  0  0  0  0  0  0  0
  151.1155  143.1751  156.7146 H   0  0  0  0  0  0  0  0  0  0  0  0
  150.0685  142.6730  158.0366 H   0  0  0  0  0  0  0  0  0  0  0  0
  150.3630  145.3328  157.6493 H   0  0  0  0  0  0  0  0  0  0  0  0
  150.2067  145.6836  160.0917 H   0  0  0  0  0  0  0  0  0  0  0  0
  149.5551  144.0561  159.9037 H   0  0  0  0  0  0  0  0  0  0  0  0
  152.0583  144.8869  161.1977 H   0  0  0  0  0  0  0  0  0  0  0  0
  151.4286  143.2516  161.1300 H   0  0  0  0  0  0  0  0  0  0  0  0
  153.7067  143.7686  159.7382 H   0  0  0  0  0  0  0  0  0  0  0  0
  152.9633  144.9571  157.5187 H   0  0  0  0  0  0  0  0  0  0  0  0
  152.5764  145.9847  158.9177 H   0  0  0  0  0  0  0  0  0  0  0  0
  1  2  1  0  0  0  0
  1 24  1  0  0  0  0
  1 25  1  0  0  0  0
  1 26  1  0  0  0  0
  2 22  1  0  0  0  0
  2  3  2  0  0  0  0
  3  4  1  0  0  0  0
  4  5  1  0  0  0  0
  4  6  2  0  0  0  0
  5 27  1  0  0  0  0
  5 28  1  0  0  0  0
  5 29  1  0  0  0  0
  6  7  1  0  0  0  0
  6 20  1  0  0  0  0
  7  8  1  0  0  0  0
  7 30  1  0  0  0  0
  7 31  1  0  0  0  0
  8  9  2  0  0  0  0
  8 10  1  0  0  0  0
 10 11  1  0  0  0  0
 10 32  1  0  0  0  0
 11 12  1  0  0  0  0
 11 13  1  0  0  0  0
 11 33  1  0  0  0  0
 12 34  1  0  0  0  0
 12 35  1  0  0  0  0
 12 36  1  0  0  0  0
 13 18  1  0  0  0  0
 13 14  1  0  0  0  0
 13 37  1  0  0  0  0
 14 15  1  0  0  0  0
 14 38  1  0  0  0  0
 14 39  1  0  0  0  0
 15 19  1  0  0  0  0
 15 16  1  0  0  0  0
 15 40  1  0  0  0  0
 16 17  1  0  0  0  0
 16 41  1  0  0  0  0
 16 42  1  0  0  0  0
 17 18  1  0  0  0  0
 17 43  1  0  0  0  0
 17 44  1  0  0  0  0
 18 19  1  0  0  0  0
 18 45  1  0  0  0  0
 19 46  1  0  0  0  0
 19 47  1  0  0  0  0
 20 21  2  0  0  0  0
 20 22  1  0  0  0  0
 22 23  1  0  0  0  0
M  END
> <s_m_source_file>
AV-unprocessed.smi

> <i_m_source_file_index>
2124

> <i_lp_mmshare_version>
43012

> <i_f3d_flags>
0

> <s_epik_input>
W0NIM11jMW5jKFtDSDNdKWMoYyg9TylbbkhdMSlbQ0gyXUMoPU8pW05IXVtDQEhdKFtDSDNdKVtDQEhdKFtDSDJdW0NASF0yMylbQ0BIXShbQ0gyXTMpW0NIMl1bQ0gyXTI=

> <s_epik_cmdline>
J2VwaWtfcHl0aG9uJywgJy1waCcsICc3LjAnLCAnLXRuJywgJzgnLCAnLW1hJywgJzIwMCcsICctbWV0YWxfYmluZGluZycsICctaW1hZScsICc8aW5maWxlLm1hZT4nLCAnLW9tYWUnLCAnPG91dGZpbGUubWFlPic=

> <r_lp_tautomer_probability>
0.839158

> <r_epik_Ionization_Penalty>
0.000383628

> <r_epik_Ionization_Penalty_Charging>
0.00035045

> <r_epik_Ionization_Penalty_Neutral>
3.31781e-05

> <r_epik_State_Penalty>
0.09125

> <r_epik_Charging_Adjusted_Penalty>
0.0916005

> <i_epik_Tot_Q>
0

> <i_epik_Tot_abs_Q>
0

> <r_epik_Metal_State_Penalty>
0.255229

> <b_epik_Metal_Only>
0

> <s_lp_Force_Field>
OPLS_2005

> <r_lp_Energy>
52.5586

> <b_lp_Chiralities_Consistent>
1

> <s_lp_Variant>
AV-unprocessed.smi:2124-8

> <Gold.Version>
5.8.1

> <Gold.Id.Protein>
6NUR|6NUR_protein|mol2

> <Gold.PLP.Fitness>
44.2186

> <Gold.PLP.PLP>
-38.8024

> <Gold.PLP.part.hbond>
-3.2694

> <Gold.PLP.part.metal>
0.0000

> <Gold.PLP.part.buried>
-3.4765

> <Gold.PLP.part.nonpolar>
-32.1910

> <Gold.PLP.part.repulsive>
0.3613

> <Gold.PLP.ligand.clash>
0.0000

> <Gold.PLP.ligand.torsion>
0.3010

> <Gold.PLP.Chemscore.Hbond>
2.0000

> <Gold.PLP.Chemscore.CHOScore>
0.0000

> <Gold.PLP.Chemscore.Metal>
0.0000

> <Gold.Chemscore.Hbonds>
donor molecule, donor type, donor heavy atom, donor atom, acceptor molecule, acceptor atom, score
      L1  H    22    23       P1  7957  1.00
      P1  H  7989  7998       L1    21  1.00

> <Gold.PLP.Chemscore.Internal.Correction>
0.0182

> <Gold.Rescore>
     Score         DG    S(hbond)    S(metal)    S(lipo)     H(rot)  DE(clash)    DE(int)     intcor
     20.50     -21.20       2.00        0.00     113.49       1.65       0.37       0.33       ----

> <Gold.Chemscore.Fitness>
20.5010

> <Gold.Chemscore.DG>
-21.1996

> <Gold.Chemscore.ZeroCoef>
-5.4800

> <Gold.Chemscore.Hbond>
1.9983

> <Gold.Chemscore.Metal>
0.0000

> <Gold.Chemscore.Lipo>
113.4856

> <Gold.Chemscore.Internal_Hbond>
0.0000

> <Gold.Chemscore.DEClash>
0.3669

> <Gold.Chemscore.DEInternal>
0.3317

> <Gold.Chemscore.Rot>
1.6534

> <Gold.Chemscore.Internal.Correction>
   9.000000E+99

> <Gold.Chemscore.Hbonds>
donor molecule, donor type, donor heavy atom, donor atom, acceptor molecule, acceptor atom, score
      L1  H    22    23       P1  7957  1.00
      P1  H  7989  7998       L1    21  1.00

> <Gold.Chemscore.Hbond.Weighted>
-6.6744

> <Gold.Chemscore.Metal.Weighted>
-0.0000

> <Gold.Chemscore.Lipo.Weighted>
-13.2778

> <Gold.Chemscore.Internal_Hbond.Weighted>
0.0000

> <Gold.Chemscore.DEClash.Weighted>
0.3669

> <Gold.Chemscore.DEInternal.Weighted>
0.3317

> <Gold.Chemscore.Rot.Weighted>
4.2326

> <Gold.Chemscore.Internal.Correction.Weighted>
   9.000000E+99

> <Gold.Protein.RotatedTorsions>
[ 6907 6896 6895 6894 ] final -123.08 input  -60.11 | X-H torsion
[ 7974 7965 7964 7962 ] final   93.45 input  175.53 | X-H torsion
[ 8008 7997 7996 7995 ] final -166.98 input   59.86 | X-H torsion
[ 10167 10162 10161 10158 ] final -111.57 input  -65.29 | X-H torsion
[ 10718 10713 10712 10709 ] final  -97.00 input   66.30 | X-H torsion
[ 10763 10752 10751 10750 ] final -127.67 input  -60.55 | X-H torsion
[ 11005 11000 10999 10996 ] final  -49.17 input  -57.11 | X-H torsion

> <Gold.Protein.ActiveResidues>
 VAL166  LYS551  ARG553  GLY616  TRP617  ASP618  TYR619  PRO620  LYS621  CYS622 
 ASP623  PHE694  ASN695  SER759  ASP760  ASP761  ALA762  ILE779  LEU786  VAL792 
 PHE793  MET794  SER795  GLU796  ALA797  LYS798  CYS799  TRP800  GLU811  SER814 

> <Gold.Protein.RotatedAtoms>
  150.8637  133.7606  159.2983 H   0  0  0  0  0  0  0  0  0  0  0  0  # atno 6907 bound_to 6896
  151.5240  135.1066  159.9895 H   0  0  0  0  0  0  0  0  0  0  0  0  # atno 6908 bound_to 6896
  152.4645  133.7849  159.6926 H   0  0  0  0  0  0  0  0  0  0  0  0  # atno 6909 bound_to 6896
  145.4787  139.2279  143.2894 H   0  0  0  0  0  0  0  0  0  0  0  0  # atno 7974 bound_to 7965
  155.8714  140.0994  157.1548 H   0  0  0  0  0  0  0  0  0  0  0  0  # atno 8008 bound_to 7997
  154.3997  140.1346  156.4145 H   0  0  0  0  0  0  0  0  0  0  0  0  # atno 8009 bound_to 7997
  155.7746  140.3460  155.5267 H   0  0  0  0  0  0  0  0  0  0  0  0  # atno 8010 bound_to 7997
  140.1322  143.4351  152.1620 H   0  0  0  0  0  0  0  0  0  0  0  0  # atno 10167 bound_to 10162
  156.0074  130.5175  150.6309 H   0  0  0  0  0  0  0  0  0  0  0  0  # atno 10718 bound_to 10713
  154.8753  135.3954  154.3632 H   0  0  0  0  0  0  0  0  0  0  0  0  # atno 10763 bound_to 10752
  153.4402  135.7026  153.6179 H   0  0  0  0  0  0  0  0  0  0  0  0  # atno 10764 bound_to 10752
  153.4763  135.3779  155.2387 H   0  0  0  0  0  0  0  0  0  0  0  0  # atno 10765 bound_to 10752
  141.0744  133.6670  156.3547 H   0  0  0  0  0  0  0  0  0  0  0  0  # atno 11005 bound_to 11000
  146.2354  140.5572  142.8957 LP  0  0  0  0  0  0  0  0  0  0  0  0  # atno 17320 bound_to 7965
  144.7901  140.6016  143.6547 LP  0  0  0  0  0  0  0  0  0  0  0  0  # atno 17321 bound_to 7965
  139.5514  144.7340  151.4424 LP  0  0  0  0  0  0  0  0  0  0  0  0  # atno 17342 bound_to 10162
  140.6810  143.8081  150.7122 LP  0  0  0  0  0  0  0  0  0  0  0  0  # atno 17343 bound_to 10162
  157.4107  131.0823  151.1223 LP  0  0  0  0  0  0  0  0  0  0  0  0  # atno 17370 bound_to 10713
  157.1855  130.6328  149.5686 LP  0  0  0  0  0  0  0  0  0  0  0  0  # atno 17371 bound_to 10713
  140.5605  134.5939  157.5432 LP  0  0  0  0  0  0  0  0  0  0  0  0  # atno 17394 bound_to 11000
  139.9556  134.7540  156.0349 LP  0  0  0  0  0  0  0  0  0  0  0  0  # atno 17395 bound_to 11000

$$$$
