AV-unprocessed.smi:1586|AV-procd|sdf|6374|dock7
  -GOLD-   22720 7 03D 1   1.00000     0.00000
 Structure written by MMmdl.
 47 48  0  0  0  0  0  0  0  0  2 V2000
  145.6124  131.6889  151.6938 C   0  0  0  0  0  0  0  0  0  0  0  0
  144.4830  132.6760  151.3663 C   0  0  0  0  0  0  0  0  0  0  0  0
  143.9835  133.3902  152.5675 N   0  3  0  0  0  0  0  0  0  0  0  0
  142.8190  134.2564  152.2639 C   0  0  0  0  0  0  0  0  0  0  0  0
  142.2991  134.9338  153.5492 C   0  0  0  0  0  0  0  0  0  0  0  0
  143.3328  135.7593  154.1887 N   0  0  0  0  0  0  0  0  0  0  0  0
  143.7203  136.9778  153.4438 C   0  0  1  0  0  0  0  0  0  0  0  0
  142.4812  137.7561  152.9494 C   0  0  0  0  0  0  0  0  0  0  0  0
  144.6177  137.9156  154.2878 C   0  0  0  0  0  0  0  0  0  0  0  0
  146.0224  137.8073  153.9092 N   0  0  0  0  0  0  0  0  0  0  0  0
  147.0103  138.5432  154.4337 C   0  0  0  0  0  0  0  0  0  0  0  0
  146.8278  139.4052  155.2933 O   0  0  0  0  0  0  0  0  0  0  0  0
  148.1968  138.2152  153.8957 N   0  0  0  0  0  0  0  0  0  0  0  0
  149.4792  138.7381  154.2021 C   0  0  0  0  0  0  0  0  0  0  0  0
  150.6942  137.9979  154.2879 C   0  0  0  0  0  0  0  0  0  0  0  0
  151.6160  138.9581  154.5968 C   0  0  0  0  0  0  0  0  0  0  0  0
  153.0862  138.9134  154.8361 C   0  0  0  0  0  0  0  0  0  0  0  0
  151.0189  140.1768  154.6879 O   0  0  0  0  0  0  0  0  0  0  0  0
  149.6511  140.0268  154.4316 N   0  0  0  0  0  0  0  0  0  0  0  0
  144.4405  134.8552  154.5287 C   0  0  0  0  0  0  0  0  0  0  0  0
  145.0311  134.1646  153.2803 C   0  0  0  0  0  0  0  0  0  0  0  0
  145.8876  131.1163  150.8079 H   0  0  0  0  0  0  0  0  0  0  0  0
  145.3054  130.9784  152.4621 H   0  0  0  0  0  0  0  0  0  0  0  0
  146.5118  132.1961  152.0417 H   0  0  0  0  0  0  0  0  0  0  0  0
  144.8060  133.3931  150.6099 H   0  0  0  0  0  0  0  0  0  0  0  0
  143.6625  132.1091  150.9238 H   0  0  0  0  0  0  0  0  0  0  0  0
  143.0841  134.9948  151.5061 H   0  0  0  0  0  0  0  0  0  0  0  0
  142.0212  133.6470  151.8380 H   0  0  0  0  0  0  0  0  0  0  0  0
  141.4019  135.5147  153.3420 H   0  0  0  0  0  0  0  0  0  0  0  0
  141.9811  134.1663  154.2563 H   0  0  0  0  0  0  0  0  0  0  0  0
  144.2940  136.6945  152.5625 H   0  0  0  0  0  0  0  0  0  0  0  0
  142.7691  138.7205  152.5301 H   0  0  0  0  0  0  0  0  0  0  0  0
  141.7756  137.9493  153.7584 H   0  0  0  0  0  0  0  0  0  0  0  0
  141.9533  137.2266  152.1569 H   0  0  0  0  0  0  0  0  0  0  0  0
  144.2959  138.9544  154.2160 H   0  0  0  0  0  0  0  0  0  0  0  0
  144.5139  137.6563  155.3429 H   0  0  0  0  0  0  0  0  0  0  0  0
  146.2531  137.1229  153.2038 H   0  0  0  0  0  0  0  0  0  0  0  0
  148.1831  137.5031  153.1805 H   0  0  0  0  0  0  0  0  0  0  0  0
  150.8773  136.9435  154.1481 H   0  0  0  0  0  0  0  0  0  0  0  0
  153.4308  137.8862  154.9564 H   0  0  0  0  0  0  0  0  0  0  0  0
  153.3492  139.4655  155.7386 H   0  0  0  0  0  0  0  0  0  0  0  0
  153.6265  139.3552  153.9988 H   0  0  0  0  0  0  0  0  0  0  0  0
  145.2194  135.3758  155.0830 H   0  0  0  0  0  0  0  0  0  0  0  0
  144.0665  134.0942  155.2153 H   0  0  0  0  0  0  0  0  0  0  0  0
  145.8283  133.4951  153.6005 H   0  0  0  0  0  0  0  0  0  0  0  0
  145.4893  134.8909  152.6082 H   0  0  0  0  0  0  0  0  0  0  0  0
  143.6495  132.6858  153.2097 H   0  0  0  0  0  0  0  0  0  0  0  0
  1  2  1  0  0  0  0
  1 22  1  0  0  0  0
  1 23  1  0  0  0  0
  1 24  1  0  0  0  0
  2  3  1  0  0  0  0
  2 25  1  0  0  0  0
  2 26  1  0  0  0  0
  3 21  1  0  0  0  0
  3  4  1  0  0  0  0
  3 47  1  0  0  0  0
  4  5  1  0  0  0  0
  4 27  1  0  0  0  0
  4 28  1  0  0  0  0
  5  6  1  0  0  0  0
  5 29  1  0  0  0  0
  5 30  1  0  0  0  0
  6  7  1  0  0  0  0
  6 20  1  0  0  0  0
  7  8  1  0  0  0  0
  7  9  1  0  0  0  0
  7 31  1  0  0  0  0
  8 32  1  0  0  0  0
  8 33  1  0  0  0  0
  8 34  1  0  0  0  0
  9 10  1  0  0  0  0
  9 35  1  0  0  0  0
  9 36  1  0  0  0  0
 10 11  1  0  0  0  0
 10 37  1  0  0  0  0
 11 12  2  0  0  0  0
 11 13  1  0  0  0  0
 13 14  1  0  0  0  0
 13 38  1  0  0  0  0
 14 19  2  0  0  0  0
 14 15  1  0  0  0  0
 15 16  2  0  0  0  0
 15 39  1  0  0  0  0
 16 17  1  0  0  0  0
 16 18  1  0  0  0  0
 17 40  1  0  0  0  0
 17 41  1  0  0  0  0
 17 42  1  0  0  0  0
 18 19  1  0  0  0  0
 20 21  1  0  0  0  0
 20 43  1  0  0  0  0
 20 44  1  0  0  0  0
 21 45  1  0  0  0  0
 21 46  1  0  0  0  0
M  CHG  1   3   1
M  END
> <s_m_source_file>
AV-unprocessed.smi

> <i_m_source_file_index>
1586

> <i_lp_mmshare_version>
43012

> <i_f3d_flags>
0

> <s_epik_input>
W0NIM11bQ0gyXU4xW0NIMl1bQ0gyXU4oW0NIMl1bQ0gyXTEpW0NASF0oW0NIM10pW0NIMl1bTkhdQyg9TylbTkhdYzJbY0hdYyhbQ0gzXSlvbjI=

> <s_epik_cmdline>
J2VwaWtfcHl0aG9uJywgJy1waCcsICc3LjAnLCAnLXRuJywgJzgnLCAnLW1hJywgJzIwMCcsICctbWV0YWxfYmluZGluZycsICctaW1hZScsICc8aW5maWxlLm1hZT4nLCAnLW9tYWUnLCAnPG91dGZpbGUubWFlPic=

> <r_epik_Ionization_Penalty>
0.0459786

> <r_epik_Ionization_Penalty_Charging>
0.0453654

> <r_epik_Ionization_Penalty_Neutral>
0.000613264

> <r_epik_State_Penalty>
0.163057

> <r_epik_Charging_Adjusted_Penalty>
0.208422

> <i_epik_Tot_Q>
1

> <i_epik_Tot_abs_Q>
1

> <r_epik_Metal_State_Penalty>
0.17399

> <b_epik_Metal_Only>
0

> <s_lp_Force_Field>
OPLS_2005

> <r_lp_Energy>
25.6668

> <b_lp_Chiralities_Consistent>
1

> <s_lp_Variant>
AV-unprocessed.smi:1586-2

> <Gold.Version>
5.8.1

> <Gold.Id.Protein>
6NUR|6NUR_protein|mol2

> <Gold.PLP.Fitness>
39.5054

> <Gold.PLP.PLP>
-29.5414

> <Gold.PLP.part.hbond>
-3.1791

> <Gold.PLP.part.metal>
0.0000

> <Gold.PLP.part.buried>
-3.3944

> <Gold.PLP.part.nonpolar>
-24.0028

> <Gold.PLP.part.repulsive>
0.2626

> <Gold.PLP.ligand.clash>
0.0000

> <Gold.PLP.ligand.torsion>
1.0421

> <Gold.PLP.Chemscore.Hbond>
4.0000

> <Gold.PLP.Chemscore.CHOScore>
0.0000

> <Gold.PLP.Chemscore.Metal>
0.0000

> <Gold.Chemscore.Hbonds>
donor molecule, donor type, donor heavy atom, donor atom, acceptor molecule, acceptor atom, score
      L1  H     3    47       P1 10957  1.85
      L1  H    13    38       P1  7948  1.00
      P1  H  7989  7998       L1    18  0.94

> <Gold.PLP.Chemscore.Internal.Correction>
0.0483

> <Gold.Rescore>
     Score         DG    S(hbond)    S(metal)    S(lipo)     H(rot)  DE(clash)    DE(int)     intcor
     11.64     -15.44       2.07        0.00      64.55       1.76       1.53       2.27       ----

> <Gold.Chemscore.Fitness>
11.6399

> <Gold.Chemscore.DG>
-15.4436

> <Gold.Chemscore.ZeroCoef>
-5.4800

> <Gold.Chemscore.Hbond>
2.0737

> <Gold.Chemscore.Metal>
0.0000

> <Gold.Chemscore.Lipo>
64.5518

> <Gold.Chemscore.Internal_Hbond>
0.0000

> <Gold.Chemscore.DEClash>
1.5289

> <Gold.Chemscore.DEInternal>
2.2748

> <Gold.Chemscore.Rot>
1.7637

> <Gold.Chemscore.Internal.Correction>
   9.000000E+99

> <Gold.Chemscore.Hbonds>
donor molecule, donor type, donor heavy atom, donor atom, acceptor molecule, acceptor atom, score
      L1  H     3    47       P1 10957  0.31
      L1  H    13    38       P1  7948  0.96
      P1  H  7989  7998       L1    18  0.15

> <Gold.Chemscore.Hbond.Weighted>
-6.9261

> <Gold.Chemscore.Metal.Weighted>
-0.0000

> <Gold.Chemscore.Lipo.Weighted>
-7.5526

> <Gold.Chemscore.Internal_Hbond.Weighted>
0.0000

> <Gold.Chemscore.DEClash.Weighted>
1.5289

> <Gold.Chemscore.DEInternal.Weighted>
2.2748

> <Gold.Chemscore.Rot.Weighted>
4.5150

> <Gold.Chemscore.Internal.Correction.Weighted>
   9.000000E+99

> <Gold.Protein.RotatedTorsions>
[ 6907 6896 6895 6894 ] final  150.69 input  -60.11 | X-H torsion
[ 7974 7965 7964 7962 ] final -104.48 input  175.53 | X-H torsion
[ 8008 7997 7996 7995 ] final   47.31 input   59.86 | X-H torsion
[ 10167 10162 10161 10158 ] final -113.26 input  -65.29 | X-H torsion
[ 10718 10713 10712 10709 ] final  -94.94 input   66.30 | X-H torsion
[ 10763 10752 10751 10750 ] final   75.45 input  -60.55 | X-H torsion
[ 11005 11000 10999 10996 ] final  120.62 input  -57.11 | X-H torsion

> <Gold.Protein.ActiveResidues>
 VAL166  LYS551  ARG553  GLY616  TRP617  ASP618  TYR619  PRO620  LYS621  CYS622 
 ASP623  PHE694  ASN695  SER759  ASP760  ASP761  ALA762  ILE779  LEU786  VAL792 
 PHE793  MET794  SER795  GLU796  ALA797  LYS798  CYS799  TRP800  GLU811  SER814 

> <Gold.Protein.RotatedAtoms>
  152.1109  133.4300  159.4630 H   0  0  0  0  0  0  0  0  0  0  0  0  # atno 6907 bound_to 6896
  150.6867  134.2649  159.4573 H   0  0  0  0  0  0  0  0  0  0  0  0  # atno 6908 bound_to 6896
  152.0518  134.9648  160.0625 H   0  0  0  0  0  0  0  0  0  0  0  0  # atno 6909 bound_to 6896
  145.2426  140.9210  143.3141 H   0  0  0  0  0  0  0  0  0  0  0  0  # atno 7974 bound_to 7965
  155.3669  140.3421  155.4242 H   0  0  0  0  0  0  0  0  0  0  0  0  # atno 8008 bound_to 7997
  156.1683  140.1623  156.8526 H   0  0  0  0  0  0  0  0  0  0  0  0  # atno 8009 bound_to 7997
  154.5208  140.0767  156.8149 H   0  0  0  0  0  0  0  0  0  0  0  0  # atno 8010 bound_to 7997
  140.1137  143.4504  152.1736 H   0  0  0  0  0  0  0  0  0  0  0  0  # atno 10167 bound_to 10162
  156.0035  130.5088  150.6002 H   0  0  0  0  0  0  0  0  0  0  0  0  # atno 10718 bound_to 10713
  153.0656  135.4988  154.8191 H   0  0  0  0  0  0  0  0  0  0  0  0  # atno 10763 bound_to 10752
  154.6948  135.2991  154.9430 H   0  0  0  0  0  0  0  0  0  0  0  0  # atno 10764 bound_to 10752
  154.0173  135.6746  153.4822 H   0  0  0  0  0  0  0  0  0  0  0  0  # atno 10765 bound_to 10752
  139.9192  134.9635  156.7834 H   0  0  0  0  0  0  0  0  0  0  0  0  # atno 11005 bound_to 11000
  144.9575  139.4015  143.6372 LP  0  0  0  0  0  0  0  0  0  0  0  0  # atno 17320 bound_to 7965
  146.3324  139.8612  142.8856 LP  0  0  0  0  0  0  0  0  0  0  0  0  # atno 17321 bound_to 7965
  139.5605  144.7402  151.4168 LP  0  0  0  0  0  0  0  0  0  0  0  0  # atno 17342 bound_to 10162
  140.6911  143.7859  150.7257 LP  0  0  0  0  0  0  0  0  0  0  0  0  # atno 17343 bound_to 10162
  157.3852  131.0787  151.1442 LP  0  0  0  0  0  0  0  0  0  0  0  0  # atno 17370 bound_to 10713
  157.2152  130.6456  149.5789 LP  0  0  0  0  0  0  0  0  0  0  0  0  # atno 17371 bound_to 10713
  140.6525  133.9718  155.7762 LP  0  0  0  0  0  0  0  0  0  0  0  0  # atno 17394 bound_to 11000
  141.0698  134.0222  157.3542 LP  0  0  0  0  0  0  0  0  0  0  0  0  # atno 17395 bound_to 11000

$$$$
