AV-unprocessed.smi:1047|AV-procd|sdf|4592|dock5
  -GOLD-   22720 3 73D 1   1.00000     0.00000
 Structure written by MMmdl.
 55 57  0  0  0  0  0  0  0  0  1 V2000
  136.1744  137.5775  155.5525 C   0  0  0  0  0  0  0  0  0  0  0  0
  137.6649  137.2902  155.7825 C   0  0  0  0  0  0  0  0  0  0  0  0
  138.4963  137.3519  154.5817 N   0  0  0  0  0  0  0  0  0  0  0  0
  138.3377  138.6319  153.9011 C   0  0  0  0  0  0  0  0  0  0  0  0
  139.2050  138.7186  152.6347 C   0  0  0  0  0  0  0  0  0  0  0  0
  140.5678  138.4901  152.9780 O   0  0  0  0  0  0  0  0  0  0  0  0
  140.7830  137.2246  153.5975 C   0  0  1  0  0  0  0  0  0  0  0  0
  142.2839  137.1000  153.8999 C   0  0  0  0  0  0  0  0  0  0  0  0
  143.0832  137.1871  152.6813 N   0  0  0  0  0  0  0  0  0  0  0  0
  143.4052  135.8851  152.1048 C   0  0  0  0  0  0  0  0  0  0  0  0
  144.8844  135.8062  151.6914 C   0  0  2  0  0  0  0  0  0  0  0  0
  145.4071  137.1198  151.6580 O   0  0  0  0  0  0  0  0  0  0  0  0
  145.0517  135.1633  150.3012 C   0  0  0  0  0  0  0  0  0  0  0  0
  144.7208  133.7490  150.2939 N   0  0  0  0  0  0  0  0  0  0  0  0
  143.7415  133.1513  149.5888 C   0  0  0  0  0  0  0  0  0  0  0  0
  143.6113  131.8345  149.7212 N   0  0  0  0  0  0  0  0  0  0  0  0
  144.6249  131.5437  150.6185 C   0  0  0  0  0  0  0  0  0  0  0  0
  145.0289  130.3107  151.1759 C   0  0  0  0  0  0  0  0  0  0  0  0
  146.1072  130.2456  152.0870 C   0  0  0  0  0  0  0  0  0  0  0  0
  146.5097  128.8982  152.6602 C   0  0  0  0  0  0  0  0  0  0  0  0
  146.7977  131.4281  152.4559 C   0  0  0  0  0  0  0  0  0  0  0  0
  147.9553  131.3838  153.4376 C   0  0  0  0  0  0  0  0  0  0  0  0
  146.4084  132.6678  151.9066 C   0  0  0  0  0  0  0  0  0  0  0  0
  145.3362  132.7193  150.9985 C   0  0  0  0  0  0  0  0  0  0  0  0
  139.9134  137.1424  154.8699 C   0  0  0  0  0  0  0  0  0  0  0  0
  135.6428  137.6235  156.5031 H   0  0  0  0  0  0  0  0  0  0  0  0
  135.6968  136.8035  154.9527 H   0  0  0  0  0  0  0  0  0  0  0  0
  136.0323  138.5332  155.0476 H   0  0  0  0  0  0  0  0  0  0  0  0
  138.0307  138.0251  156.5007 H   0  0  0  0  0  0  0  0  0  0  0  0
  137.7788  136.3179  156.2640 H   0  0  0  0  0  0  0  0  0  0  0  0
  137.2914  138.7811  153.6315 H   0  0  0  0  0  0  0  0  0  0  0  0
  138.6050  139.4463  154.5766 H   0  0  0  0  0  0  0  0  0  0  0  0
  138.8804  137.9884  151.8916 H   0  0  0  0  0  0  0  0  0  0  0  0
  139.1123  139.7039  152.1776 H   0  0  0  0  0  0  0  0  0  0  0  0
  140.4901  136.4433  152.8931 H   0  0  0  0  0  0  0  0  0  0  0  0
  142.5743  137.9043  154.5770 H   0  0  0  0  0  0  0  0  0  0  0  0
  142.4850  136.1655  154.4249 H   0  0  0  0  0  0  0  0  0  0  0  0
  143.9385  137.7002  152.8697 H   0  0  0  0  0  0  0  0  0  0  0  0
  143.2065  135.1142  152.8504 H   0  0  0  0  0  0  0  0  0  0  0  0
  142.7575  135.6645  151.2552 H   0  0  0  0  0  0  0  0  0  0  0  0
  145.4459  135.2212  152.4217 H   0  0  0  0  0  0  0  0  0  0  0  0
  144.8407  137.6513  151.1195 H   0  0  0  0  0  0  0  0  0  0  0  0
  144.4083  135.6638  149.5762 H   0  0  0  0  0  0  0  0  0  0  0  0
  146.0747  135.2862  149.9428 H   0  0  0  0  0  0  0  0  0  0  0  0
  143.0879  133.7160  148.9401 H   0  0  0  0  0  0  0  0  0  0  0  0
  144.5014  129.4111  150.8959 H   0  0  0  0  0  0  0  0  0  0  0  0
  147.5488  128.6749  152.4175 H   0  0  0  0  0  0  0  0  0  0  0  0
  145.8927  128.0938  152.2585 H   0  0  0  0  0  0  0  0  0  0  0  0
  146.3987  128.8961  153.7446 H   0  0  0  0  0  0  0  0  0  0  0  0
  148.3471  132.3816  153.6355 H   0  0  0  0  0  0  0  0  0  0  0  0
  148.7693  130.7764  153.0413 H   0  0  0  0  0  0  0  0  0  0  0  0
  147.6350  130.9571  154.3884 H   0  0  0  0  0  0  0  0  0  0  0  0
  146.9247  133.5763  152.1796 H   0  0  0  0  0  0  0  0  0  0  0  0
  140.2558  137.8841  155.5935 H   0  0  0  0  0  0  0  0  0  0  0  0
  140.0604  136.1665  155.3317 H   0  0  0  0  0  0  0  0  0  0  0  0
  1  2  1  0  0  0  0
  1 26  1  0  0  0  0
  1 27  1  0  0  0  0
  1 28  1  0  0  0  0
  2  3  1  0  0  0  0
  2 29  1  0  0  0  0
  2 30  1  0  0  0  0
  3 25  1  0  0  0  0
  3  4  1  0  0  0  0
  4  5  1  0  0  0  0
  4 31  1  0  0  0  0
  4 32  1  0  0  0  0
  5  6  1  0  0  0  0
  5 33  1  0  0  0  0
  5 34  1  0  0  0  0
  6  7  1  0  0  0  0
  7  8  1  0  0  0  0
  7 25  1  0  0  0  0
  7 35  1  0  0  0  0
  8  9  1  0  0  0  0
  8 36  1  0  0  0  0
  8 37  1  0  0  0  0
  9 10  1  0  0  0  0
  9 38  1  0  0  0  0
 10 11  1  0  0  0  0
 10 39  1  0  0  0  0
 10 40  1  0  0  0  0
 11 12  1  0  0  0  0
 11 13  1  0  0  0  0
 11 41  1  0  0  0  0
 12 42  1  0  0  0  0
 13 14  1  0  0  0  0
 13 43  1  0  0  0  0
 13 44  1  0  0  0  0
 14 24  1  0  0  0  0
 14 15  1  0  0  0  0
 15 16  2  0  0  0  0
 15 45  1  0  0  0  0
 16 17  1  0  0  0  0
 17 24  2  0  0  0  0
 17 18  1  0  0  0  0
 18 19  2  0  0  0  0
 18 46  1  0  0  0  0
 19 20  1  0  0  0  0
 19 21  1  0  0  0  0
 20 47  1  0  0  0  0
 20 48  1  0  0  0  0
 20 49  1  0  0  0  0
 21 22  1  0  0  0  0
 21 23  2  0  0  0  0
 22 50  1  0  0  0  0
 22 51  1  0  0  0  0
 22 52  1  0  0  0  0
 23 24  1  0  0  0  0
 23 53  1  0  0  0  0
 25 54  1  0  0  0  0
 25 55  1  0  0  0  0
M  END
> <s_m_source_file>
AV-unprocessed.smi

> <i_m_source_file_index>
1047

> <i_lp_mmshare_version>
43012

> <i_f3d_flags>
0

> <s_epik_input>
W0NIM11bQ0gyXU4xW0NIMl1bQ0gyXU9bQ0BIXShbQ0gyXTEpW0NIMl1bTkhdW0NIMl1bQ0BIXShbT0hdKVtDSDJdbihbY0hdbjIpYyhjMjMpW2NIXWMoW0NIM10pYyhbY0hdMylbQ0gzXQ==

> <s_epik_cmdline>
J2VwaWtfcHl0aG9uJywgJy1waCcsICc3LjAnLCAnLXRuJywgJzgnLCAnLW1hJywgJzIwMCcsICctbWV0YWxfYmluZGluZycsICctaW1hZScsICc8aW5maWxlLm1hZT4nLCAnLW9tYWUnLCAnPG91dGZpbGUubWFlPic=

> <r_epik_Ionization_Penalty>
2.74124

> <r_epik_Ionization_Penalty_Charging>
0

> <r_epik_Ionization_Penalty_Neutral>
2.74124

> <r_epik_State_Penalty>
2.37482

> <r_epik_Charging_Adjusted_Penalty>
2.37482

> <i_epik_Tot_Q>
0

> <i_epik_Tot_abs_Q>
0

> <r_epik_Metal_State_Penalty>
2.25944

> <b_epik_Metal_Only>
0

> <s_lp_Force_Field>
OPLS_2005

> <r_lp_Energy>
35.4924

> <b_lp_Chiralities_Consistent>
1

> <s_lp_Variant>
AV-unprocessed.smi:1047-33

> <Gold.Version>
5.8.1

> <Gold.Id.Protein>
6NUR|6NUR_protein|mol2

> <Gold.PLP.Fitness>
51.3160

> <Gold.PLP.PLP>
-45.6448

> <Gold.PLP.part.hbond>
-2.0000

> <Gold.PLP.part.metal>
0.0000

> <Gold.PLP.part.buried>
-5.7192

> <Gold.PLP.part.nonpolar>
-39.5374

> <Gold.PLP.part.repulsive>
1.0258

> <Gold.PLP.ligand.clash>
0.0000

> <Gold.PLP.ligand.torsion>
1.2343

> <Gold.PLP.Chemscore.Hbond>
1.7303

> <Gold.PLP.Chemscore.CHOScore>
0.9679

> <Gold.PLP.Chemscore.Metal>
0.0000

> <Gold.Chemscore.Hbonds>
donor molecule, donor type, donor heavy atom, donor atom, acceptor molecule, acceptor atom, score
      L1  H    12    42       P1 10171  1.00
      P1  H 10785 10796       L1    16  0.96
      L1  C    15    45       P1 10186  0.89

> <Gold.PLP.Chemscore.Internal.Correction>
0.0451

> <Gold.Rescore>
     Score         DG    S(hbond)    S(metal)    S(lipo)     H(rot)  DE(clash)    DE(int)     intcor
     16.28     -18.17       1.44        0.00     122.54       2.52       0.61       1.28       ----

> <Gold.Chemscore.Fitness>
16.2849

> <Gold.Chemscore.DG>
-18.1735

> <Gold.Chemscore.ZeroCoef>
-5.4800

> <Gold.Chemscore.Hbond>
1.4422

> <Gold.Chemscore.Metal>
0.0000

> <Gold.Chemscore.Lipo>
122.5412

> <Gold.Chemscore.Internal_Hbond>
0.0000

> <Gold.Chemscore.DEClash>
0.6060

> <Gold.Chemscore.DEInternal>
1.2826

> <Gold.Chemscore.Rot>
2.5237

> <Gold.Chemscore.Internal.Correction>
   9.000000E+99

> <Gold.Chemscore.Hbonds>
donor molecule, donor type, donor heavy atom, donor atom, acceptor molecule, acceptor atom, score
      L1  H    12    42       P1 10171  1.00
      P1  H 10785 10796       L1    16  0.49

> <Gold.Chemscore.Hbond.Weighted>
-4.8168

> <Gold.Chemscore.Metal.Weighted>
-0.0000

> <Gold.Chemscore.Lipo.Weighted>
-14.3373

> <Gold.Chemscore.Internal_Hbond.Weighted>
0.0000

> <Gold.Chemscore.DEClash.Weighted>
0.6060

> <Gold.Chemscore.DEInternal.Weighted>
1.2826

> <Gold.Chemscore.Rot.Weighted>
6.4607

> <Gold.Chemscore.Internal.Correction.Weighted>
   9.000000E+99

> <Gold.Protein.RotatedTorsions>
[ 6907 6896 6895 6894 ] final   59.47 input  -60.11 | X-H torsion
[ 7974 7965 7964 7962 ] final   -3.60 input  175.53 | X-H torsion
[ 8008 7997 7996 7995 ] final -118.57 input   59.86 | X-H torsion
[ 10167 10162 10161 10158 ] final   13.15 input  -65.29 | X-H torsion
[ 10718 10713 10712 10709 ] final  -65.71 input   66.30 | X-H torsion
[ 10763 10752 10751 10750 ] final -138.36 input  -60.55 | X-H torsion
[ 11005 11000 10999 10996 ] final  159.69 input  -57.11 | X-H torsion

> <Gold.Protein.ActiveResidues>
 VAL166  LYS551  ARG553  GLY616  TRP617  ASP618  TYR619  PRO620  LYS621  CYS622 
 ASP623  PHE694  ASN695  SER759  ASP760  ASP761  ALA762  ILE779  LEU786  VAL792 
 PHE793  MET794  SER795  GLU796  ALA797  LYS798  CYS799  TRP800  GLU811  SER814 

> <Gold.Protein.RotatedAtoms>
  152.3917  134.6430  160.0104 H   0  0  0  0  0  0  0  0  0  0  0  0  # atno 6907 bound_to 6896
  151.6662  133.3310  159.3193 H   0  0  0  0  0  0  0  0  0  0  0  0  # atno 6908 bound_to 6896
  150.7832  134.6838  159.6503 H   0  0  0  0  0  0  0  0  0  0  0  0  # atno 6909 bound_to 6896
  146.2387  140.1745  142.8332 H   0  0  0  0  0  0  0  0  0  0  0  0  # atno 7974 bound_to 7965
  155.1017  140.0396  157.2699 H   0  0  0  0  0  0  0  0  0  0  0  0  # atno 8008 bound_to 7997
  154.6753  140.2621  155.6939 H   0  0  0  0  0  0  0  0  0  0  0  0  # atno 8009 bound_to 7997
  156.2674  140.2789  156.1277 H   0  0  0  0  0  0  0  0  0  0  0  0  # atno 8010 bound_to 7997
  140.6021  143.8583  150.6976 H   0  0  0  0  0  0  0  0  0  0  0  0  # atno 10167 bound_to 10162
  156.0654  130.4251  150.1604 H   0  0  0  0  0  0  0  0  0  0  0  0  # atno 10718 bound_to 10713
  154.8639  135.3614  154.5373 H   0  0  0  0  0  0  0  0  0  0  0  0  # atno 10763 bound_to 10752
  153.5996  135.7013  153.5394 H   0  0  0  0  0  0  0  0  0  0  0  0  # atno 10764 bound_to 10752
  153.3302  135.4126  155.1451 H   0  0  0  0  0  0  0  0  0  0  0  0  # atno 10765 bound_to 10752
  140.1986  134.8354  157.2993 H   0  0  0  0  0  0  0  0  0  0  0  0  # atno 11005 bound_to 11000
  144.9984  140.8610  143.5296 LP  0  0  0  0  0  0  0  0  0  0  0  0  # atno 17320 bound_to 7965
  145.1761  139.2377  143.5317 LP  0  0  0  0  0  0  0  0  0  0  0  0  # atno 17321 bound_to 7965
  140.2131  143.3867  152.1702 LP  0  0  0  0  0  0  0  0  0  0  0  0  # atno 17342 bound_to 10162
  139.5298  144.7146  151.5095 LP  0  0  0  0  0  0  0  0  0  0  0  0  # atno 17343 bound_to 10162
  156.9664  130.9821  151.3468 LP  0  0  0  0  0  0  0  0  0  0  0  0  # atno 17370 bound_to 10713
  157.5691  130.8298  149.8368 LP  0  0  0  0  0  0  0  0  0  0  0  0  # atno 17371 bound_to 10713
  140.2079  134.4174  155.7628 LP  0  0  0  0  0  0  0  0  0  0  0  0  # atno 17394 bound_to 11000
  141.2227  133.7104  156.8291 LP  0  0  0  0  0  0  0  0  0  0  0  0  # atno 17395 bound_to 11000

$$$$
