#       Name:                AV-unprocessed.smi:1901
#       Creating user name   scv26
#       Creation time:       Fri Mar 27 09:45:58 2020


#       File generated by GOLD software.
#

@<TRIPOS>MOLECULE
AV-unprocessed.smi:1901
    33    34     1
SMALL
NO_CHARGES


@<TRIPOS>ATOM
      1 ****        -0.1199   2.3194  -0.2983 O.2            1 S1                 0.0000
      2 ****        -0.7381   1.2528  -0.3080 C.2            1 S1                 0.0000
      3 ****        -0.0563   0.0995  -0.3150 N.am           1 S1                 0.0000
      4 ****         1.3967  -0.0195  -0.3088 C.3            1 S1                 0.0000
      5 ****         1.8284  -1.4950  -0.2858 C.3            1 S1                 0.0000
      6 ****         1.4145  -2.2586   0.9570 C.3            1 S1                 0.0000
      7 ****         2.3586  -3.4566   0.9190 C.3            1 S1                 0.0000
      8 ****         3.5518  -2.9945   0.2916 O.3            1 S1                 0.0000
      9 ****         3.3428  -1.6986  -0.2626 C.3            1 S1                 0.0000
     10 ****        -2.0842   1.0768  -0.3128 N.pl3          1 S1                -1.0000
     11 ****        -3.0029   2.0682  -0.3070 C.2            1 S1                 0.0000
     12 ****        -2.7640   3.3902  -0.3094 N.2            1 S1                 0.0000
     13 ****        -3.9159   4.1769  -0.3042 C.2            1 S1                 0.0000
     14 ****        -5.0706   3.4428  -0.2985 C.2            1 S1                 0.0000
     15 ****        -4.7375   1.7353  -0.2979 S.3            1 S1                 0.0000
     16 ****        -0.5888  -0.7579  -0.3234 H              1 S1                 0.0000
     17 ****         1.8001   0.4697  -1.1965 H              1 S1                 0.0000
     18 ****         1.7993   0.5071   0.5580 H              1 S1                 0.0000
     19 ****         1.4230  -2.0057  -1.1612 H              1 S1                 0.0000
     20 ****         1.6025  -1.6613   1.8506 H              1 S1                 0.0000
     21 ****         0.3633  -2.5481   0.9551 H              1 S1                 0.0000
     22 ****         2.5600  -3.8596   1.9117 H              1 S1                 0.0000
     23 ****         1.9345  -4.2548   0.3088 H              1 S1                 0.0000
     24 ****         3.7909  -1.6119  -1.2527 H              1 S1                 0.0000
     25 ****         3.8214  -0.9668   0.3896 H              1 S1                 0.0000
     26 ****        -3.8197   5.2523  -0.3055 H              1 S1                 0.0000
     27 ****        -6.0899   3.7979  -0.2945 H              1 S1                 0.0000
     28 ****         0.8801   2.3177  -0.2957 LP             1 S1                 0.0000
     29 ****        -0.6185   3.1862  -0.2930 LP             1 S1                 0.0000
     30 ****         3.8091  -3.6286  -0.4376 LP             1 S1                 0.0000
     31 ****         4.2860  -2.9501   0.9691 LP             1 S1                 0.0000
     32 ****        -2.4240   0.1363  -0.3213 LP             1 S1                 0.0000
     33 ****        -1.8416   3.7763  -0.3144 LP             1 S1                 0.0000
@<TRIPOS>BOND
    1    1    2 2     
    2    2    3 am    
    3    2   10 1     
    4    3    4 1     
    5    3   16 1     
    6    4    5 1     
    7    4   17 1     
    8    4   18 1     
    9    5    9 1     
   10    5    6 1     
   11    5   19 1     
   12    6    7 1     
   13    6   20 1     
   14    6   21 1     
   15    7    8 1     
   16    7   22 1     
   17    7   23 1     
   18    8    9 1     
   19    9   24 1     
   20    9   25 1     
   21   10   11 1     
   22   11   15 1     
   23   11   12 2     
   24   12   13 1     
   25   13   14 2     
   26   13   26 1     
   27   14   15 1     
   28   14   27 1     
   29    1   28 1     
   30    1   29 1     
   31    8   30 1     
   32    8   31 1     
   33   10   32 1     
   34   12   33 1     
@<TRIPOS>SUBSTRUCTURE
      1 S1             1
@<TRIPOS>SET
LONE_PAIRS      STATIC     ATOMS    <user>   **** ""
6 28 29 30 31 32 33
DONOR_HYDROGENS      STATIC     ATOMS    <user>   **** ""
1 16
ATOM$BLUE        STATIC     ATOMS    COLORGROUP SYSTEM
6 28 29 30 31 32 33
ATOM$RED        STATIC     ATOMS    COLORGROUP SYSTEM
1 16
