AV-unprocessed.smi:167|AV-procd|sdf|1392|dock5
  -GOLD-   2262019133D 1   1.00000     0.00000
 Structure written by MMmdl.
 51 55  0  0  0  0  0  0  0  0  1 V2000
  138.9434  140.0398  158.4487 O   0  0  0  0  0  0  0  0  0  0  0  0
  139.9244  139.9957  157.4340 C   0  0  0  0  0  0  0  0  0  0  0  0
  139.3202  139.4452  156.1290 C   0  0  2  0  0  0  0  0  0  0  0  0
  138.7288  138.0310  156.2919 C   0  0  0  0  0  0  0  0  0  0  0  0
  139.5149  137.2375  155.2347 C   0  0  1  0  0  0  0  0  0  0  0  0
  139.0168  137.6299  153.8296 C   0  0  0  0  0  0  0  0  0  0  0  0
  139.6336  139.0292  153.6738 C   0  0  0  0  0  0  0  0  0  0  0  0
  140.3675  139.1880  155.0231 C   0  0  2  0  0  0  0  0  0  0  0  0
  140.8356  137.8394  155.3213 N   0  0  0  0  0  0  0  0  0  0  0  0
  141.8923  137.3169  154.6378 C   0  0  0  0  0  0  0  0  0  0  0  0
  143.0652  138.0053  154.6369 N   0  0  0  0  0  0  0  0  0  0  0  0
  144.1313  137.5349  153.9847 C   0  0  0  0  0  0  0  0  0  0  0  0
  144.2467  136.4094  153.2797 N   0  0  0  0  0  0  0  0  0  0  0  0
  143.0806  135.7033  153.2839 C   0  0  0  0  0  0  0  0  0  0  0  0
  141.8697  136.0728  153.9391 C   0  0  0  0  0  0  0  0  0  0  0  0
  140.9160  135.0802  153.7405 N   0  0  0  0  0  0  0  0  0  0  0  0
  141.5215  134.1872  153.0075 C   0  0  0  0  0  0  0  0  0  0  0  0
  142.8166  134.4956  152.6618 N   0  0  0  0  0  0  0  0  0  0  0  0
  143.7218  133.6856  151.9005 C   0  0  0  0  0  0  0  0  0  0  0  0
  144.2772  134.1750  150.5596 C   0  0  0  0  0  0  0  0  0  0  0  0
  144.3049  132.7144  150.0517 C   0  0  0  0  0  0  0  0  0  0  0  0
  143.8791  132.4633  148.5913 C   0  0  0  0  0  0  0  0  0  0  0  0
  142.4987  132.6850  148.3823 O   0  0  0  0  0  0  0  0  0  0  0  0
  145.6307  131.9622  150.2746 C   0  0  0  0  0  0  0  0  0  0  0  0
  146.6925  132.5563  149.5554 O   0  0  0  0  0  0  0  0  0  0  0  0
  143.2372  132.4477  151.1379 C   0  0  0  0  0  0  0  0  0  0  0  0
  138.5157  139.1981  158.4906 H   0  0  0  0  0  0  0  0  0  0  0  0
  140.3375  140.9941  157.2864 H   0  0  0  0  0  0  0  0  0  0  0  0
  140.7393  139.3551  157.7723 H   0  0  0  0  0  0  0  0  0  0  0  0
  138.5517  140.1373  155.7812 H   0  0  0  0  0  0  0  0  0  0  0  0
  138.9231  137.6310  157.2882 H   0  0  0  0  0  0  0  0  0  0  0  0
  137.6515  138.0014  156.1250 H   0  0  0  0  0  0  0  0  0  0  0  0
  139.4672  136.1674  155.4258 H   0  0  0  0  0  0  0  0  0  0  0  0
  139.4071  136.9504  153.0707 H   0  0  0  0  0  0  0  0  0  0  0  0
  137.9288  137.6332  153.7549 H   0  0  0  0  0  0  0  0  0  0  0  0
  140.3354  139.0482  152.8391 H   0  0  0  0  0  0  0  0  0  0  0  0
  138.8877  139.8059  153.5019 H   0  0  0  0  0  0  0  0  0  0  0  0
  141.1459  139.9516  154.9964 H   0  0  0  0  0  0  0  0  0  0  0  0
  145.0184  138.1489  154.0343 H   0  0  0  0  0  0  0  0  0  0  0  0
  141.0323  133.2765  152.6937 H   0  0  0  0  0  0  0  0  0  0  0  0
  144.5347  133.4257  152.5805 H   0  0  0  0  0  0  0  0  0  0  0  0
  143.5673  134.8105  150.0276 H   0  0  0  0  0  0  0  0  0  0  0  0
  145.2507  134.6612  150.6297 H   0  0  0  0  0  0  0  0  0  0  0  0
  144.4216  133.1146  147.9057 H   0  0  0  0  0  0  0  0  0  0  0  0
  144.1015  131.4382  148.2932 H   0  0  0  0  0  0  0  0  0  0  0  0
  142.3848  133.0931  147.5376 H   0  0  0  0  0  0  0  0  0  0  0  0
  145.9088  131.9497  151.3286 H   0  0  0  0  0  0  0  0  0  0  0  0
  145.5448  130.9182  149.9713 H   0  0  0  0  0  0  0  0  0  0  0  0
  147.4336  131.9699  149.5763 H   0  0  0  0  0  0  0  0  0  0  0  0
  143.3594  131.5100  151.6807 H   0  0  0  0  0  0  0  0  0  0  0  0
  142.2117  132.5563  150.7814 H   0  0  0  0  0  0  0  0  0  0  0  0
  1  2  1  0  0  0  0
  1 27  1  0  0  0  0
  2  3  1  0  0  0  0
  2 28  1  0  0  0  0
  2 29  1  0  0  0  0
  3  8  1  0  0  0  0
  3  4  1  0  0  0  0
  3 30  1  0  0  0  0
  4  5  1  0  0  0  0
  4 31  1  0  0  0  0
  4 32  1  0  0  0  0
  5  9  1  0  0  0  0
  5  6  1  0  0  0  0
  5 33  1  0  0  0  0
  6  7  1  0  0  0  0
  6 34  1  0  0  0  0
  6 35  1  0  0  0  0
  7  8  1  0  0  0  0
  7 36  1  0  0  0  0
  7 37  1  0  0  0  0
  8  9  1  0  0  0  0
  8 38  1  0  0  0  0
  9 10  1  0  0  0  0
 10 15  1  0  0  0  0
 10 11  2  0  0  0  0
 11 12  1  0  0  0  0
 12 13  2  0  0  0  0
 12 39  1  0  0  0  0
 13 14  1  0  0  0  0
 14 18  1  0  0  0  0
 14 15  2  0  0  0  0
 15 16  1  0  0  0  0
 16 17  2  0  0  0  0
 17 18  1  0  0  0  0
 17 40  1  0  0  0  0
 18 19  1  0  0  0  0
 19 26  1  0  0  0  0
 19 20  1  0  0  0  0
 19 41  1  0  0  0  0
 20 21  1  0  0  0  0
 20 42  1  0  0  0  0
 20 43  1  0  0  0  0
 21 22  1  0  0  0  0
 21 24  1  0  0  0  0
 21 26  1  0  0  0  0
 22 23  1  0  0  0  0
 22 44  1  0  0  0  0
 22 45  1  0  0  0  0
 23 46  1  0  0  0  0
 24 25  1  0  0  0  0
 24 47  1  0  0  0  0
 24 48  1  0  0  0  0
 25 49  1  0  0  0  0
 26 50  1  0  0  0  0
 26 51  1  0  0  0  0
M  END
> <s_m_source_file>
AV-unprocessed.smi

> <i_m_source_file_index>
167

> <i_lp_mmshare_version>
43012

> <i_f3d_flags>
0

> <s_epik_input>
W09IXVtDSDJdW0NASF0oW0NIMl1bQ0BASF0xMilbQ0BIXShbQ0gyXVtDSDJdMSlOMmMobltjSF1uMyljKGMzNCluW2NIXW40W0NIXShbQ0gyXTUpW0NIMl1DNShbQ0gyXVtPSF0pW0NIMl1bT0hd

> <s_epik_cmdline>
J2VwaWtfcHl0aG9uJywgJy1waCcsICc3LjAnLCAnLXRuJywgJzgnLCAnLW1hJywgJzIwMCcsICctbWV0YWxfYmluZGluZycsICctaW1hZScsICc8aW5maWxlLm1hZT4nLCAnLW9tYWUnLCAnPG91dGZpbGUubWFlPic=

> <r_lp_tautomer_probability>
1

> <r_epik_Ionization_Penalty>
0.0047903

> <r_epik_Ionization_Penalty_Charging>
0

> <r_epik_Ionization_Penalty_Neutral>
0.0047903

> <r_epik_State_Penalty>
0.00341021

> <r_epik_Charging_Adjusted_Penalty>
0.00341021

> <i_epik_Tot_Q>
0

> <i_epik_Tot_abs_Q>
0

> <r_epik_Metal_State_Penalty>
-0

> <b_epik_Metal_Only>
0

> <s_lp_Force_Field>
OPLS_2005

> <r_lp_Energy>
90.0047

> <b_lp_Chiralities_Consistent>
1

> <s_lp_Variant>
AV-unprocessed.smi:167-1

> <Gold.Version>
5.8.1

> <Gold.Id.Protein>
6NUR|6NUR_protein|mol2

> <Gold.PLP.Fitness>
50.5380

> <Gold.PLP.PLP>
-43.7463

> <Gold.PLP.part.hbond>
-6.8369

> <Gold.PLP.part.metal>
0.0000

> <Gold.PLP.part.buried>
-5.3218

> <Gold.PLP.part.nonpolar>
-33.0600

> <Gold.PLP.part.repulsive>
0.3766

> <Gold.PLP.ligand.clash>
0.0000

> <Gold.PLP.ligand.torsion>
0.6399

> <Gold.PLP.Chemscore.Hbond>
2.5265

> <Gold.PLP.Chemscore.CHOScore>
0.0000

> <Gold.PLP.Chemscore.Metal>
0.0000

> <Gold.Chemscore.Hbonds>
donor molecule, donor type, donor heavy atom, donor atom, acceptor molecule, acceptor atom, score
      L1  H    23    46       P1 10195  0.88
      L1  H    25    49       P1 10747  1.00
      P1  H 11000 11005       L1    16  0.57

> <Gold.PLP.Chemscore.Internal.Correction>
0.4919

> <Gold.Rescore>
     Score         DG    S(hbond)    S(metal)    S(lipo)     H(rot)  DE(clash)    DE(int)     intcor
     10.19     -12.08       2.06        0.00      89.62       4.20       0.17       1.72       ----

> <Gold.Chemscore.Fitness>
10.1927

> <Gold.Chemscore.DG>
-12.0763

> <Gold.Chemscore.ZeroCoef>
-5.4800

> <Gold.Chemscore.Hbond>
2.0576

> <Gold.Chemscore.Metal>
0.0000

> <Gold.Chemscore.Lipo>
89.6197

> <Gold.Chemscore.Internal_Hbond>
0.0000

> <Gold.Chemscore.DEClash>
0.1668

> <Gold.Chemscore.DEInternal>
1.7167

> <Gold.Chemscore.Rot>
4.2038

> <Gold.Chemscore.Internal.Correction>
   9.000000E+99

> <Gold.Chemscore.Hbonds>
donor molecule, donor type, donor heavy atom, donor atom, acceptor molecule, acceptor atom, score
      L1  H    23    46       P1 10195  0.83
      L1  H    25    49       P1 10747  0.96
      P1  H 11000 11005       L1    16  0.29

> <Gold.Chemscore.Hbond.Weighted>
-6.8724

> <Gold.Chemscore.Metal.Weighted>
-0.0000

> <Gold.Chemscore.Lipo.Weighted>
-10.4855

> <Gold.Chemscore.Internal_Hbond.Weighted>
0.0000

> <Gold.Chemscore.DEClash.Weighted>
0.1668

> <Gold.Chemscore.DEInternal.Weighted>
1.7167

> <Gold.Chemscore.Rot.Weighted>
10.7617

> <Gold.Chemscore.Internal.Correction.Weighted>
   9.000000E+99

> <Gold.Protein.RotatedTorsions>
[ 6907 6896 6895 6894 ] final  141.44 input  -60.11 | X-H torsion
[ 7974 7965 7964 7962 ] final   88.49 input  175.53 | X-H torsion
[ 8008 7997 7996 7995 ] final  163.22 input   59.86 | X-H torsion
[ 10167 10162 10161 10158 ] final   82.02 input  -65.29 | X-H torsion
[ 10718 10713 10712 10709 ] final -160.36 input   66.30 | X-H torsion
[ 10763 10752 10751 10750 ] final  160.53 input  -60.55 | X-H torsion
[ 11005 11000 10999 10996 ] final   26.22 input  -57.11 | X-H torsion

> <Gold.Protein.ActiveResidues>
 VAL166  LYS551  ARG553  GLY616  TRP617  ASP618  TYR619  PRO620  LYS621  CYS622 
 ASP623  PHE694  ASN695  SER759  ASP760  ASP761  ALA762  ILE779  LEU786  VAL792 
 PHE793  MET794  SER795  GLU796  ALA797  LYS798  CYS799  TRP800  GLU811  SER814 

> <Gold.Protein.RotatedAtoms>
  152.2309  133.5058  159.5215 H   0  0  0  0  0  0  0  0  0  0  0  0  # atno 6907 bound_to 6896
  150.7037  134.1217  159.4046 H   0  0  0  0  0  0  0  0  0  0  0  0  # atno 6908 bound_to 6896
  151.9138  135.0327  160.0567 H   0  0  0  0  0  0  0  0  0  0  0  0  # atno 6909 bound_to 6896
  145.5450  139.2291  143.2545 H   0  0  0  0  0  0  0  0  0  0  0  0  # atno 7974 bound_to 7965
  156.1973  140.1729  156.7971 H   0  0  0  0  0  0  0  0  0  0  0  0  # atno 8008 bound_to 7997
  154.5546  140.0711  156.8754 H   0  0  0  0  0  0  0  0  0  0  0  0  # atno 8009 bound_to 7997
  155.2963  140.3358  155.4252 H   0  0  0  0  0  0  0  0  0  0  0  0  # atno 8010 bound_to 7997
  139.9332  144.6139  150.8325 H   0  0  0  0  0  0  0  0  0  0  0  0  # atno 10167 bound_to 10162
  156.5811  130.8730  151.2864 H   0  0  0  0  0  0  0  0  0  0  0  0  # atno 10718 bound_to 10713
  154.2489  135.2772  155.2824 H   0  0  0  0  0  0  0  0  0  0  0  0  # atno 10763 bound_to 10752
  154.5482  135.5683  153.6902 H   0  0  0  0  0  0  0  0  0  0  0  0  # atno 10764 bound_to 10752
  152.9984  135.6268  154.2635 H   0  0  0  0  0  0  0  0  0  0  0  0  # atno 10765 bound_to 10752
  140.3394  134.2349  155.7692 H   0  0  0  0  0  0  0  0  0  0  0  0  # atno 11005 bound_to 11000
  146.1955  140.6271  142.9126 LP  0  0  0  0  0  0  0  0  0  0  0  0  # atno 17320 bound_to 7965
  144.7558  140.5303  143.6770 LP  0  0  0  0  0  0  0  0  0  0  0  0  # atno 17321 bound_to 7965
  140.7632  143.3216  151.2609 LP  0  0  0  0  0  0  0  0  0  0  0  0  # atno 17342 bound_to 10162
  139.6765  143.9928  152.2784 LP  0  0  0  0  0  0  0  0  0  0  0  0  # atno 17343 bound_to 10162
  157.7326  130.9718  150.1937 LP  0  0  0  0  0  0  0  0  0  0  0  0  # atno 17370 bound_to 10713
  156.2631  130.3713  149.8110 LP  0  0  0  0  0  0  0  0  0  0  0  0  # atno 17371 bound_to 10713
  141.2042  133.7891  157.0297 LP  0  0  0  0  0  0  0  0  0  0  0  0  # atno 17394 bound_to 11000
  140.0794  134.9657  157.1598 LP  0  0  0  0  0  0  0  0  0  0  0  0  # atno 17395 bound_to 11000

$$$$
