AV-unprocessed.smi:536|AV-procd|sdf|2863|dock6
  -GOLD-   2262023353D 1   1.00000     0.00000
 Structure written by MMmdl.
 45 47  0  0  0  0  0  0  0  0  2 V2000
  148.7029  127.7281  150.7564 C   0  0  0  0  0  0  0  0  0  0  0  0
  147.9308  128.1051  151.8818 O   0  0  0  0  0  0  0  0  0  0  0  0
  148.4686  129.2242  152.5662 C   0  0  0  0  0  0  0  0  0  0  0  0
  147.3552  130.1972  152.9932 C   0  0  0  0  0  0  0  0  0  0  0  0
  147.8551  131.4493  153.5596 N   0  0  0  0  0  0  0  0  0  0  0  0
  147.5793  132.7190  153.1575 C   0  0  0  0  0  0  0  0  0  0  0  0
  146.7033  132.9900  152.1057 N   0  0  0  0  0  0  0  0  0  0  0  0
  145.9234  134.2177  151.9879 C   0  0  0  0  0  0  0  0  0  0  0  0
  144.4106  133.9976  151.7959 C   0  0  0  0  0  0  0  0  0  0  0  0
  144.0476  133.5209  150.3814 C   0  0  0  0  0  0  0  0  0  0  0  0
  144.1999  132.0079  150.1422 C   0  0  0  0  0  0  0  0  0  0  0  0
  145.4328  131.3310  150.7704 C   0  0  0  0  0  0  0  0  0  0  0  0
  146.6890  132.2107  150.8711 C   0  0  0  0  0  0  0  0  0  0  0  0
  148.2340  133.6715  153.8235 N   0  0  0  0  0  0  0  0  0  0  0  0
  148.9782  132.9501  154.7440 C   0  0  0  0  0  0  0  0  0  0  0  0
  148.7766  131.6123  154.6014 C   0  0  0  0  0  0  0  0  0  0  0  0
  149.4601  130.5874  155.4237 C   0  0  0  0  0  0  0  0  0  0  0  0
  149.2621  129.3878  155.2420 O   0  0  0  0  0  0  0  0  0  0  0  0
  150.2968  131.1448  156.3555 N   0  5  0  0  0  0  0  0  0  0  0  0
  150.5243  132.4915  156.5378 C   0  0  0  0  0  0  0  0  0  0  0  0
  151.2959  132.9095  157.4024 O   0  0  0  0  0  0  0  0  0  0  0  0
  149.8826  133.4040  155.7425 N   0  0  0  0  0  0  0  0  0  0  0  0
  150.1108  134.8422  155.9095 C   0  0  0  0  0  0  0  0  0  0  0  0
  148.2456  126.8650  150.2725 H   0  0  0  0  0  0  0  0  0  0  0  0
  149.7171  127.4528  151.0482 H   0  0  0  0  0  0  0  0  0  0  0  0
  148.7544  128.5360  150.0254 H   0  0  0  0  0  0  0  0  0  0  0  0
  149.0148  128.8920  153.4499 H   0  0  0  0  0  0  0  0  0  0  0  0
  149.1893  129.7273  151.9245 H   0  0  0  0  0  0  0  0  0  0  0  0
  146.7167  130.4288  152.1424 H   0  0  0  0  0  0  0  0  0  0  0  0
  146.6919  129.7185  153.7116 H   0  0  0  0  0  0  0  0  0  0  0  0
  146.0946  134.8174  152.8810 H   0  0  0  0  0  0  0  0  0  0  0  0
  146.3211  134.8144  151.1661 H   0  0  0  0  0  0  0  0  0  0  0  0
  143.9998  133.3274  152.5502 H   0  0  0  0  0  0  0  0  0  0  0  0
  143.9209  134.9583  151.9573 H   0  0  0  0  0  0  0  0  0  0  0  0
  143.0134  133.7934  150.1686 H   0  0  0  0  0  0  0  0  0  0  0  0
  144.6457  134.0699  149.6531 H   0  0  0  0  0  0  0  0  0  0  0  0
  143.3087  131.4954  150.5060 H   0  0  0  0  0  0  0  0  0  0  0  0
  144.2121  131.8388  149.0649 H   0  0  0  0  0  0  0  0  0  0  0  0
  145.1799  130.9482  151.7602 H   0  0  0  0  0  0  0  0  0  0  0  0
  145.6681  130.4480  150.1756 H   0  0  0  0  0  0  0  0  0  0  0  0
  146.7935  132.8533  149.9962 H   0  0  0  0  0  0  0  0  0  0  0  0
  147.5668  131.5637  150.8717 H   0  0  0  0  0  0  0  0  0  0  0  0
  151.1676  135.0794  155.7800 H   0  0  0  0  0  0  0  0  0  0  0  0
  149.8082  135.1628  156.9075 H   0  0  0  0  0  0  0  0  0  0  0  0
  149.5537  135.4435  155.1912 H   0  0  0  0  0  0  0  0  0  0  0  0
  1  2  1  0  0  0  0
  1 24  1  0  0  0  0
  1 25  1  0  0  0  0
  1 26  1  0  0  0  0
  2  3  1  0  0  0  0
  3  4  1  0  0  0  0
  3 27  1  0  0  0  0
  3 28  1  0  0  0  0
  4  5  1  0  0  0  0
  4 29  1  0  0  0  0
  4 30  1  0  0  0  0
  5 16  1  0  0  0  0
  5  6  1  0  0  0  0
  6  7  1  0  0  0  0
  6 14  2  0  0  0  0
  7 13  1  0  0  0  0
  7  8  1  0  0  0  0
  8  9  1  0  0  0  0
  8 31  1  0  0  0  0
  8 32  1  0  0  0  0
  9 10  1  0  0  0  0
  9 33  1  0  0  0  0
  9 34  1  0  0  0  0
 10 11  1  0  0  0  0
 10 35  1  0  0  0  0
 10 36  1  0  0  0  0
 11 12  1  0  0  0  0
 11 37  1  0  0  0  0
 11 38  1  0  0  0  0
 12 13  1  0  0  0  0
 12 39  1  0  0  0  0
 12 40  1  0  0  0  0
 13 41  1  0  0  0  0
 13 42  1  0  0  0  0
 14 15  1  0  0  0  0
 15 22  1  0  0  0  0
 15 16  2  0  0  0  0
 16 17  1  0  0  0  0
 17 18  2  0  0  0  0
 17 19  1  0  0  0  0
 19 20  1  0  0  0  0
 20 21  2  0  0  0  0
 20 22  1  0  0  0  0
 22 23  1  0  0  0  0
 23 43  1  0  0  0  0
 23 44  1  0  0  0  0
 23 45  1  0  0  0  0
M  CHG  1  19  -1
M  END
> <s_m_source_file>
AV-unprocessed.smi

> <i_m_source_file_index>
536

> <i_lp_mmshare_version>
43012

> <i_f3d_flags>
0

> <s_epik_input>
W0NIM11uMWMoPU8pW25IXWMoPU8pYyhjMTIpbihbQ0gyXVtDSDJdT1tDSDNdKWMobjIpTjNbQ0gyXVtDSDJdW0NIMl1bQ0gyXVtDSDJdW0NIMl0z

> <s_epik_cmdline>
J2VwaWtfcHl0aG9uJywgJy1waCcsICc3LjAnLCAnLXRuJywgJzgnLCAnLW1hJywgJzIwMCcsICctbWV0YWxfYmluZGluZycsICctaW1hZScsICc8aW5maWxlLm1hZT4nLCAnLW9tYWUnLCAnPG91dGZpbGUubWFlPic=

> <r_lp_tautomer_probability>
1

> <r_epik_Ionization_Penalty>
6.16859

> <r_epik_Ionization_Penalty_Charging>
0.0798692

> <r_epik_Ionization_Penalty_Neutral>
6.08873

> <r_epik_State_Penalty>
6.08498

> <r_epik_Charging_Adjusted_Penalty>
6.16485

> <i_epik_Tot_Q>
-1

> <i_epik_Tot_abs_Q>
1

> <r_epik_Metal_State_Penalty>
2.03194

> <b_epik_Metal_Only>
1

> <s_lp_Force_Field>
OPLS_2005

> <r_lp_Energy>
48.7455

> <b_lp_Chiralities_Consistent>
1

> <s_lp_Variant>
AV-unprocessed.smi:536-2

> <Gold.Version>
5.8.1

> <Gold.Id.Protein>
6NUR|6NUR_protein|mol2

> <Gold.PLP.Fitness>
40.2009

> <Gold.PLP.PLP>
-38.8046

> <Gold.PLP.part.hbond>
-1.0000

> <Gold.PLP.part.metal>
0.0000

> <Gold.PLP.part.buried>
-3.2337

> <Gold.PLP.part.nonpolar>
-36.2254

> <Gold.PLP.part.repulsive>
0.2616

> <Gold.PLP.ligand.clash>
0.0000

> <Gold.PLP.ligand.torsion>
0.8616

> <Gold.PLP.Chemscore.Hbond>
0.7717

> <Gold.PLP.Chemscore.CHOScore>
0.0000

> <Gold.PLP.Chemscore.Metal>
0.0000

> <Gold.Chemscore.Hbonds>
donor molecule, donor type, donor heavy atom, donor atom, acceptor molecule, acceptor atom, score
      P1  H  6896  6907       L1    21  0.85

> <Gold.PLP.Chemscore.Internal.Correction>
0.8046

> <Gold.Rescore>
     Score         DG    S(hbond)    S(metal)    S(lipo)     H(rot)  DE(clash)    DE(int)     intcor
     10.04     -13.70       0.96        0.00      74.34       1.44       1.36       2.30       ----

> <Gold.Chemscore.Fitness>
10.0406

> <Gold.Chemscore.DG>
-13.6963

> <Gold.Chemscore.ZeroCoef>
-5.4800

> <Gold.Chemscore.Hbond>
0.9576

> <Gold.Chemscore.Metal>
0.0000

> <Gold.Chemscore.Lipo>
74.3368

> <Gold.Chemscore.Internal_Hbond>
0.0000

> <Gold.Chemscore.DEClash>
1.3562

> <Gold.Chemscore.DEInternal>
2.2996

> <Gold.Chemscore.Rot>
1.4372

> <Gold.Chemscore.Internal.Correction>
   9.000000E+99

> <Gold.Chemscore.Hbonds>
donor molecule, donor type, donor heavy atom, donor atom, acceptor molecule, acceptor atom, score
      P1  H  6896  6907       L1    21  0.83

> <Gold.Chemscore.Hbond.Weighted>
-3.1983

> <Gold.Chemscore.Metal.Weighted>
-0.0000

> <Gold.Chemscore.Lipo.Weighted>
-8.6974

> <Gold.Chemscore.Internal_Hbond.Weighted>
0.0000

> <Gold.Chemscore.DEClash.Weighted>
1.3562

> <Gold.Chemscore.DEInternal.Weighted>
2.2996

> <Gold.Chemscore.Rot.Weighted>
3.6793

> <Gold.Chemscore.Internal.Correction.Weighted>
   9.000000E+99

> <Gold.Protein.RotatedTorsions>
[ 6907 6896 6895 6894 ] final -175.21 input  -60.11 | X-H torsion
[ 7974 7965 7964 7962 ] final   43.15 input  175.53 | X-H torsion
[ 8008 7997 7996 7995 ] final  177.74 input   59.86 | X-H torsion
[ 10167 10162 10161 10158 ] final  162.55 input  -65.29 | X-H torsion
[ 10718 10713 10712 10709 ] final  134.17 input   66.30 | X-H torsion
[ 10763 10752 10751 10750 ] final -159.21 input  -60.55 | X-H torsion
[ 11005 11000 10999 10996 ] final   59.01 input  -57.11 | X-H torsion

> <Gold.Protein.ActiveResidues>
 VAL166  LYS551  ARG553  GLY616  TRP617  ASP618  TYR619  PRO620  LYS621  CYS622 
 ASP623  PHE694  ASN695  SER759  ASP760  ASP761  ALA762  ILE779  LEU786  VAL792 
 PHE793  MET794  SER795  GLU796  ALA797  LYS798  CYS799  TRP800  GLU811  SER814 

> <Gold.Protein.RotatedAtoms>
  151.5849  133.3373  159.3015 H   0  0  0  0  0  0  0  0  0  0  0  0  # atno 6907 bound_to 6896
  150.8292  134.7541  159.6850 H   0  0  0  0  0  0  0  0  0  0  0  0  # atno 6908 bound_to 6896
  152.4378  134.5658  159.9959 H   0  0  0  0  0  0  0  0  0  0  0  0  # atno 6909 bound_to 6896
  146.0680  139.5219  142.9616 H   0  0  0  0  0  0  0  0  0  0  0  0  # atno 7974 bound_to 7965
  156.0623  140.1351  156.9927 H   0  0  0  0  0  0  0  0  0  0  0  0  # atno 8008 bound_to 7997
  154.4488  140.0989  156.6606 H   0  0  0  0  0  0  0  0  0  0  0  0  # atno 8009 bound_to 7997
  155.5358  140.3459  155.4438 H   0  0  0  0  0  0  0  0  0  0  0  0  # atno 8010 bound_to 7997
  139.4862  144.4426  151.8932 H   0  0  0  0  0  0  0  0  0  0  0  0  # atno 10167 bound_to 10162
  157.4699  131.1079  150.9815 H   0  0  0  0  0  0  0  0  0  0  0  0  # atno 10718 bound_to 10713
  154.7494  135.3088  154.8586 H   0  0  0  0  0  0  0  0  0  0  0  0  # atno 10763 bound_to 10752
  153.9377  135.6778  153.4749 H   0  0  0  0  0  0  0  0  0  0  0  0  # atno 10764 bound_to 10752
  153.1090  135.4875  154.8929 H   0  0  0  0  0  0  0  0  0  0  0  0  # atno 10765 bound_to 10752
  140.0335  134.5977  155.9475 H   0  0  0  0  0  0  0  0  0  0  0  0  # atno 11005 bound_to 11000
  145.6443  141.0277  143.1795 LP  0  0  0  0  0  0  0  0  0  0  0  0  # atno 17320 bound_to 7965
  144.7214  139.8018  143.7380 LP  0  0  0  0  0  0  0  0  0  0  0  0  # atno 17321 bound_to 7965
  140.3878  144.2654  150.5902 LP  0  0  0  0  0  0  0  0  0  0  0  0  # atno 17342 bound_to 10162
  140.5174  143.2274  151.8442 LP  0  0  0  0  0  0  0  0  0  0  0  0  # atno 17343 bound_to 10162
  157.0584  130.5815  149.5381 LP  0  0  0  0  0  0  0  0  0  0  0  0  # atno 17370 bound_to 10713
  156.0068  130.5156  150.7857 LP  0  0  0  0  0  0  0  0  0  0  0  0  # atno 17371 bound_to 10713
  141.1844  133.6553  156.5157 LP  0  0  0  0  0  0  0  0  0  0  0  0  # atno 17394 bound_to 11000
  140.4185  134.7208  157.4877 LP  0  0  0  0  0  0  0  0  0  0  0  0  # atno 17395 bound_to 11000

$$$$
