#       Name:                AV-unprocessed.smi:79
#       Creating user name   scv26
#       Creation time:       Thu Mar 26 17:14:59 2020


#       File generated by GOLD software.
#

@<TRIPOS>MOLECULE
AV-unprocessed.smi:79
    65    68     1
SMALL
NO_CHARGES


@<TRIPOS>ATOM
      1 ****        -3.8657   2.8798  -5.2005 C.3            1 S1                 0.0000
      2 ****        -3.7846   2.6696  -3.6831 C.3            1 S1                 0.0000
      3 ****        -5.0560   2.2525  -3.2277 O.3            1 S1                 0.0000
      4 ****        -2.7349   1.6072  -3.3010 C.3            1 S1                 0.0000
      5 ****        -2.5815   1.4573  -1.8311 N.4            1 S1                 1.0000
      6 ****        -2.0531   0.1220  -1.4512 C.3            1 S1                 0.0000
      7 ****        -2.0116  -0.0471   0.0773 C.3            1 S1                 0.0000
      8 ****        -1.2804   1.0548   0.6989 N.pl3          1 S1                 0.0000
      9 ****         0.0458   0.8358   0.8984 C.ar           1 S1                 0.0000
     10 ****         0.9664   1.6310   0.2908 N.ar           1 S1                 0.0000
     11 ****         2.2722   1.4202   0.4797 C.ar           1 S1                 0.0000
     12 ****         2.8668   0.4871   1.2248 N.ar           1 S1                 0.0000
     13 ****         1.9502  -0.3139   1.8391 C.ar           1 S1                 0.0000
     14 ****         0.5345  -0.2111   1.7300 C.ar           1 S1                 0.0000
     15 ****        -0.0710  -1.1919   2.5060 N.2            1 S1                 0.0000
     16 ****         0.9288  -1.8405   3.0382 C.2            1 S1                 0.0000
     17 ****         2.1794  -1.3849   2.6858 N.pl3          1 S1                 0.0000
     18 ****         3.4585  -1.9120   3.1372 C.3            1 S1                 0.0000
     19 ****         3.9601  -3.1169   2.3197 C.3            1 S1                 0.0000
     20 ****         4.2326  -2.6501   0.8757 C.3            1 S1                 0.0000
     21 ****         4.7914  -3.6706   0.0726 O.3            1 S1                 0.0000
     22 ****         5.0722  -3.9368   2.9891 C.3            1 S1                 0.0000
     23 ****         4.3407  -5.1717   2.8252 O.3            1 S1                 0.0000
     24 ****         3.1606  -4.4195   2.4665 C.3            1 S1                 0.0000
     25 ****        -1.7375   2.4008   0.3372 C.3            1 S1                 0.0000
     26 ****        -3.0817   2.7350   1.0067 C.3            1 S1                 0.0000
     27 ****        -1.8080   2.5604  -1.1985 C.3            1 S1                 0.0000
     28 ****        -2.9108   3.2230  -5.5993 H              1 S1                 0.0000
     29 ****        -4.6154   3.6302  -5.4543 H              1 S1                 0.0000
     30 ****        -4.1293   1.9570  -5.7184 H              1 S1                 0.0000
     31 ****        -3.5526   3.6272  -3.2186 H              1 S1                 0.0000
     32 ****        -5.3082   1.4742  -3.7013 H              1 S1                 0.0000
     33 ****        -3.0355   0.6535  -3.7382 H              1 S1                 0.0000
     34 ****        -1.7660   1.8496  -3.7403 H              1 S1                 0.0000
     35 ****        -2.6776  -0.6618  -1.8812 H              1 S1                 0.0000
     36 ****        -1.0525  -0.0024  -1.8686 H              1 S1                 0.0000
     37 ****        -3.0248  -0.0679   0.4789 H              1 S1                 0.0000
     38 ****        -1.5721  -1.0136   0.3222 H              1 S1                 0.0000
     39 ****         2.9354   2.0963  -0.0397 H              1 S1                 0.0000
     40 ****         0.7782  -2.6723   3.7109 H              1 S1                 0.0000
     41 ****         4.1913  -1.1042   3.1205 H              1 S1                 0.0000
     42 ****         3.3474  -2.1839   4.1875 H              1 S1                 0.0000
     43 ****         3.3145  -2.3251   0.3871 H              1 S1                 0.0000
     44 ****         4.9162  -1.8007   0.8650 H              1 S1                 0.0000
     45 ****         4.9424  -3.3236  -0.7932 H              1 S1                 0.0000
     46 ****         6.0211  -3.9343   2.4518 H              1 S1                 0.0000
     47 ****         5.2272  -3.6985   4.0423 H              1 S1                 0.0000
     48 ****         2.4336  -4.4088   3.2790 H              1 S1                 0.0000
     49 ****         2.7028  -4.7703   1.5410 H              1 S1                 0.0000
     50 ****        -1.0253   3.1327   0.7211 H              1 S1                 0.0000
     51 ****        -3.3772   3.7626   0.7937 H              1 S1                 0.0000
     52 ****        -3.0129   2.6336   2.0901 H              1 S1                 0.0000
     53 ****        -3.8863   2.0851   0.6623 H              1 S1                 0.0000
     54 ****        -0.8008   2.5656  -1.6172 H              1 S1                 0.0000
     55 ****        -2.2432   3.5292  -1.4401 H              1 S1                 0.0000
     56 ****        -3.5150   1.5032  -1.4475 H              1 S1                 0.0000
     57 ****        -5.7258   2.9770  -3.3904 LP             1 S1                 0.0000
     58 ****        -5.0134   2.0516  -2.2490 LP             1 S1                 0.0000
     59 ****         0.6643   2.3782  -0.3011 LP             1 S1                 0.0000
     60 ****         3.8573   0.3878   1.3205 LP             1 S1                 0.0000
     61 ****        -1.0488  -1.3619   2.6286 LP             1 S1                 0.0000
     62 ****         4.1584  -4.4430   0.0204 LP             1 S1                 0.0000
     63 ****         5.6573  -3.9755   0.4692 LP             1 S1                 0.0000
     64 ****         4.2457  -5.7054   3.6655 LP             1 S1                 0.0000
     65 ****         4.6888  -5.7594   2.0947 LP             1 S1                 0.0000
@<TRIPOS>BOND
    1    1    2 1     
    2    1   28 1     
    3    1   29 1     
    4    1   30 1     
    5    2    3 1     
    6    2    4 1     
    7    2   31 1     
    8    3   32 1     
    9    4    5 1     
   10    4   33 1     
   11    4   34 1     
   12    5   27 1     
   13    5    6 1     
   14    5   56 1     
   15    6    7 1     
   16    6   35 1     
   17    6   36 1     
   18    7    8 1     
   19    7   37 1     
   20    7   38 1     
   21    8    9 1     
   22    8   25 1     
   23    9   14 ar    
   24    9   10 ar    
   25   10   11 ar    
   26   11   12 ar    
   27   11   39 1     
   28   12   13 ar    
   29   13   17 1     
   30   13   14 ar    
   31   14   15 1     
   32   15   16 2     
   33   16   17 1     
   34   16   40 1     
   35   17   18 1     
   36   18   19 1     
   37   18   41 1     
   38   18   42 1     
   39   19   24 1     
   40   19   20 1     
   41   19   22 1     
   42   20   21 1     
   43   20   43 1     
   44   20   44 1     
   45   21   45 1     
   46   22   23 1     
   47   22   46 1     
   48   22   47 1     
   49   23   24 1     
   50   24   48 1     
   51   24   49 1     
   52   25   26 1     
   53   25   27 1     
   54   25   50 1     
   55   26   51 1     
   56   26   52 1     
   57   26   53 1     
   58   27   54 1     
   59   27   55 1     
   60    3   57 1     
   61    3   58 1     
   62   10   59 1     
   63   12   60 1     
   64   15   61 1     
   65   21   62 1     
   66   21   63 1     
   67   23   64 1     
   68   23   65 1     
@<TRIPOS>SUBSTRUCTURE
      1 S1             1
@<TRIPOS>SET
LONE_PAIRS      STATIC     ATOMS    <user>   **** ""
9 57 58 59 60 61 62 63 64 65
DONOR_HYDROGENS      STATIC     ATOMS    <user>   **** ""
3 32 56 45
ATOM$BLUE        STATIC     ATOMS    COLORGROUP SYSTEM
9 57 58 59 60 61 62 63 64 65
ATOM$RED        STATIC     ATOMS    COLORGROUP SYSTEM
3 32 56 45
