AV-unprocessed.smi:229|AV-procd|sdf|1758|dock5
  -GOLD-   2262020283D 1   1.00000     0.00000
 Structure written by MMmdl.
 58 62  0  0  0  0  0  0  0  0  1 V2000
  151.3117  130.9197  155.8972 C   0  0  0  0  0  0  0  0  0  0  0  0
  150.6482  131.7207  157.0243 C   0  0  0  0  0  0  0  0  0  0  0  0
  150.1081  133.0797  156.5545 C   0  0  1  0  0  0  0  0  0  0  0  0
  151.2247  134.1303  156.4432 C   0  0  0  0  0  0  0  0  0  0  0  0
  150.6893  135.3683  155.8945 N   0  0  0  0  0  0  0  0  0  0  0  0
  151.3808  136.5262  156.0556 C   0  0  0  0  0  0  0  0  0  0  0  0
  151.9075  137.0925  154.9384 N   0  0  0  0  0  0  0  0  0  0  0  0
  152.5876  138.2396  155.0128 C   0  0  0  0  0  0  0  0  0  0  0  0
  152.8579  138.9804  156.0882 N   0  0  0  0  0  0  0  0  0  0  0  0
  152.3386  138.4186  157.2164 C   0  0  0  0  0  0  0  0  0  0  0  0
  151.5940  137.2054  157.2942 C   0  0  0  0  0  0  0  0  0  0  0  0
  151.2486  136.9603  158.6201 N   0  0  0  0  0  0  0  0  0  0  0  0
  151.7472  137.9691  159.2801 C   0  0  0  0  0  0  0  0  0  0  0  0
  152.4162  138.8937  158.5132 N   0  0  0  0  0  0  0  0  0  0  0  0
  153.0647  140.1072  158.9782 C   0  0  0  0  0  0  0  0  0  0  0  0
  152.1335  141.3345  158.9132 C   0  0  1  0  0  0  0  0  0  0  0  0
  150.8339  140.9538  159.3250 O   0  0  0  0  0  0  0  0  0  0  0  0
  152.6207  142.4872  159.8109 C   0  0  2  0  0  0  0  0  0  0  0  0
  152.3417  142.2896  161.3013 C   0  0  0  0  0  0  0  0  0  0  0  0
  152.3939  143.7113  161.8112 C   0  0  0  0  0  0  0  0  0  0  0  0
  151.7464  144.4851  160.6654 C   0  0  0  0  0  0  0  0  0  0  0  0
  151.9357  143.6959  159.4929 O   0  0  0  0  0  0  0  0  0  0  0  0
  150.0070  135.1927  154.6164 C   0  0  0  0  0  0  0  0  0  0  0  0
  148.9261  134.0906  154.7133 C   0  0  2  0  0  0  0  0  0  0  0  0
  148.3847  133.7312  153.3328 C   0  0  0  0  0  0  0  0  0  0  0  0
  147.1238  134.5741  153.2190 C   0  0  0  0  0  0  0  0  0  0  0  0
  146.5798  134.4783  154.5217 O   0  0  0  0  0  0  0  0  0  0  0  0
  147.6509  134.5565  155.4555 C   0  0  0  0  0  0  0  0  0  0  0  0
  149.4976  132.9050  155.2746 O   0  0  0  0  0  0  0  0  0  0  0  0
  151.6668  129.9565  156.2637 H   0  0  0  0  0  0  0  0  0  0  0  0
  152.1679  131.4528  155.4829 H   0  0  0  0  0  0  0  0  0  0  0  0
  150.6102  130.7286  155.0846 H   0  0  0  0  0  0  0  0  0  0  0  0
  149.8295  131.1303  157.4369 H   0  0  0  0  0  0  0  0  0  0  0  0
  151.3603  131.8675  157.8372 H   0  0  0  0  0  0  0  0  0  0  0  0
  149.3700  133.4259  157.2787 H   0  0  0  0  0  0  0  0  0  0  0  0
  151.6517  134.3093  157.4306 H   0  0  0  0  0  0  0  0  0  0  0  0
  152.0235  133.7644  155.7969 H   0  0  0  0  0  0  0  0  0  0  0  0
  152.9675  138.6194  154.0758 H   0  0  0  0  0  0  0  0  0  0  0  0
  151.6375  138.0679  160.3503 H   0  0  0  0  0  0  0  0  0  0  0  0
  153.4161  139.9466  159.9985 H   0  0  0  0  0  0  0  0  0  0  0  0
  153.9523  140.2711  158.3660 H   0  0  0  0  0  0  0  0  0  0  0  0
  152.0706  141.6841  157.8818 H   0  0  0  0  0  0  0  0  0  0  0  0
  150.3317  141.7363  159.4930 H   0  0  0  0  0  0  0  0  0  0  0  0
  153.6887  142.6588  159.6640 H   0  0  0  0  0  0  0  0  0  0  0  0
  151.3449  141.8733  161.4555 H   0  0  0  0  0  0  0  0  0  0  0  0
  153.0658  141.6355  161.7880 H   0  0  0  0  0  0  0  0  0  0  0  0
  151.8795  143.8470  162.7630 H   0  0  0  0  0  0  0  0  0  0  0  0
  153.4318  144.0234  161.9359 H   0  0  0  0  0  0  0  0  0  0  0  0
  150.6756  144.6009  160.8353 H   0  0  0  0  0  0  0  0  0  0  0  0
  152.1791  145.4788  160.5467 H   0  0  0  0  0  0  0  0  0  0  0  0
  149.5558  136.1211  154.2648 H   0  0  0  0  0  0  0  0  0  0  0  0
  150.7578  134.9129  153.8760 H   0  0  0  0  0  0  0  0  0  0  0  0
  149.0914  133.9101  152.5220 H   0  0  0  0  0  0  0  0  0  0  0  0
  148.1078  132.6762  153.3007 H   0  0  0  0  0  0  0  0  0  0  0  0
  147.3622  135.6143  152.9908 H   0  0  0  0  0  0  0  0  0  0  0  0
  146.4318  134.2007  152.4640 H   0  0  0  0  0  0  0  0  0  0  0  0
  147.4071  133.9370  156.3179 H   0  0  0  0  0  0  0  0  0  0  0  0
  147.7471  135.5855  155.8047 H   0  0  0  0  0  0  0  0  0  0  0  0
  1  2  1  0  0  0  0
  1 30  1  0  0  0  0
  1 31  1  0  0  0  0
  1 32  1  0  0  0  0
  2  3  1  0  0  0  0
  2 33  1  0  0  0  0
  2 34  1  0  0  0  0
  3 29  1  0  0  0  0
  3  4  1  0  0  0  0
  3 35  1  0  0  0  0
  4  5  1  0  0  0  0
  4 36  1  0  0  0  0
  4 37  1  0  0  0  0
  5  6  1  0  0  0  0
  5 23  1  0  0  0  0
  6 11  1  0  0  0  0
  6  7  2  0  0  0  0
  7  8  1  0  0  0  0
  8  9  2  0  0  0  0
  8 38  1  0  0  0  0
  9 10  1  0  0  0  0
 10 14  1  0  0  0  0
 10 11  2  0  0  0  0
 11 12  1  0  0  0  0
 12 13  2  0  0  0  0
 13 14  1  0  0  0  0
 13 39  1  0  0  0  0
 14 15  1  0  0  0  0
 15 16  1  0  0  0  0
 15 40  1  0  0  0  0
 15 41  1  0  0  0  0
 16 17  1  0  0  0  0
 16 18  1  0  0  0  0
 16 42  1  0  0  0  0
 17 43  1  0  0  0  0
 18 22  1  0  0  0  0
 18 19  1  0  0  0  0
 18 44  1  0  0  0  0
 19 20  1  0  0  0  0
 19 45  1  0  0  0  0
 19 46  1  0  0  0  0
 20 21  1  0  0  0  0
 20 47  1  0  0  0  0
 20 48  1  0  0  0  0
 21 22  1  0  0  0  0
 21 49  1  0  0  0  0
 21 50  1  0  0  0  0
 23 24  1  0  0  0  0
 23 51  1  0  0  0  0
 23 52  1  0  0  0  0
 24 28  1  0  0  0  0
 24 25  1  0  0  0  0
 24 29  1  0  0  0  0
 25 26  1  0  0  0  0
 25 53  1  0  0  0  0
 25 54  1  0  0  0  0
 26 27  1  0  0  0  0
 26 55  1  0  0  0  0
 26 56  1  0  0  0  0
 27 28  1  0  0  0  0
 28 57  1  0  0  0  0
 28 58  1  0  0  0  0
M  END
> <s_m_source_file>
AV-unprocessed.smi

> <i_m_source_file_index>
229

> <i_lp_mmshare_version>
43012

> <i_f3d_flags>
0

> <s_epik_input>
W0NIMl0xT1tDSDJdW0NIMl1bQ0BdMTJbQ0gyXU4oW0NIMl1bQ0BIXShPMilbQ0gyXVtDSDNdKWMobltjSF1uMyljKGMzNCluW2NIXW40W0NIMl1bQ0BIXShbT0hdKVtDQEBIXTVbQ0gyXVtDSDJdW0NIMl1PNQ==

> <s_epik_cmdline>
J2VwaWtfcHl0aG9uJywgJy1waCcsICc3LjAnLCAnLXRuJywgJzgnLCAnLW1hJywgJzIwMCcsICctbWV0YWxfYmluZGluZycsICctaW1hZScsICc8aW5maWxlLm1hZT4nLCAnLW9tYWUnLCAnPG91dGZpbGUubWFlPic=

> <r_lp_tautomer_probability>
1

> <r_epik_Ionization_Penalty>
0.00318402

> <r_epik_Ionization_Penalty_Charging>
0

> <r_epik_Ionization_Penalty_Neutral>
0.00318402

> <r_epik_State_Penalty>
0.00215642

> <r_epik_Charging_Adjusted_Penalty>
0.00215642

> <i_epik_Tot_Q>
0

> <i_epik_Tot_abs_Q>
0

> <r_epik_Metal_State_Penalty>
-0

> <b_epik_Metal_Only>
0

> <s_lp_Force_Field>
OPLS_2005

> <r_lp_Energy>
55.1094

> <b_lp_Chiralities_Consistent>
1

> <s_lp_Variant>
AV-unprocessed.smi:229-12

> <Gold.Version>
5.8.1

> <Gold.Id.Protein>
6NUR|6NUR_protein|mol2

> <Gold.PLP.Fitness>
48.8816

> <Gold.PLP.PLP>
-44.2180

> <Gold.PLP.part.hbond>
-4.0000

> <Gold.PLP.part.metal>
0.0000

> <Gold.PLP.part.buried>
-4.1574

> <Gold.PLP.part.nonpolar>
-36.3524

> <Gold.PLP.part.repulsive>
0.1886

> <Gold.PLP.ligand.clash>
0.0000

> <Gold.PLP.ligand.torsion>
1.3708

> <Gold.PLP.Chemscore.Hbond>
2.3011

> <Gold.PLP.Chemscore.CHOScore>
0.0000

> <Gold.PLP.Chemscore.Metal>
0.0000

> <Gold.Chemscore.Hbonds>
donor molecule, donor type, donor heavy atom, donor atom, acceptor molecule, acceptor atom, score
      P1  H  6896  6908       L1    12  0.45
      P1  H  7997  8010       L1     9  1.00
      P1  H 10752 10764       L1     7  0.78

> <Gold.PLP.Chemscore.Internal.Correction>
0.5019

> <Gold.Rescore>
     Score         DG    S(hbond)    S(metal)    S(lipo)     H(rot)  DE(clash)    DE(int)     intcor
     16.90     -18.57       2.13        0.00     104.84       2.46       0.43       1.25       ----

> <Gold.Chemscore.Fitness>
16.8961

> <Gold.Chemscore.DG>
-18.5741

> <Gold.Chemscore.ZeroCoef>
-5.4800

> <Gold.Chemscore.Hbond>
2.1327

> <Gold.Chemscore.Metal>
0.0000

> <Gold.Chemscore.Lipo>
104.8387

> <Gold.Chemscore.Internal_Hbond>
0.0000

> <Gold.Chemscore.DEClash>
0.4267

> <Gold.Chemscore.DEInternal>
1.2514

> <Gold.Chemscore.Rot>
2.4591

> <Gold.Chemscore.Internal.Correction>
   9.000000E+99

> <Gold.Chemscore.Hbonds>
donor molecule, donor type, donor heavy atom, donor atom, acceptor molecule, acceptor atom, score
      P1  H  6896  6908       L1    12  0.36
      P1  H  7997  8010       L1     9  0.96
      P1  H 10752 10764       L1     7  0.27

> <Gold.Chemscore.Hbond.Weighted>
-7.1233

> <Gold.Chemscore.Metal.Weighted>
-0.0000

> <Gold.Chemscore.Lipo.Weighted>
-12.2661

> <Gold.Chemscore.Internal_Hbond.Weighted>
0.0000

> <Gold.Chemscore.DEClash.Weighted>
0.4267

> <Gold.Chemscore.DEInternal.Weighted>
1.2514

> <Gold.Chemscore.Rot.Weighted>
6.2953

> <Gold.Chemscore.Internal.Correction.Weighted>
   9.000000E+99

> <Gold.Protein.RotatedTorsions>
[ 6907 6896 6895 6894 ] final -142.43 input  -60.11 | X-H torsion
[ 7974 7965 7964 7962 ] final    2.38 input  175.53 | X-H torsion
[ 8008 7997 7996 7995 ] final   90.01 input   59.86 | X-H torsion
[ 10167 10162 10161 10158 ] final  140.20 input  -65.29 | X-H torsion
[ 10718 10713 10712 10709 ] final -130.10 input   66.30 | X-H torsion
[ 10763 10752 10751 10750 ] final  -85.40 input  -60.55 | X-H torsion
[ 11005 11000 10999 10996 ] final   39.38 input  -57.11 | X-H torsion

> <Gold.Protein.ActiveResidues>
 VAL166  LYS551  ARG553  GLY616  TRP617  ASP618  TYR619  PRO620  LYS621  CYS622 
 ASP623  PHE694  ASN695  SER759  ASP760  ASP761  ALA762  ILE779  LEU786  VAL792 
 PHE793  MET794  SER795  GLU796  ALA797  LYS798  CYS799  TRP800  GLU811  SER814 

> <Gold.Protein.RotatedAtoms>
  151.0869  133.5346  159.2616 H   0  0  0  0  0  0  0  0  0  0  0  0  # atno 6907 bound_to 6896
  151.2228  135.0524  159.8966 H   0  0  0  0  0  0  0  0  0  0  0  0  # atno 6908 bound_to 6896
  152.5430  134.0669  159.8230 H   0  0  0  0  0  0  0  0  0  0  0  0  # atno 6909 bound_to 6896
  146.2443  140.0845  142.8355 H   0  0  0  0  0  0  0  0  0  0  0  0  # atno 7974 bound_to 7965
  156.0068  140.3354  155.6901 H   0  0  0  0  0  0  0  0  0  0  0  0  # atno 8008 bound_to 7997
  155.6213  140.0675  157.2695 H   0  0  0  0  0  0  0  0  0  0  0  0  # atno 8009 bound_to 7997
  154.4268  140.1776  156.1362 H   0  0  0  0  0  0  0  0  0  0  0  0  # atno 8010 bound_to 7997
  139.5056  144.6249  151.5962 H   0  0  0  0  0  0  0  0  0  0  0  0  # atno 10167 bound_to 10162
  156.2111  130.6919  151.0650 H   0  0  0  0  0  0  0  0  0  0  0  0  # atno 10718 bound_to 10713
  154.6107  135.5486  153.7470 H   0  0  0  0  0  0  0  0  0  0  0  0  # atno 10763 bound_to 10752
  153.0194  135.6389  154.1583 H   0  0  0  0  0  0  0  0  0  0  0  0  # atno 10764 bound_to 10752
  154.1520  135.2902  155.3112 H   0  0  0  0  0  0  0  0  0  0  0  0  # atno 10765 bound_to 10752
  140.2034  134.3843  155.8085 H   0  0  0  0  0  0  0  0  0  0  0  0  # atno 11005 bound_to 11000
  145.0704  140.9151  143.4885 LP  0  0  0  0  0  0  0  0  0  0  0  0  # atno 17320 bound_to 7965
  145.0978  139.2844  143.5702 LP  0  0  0  0  0  0  0  0  0  0  0  0  # atno 17321 bound_to 7965
  140.5962  143.9691  150.6356 LP  0  0  0  0  0  0  0  0  0  0  0  0  # atno 17342 bound_to 10162
  140.2888  143.3338  152.1082 LP  0  0  0  0  0  0  0  0  0  0  0  0  # atno 17343 bound_to 10162
  157.7039  131.0765  150.6732 LP  0  0  0  0  0  0  0  0  0  0  0  0  # atno 17370 bound_to 10713
  156.6792  130.4562  149.5633 LP  0  0  0  0  0  0  0  0  0  0  0  0  # atno 17371 bound_to 10713
  141.2227  133.7105  156.8296 LP  0  0  0  0  0  0  0  0  0  0  0  0  # atno 17394 bound_to 11000
  140.2029  134.8883  157.3190 LP  0  0  0  0  0  0  0  0  0  0  0  0  # atno 17395 bound_to 11000

$$$$
