AV-unprocessed.smi:561|AV-procd|sdf|2943|dock8
  -GOLD-   2262023443D 1   1.00000     0.00000
 Structure written by MMmdl.
 35 36  0  0  0  0  0  0  0  0  2 V2000
  152.2522  141.0218  159.0367 C   0  0  0  0  0  0  0  0  0  0  0  0
  151.0962  141.2436  158.0510 C   0  0  1  0  0  0  0  0  0  0  0  0
  151.2039  142.6232  157.3558 C   0  0  0  0  0  0  0  0  0  0  0  0
  151.2804  143.7516  158.2782 N   0  0  0  0  0  0  0  0  0  0  0  0
  152.4213  144.2608  158.8905 C   0  0  0  0  0  0  0  0  0  0  0  0
  152.0116  145.3072  159.6850 C   0  0  0  0  0  0  0  0  0  0  0  0
  150.6300  145.4554  159.5902 N   0  0  0  0  0  0  0  0  0  0  0  0
  150.2678  144.5008  158.7423 C   0  0  0  0  0  0  0  0  0  0  0  0
  151.1236  140.1814  157.0396 N   0  5  0  0  0  0  0  0  0  0  0  0
  150.6471  140.2865  155.7646 C   0  0  0  0  0  0  0  0  0  0  0  0
  151.2651  140.0144  154.7265 O   0  0  0  0  0  0  0  0  0  0  0  0
  149.2456  140.7678  155.5877 C   0  0  0  0  0  0  0  0  0  0  0  0
  148.5719  141.1300  156.6343 N   0  0  0  0  0  0  0  0  0  0  0  0
  147.2661  141.5695  156.5583 N   0  0  0  0  0  0  0  0  0  0  0  0
  146.6010  141.6539  157.8583 C   0  0  0  0  0  0  0  0  0  0  0  0
  146.6402  141.9201  155.4057 C   0  0  0  0  0  0  0  0  0  0  0  0
  145.4688  142.2936  155.3407 O   0  0  0  0  0  0  0  0  0  0  0  0
  147.4832  141.8655  154.1288 C   0  0  0  0  0  0  0  0  0  0  0  0
  148.6029  140.8106  154.2116 C   0  0  0  0  0  0  0  0  0  0  0  0
  152.2618  141.7927  159.8074 H   0  0  0  0  0  0  0  0  0  0  0  0
  153.2186  141.0452  158.5316 H   0  0  0  0  0  0  0  0  0  0  0  0
  152.1607  140.0585  159.5394 H   0  0  0  0  0  0  0  0  0  0  0  0
  150.1704  141.2393  158.6289 H   0  0  0  0  0  0  0  0  0  0  0  0
  152.0949  142.6487  156.7270 H   0  0  0  0  0  0  0  0  0  0  0  0
  150.3559  142.7810  156.6876 H   0  0  0  0  0  0  0  0  0  0  0  0
  153.4025  143.8491  158.7059 H   0  0  0  0  0  0  0  0  0  0  0  0
  152.6002  145.9570  160.3157 H   0  0  0  0  0  0  0  0  0  0  0  0
  149.2404  144.3412  158.4501 H   0  0  0  0  0  0  0  0  0  0  0  0
  145.5861  142.0505  157.8107 H   0  0  0  0  0  0  0  0  0  0  0  0
  147.1699  142.2986  158.5294 H   0  0  0  0  0  0  0  0  0  0  0  0
  146.5442  140.6643  158.3133 H   0  0  0  0  0  0  0  0  0  0  0  0
  146.8462  141.6752  153.2644 H   0  0  0  0  0  0  0  0  0  0  0  0
  147.9222  142.8534  153.9842 H   0  0  0  0  0  0  0  0  0  0  0  0
  149.3410  141.0469  153.4442 H   0  0  0  0  0  0  0  0  0  0  0  0
  148.2085  139.8237  153.9672 H   0  0  0  0  0  0  0  0  0  0  0  0
  1  2  1  0  0  0  0
  1 20  1  0  0  0  0
  1 21  1  0  0  0  0
  1 22  1  0  0  0  0
  2  3  1  0  0  0  0
  2  9  1  0  0  0  0
  2 23  1  0  0  0  0
  3  4  1  0  0  0  0
  3 24  1  0  0  0  0
  3 25  1  0  0  0  0
  4  8  1  0  0  0  0
  4  5  1  0  0  0  0
  5  6  2  0  0  0  0
  5 26  1  0  0  0  0
  6  7  1  0  0  0  0
  6 27  1  0  0  0  0
  7  8  2  0  0  0  0
  8 28  1  0  0  0  0
  9 10  1  0  0  0  0
 10 11  2  0  0  0  0
 10 12  1  0  0  0  0
 12 19  1  0  0  0  0
 12 13  2  0  0  0  0
 13 14  1  0  0  0  0
 14 15  1  0  0  0  0
 14 16  1  0  0  0  0
 15 29  1  0  0  0  0
 15 30  1  0  0  0  0
 15 31  1  0  0  0  0
 16 17  2  0  0  0  0
 16 18  1  0  0  0  0
 18 19  1  0  0  0  0
 18 32  1  0  0  0  0
 18 33  1  0  0  0  0
 19 34  1  0  0  0  0
 19 35  1  0  0  0  0
M  CHG  1   9  -1
M  END
> <s_m_source_file>
AV-unprocessed.smi

> <i_m_source_file_index>
561

> <i_lp_mmshare_version>
43012

> <i_f3d_flags>
0

> <s_epik_input>
W2NIXTFuW2NIXVtjSF1uMVtDSDJdW0NAQEhdKFtDSDNdKVtOSF1DKD1PKUMyPU5OKFtDSDNdKUMoPU8pW0NIMl1bQ0gyXTI=

> <s_epik_cmdline>
J2VwaWtfcHl0aG9uJywgJy1waCcsICc3LjAnLCAnLXRuJywgJzgnLCAnLW1hJywgJzIwMCcsICctbWV0YWxfYmluZGluZycsICctaW1hZScsICc8aW5maWxlLm1hZT4nLCAnLW9tYWUnLCAnPG91dGZpbGUubWFlPic=

> <r_lp_tautomer_probability>
1

> <r_epik_Ionization_Penalty>
6.06239

> <r_epik_Ionization_Penalty_Charging>
6.06239

> <r_epik_Ionization_Penalty_Neutral>
3.91387e-09

> <r_epik_State_Penalty>
5.76729

> <r_epik_Charging_Adjusted_Penalty>
11.8297

> <i_epik_Tot_Q>
-1

> <i_epik_Tot_abs_Q>
1

> <r_epik_Metal_State_Penalty>
2.02369

> <b_epik_Metal_Only>
1

> <s_epik_Chemistry_Notes>
This compound has an imine and may undergo hydrolysis.

> <s_lp_Force_Field>
OPLS_2005

> <r_lp_Energy>
27.3289

> <b_lp_Chiralities_Consistent>
1

> <s_lp_Variant>
AV-unprocessed.smi:561-8

> <Gold.Version>
5.8.1

> <Gold.Id.Protein>
6NUR|6NUR_protein|mol2

> <Gold.PLP.Fitness>
41.0355

> <Gold.PLP.PLP>
-37.1482

> <Gold.PLP.part.hbond>
-1.8994

> <Gold.PLP.part.metal>
0.0000

> <Gold.PLP.part.buried>
-6.1456

> <Gold.PLP.part.nonpolar>
-30.1422

> <Gold.PLP.part.repulsive>
0.5267

> <Gold.PLP.ligand.clash>
0.0000

> <Gold.PLP.ligand.torsion>
1.2144

> <Gold.PLP.Chemscore.Hbond>
1.0000

> <Gold.PLP.Chemscore.CHOScore>
1.0909

> <Gold.PLP.Chemscore.Metal>
0.0000

> <Gold.Chemscore.Hbonds>
donor molecule, donor type, donor heavy atom, donor atom, acceptor molecule, acceptor atom, score
      P1  H  7989  7998       L1    11  1.00
      L1  C     8    28       P1  8028  0.04
      L1  C     8    28       P1  8029  0.89

> <Gold.PLP.Chemscore.Internal.Correction>
0.0434

> <Gold.Rescore>
     Score         DG    S(hbond)    S(metal)    S(lipo)     H(rot)  DE(clash)    DE(int)     intcor
     11.71     -13.00       0.99        0.00      72.64       1.68       0.11       1.19       ----

> <Gold.Chemscore.Fitness>
11.7065

> <Gold.Chemscore.DG>
-13.0019

> <Gold.Chemscore.ZeroCoef>
-5.4800

> <Gold.Chemscore.Hbond>
0.9949

> <Gold.Chemscore.Metal>
0.0000

> <Gold.Chemscore.Lipo>
72.6370

> <Gold.Chemscore.Internal_Hbond>
0.0000

> <Gold.Chemscore.DEClash>
0.1092

> <Gold.Chemscore.DEInternal>
1.1863

> <Gold.Chemscore.Rot>
1.6796

> <Gold.Chemscore.Internal.Correction>
   9.000000E+99

> <Gold.Chemscore.Hbonds>
donor molecule, donor type, donor heavy atom, donor atom, acceptor molecule, acceptor atom, score
      P1  H  7989  7998       L1    11  0.94

> <Gold.Chemscore.Hbond.Weighted>
-3.3231

> <Gold.Chemscore.Metal.Weighted>
-0.0000

> <Gold.Chemscore.Lipo.Weighted>
-8.4985

> <Gold.Chemscore.Internal_Hbond.Weighted>
0.0000

> <Gold.Chemscore.DEClash.Weighted>
0.1092

> <Gold.Chemscore.DEInternal.Weighted>
1.1863

> <Gold.Chemscore.Rot.Weighted>
4.2997

> <Gold.Chemscore.Internal.Correction.Weighted>
   9.000000E+99

> <Gold.Protein.RotatedTorsions>
[ 6907 6896 6895 6894 ] final   -5.39 input  -60.11 | X-H torsion
[ 7974 7965 7964 7962 ] final  115.32 input  175.53 | X-H torsion
[ 8008 7997 7996 7995 ] final   59.37 input   59.86 | X-H torsion
[ 10167 10162 10161 10158 ] final  -90.48 input  -65.29 | X-H torsion
[ 10718 10713 10712 10709 ] final  129.07 input   66.30 | X-H torsion
[ 10763 10752 10751 10750 ] final  164.94 input  -60.55 | X-H torsion
[ 11005 11000 10999 10996 ] final -110.91 input  -57.11 | X-H torsion

> <Gold.Protein.ActiveResidues>
 VAL166  LYS551  ARG553  GLY616  TRP617  ASP618  TYR619  PRO620  LYS621  CYS622 
 ASP623  PHE694  ASN695  SER759  ASP760  ASP761  ALA762  ILE779  LEU786  VAL792 
 PHE793  MET794  SER795  GLU796  ALA797  LYS798  CYS799  TRP800  GLU811  SER814 

> <Gold.Protein.RotatedAtoms>
  151.4823  135.1053  159.9780 H   0  0  0  0  0  0  0  0  0  0  0  0  # atno 6907 bound_to 6896
  152.4774  133.8168  159.7043 H   0  0  0  0  0  0  0  0  0  0  0  0  # atno 6908 bound_to 6896
  150.8822  133.7295  159.2955 H   0  0  0  0  0  0  0  0  0  0  0  0  # atno 6909 bound_to 6896
  145.1935  139.2988  143.4356 H   0  0  0  0  0  0  0  0  0  0  0  0  # atno 7974 bound_to 7965
  155.5650  140.3489  155.4501 H   0  0  0  0  0  0  0  0  0  0  0  0  # atno 8008 bound_to 7997
  156.0486  140.1312  157.0101 H   0  0  0  0  0  0  0  0  0  0  0  0  # atno 8009 bound_to 7997
  154.4424  140.1009  156.6328 H   0  0  0  0  0  0  0  0  0  0  0  0  # atno 8010 bound_to 7997
  140.3544  143.2874  151.9688 H   0  0  0  0  0  0  0  0  0  0  0  0  # atno 10167 bound_to 10162
  157.5187  131.1098  150.9186 H   0  0  0  0  0  0  0  0  0  0  0  0  # atno 10718 bound_to 10713
  154.3165  135.2756  155.2540 H   0  0  0  0  0  0  0  0  0  0  0  0  # atno 10763 bound_to 10752
  154.4913  135.5833  153.6464 H   0  0  0  0  0  0  0  0  0  0  0  0  # atno 10764 bound_to 10752
  152.9881  135.6135  154.3346 H   0  0  0  0  0  0  0  0  0  0  0  0  # atno 10765 bound_to 10752
  141.0765  133.9292  157.2379 H   0  0  0  0  0  0  0  0  0  0  0  0  # atno 11005 bound_to 11000
  146.3432  140.2155  142.8590 LP  0  0  0  0  0  0  0  0  0  0  0  0  # atno 17320 bound_to 7965
  145.0018  140.8638  143.5277 LP  0  0  0  0  0  0  0  0  0  0  0  0  # atno 17321 bound_to 7965
  139.4822  144.6047  151.7542 LP  0  0  0  0  0  0  0  0  0  0  0  0  # atno 17342 bound_to 10162
  140.5187  144.0912  150.6016 LP  0  0  0  0  0  0  0  0  0  0  0  0  # atno 17343 bound_to 10162
  156.9803  130.5524  149.5296 LP  0  0  0  0  0  0  0  0  0  0  0  0  # atno 17370 bound_to 10713
  156.0338  130.5427  150.8603 LP  0  0  0  0  0  0  0  0  0  0  0  0  # atno 17371 bound_to 10713
  139.9577  135.0161  156.9175 LP  0  0  0  0  0  0  0  0  0  0  0  0  # atno 17394 bound_to 11000
  140.5562  134.0579  155.7384 LP  0  0  0  0  0  0  0  0  0  0  0  0  # atno 17395 bound_to 11000

$$$$
