#       Name:                AV-unprocessed.smi:1961
#       Creating user name   scv26
#       Creation time:       Fri Mar 27 10:08:44 2020


#       File generated by GOLD software.
#

@<TRIPOS>MOLECULE
AV-unprocessed.smi:1961
    42    43     1
SMALL
NO_CHARGES


@<TRIPOS>ATOM
      1 ****        -6.1316   0.6130   1.1486 C.3            1 S1                 0.0000
      2 ****        -5.0755  -0.0850   0.2791 C.3            1 S1                 0.0000
      3 ****        -5.4893  -1.4982  -0.1559 C.3            1 S1                 0.0000
      4 ****        -3.7194  -0.0649   0.9119 C.2            1 S1                 0.0000
      5 ****        -3.4409  -0.6826   2.0640 N.2            1 S1                 0.0000
      6 ****        -2.1164  -0.5177   2.4410 N.2            1 S1                 0.0000
      7 ****        -1.4081   0.2104   1.5668 C.2            1 S1                 0.0000
      8 ****        -0.1064   0.4882   1.7471 N.pl3          1 S1                -1.0000
      9 ****         0.8355  -0.2435   1.1095 C.2            1 S1                 0.0000
     10 ****         0.6321  -1.1958   0.3526 O.2            1 S1                 0.0000
     11 ****         2.0905   0.1558   1.3600 N.am           1 S1                 0.0000
     12 ****         3.3020  -0.4330   0.8001 C.3            1 S1                 0.0000
     13 ****         3.5517   0.0474  -0.6391 C.3            1 S1                 0.0000
     14 ****         4.7808  -0.5757  -1.2963 C.3            1 S1                 0.0000
     15 ****         5.1720   0.4456  -2.3537 C.3            1 S1                 0.0000
     16 ****         4.4091   1.7117  -1.9512 C.3            1 S1                 0.0000
     17 ****         3.8712   1.4297  -0.6672 O.3            1 S1                 0.0000
     18 ****        -2.3561   0.7765   0.1925 S.3            1 S1                 0.0000
     19 ****        -5.8408   1.6408   1.3687 H              1 S1                 0.0000
     20 ****        -6.2689   0.0949   2.0983 H              1 S1                 0.0000
     21 ****        -7.0978   0.6432   0.6444 H              1 S1                 0.0000
     22 ****        -4.9955   0.5045  -0.6351 H              1 S1                 0.0000
     23 ****        -4.7563  -1.9269  -0.8401 H              1 S1                 0.0000
     24 ****        -6.4517  -1.4860  -0.6679 H              1 S1                 0.0000
     25 ****        -5.5764  -2.1680   0.7003 H              1 S1                 0.0000
     26 ****         2.2114   0.9418   1.9816 H              1 S1                 0.0000
     27 ****         4.1433  -0.1633   1.4389 H              1 S1                 0.0000
     28 ****         3.2286  -1.5212   0.8283 H              1 S1                 0.0000
     29 ****         2.6747  -0.1298  -1.2650 H              1 S1                 0.0000
     30 ****         5.5879  -0.6745  -0.5691 H              1 S1                 0.0000
     31 ****         4.5794  -1.5634  -1.7120 H              1 S1                 0.0000
     32 ****         6.2503   0.6069  -2.3599 H              1 S1                 0.0000
     33 ****         4.8746   0.1209  -3.3514 H              1 S1                 0.0000
     34 ****         5.0468   2.5954  -1.9239 H              1 S1                 0.0000
     35 ****         3.5906   1.9033  -2.6467 H              1 S1                 0.0000
     36 ****        -4.1105  -1.2037   2.5933 LP             1 S1                 0.0000
     37 ****        -1.7297  -0.9026   3.2791 LP             1 S1                 0.0000
     38 ****         0.1662   1.2359   2.3527 LP             1 S1                 0.0000
     39 ****        -0.3039  -1.4919   0.1619 LP             1 S1                 0.0000
     40 ****         1.4031  -1.6719  -0.0703 LP             1 S1                 0.0000
     41 ****         4.5459   1.6396   0.0404 LP             1 S1                 0.0000
     42 ****         3.0469   1.9748  -0.5140 LP             1 S1                 0.0000
@<TRIPOS>BOND
    1    1    2 1     
    2    1   19 1     
    3    1   20 1     
    4    1   21 1     
    5    2    3 1     
    6    2    4 1     
    7    2   22 1     
    8    3   23 1     
    9    3   24 1     
   10    3   25 1     
   11    4   18 1     
   12    4    5 2     
   13    5    6 1     
   14    6    7 2     
   15    7    8 1     
   16    7   18 1     
   17    8    9 1     
   18    9   10 2     
   19    9   11 am    
   20   11   12 1     
   21   11   26 1     
   22   12   13 1     
   23   12   27 1     
   24   12   28 1     
   25   13   17 1     
   26   13   14 1     
   27   13   29 1     
   28   14   15 1     
   29   14   30 1     
   30   14   31 1     
   31   15   16 1     
   32   15   32 1     
   33   15   33 1     
   34   16   17 1     
   35   16   34 1     
   36   16   35 1     
   37    5   36 1     
   38    6   37 1     
   39    8   38 1     
   40   10   39 1     
   41   10   40 1     
   42   17   41 1     
   43   17   42 1     
@<TRIPOS>SUBSTRUCTURE
      1 S1             1
@<TRIPOS>SET
LONE_PAIRS      STATIC     ATOMS    <user>   **** ""
7 36 37 38 39 40 41 42
DONOR_HYDROGENS      STATIC     ATOMS    <user>   **** ""
1 26
ATOM$BLUE        STATIC     ATOMS    COLORGROUP SYSTEM
7 36 37 38 39 40 41 42
ATOM$RED        STATIC     ATOMS    COLORGROUP SYSTEM
1 26
