AV-unprocessed.smi:837|AV-procd|sdf|3897|dock3
  -GOLD-   22720 1353D 1   1.00000     0.00000
 Structure written by MMmdl.
 50 52  0  0  0  0  0  0  0  0  2 V2000
  145.5018  136.9803  161.4000 C   0  0  0  0  0  0  0  0  0  0  0  0
  145.7389  135.4698  161.6088 C   0  0  1  0  0  0  0  0  0  0  0  0
  144.4221  134.6815  161.4383 C   0  0  0  0  0  0  0  0  0  0  0  0
  144.6128  133.1864  161.7367 C   0  0  0  0  0  0  0  0  0  0  0  0
  145.7168  132.5748  160.8629 C   0  0  0  0  0  0  0  0  0  0  0  0
  147.0400  133.3455  161.0178 C   0  0  0  0  0  0  0  0  0  0  0  0
  146.8941  134.8651  160.7493 C   0  0  2  0  0  0  0  0  0  0  0  0
  148.1562  135.5303  161.0232 N   0  0  0  0  0  0  0  0  0  0  0  0
  148.7023  136.0946  159.9395 C   0  0  0  0  0  0  0  0  0  0  0  0
  149.7749  136.6971  159.9178 O   0  0  0  0  0  0  0  0  0  0  0  0
  147.8816  135.8855  158.8954 N   0  0  0  0  0  0  0  0  0  0  0  0
  148.1607  136.3384  157.5267 C   0  0  0  0  0  0  0  0  0  0  0  0
  148.4024  137.8512  157.4392 C   0  0  0  0  0  0  0  0  0  0  0  0
  147.4794  138.6489  157.6092 O   0  0  0  0  0  0  0  0  0  0  0  0
  149.6604  138.2312  157.1708 N   0  0  0  0  0  0  0  0  0  0  0  0
  150.1089  139.6121  157.0141 C   0  0  0  0  0  0  0  0  0  0  0  0
  151.2403  139.9996  157.9892 C   0  0  0  0  0  0  0  0  0  0  0  0
  151.4458  141.4992  158.1228 C   0  0  0  0  0  0  0  0  0  0  0  0
  152.3489  142.0198  159.0767 C   0  0  0  0  0  0  0  0  0  0  0  0
  152.5120  143.4162  159.1854 C   0  0  0  0  0  0  0  0  0  0  0  0
  151.7720  144.2617  158.3342 C   0  0  0  0  0  0  0  0  0  0  0  0
  150.9201  143.7279  157.4314 N   0  3  0  0  0  0  0  0  0  0  0  0
  150.7336  142.3962  157.2978 C   0  0  0  0  0  0  0  0  0  0  0  0
  146.8021  135.1766  159.2537 C   0  0  0  0  0  0  0  0  0  0  0  0
  145.8797  134.8208  158.5199 O   0  0  0  0  0  0  0  0  0  0  0  0
  145.1555  137.2007  160.3900 H   0  0  0  0  0  0  0  0  0  0  0  0
  146.4085  137.5588  161.5770 H   0  0  0  0  0  0  0  0  0  0  0  0
  144.7443  137.3522  162.0902 H   0  0  0  0  0  0  0  0  0  0  0  0
  146.0358  135.3562  162.6528 H   0  0  0  0  0  0  0  0  0  0  0  0
  143.6618  135.0841  162.1084 H   0  0  0  0  0  0  0  0  0  0  0  0
  144.0300  134.8079  160.4289 H   0  0  0  0  0  0  0  0  0  0  0  0
  144.8669  133.0549  162.7893 H   0  0  0  0  0  0  0  0  0  0  0  0
  143.6750  132.6537  161.5770 H   0  0  0  0  0  0  0  0  0  0  0  0
  145.8658  131.5301  161.1366 H   0  0  0  0  0  0  0  0  0  0  0  0
  145.4010  132.5708  159.8197 H   0  0  0  0  0  0  0  0  0  0  0  0
  147.4178  133.1945  162.0302 H   0  0  0  0  0  0  0  0  0  0  0  0
  147.7891  132.9104  160.3541 H   0  0  0  0  0  0  0  0  0  0  0  0
  148.5740  135.5444  161.9422 H   0  0  0  0  0  0  0  0  0  0  0  0
  149.0347  135.8247  157.1229 H   0  0  0  0  0  0  0  0  0  0  0  0
  147.3283  136.0626  156.8764 H   0  0  0  0  0  0  0  0  0  0  0  0
  150.3582  137.5096  157.0593 H   0  0  0  0  0  0  0  0  0  0  0  0
  150.4167  139.7914  155.9828 H   0  0  0  0  0  0  0  0  0  0  0  0
  149.2447  140.2523  157.1924 H   0  0  0  0  0  0  0  0  0  0  0  0
  151.0353  139.5831  158.9762 H   0  0  0  0  0  0  0  0  0  0  0  0
  152.1755  139.5428  157.6639 H   0  0  0  0  0  0  0  0  0  0  0  0
  152.9049  141.3583  159.7255 H   0  0  0  0  0  0  0  0  0  0  0  0
  153.1933  143.8310  159.9141 H   0  0  0  0  0  0  0  0  0  0  0  0
  151.8348  145.3401  158.3487 H   0  0  0  0  0  0  0  0  0  0  0  0
  150.0240  142.0917  156.5422 H   0  0  0  0  0  0  0  0  0  0  0  0
  150.3948  144.3578  156.8244 H   0  0  0  0  0  0  0  0  0  0  0  0
  1  2  1  0  0  0  0
  1 26  1  0  0  0  0
  1 27  1  0  0  0  0
  1 28  1  0  0  0  0
  2  7  1  0  0  0  0
  2  3  1  0  0  0  0
  2 29  1  0  0  0  0
  3  4  1  0  0  0  0
  3 30  1  0  0  0  0
  3 31  1  0  0  0  0
  4  5  1  0  0  0  0
  4 32  1  0  0  0  0
  4 33  1  0  0  0  0
  5  6  1  0  0  0  0
  5 34  1  0  0  0  0
  5 35  1  0  0  0  0
  6  7  1  0  0  0  0
  6 36  1  0  0  0  0
  6 37  1  0  0  0  0
  7 24  1  0  0  0  0
  7  8  1  0  0  0  0
  8  9  1  0  0  0  0
  8 38  1  0  0  0  0
  9 10  2  0  0  0  0
  9 11  1  0  0  0  0
 11 12  1  0  0  0  0
 11 24  1  0  0  0  0
 12 13  1  0  0  0  0
 12 39  1  0  0  0  0
 12 40  1  0  0  0  0
 13 14  2  0  0  0  0
 13 15  1  0  0  0  0
 15 16  1  0  0  0  0
 15 41  1  0  0  0  0
 16 17  1  0  0  0  0
 16 42  1  0  0  0  0
 16 43  1  0  0  0  0
 17 18  1  0  0  0  0
 17 44  1  0  0  0  0
 17 45  1  0  0  0  0
 18 23  1  0  0  0  0
 18 19  2  0  0  0  0
 19 20  1  0  0  0  0
 19 46  1  0  0  0  0
 20 21  2  0  0  0  0
 20 47  1  0  0  0  0
 21 22  1  0  0  0  0
 21 48  1  0  0  0  0
 22 23  2  0  0  0  0
 22 50  1  0  0  0  0
 23 49  1  0  0  0  0
 24 25  2  0  0  0  0
M  CHG  1  22   1
M  END
> <s_m_source_file>
AV-unprocessed.smi

> <i_m_source_file_index>
837

> <i_lp_mmshare_version>
43012

> <i_f3d_flags>
0

> <s_epik_input>
W0NIMl0xW0NIMl1bQ0gyXVtDSDJdW0NAQEhdKFtDSDNdKVtDQEBdMTJbTkhdQyg9TylOKEMyPU8pW0NIMl1DKD1PKVtOSF1bQ0gyXVtDSDJdYzNbY0hdW2NIXVtjSF1uW2NIXTM=

> <s_epik_cmdline>
J2VwaWtfcHl0aG9uJywgJy1waCcsICc3LjAnLCAnLXRuJywgJzgnLCAnLW1hJywgJzIwMCcsICctbWV0YWxfYmluZGluZycsICctaW1hZScsICc8aW5maWxlLm1hZT4nLCAnLW9tYWUnLCAnPG91dGZpbGUubWFlPic=

> <r_lp_tautomer_probability>
1

> <r_epik_Ionization_Penalty>
2.28139

> <r_epik_Ionization_Penalty_Charging>
2.28135

> <r_epik_Ionization_Penalty_Neutral>
4.65525e-05

> <r_epik_State_Penalty>
2.43066

> <r_epik_Charging_Adjusted_Penalty>
4.71201

> <i_epik_Tot_Q>
1

> <i_epik_Tot_abs_Q>
1

> <r_epik_Metal_State_Penalty>
2.4646

> <b_epik_Metal_Only>
0

> <s_lp_Force_Field>
OPLS_2005

> <r_lp_Energy>
25.3405

> <b_lp_Chiralities_Consistent>
1

> <s_lp_Variant>
AV-unprocessed.smi:837-6

> <Gold.Version>
5.8.1

> <Gold.Id.Protein>
6NUR|6NUR_protein|mol2

> <Gold.PLP.Fitness>
48.9116

> <Gold.PLP.PLP>
-42.9291

> <Gold.PLP.part.hbond>
-2.7533

> <Gold.PLP.part.metal>
0.0000

> <Gold.PLP.part.buried>
-4.2366

> <Gold.PLP.part.nonpolar>
-36.9013

> <Gold.PLP.part.repulsive>
0.2427

> <Gold.PLP.ligand.clash>
0.0000

> <Gold.PLP.ligand.torsion>
0.2278

> <Gold.PLP.Chemscore.Hbond>
2.1344

> <Gold.PLP.Chemscore.CHOScore>
0.0000

> <Gold.PLP.Chemscore.Metal>
0.0000

> <Gold.Chemscore.Hbonds>
donor molecule, donor type, donor heavy atom, donor atom, acceptor molecule, acceptor atom, score
      L1  H    22    50       P1  8028  2.00
      P1  H  6896  6909       L1    10  0.42

> <Gold.PLP.Chemscore.Internal.Correction>
0.0350

> <Gold.Rescore>
     Score         DG    S(hbond)    S(metal)    S(lipo)     H(rot)  DE(clash)    DE(int)     intcor
     15.73     -16.81       1.01        0.00     111.11       1.96       0.20       0.88       ----

> <Gold.Chemscore.Fitness>
15.7252

> <Gold.Chemscore.DG>
-16.8101

> <Gold.Chemscore.ZeroCoef>
-5.4800

> <Gold.Chemscore.Hbond>
1.0052

> <Gold.Chemscore.Metal>
0.0000

> <Gold.Chemscore.Lipo>
111.1117

> <Gold.Chemscore.Internal_Hbond>
0.0000

> <Gold.Chemscore.DEClash>
0.2016

> <Gold.Chemscore.DEInternal>
0.8833

> <Gold.Chemscore.Rot>
1.9638

> <Gold.Chemscore.Internal.Correction>
   9.000000E+99

> <Gold.Chemscore.Hbonds>
donor molecule, donor type, donor heavy atom, donor atom, acceptor molecule, acceptor atom, score
      L1  H    22    50       P1  8028  0.92
      P1  H  6896  6909       L1    10  0.02

> <Gold.Chemscore.Hbond.Weighted>
-3.3574

> <Gold.Chemscore.Metal.Weighted>
-0.0000

> <Gold.Chemscore.Lipo.Weighted>
-13.0001

> <Gold.Chemscore.Internal_Hbond.Weighted>
0.0000

> <Gold.Chemscore.DEClash.Weighted>
0.2016

> <Gold.Chemscore.DEInternal.Weighted>
0.8833

> <Gold.Chemscore.Rot.Weighted>
5.0274

> <Gold.Chemscore.Internal.Correction.Weighted>
   9.000000E+99

> <Gold.Protein.RotatedTorsions>
[ 6907 6896 6895 6894 ] final   69.10 input  -60.11 | X-H torsion
[ 7974 7965 7964 7962 ] final   18.93 input  175.53 | X-H torsion
[ 8008 7997 7996 7995 ] final  -31.56 input   59.86 | X-H torsion
[ 10167 10162 10161 10158 ] final    7.45 input  -65.29 | X-H torsion
[ 10718 10713 10712 10709 ] final  -22.26 input   66.30 | X-H torsion
[ 10763 10752 10751 10750 ] final   -4.21 input  -60.55 | X-H torsion
[ 11005 11000 10999 10996 ] final   22.66 input  -57.11 | X-H torsion

> <Gold.Protein.ActiveResidues>
 VAL166  LYS551  ARG553  GLY616  TRP617  ASP618  TYR619  PRO620  LYS621  CYS622 
 ASP623  PHE694  ASN695  SER759  ASP760  ASP761  ALA762  ILE779  LEU786  VAL792 
 PHE793  MET794  SER795  GLU796  ALA797  LYS798  CYS799  TRP800  GLU811  SER814 

> <Gold.Protein.RotatedAtoms>
  152.4664  134.5065  159.9740 H   0  0  0  0  0  0  0  0  0  0  0  0  # atno 6907 bound_to 6896
  151.5102  133.3480  159.2891 H   0  0  0  0  0  0  0  0  0  0  0  0  # atno 6908 bound_to 6896
  150.8651  134.8041  159.7174 H   0  0  0  0  0  0  0  0  0  0  0  0  # atno 6909 bound_to 6896
  146.2167  139.8386  142.8645 H   0  0  0  0  0  0  0  0  0  0  0  0  # atno 7974 bound_to 7965
  154.4210  140.1761  156.1586 H   0  0  0  0  0  0  0  0  0  0  0  0  # atno 8008 bound_to 7997
  155.9857  140.3373  155.6680 H   0  0  0  0  0  0  0  0  0  0  0  0  # atno 8009 bound_to 7997
  155.6440  140.0683  157.2600 H   0  0  0  0  0  0  0  0  0  0  0  0  # atno 8010 bound_to 7997
  140.6371  143.7861  150.7375 H   0  0  0  0  0  0  0  0  0  0  0  0  # atno 10167 bound_to 10162
  156.5070  130.4601  149.6669 H   0  0  0  0  0  0  0  0  0  0  0  0  # atno 10718 bound_to 10713
  153.3818  135.6998  153.6559 H   0  0  0  0  0  0  0  0  0  0  0  0  # atno 10763 bound_to 10752
  153.5168  135.3620  155.2613 H   0  0  0  0  0  0  0  0  0  0  0  0  # atno 10764 bound_to 10752
  154.8693  135.4148  154.3118 H   0  0  0  0  0  0  0  0  0  0  0  0  # atno 10765 bound_to 10752
  140.3782  134.1949  155.7664 H   0  0  0  0  0  0  0  0  0  0  0  0  # atno 11005 bound_to 11000
  145.2923  141.0170  143.3656 LP  0  0  0  0  0  0  0  0  0  0  0  0  # atno 17320 bound_to 7965
  144.9068  139.4579  143.6606 LP  0  0  0  0  0  0  0  0  0  0  0  0  # atno 17321 bound_to 7965
  140.1485  143.4379  152.2147 LP  0  0  0  0  0  0  0  0  0  0  0  0  # atno 17342 bound_to 10162
  139.5581  144.7387  151.4235 LP  0  0  0  0  0  0  0  0  0  0  0  0  # atno 17343 bound_to 10162
  156.3277  130.7315  151.2238 LP  0  0  0  0  0  0  0  0  0  0  0  0  # atno 17370 bound_to 10713
  157.7455  131.0438  150.4763 LP  0  0  0  0  0  0  0  0  0  0  0  0  # atno 17371 bound_to 10713
  141.1932  133.8155  157.0807 LP  0  0  0  0  0  0  0  0  0  0  0  0  # atno 17394 bound_to 11000
  140.0499  134.9811  157.1117 LP  0  0  0  0  0  0  0  0  0  0  0  0  # atno 17395 bound_to 11000

$$$$
