AV-unprocessed.smi:2558|AV-procd|sdf|10032|dock5
  -GOLD-   2272014 73D 1   1.00000     0.00000
 Structure written by MMmdl.
 43 44  0  0  0  0  0  0  0  0  1 V2000
  156.7260  135.1105  158.4143 C   0  0  0  0  0  0  0  0  0  0  0  0
  154.9118  135.1007  158.7239 S   0  0  0  0  0  0  0  0  0  0  0  0
  154.2212  135.1440  157.4252 O   0  0  0  0  0  0  0  0  0  0  0  0
  154.6082  134.0067  159.6598 O   0  0  0  0  0  0  0  0  0  0  0  0
  154.6650  136.6230  159.5585 N   0  0  0  0  0  0  0  0  0  0  0  0
  154.3266  137.8306  158.8964 C   0  0  0  0  0  0  0  0  0  0  0  0
  154.2619  137.8849  157.6662 O   0  0  0  0  0  0  0  0  0  0  0  0
  153.9789  138.8490  159.7115 N   0  0  0  0  0  0  0  0  0  0  0  0
  153.5569  140.0819  159.3703 C   0  0  0  0  0  0  0  0  0  0  0  0
  153.3848  140.4785  158.2165 O   0  0  0  0  0  0  0  0  0  0  0  0
  153.3303  140.8153  160.4748 N   0  0  0  0  0  0  0  0  0  0  0  0
  152.8681  142.1556  160.5786 C   0  0  0  0  0  0  0  0  0  0  0  0
  152.4128  142.7848  159.4015 C   0  0  0  0  0  0  0  0  0  0  0  0
  151.9357  144.1072  159.4693 C   0  0  0  0  0  0  0  0  0  0  0  0
  151.9244  144.7510  160.7214 C   0  0  0  0  0  0  0  0  0  0  0  0
  152.3413  144.1599  161.8606 N   0  0  0  0  0  0  0  0  0  0  0  0
  152.7988  142.8912  161.7884 C   0  0  0  0  0  0  0  0  0  0  0  0
  154.9820  136.6311  161.0150 C   0  0  0  0  0  0  0  0  0  0  0  0
  153.7280  136.8401  161.8907 C   0  0  0  0  0  0  0  0  0  0  0  0
  154.0834  136.7411  163.3834 C   0  0  0  0  0  0  0  0  0  0  0  0
  155.2143  137.7151  163.7568 C   0  0  0  0  0  0  0  0  0  0  0  0
  156.4630  137.4889  162.8868 C   0  0  0  0  0  0  0  0  0  0  0  0
  156.1276  137.6002  161.3907 C   0  0  0  0  0  0  0  0  0  0  0  0
  157.0096  134.1945  157.8965 H   0  0  0  0  0  0  0  0  0  0  0  0
  157.2576  135.1665  159.3641 H   0  0  0  0  0  0  0  0  0  0  0  0
  156.9912  135.9701  157.7997 H   0  0  0  0  0  0  0  0  0  0  0  0
  154.0595  138.6673  160.7008 H   0  0  0  0  0  0  0  0  0  0  0  0
  153.4560  140.3367  161.3546 H   0  0  0  0  0  0  0  0  0  0  0  0
  152.4316  142.2637  158.4552 H   0  0  0  0  0  0  0  0  0  0  0  0
  151.5867  144.6158  158.5828 H   0  0  0  0  0  0  0  0  0  0  0  0
  151.5659  145.7657  160.8110 H   0  0  0  0  0  0  0  0  0  0  0  0
  153.0931  142.4685  162.7357 H   0  0  0  0  0  0  0  0  0  0  0  0
  155.3621  135.6428  161.2725 H   0  0  0  0  0  0  0  0  0  0  0  0
  153.2769  137.8135  161.7021 H   0  0  0  0  0  0  0  0  0  0  0  0
  152.9713  136.0950  161.6430 H   0  0  0  0  0  0  0  0  0  0  0  0
  153.2006  136.9469  163.9891 H   0  0  0  0  0  0  0  0  0  0  0  0
  154.3880  135.7208  163.6196 H   0  0  0  0  0  0  0  0  0  0  0  0
  154.8661  138.7417  163.6358 H   0  0  0  0  0  0  0  0  0  0  0  0
  155.4708  137.5982  164.8101 H   0  0  0  0  0  0  0  0  0  0  0  0
  157.2350  138.2130  163.1486 H   0  0  0  0  0  0  0  0  0  0  0  0
  156.8807  136.5033  163.0969 H   0  0  0  0  0  0  0  0  0  0  0  0
  157.0153  137.3803  160.7966 H   0  0  0  0  0  0  0  0  0  0  0  0
  155.8574  138.6337  161.1753 H   0  0  0  0  0  0  0  0  0  0  0  0
  1  2  1  0  0  0  0
  1 24  1  0  0  0  0
  1 25  1  0  0  0  0
  1 26  1  0  0  0  0
  2  3  2  0  0  0  0
  2  4  2  0  0  0  0
  2  5  1  0  0  0  0
  5  6  1  0  0  0  0
  5 18  1  0  0  0  0
  6  7  2  0  0  0  0
  6  8  1  0  0  0  0
  8  9  1  0  0  0  0
  8 27  1  0  0  0  0
  9 10  2  0  0  0  0
  9 11  1  0  0  0  0
 11 12  1  0  0  0  0
 11 28  1  0  0  0  0
 12 17  1  0  0  0  0
 12 13  2  0  0  0  0
 13 14  1  0  0  0  0
 13 29  1  0  0  0  0
 14 15  2  0  0  0  0
 14 30  1  0  0  0  0
 15 16  1  0  0  0  0
 15 31  1  0  0  0  0
 16 17  2  0  0  0  0
 17 32  1  0  0  0  0
 18 23  1  0  0  0  0
 18 19  1  0  0  0  0
 18 33  1  0  0  0  0
 19 20  1  0  0  0  0
 19 34  1  0  0  0  0
 19 35  1  0  0  0  0
 20 21  1  0  0  0  0
 20 36  1  0  0  0  0
 20 37  1  0  0  0  0
 21 22  1  0  0  0  0
 21 38  1  0  0  0  0
 21 39  1  0  0  0  0
 22 23  1  0  0  0  0
 22 40  1  0  0  0  0
 22 41  1  0  0  0  0
 23 42  1  0  0  0  0
 23 43  1  0  0  0  0
M  END
> <s_m_source_file>
AV-unprocessed.smi

> <i_m_source_file_index>
2558

> <i_lp_mmshare_version>
43012

> <i_f3d_flags>
0

> <s_epik_input>
W0NIMl0xW0NIMl1bQ0gyXVtDSDJdW0NIMl1bQ0hdMU4oUyg9TykoPU8pW0NIM10pQyg9TylbTkhdQyg9TylbTkhdYzJbY0hdW2NIXVtjSF1uW2NIXTI=

> <s_epik_cmdline>
J2VwaWtfcHl0aG9uJywgJy1waCcsICc3LjAnLCAnLXRuJywgJzgnLCAnLW1hJywgJzIwMCcsICctbWV0YWxfYmluZGluZycsICctaW1hZScsICc8aW5maWxlLm1hZT4nLCAnLW9tYWUnLCAnPG91dGZpbGUubWFlPic=

> <r_epik_Ionization_Penalty>
0.00647128

> <r_epik_Ionization_Penalty_Charging>
0

> <r_epik_Ionization_Penalty_Neutral>
0.00647128

> <r_epik_State_Penalty>
0.00476147

> <r_epik_Charging_Adjusted_Penalty>
0.00476147

> <i_epik_Tot_Q>
0

> <i_epik_Tot_abs_Q>
0

> <r_epik_Metal_State_Penalty>
0.0176635

> <b_epik_Metal_Only>
0

> <s_lp_Force_Field>
OPLS_2005

> <r_lp_Energy>
21.3267

> <b_lp_Chiralities_Consistent>
1

> <s_lp_Variant>
AV-unprocessed.smi:2558-1

> <Gold.Version>
5.8.1

> <Gold.Id.Protein>
6NUR|6NUR_protein|mol2

> <Gold.PLP.Fitness>
42.5016

> <Gold.PLP.PLP>
-35.4247

> <Gold.PLP.part.hbond>
-3.9835

> <Gold.PLP.part.metal>
0.0000

> <Gold.PLP.part.buried>
-2.4900

> <Gold.PLP.part.nonpolar>
-29.6587

> <Gold.PLP.part.repulsive>
0.3233

> <Gold.PLP.ligand.clash>
0.8660

> <Gold.PLP.ligand.torsion>
1.1850

> <Gold.PLP.Chemscore.Hbond>
2.7200

> <Gold.PLP.Chemscore.CHOScore>
0.0000

> <Gold.PLP.Chemscore.Metal>
0.0000

> <Gold.Chemscore.Hbonds>
donor molecule, donor type, donor heavy atom, donor atom, acceptor molecule, acceptor atom, score
      P1  H  6896  6908       L1     4  0.98
      P1  H  7997  8008       L1    10  0.72
      P1  H 10752 10763       L1     3  0.99

> <Gold.PLP.Chemscore.Internal.Correction>
2.1529

> <Gold.Rescore>
     Score         DG    S(hbond)    S(metal)    S(lipo)     H(rot)  DE(clash)    DE(int)     intcor
     14.85     -22.30       2.40        0.00      97.09       1.00       1.49       5.97       ----

> <Gold.Chemscore.Fitness>
14.8477

> <Gold.Chemscore.DG>
-22.3046

> <Gold.Chemscore.ZeroCoef>
-5.4800

> <Gold.Chemscore.Hbond>
2.4028

> <Gold.Chemscore.Metal>
0.0000

> <Gold.Chemscore.Lipo>
97.0869

> <Gold.Chemscore.Internal_Hbond>
0.0000

> <Gold.Chemscore.DEClash>
1.4854

> <Gold.Chemscore.DEInternal>
5.9715

> <Gold.Chemscore.Rot>
1.0000

> <Gold.Chemscore.Internal.Correction>
   9.000000E+99

> <Gold.Chemscore.Hbonds>
donor molecule, donor type, donor heavy atom, donor atom, acceptor molecule, acceptor atom, score
      P1  H  6896  6908       L1     4  0.23
      P1  H  7997  8008       L1    10  0.59
      P1  H 10752 10763       L1     3  0.92

> <Gold.Chemscore.Hbond.Weighted>
-8.0254

> <Gold.Chemscore.Metal.Weighted>
-0.0000

> <Gold.Chemscore.Lipo.Weighted>
-11.3592

> <Gold.Chemscore.Internal_Hbond.Weighted>
0.0000

> <Gold.Chemscore.DEClash.Weighted>
1.4854

> <Gold.Chemscore.DEInternal.Weighted>
5.9715

> <Gold.Chemscore.Rot.Weighted>
2.5600

> <Gold.Chemscore.Internal.Correction.Weighted>
   9.000000E+99

> <Gold.Protein.RotatedTorsions>
[ 6907 6896 6895 6894 ] final  -37.42 input  -60.11 | X-H torsion
[ 7974 7965 7964 7962 ] final  159.87 input  175.53 | X-H torsion
[ 8008 7997 7996 7995 ] final  -97.67 input   59.86 | X-H torsion
[ 10167 10162 10161 10158 ] final -167.97 input  -65.29 | X-H torsion
[ 10718 10713 10712 10709 ] final  -23.82 input   66.30 | X-H torsion
[ 10763 10752 10751 10750 ] final  147.44 input  -60.55 | X-H torsion
[ 11005 11000 10999 10996 ] final  -97.95 input  -57.11 | X-H torsion

> <Gold.Protein.ActiveResidues>
 VAL166  LYS551  ARG553  GLY616  TRP617  ASP618  TYR619  PRO620  LYS621  CYS622 
 ASP623  PHE694  ASN695  SER759  ASP760  ASP761  ALA762  ILE779  LEU786  VAL792 
 PHE793  MET794  SER795  GLU796  ALA797  LYS798  CYS799  TRP800  GLU811  SER814 

> <Gold.Protein.RotatedAtoms>
  151.0149  134.9425  159.8027 H   0  0  0  0  0  0  0  0  0  0  0  0  # atno 6907 bound_to 6896
  152.5311  134.2980  159.9078 H   0  0  0  0  0  0  0  0  0  0  0  0  # atno 6908 bound_to 6896
  151.2986  133.4090  159.2672 H   0  0  0  0  0  0  0  0  0  0  0  0  # atno 6909 bound_to 6896
  144.7767  139.7677  143.6276 H   0  0  0  0  0  0  0  0  0  0  0  0  # atno 7974 bound_to 7965
  154.7909  140.0461  157.1200 H   0  0  0  0  0  0  0  0  0  0  0  0  # atno 8008 bound_to 7997
  154.9592  140.3075  155.5019 H   0  0  0  0  0  0  0  0  0  0  0  0  # atno 8009 bound_to 7997
  156.2949  140.2274  156.4676 H   0  0  0  0  0  0  0  0  0  0  0  0  # atno 8010 bound_to 7997
  139.6015  144.1001  152.1747 H   0  0  0  0  0  0  0  0  0  0  0  0  # atno 10167 bound_to 10162
  156.4859  130.4555  149.6784 H   0  0  0  0  0  0  0  0  0  0  0  0  # atno 10718 bound_to 10713
  154.0384  135.2891  155.3358 H   0  0  0  0  0  0  0  0  0  0  0  0  # atno 10763 bound_to 10752
  154.6944  135.5213  153.8441 H   0  0  0  0  0  0  0  0  0  0  0  0  # atno 10764 bound_to 10752
  153.0610  135.6613  154.0590 H   0  0  0  0  0  0  0  0  0  0  0  0  # atno 10765 bound_to 10752
  141.1361  133.8209  157.0775 H   0  0  0  0  0  0  0  0  0  0  0  0  # atno 11005 bound_to 11000
  146.1951  139.5212  142.9780 LP  0  0  0  0  0  0  0  0  0  0  0  0  # atno 17320 bound_to 7965
  145.6166  141.0330  143.1938 LP  0  0  0  0  0  0  0  0  0  0  0  0  # atno 17321 bound_to 7965
  140.0599  144.5865  150.7271 LP  0  0  0  0  0  0  0  0  0  0  0  0  # atno 17342 bound_to 10162
  140.7253  143.2630  151.4141 LP  0  0  0  0  0  0  0  0  0  0  0  0  # atno 17343 bound_to 10162
  156.3475  130.7414  151.2369 LP  0  0  0  0  0  0  0  0  0  0  0  0  # atno 17370 bound_to 10713
  157.7479  131.0386  150.4513 LP  0  0  0  0  0  0  0  0  0  0  0  0  # atno 17371 bound_to 10713
  140.0473  134.9824  157.1071 LP  0  0  0  0  0  0  0  0  0  0  0  0  # atno 17394 bound_to 11000
  140.4044  134.2048  155.7163 LP  0  0  0  0  0  0  0  0  0  0  0  0  # atno 17395 bound_to 11000

$$$$
