AV-unprocessed.smi:2597|AV-procd|sdf|10174|dock1
  -GOLD-   2272014183D 1   1.00000     0.00000
 Structure written by MMmdl.
 30 31  0  0  0  0  0  0  0  0  1 V2000
  142.5320  133.0191  151.1527 N   0  0  0  0  0  0  0  0  0  0  0  0
  143.8670  132.4763  150.9716 C   0  0  1  0  0  0  0  0  0  0  0  0
  144.3009  132.6053  149.4964 C   0  0  0  0  0  0  0  0  0  0  0  0
  145.7229  132.0601  149.2874 C   0  0  0  0  0  0  0  0  0  0  0  0
  146.7329  132.7217  150.2388 C   0  0  0  0  0  0  0  0  0  0  0  0
  146.3024  132.5617  151.7083 C   0  0  0  0  0  0  0  0  0  0  0  0
  144.8768  133.0895  151.9828 C   0  0  1  0  0  0  0  0  0  0  0  0
  144.8516  134.5506  152.0911 N   0  0  0  0  0  0  0  0  0  0  0  0
  145.9055  135.4186  151.8862 C   0  0  0  0  0  0  0  0  0  0  0  0
  145.3544  136.6565  152.0699 C   0  0  0  0  0  0  0  0  0  0  0  0
  145.9738  138.0221  151.9841 C   0  0  0  0  0  0  0  0  0  0  0  0
  147.2432  137.8853  151.3791 O   0  0  0  0  0  0  0  0  0  0  0  0
  144.0017  136.4958  152.3603 N   0  0  0  0  0  0  0  0  0  0  0  0
  143.7116  135.2335  152.3623 N   0  0  0  0  0  0  0  0  0  0  0  0
  143.7959  131.4106  151.1928 H   0  0  0  0  0  0  0  0  0  0  0  0
  144.5918  132.7208  152.9694 H   0  0  0  0  0  0  0  0  0  0  0  0
  142.1838  133.3722  150.2730 H   0  0  0  0  0  0  0  0  0  0  0  0
  141.9003  132.2861  151.4424 H   0  0  0  0  0  0  0  0  0  0  0  0
  143.6085  132.0539  148.8593 H   0  0  0  0  0  0  0  0  0  0  0  0
  144.2514  133.6400  149.1594 H   0  0  0  0  0  0  0  0  0  0  0  0
  145.7242  130.9820  149.4525 H   0  0  0  0  0  0  0  0  0  0  0  0
  146.0306  132.2136  148.2528 H   0  0  0  0  0  0  0  0  0  0  0  0
  147.7169  132.2746  150.0958 H   0  0  0  0  0  0  0  0  0  0  0  0
  146.8430  133.7766  149.9883 H   0  0  0  0  0  0  0  0  0  0  0  0
  146.3405  131.5028  151.9668 H   0  0  0  0  0  0  0  0  0  0  0  0
  147.0201  133.0555  152.3646 H   0  0  0  0  0  0  0  0  0  0  0  0
  146.9064  135.0966  151.6403 H   0  0  0  0  0  0  0  0  0  0  0  0
  145.3571  138.6962  151.3897 H   0  0  0  0  0  0  0  0  0  0  0  0
  146.0926  138.4651  152.9732 H   0  0  0  0  0  0  0  0  0  0  0  0
  147.7451  137.2574  151.8760 H   0  0  0  0  0  0  0  0  0  0  0  0
  1  2  1  0  0  0  0
  1 17  1  0  0  0  0
  1 18  1  0  0  0  0
  2 15  1  0  0  0  0
  2  7  1  0  0  0  0
  2  3  1  0  0  0  0
  3  4  1  0  0  0  0
  3 19  1  0  0  0  0
  3 20  1  0  0  0  0
  4  5  1  0  0  0  0
  4 21  1  0  0  0  0
  4 22  1  0  0  0  0
  5  6  1  0  0  0  0
  5 23  1  0  0  0  0
  5 24  1  0  0  0  0
  6  7  1  0  0  0  0
  6 25  1  0  0  0  0
  6 26  1  0  0  0  0
  7 16  1  0  0  0  0
  7  8  1  0  0  0  0
  8 14  1  0  0  0  0
  8  9  1  0  0  0  0
  9 10  2  0  0  0  0
  9 27  1  0  0  0  0
 10 11  1  0  0  0  0
 10 13  1  0  0  0  0
 11 12  1  0  0  0  0
 11 28  1  0  0  0  0
 11 29  1  0  0  0  0
 12 30  1  0  0  0  0
 13 14  2  0  0  0  0
M  END
> <s_m_source_file>
AV-unprocessed.smi

> <i_m_source_file_index>
2597

> <i_lp_mmshare_version>
43012

> <i_f3d_flags>
0

> <s_epik_input>
W05IMl1bQ0BIXTFbQ0gyXVtDSDJdW0NIMl1bQ0gyXVtDQEhdMW4yW2NIXWMobm4yKVtDSDJdW09IXQ==

> <s_epik_cmdline>
J2VwaWtfcHl0aG9uJywgJy1waCcsICc3LjAnLCAnLXRuJywgJzgnLCAnLW1hJywgJzIwMCcsICctbWV0YWxfYmluZGluZycsICctaW1hZScsICc8aW5maWxlLm1hZT4nLCAnLW9tYWUnLCAnPG91dGZpbGUubWFlPic=

> <r_lp_tautomer_probability>
1

> <r_epik_Ionization_Penalty>
2.21303

> <r_epik_Ionization_Penalty_Charging>
0

> <r_epik_Ionization_Penalty_Neutral>
2.21303

> <r_epik_State_Penalty>
2.3573

> <r_epik_Charging_Adjusted_Penalty>
2.3573

> <i_epik_Tot_Q>
0

> <i_epik_Tot_abs_Q>
0

> <r_epik_Metal_State_Penalty>
2.35724

> <b_epik_Metal_Only>
0

> <s_lp_Force_Field>
OPLS_2005

> <r_lp_Energy>
16.8416

> <b_lp_Chiralities_Consistent>
1

> <s_lp_Variant>
AV-unprocessed.smi:2597-5

> <Gold.Version>
5.8.1

> <Gold.Id.Protein>
6NUR|6NUR_protein|mol2

> <Gold.PLP.Fitness>
37.1128

> <Gold.PLP.PLP>
-26.2814

> <Gold.PLP.part.hbond>
-3.1375

> <Gold.PLP.part.metal>
0.0000

> <Gold.PLP.part.buried>
-0.8665

> <Gold.PLP.part.nonpolar>
-22.8413

> <Gold.PLP.part.repulsive>
0.3034

> <Gold.PLP.ligand.clash>
0.0000

> <Gold.PLP.ligand.torsion>
0.1812

> <Gold.PLP.Chemscore.Hbond>
2.7100

> <Gold.PLP.Chemscore.CHOScore>
1.0000

> <Gold.PLP.Chemscore.Metal>
0.0000

> <Gold.Chemscore.Hbonds>
donor molecule, donor type, donor heavy atom, donor atom, acceptor molecule, acceptor atom, score
      L1  H     1    17       P1 10186  0.86
      L1  H    12    30       P1  7948  0.88
      P1  H  7954  7966       L1    12  0.95
      L1  C     9    27       P1  7948  1.00

> <Gold.PLP.Chemscore.Internal.Correction>
0.0637

> <Gold.Rescore>
     Score         DG    S(hbond)    S(metal)    S(lipo)     H(rot)  DE(clash)    DE(int)     intcor
     15.21     -16.95       2.29        0.00      72.46       1.82       0.25       1.48       ----

> <Gold.Chemscore.Fitness>
15.2114

> <Gold.Chemscore.DG>
-16.9480

> <Gold.Chemscore.ZeroCoef>
-5.4800

> <Gold.Chemscore.Hbond>
2.2921

> <Gold.Chemscore.Metal>
0.0000

> <Gold.Chemscore.Lipo>
72.4569

> <Gold.Chemscore.Internal_Hbond>
0.0000

> <Gold.Chemscore.DEClash>
0.2548

> <Gold.Chemscore.DEInternal>
1.4817

> <Gold.Chemscore.Rot>
1.8222

> <Gold.Chemscore.Internal.Correction>
   9.000000E+99

> <Gold.Chemscore.Hbonds>
donor molecule, donor type, donor heavy atom, donor atom, acceptor molecule, acceptor atom, score
      L1  H     1    17       P1 10186  0.85
      L1  H    12    30       P1  7948  0.83
      P1  H  7954  7966       L1    12  0.22

> <Gold.Chemscore.Hbond.Weighted>
-7.6555

> <Gold.Chemscore.Metal.Weighted>
-0.0000

> <Gold.Chemscore.Lipo.Weighted>
-8.4775

> <Gold.Chemscore.Internal_Hbond.Weighted>
0.0000

> <Gold.Chemscore.DEClash.Weighted>
0.2548

> <Gold.Chemscore.DEInternal.Weighted>
1.4817

> <Gold.Chemscore.Rot.Weighted>
4.6649

> <Gold.Chemscore.Internal.Correction.Weighted>
   9.000000E+99

> <Gold.Protein.RotatedTorsions>
[ 6907 6896 6895 6894 ] final  -93.02 input  -60.11 | X-H torsion
[ 7974 7965 7964 7962 ] final -102.99 input  175.53 | X-H torsion
[ 8008 7997 7996 7995 ] final  -75.00 input   59.86 | X-H torsion
[ 10167 10162 10161 10158 ] final  -59.83 input  -65.29 | X-H torsion
[ 10718 10713 10712 10709 ] final  -49.24 input   66.30 | X-H torsion
[ 10763 10752 10751 10750 ] final   41.67 input  -60.55 | X-H torsion
[ 11005 11000 10999 10996 ] final -124.64 input  -57.11 | X-H torsion

> <Gold.Protein.ActiveResidues>
 VAL166  LYS551  ARG553  GLY616  TRP617  ASP618  TYR619  PRO620  LYS621  CYS622 
 ASP623  PHE694  ASN695  SER759  ASP760  ASP761  ALA762  ILE779  LEU786  VAL792 
 PHE793  MET794  SER795  GLU796  ALA797  LYS798  CYS799  TRP800  GLU811  SER814 

> <Gold.Protein.RotatedAtoms>
  150.6915  134.2032  159.4330 H   0  0  0  0  0  0  0  0  0  0  0  0  # atno 6907 bound_to 6896
  151.9998  134.9932  160.0574 H   0  0  0  0  0  0  0  0  0  0  0  0  # atno 6908 bound_to 6896
  152.1590  133.4534  159.4888 H   0  0  0  0  0  0  0  0  0  0  0  0  # atno 6909 bound_to 6896
  145.2616  140.9271  143.3037 H   0  0  0  0  0  0  0  0  0  0  0  0  # atno 7974 bound_to 7965
  154.5379  140.0751  156.8459 H   0  0  0  0  0  0  0  0  0  0  0  0  # atno 8008 bound_to 7997
  155.3240  140.3398  155.4222 H   0  0  0  0  0  0  0  0  0  0  0  0  # atno 8009 bound_to 7997
  156.1846  140.1664  156.8196 H   0  0  0  0  0  0  0  0  0  0  0  0  # atno 8010 bound_to 7997
  140.6110  143.2387  151.5709 H   0  0  0  0  0  0  0  0  0  0  0  0  # atno 10167 bound_to 10162
  156.1912  130.4153  149.9369 H   0  0  0  0  0  0  0  0  0  0  0  0  # atno 10718 bound_to 10713
  152.9902  135.6155  154.2825 H   0  0  0  0  0  0  0  0  0  0  0  0  # atno 10763 bound_to 10752
  154.2554  135.2784  155.2801 H   0  0  0  0  0  0  0  0  0  0  0  0  # atno 10764 bound_to 10752
  154.5252  135.5803  153.6770 H   0  0  0  0  0  0  0  0  0  0  0  0  # atno 10765 bound_to 10752
  140.9825  134.0653  157.3748 H   0  0  0  0  0  0  0  0  0  0  0  0  # atno 11005 bound_to 11000
  144.9413  139.4186  143.6447 LP  0  0  0  0  0  0  0  0  0  0  0  0  # atno 17320 bound_to 7965
  146.3273  139.8374  142.8897 LP  0  0  0  0  0  0  0  0  0  0  0  0  # atno 17321 bound_to 7965
  139.5361  144.2777  152.1254 LP  0  0  0  0  0  0  0  0  0  0  0  0  # atno 17342 bound_to 10162
  140.1976  144.4690  150.6447 LP  0  0  0  0  0  0  0  0  0  0  0  0  # atno 17343 bound_to 10162
  156.7108  130.8969  151.3609 LP  0  0  0  0  0  0  0  0  0  0  0  0  # atno 17370 bound_to 10713
  157.6930  130.9253  150.0566 LP  0  0  0  0  0  0  0  0  0  0  0  0  # atno 17371 bound_to 10713
  139.8956  135.0142  156.7011 LP  0  0  0  0  0  0  0  0  0  0  0  0  # atno 17394 bound_to 11000
  140.7164  133.9178  155.8118 LP  0  0  0  0  0  0  0  0  0  0  0  0  # atno 17395 bound_to 11000

$$$$
