AV-unprocessed.smi:1100|AV-procd|sdf|4763|dock9
  -GOLD-   22720 3303D 1   1.00000     0.00000
 Structure written by MMmdl.
 43 44  0  0  0  0  0  0  0  0  3 V2000
  148.3420  139.2156  153.7313 C   0  0  0  0  0  0  0  0  0  0  0  0
  149.2315  138.2990  154.6088 C   0  0  2  0  0  0  0  0  0  0  0  0
  150.7571  138.4668  154.3625 C   0  0  0  0  0  0  0  0  0  0  0  0
  151.2069  139.8131  154.7210 N   0  5  0  0  0  0  0  0  0  0  0  0
  151.7465  140.1620  155.9214 C   0  0  0  0  0  0  0  0  0  0  0  0
  152.5640  139.5162  156.5864 O   0  0  0  0  0  0  0  0  0  0  0  0
  151.2879  141.3560  156.3468 N   0  0  0  0  0  0  0  0  0  0  0  0
  151.5406  142.0582  157.5366 C   0  0  0  0  0  0  0  0  0  0  0  0
  152.0430  141.3012  158.6635 C   0  0  0  0  0  0  0  0  0  0  0  0
  152.3283  141.8984  159.8368 C   0  0  0  0  0  0  0  0  0  0  0  0
  152.1450  143.3389  160.0266 C   0  0  0  0  0  0  0  0  0  0  0  0
  152.3977  143.8985  161.0942 O   0  0  0  0  0  0  0  0  0  0  0  0
  151.6772  144.0212  158.9418 N   0  0  0  0  0  0  0  0  0  0  0  0
  151.4681  145.4689  159.0304 C   0  0  0  0  0  0  0  0  0  0  0  0
  151.3850  143.3887  157.7177 C   0  0  0  0  0  0  0  0  0  0  0  0
  148.8429  136.8566  154.5249 N   0  3  0  0  0  0  0  0  0  0  0  0
  149.7863  135.9460  155.2204 C   0  0  0  0  0  0  0  0  0  0  0  0
  149.4239  134.4796  154.9293 C   0  0  0  0  0  0  0  0  0  0  0  0
  148.0774  134.2283  155.3138 O   0  0  0  0  0  0  0  0  0  0  0  0
  147.1569  135.0396  154.5942 C   0  0  0  0  0  0  0  0  0  0  0  0
  147.4389  136.5204  154.8929 C   0  0  0  0  0  0  0  0  0  0  0  0
  148.5347  140.2724  153.9243 H   0  0  0  0  0  0  0  0  0  0  0  0
  147.2858  139.0511  153.9454 H   0  0  0  0  0  0  0  0  0  0  0  0
  148.4894  139.0500  152.6627 H   0  0  0  0  0  0  0  0  0  0  0  0
  149.0610  138.6006  155.6434 H   0  0  0  0  0  0  0  0  0  0  0  0
  151.2917  137.7042  154.9315 H   0  0  0  0  0  0  0  0  0  0  0  0
  150.9743  138.2428  153.3179 H   0  0  0  0  0  0  0  0  0  0  0  0
  150.6648  141.8269  155.7073 H   0  0  0  0  0  0  0  0  0  0  0  0
  152.1924  140.2356  158.5659 H   0  0  0  0  0  0  0  0  0  0  0  0
  152.7010  141.3027  160.6569 H   0  0  0  0  0  0  0  0  0  0  0  0
  151.0885  145.9004  158.1037 H   0  0  0  0  0  0  0  0  0  0  0  0
  152.4050  145.9771  159.2647 H   0  0  0  0  0  0  0  0  0  0  0  0
  150.7485  145.7045  159.8158 H   0  0  0  0  0  0  0  0  0  0  0  0
  151.0441  144.0700  156.9554 H   0  0  0  0  0  0  0  0  0  0  0  0
  150.8073  136.1349  154.8863 H   0  0  0  0  0  0  0  0  0  0  0  0
  149.7583  136.1358  156.2943 H   0  0  0  0  0  0  0  0  0  0  0  0
  149.5598  134.2490  153.8717 H   0  0  0  0  0  0  0  0  0  0  0  0
  150.0814  133.8122  155.4866 H   0  0  0  0  0  0  0  0  0  0  0  0
  147.2286  134.8358  153.5246 H   0  0  0  0  0  0  0  0  0  0  0  0
  146.1433  134.7812  154.9008 H   0  0  0  0  0  0  0  0  0  0  0  0
  147.2704  136.7088  155.9539 H   0  0  0  0  0  0  0  0  0  0  0  0
  146.7351  137.1428  154.3398 H   0  0  0  0  0  0  0  0  0  0  0  0
  148.9353  136.6298  153.5447 H   0  0  0  0  0  0  0  0  0  0  0  0
  1  2  1  0  0  0  0
  1 22  1  0  0  0  0
  1 23  1  0  0  0  0
  1 24  1  0  0  0  0
  2  3  1  0  0  0  0
  2 16  1  0  0  0  0
  2 25  1  0  0  0  0
  3  4  1  0  0  0  0
  3 26  1  0  0  0  0
  3 27  1  0  0  0  0
  4  5  1  0  0  0  0
  5  6  2  0  0  0  0
  5  7  1  0  0  0  0
  7  8  1  0  0  0  0
  7 28  1  0  0  0  0
  8 15  2  0  0  0  0
  8  9  1  0  0  0  0
  9 10  2  0  0  0  0
  9 29  1  0  0  0  0
 10 11  1  0  0  0  0
 10 30  1  0  0  0  0
 11 12  2  0  0  0  0
 11 13  1  0  0  0  0
 13 14  1  0  0  0  0
 13 15  1  0  0  0  0
 14 31  1  0  0  0  0
 14 32  1  0  0  0  0
 14 33  1  0  0  0  0
 15 34  1  0  0  0  0
 16 21  1  0  0  0  0
 16 17  1  0  0  0  0
 16 43  1  0  0  0  0
 17 18  1  0  0  0  0
 17 35  1  0  0  0  0
 17 36  1  0  0  0  0
 18 19  1  0  0  0  0
 18 37  1  0  0  0  0
 18 38  1  0  0  0  0
 19 20  1  0  0  0  0
 20 21  1  0  0  0  0
 20 39  1  0  0  0  0
 20 40  1  0  0  0  0
 21 41  1  0  0  0  0
 21 42  1  0  0  0  0
M  CHG  1   4  -1
M  CHG  1  16   1
M  END
> <s_m_source_file>
AV-unprocessed.smi

> <i_m_source_file_index>
1100

> <i_lp_mmshare_version>
43012

> <i_f3d_flags>
0

> <s_epik_input>
W0NIMl0xW0NIMl1PW0NIMl1bQ0gyXU4xW0NASF0oW0NIM10pW0NIMl1bTkhdQyg9TylbTkhdYzJbY0hdW2NIXWMoPU8pbihbQ0gzXSlbY0hdMg==

> <s_epik_cmdline>
J2VwaWtfcHl0aG9uJywgJy1waCcsICc3LjAnLCAnLXRuJywgJzgnLCAnLW1hJywgJzIwMCcsICctbWV0YWxfYmluZGluZycsICctaW1hZScsICc8aW5maWxlLm1hZT4nLCAnLW9tYWUnLCAnPG91dGZpbGUubWFlPic=

> <r_lp_tautomer_probability>
1

> <r_epik_Ionization_Penalty>
6.79272

> <r_epik_Ionization_Penalty_Charging>
6.79272

> <r_epik_Ionization_Penalty_Neutral>
3.37009e-06

> <r_epik_State_Penalty>
7.34577

> <r_epik_Charging_Adjusted_Penalty>
14.1385

> <i_epik_Tot_Q>
0

> <i_epik_Tot_abs_Q>
2

> <r_epik_Metal_State_Penalty>
3.26257

> <b_epik_Metal_Only>
1

> <s_lp_Force_Field>
OPLS_2005

> <r_lp_Energy>
31.7412

> <b_lp_Chiralities_Consistent>
1

> <s_lp_Variant>
AV-unprocessed.smi:1100-5

> <Gold.Version>
5.8.1

> <Gold.Id.Protein>
6NUR|6NUR_protein|mol2

> <Gold.PLP.Fitness>
53.7343

> <Gold.PLP.PLP>
-40.0599

> <Gold.PLP.part.hbond>
-3.0000

> <Gold.PLP.part.metal>
0.0000

> <Gold.PLP.part.buried>
-5.9376

> <Gold.PLP.part.nonpolar>
-31.0897

> <Gold.PLP.part.repulsive>
0.3475

> <Gold.PLP.ligand.clash>
0.0000

> <Gold.PLP.ligand.torsion>
0.7283

> <Gold.PLP.Chemscore.Hbond>
4.0000

> <Gold.PLP.Chemscore.CHOScore>
0.9976

> <Gold.PLP.Chemscore.Metal>
0.0000

> <Gold.Chemscore.Hbonds>
donor molecule, donor type, donor heavy atom, donor atom, acceptor molecule, acceptor atom, score
      L1  H    16    43       P1  7948  2.00
      P1  H  7989  7998       L1     4  1.00
      P1  H  7997  8010       L1     6  1.00
      L1  C    15    34       P1  8028  0.89

> <Gold.PLP.Chemscore.Internal.Correction>
0.1381

> <Gold.Rescore>
     Score         DG    S(hbond)    S(metal)    S(lipo)     H(rot)  DE(clash)    DE(int)     intcor
     18.56     -20.74       2.74        0.00      85.35       1.51       0.08       2.11       ----

> <Gold.Chemscore.Fitness>
18.5576

> <Gold.Chemscore.DG>
-20.7444

> <Gold.Chemscore.ZeroCoef>
-5.4800

> <Gold.Chemscore.Hbond>
2.7398

> <Gold.Chemscore.Metal>
0.0000

> <Gold.Chemscore.Lipo>
85.3514

> <Gold.Chemscore.Internal_Hbond>
0.0000

> <Gold.Chemscore.DEClash>
0.0759

> <Gold.Chemscore.DEInternal>
2.1109

> <Gold.Chemscore.Rot>
1.5128

> <Gold.Chemscore.Internal.Correction>
   9.000000E+99

> <Gold.Chemscore.Hbonds>
donor molecule, donor type, donor heavy atom, donor atom, acceptor molecule, acceptor atom, score
      L1  H    16    43       P1  7948  1.00
      P1  H  7989  7998       L1     4  0.79
      P1  H  7997  8010       L1     6  0.93

> <Gold.Chemscore.Hbond.Weighted>
-9.1510

> <Gold.Chemscore.Metal.Weighted>
-0.0000

> <Gold.Chemscore.Lipo.Weighted>
-9.9861

> <Gold.Chemscore.Internal_Hbond.Weighted>
0.0000

> <Gold.Chemscore.DEClash.Weighted>
0.0759

> <Gold.Chemscore.DEInternal.Weighted>
2.1109

> <Gold.Chemscore.Rot.Weighted>
3.8726

> <Gold.Chemscore.Internal.Correction.Weighted>
   9.000000E+99

> <Gold.Protein.RotatedTorsions>
[ 6907 6896 6895 6894 ] final   15.93 input  -60.11 | X-H torsion
[ 7974 7965 7964 7962 ] final  136.28 input  175.53 | X-H torsion
[ 8008 7997 7996 7995 ] final   67.38 input   59.86 | X-H torsion
[ 10167 10162 10161 10158 ] final  -63.89 input  -65.29 | X-H torsion
[ 10718 10713 10712 10709 ] final  -43.37 input   66.30 | X-H torsion
[ 10763 10752 10751 10750 ] final   38.70 input  -60.55 | X-H torsion
[ 11005 11000 10999 10996 ] final  -94.91 input  -57.11 | X-H torsion

> <Gold.Protein.ActiveResidues>
 VAL166  LYS551  ARG553  GLY616  TRP617  ASP618  TYR619  PRO620  LYS621  CYS622 
 ASP623  PHE694  ASN695  SER759  ASP760  ASP761  ALA762  ILE779  LEU786  VAL792 
 PHE793  MET794  SER795  GLU796  ALA797  LYS798  CYS799  TRP800  GLU811  SER814 

> <Gold.Protein.RotatedAtoms>
  151.8258  135.0637  160.0430 H   0  0  0  0  0  0  0  0  0  0  0  0  # atno 6907 bound_to 6896
  152.2917  133.5563  159.5570 H   0  0  0  0  0  0  0  0  0  0  0  0  # atno 6908 bound_to 6896
  150.7233  134.0335  159.3783 H   0  0  0  0  0  0  0  0  0  0  0  0  # atno 6909 bound_to 6896
  144.9580  139.4742  143.5493 H   0  0  0  0  0  0  0  0  0  0  0  0  # atno 7974 bound_to 7965
  155.6919  140.3496  155.4897 H   0  0  0  0  0  0  0  0  0  0  0  0  # atno 8008 bound_to 7997
  155.9516  140.1120  157.0994 H   0  0  0  0  0  0  0  0  0  0  0  0  # atno 8009 bound_to 7997
  154.4123  140.1193  156.5047 H   0  0  0  0  0  0  0  0  0  0  0  0  # atno 8010 bound_to 7997
  140.5839  143.2331  151.6284 H   0  0  0  0  0  0  0  0  0  0  0  0  # atno 10167 bound_to 10162
  156.2497  130.4187  149.8664 H   0  0  0  0  0  0  0  0  0  0  0  0  # atno 10718 bound_to 10713
  152.9992  135.6242  154.2347 H   0  0  0  0  0  0  0  0  0  0  0  0  # atno 10763 bound_to 10752
  154.2088  135.2801  155.2967 H   0  0  0  0  0  0  0  0  0  0  0  0  # atno 10764 bound_to 10752
  154.5623  135.5701  153.7077 H   0  0  0  0  0  0  0  0  0  0  0  0  # atno 10765 bound_to 10752
  141.1457  133.7989  157.0363 H   0  0  0  0  0  0  0  0  0  0  0  0  # atno 11005 bound_to 11000
  146.3344  139.8711  142.8840 LP  0  0  0  0  0  0  0  0  0  0  0  0  # atno 17320 bound_to 7965
  145.2742  141.0118  143.3754 LP  0  0  0  0  0  0  0  0  0  0  0  0  # atno 17321 bound_to 7965
  139.5186  144.3279  152.0852 LP  0  0  0  0  0  0  0  0  0  0  0  0  # atno 17342 bound_to 10162
  140.2433  144.4246  150.6251 LP  0  0  0  0  0  0  0  0  0  0  0  0  # atno 17343 bound_to 10162
  156.6217  130.8629  151.3477 LP  0  0  0  0  0  0  0  0  0  0  0  0  # atno 17370 bound_to 10713
  157.7209  130.9557  150.1436 LP  0  0  0  0  0  0  0  0  0  0  0  0  # atno 17371 bound_to 10713
  140.0721  134.9696  157.1485 LP  0  0  0  0  0  0  0  0  0  0  0  0  # atno 17394 bound_to 11000
  140.3696  134.2405  155.7179 LP  0  0  0  0  0  0  0  0  0  0  0  0  # atno 17395 bound_to 11000

$$$$
