AV-unprocessed.smi:227|AV-procd|sdf|1742|dock4
  -GOLD-   2262020253D 1   1.00000     0.00000
 Structure written by MMmdl.
 54 58  0  0  0  0  0  0  0  0  1 V2000
  149.4989  141.7934  157.2420 O   0  0  0  0  0  0  0  0  0  0  0  0
  150.9061  141.7084  157.3423 C   0  0  0  0  0  0  0  0  0  0  0  0
  151.3569  141.2452  158.7521 C   0  0  1  0  0  0  0  0  0  0  0  0
  152.6415  140.3759  158.7040 C   0  0  0  0  0  0  0  0  0  0  0  0
  152.3853  138.9640  158.4822 N   0  0  0  0  0  0  0  0  0  0  0  0
  152.3933  137.9716  159.4330 C   0  0  0  0  0  0  0  0  0  0  0  0
  152.1267  136.7755  158.9861 N   0  0  0  0  0  0  0  0  0  0  0  0
  151.9106  136.9516  157.6231 C   0  0  0  0  0  0  0  0  0  0  0  0
  151.5668  136.0882  156.5394 C   0  0  0  0  0  0  0  0  0  0  0  0
  151.3568  134.7458  156.6419 N   0  0  0  0  0  0  0  0  0  0  0  0
  150.1914  134.1984  157.3220 C   0  0  1  0  0  0  0  0  0  0  0  0
  149.0277  134.4799  156.3509 C   0  0  0  0  0  0  0  0  0  0  0  0
  149.7304  134.3251  154.9936 C   0  0  0  0  0  0  0  0  0  0  0  0
  151.1661  133.9543  155.4330 C   0  0  2  0  0  0  0  0  0  0  0  0
  151.2409  132.5168  155.9952 C   0  0  2  0  0  0  0  0  0  0  0  0
  150.7256  131.3766  155.0970 C   0  0  0  0  0  0  0  0  0  0  0  0
  150.9827  130.1248  155.6963 O   0  0  0  0  0  0  0  0  0  0  0  0
  150.4810  132.6859  157.3224 C   0  0  0  0  0  0  0  0  0  0  0  0
  151.4611  136.6537  155.3075 N   0  0  0  0  0  0  0  0  0  0  0  0
  151.6543  137.9641  155.1393 C   0  0  0  0  0  0  0  0  0  0  0  0
  151.9640  138.8840  156.0527 N   0  0  0  0  0  0  0  0  0  0  0  0
  152.0850  138.3270  157.2911 C   0  0  0  0  0  0  0  0  0  0  0  0
  151.5567  142.4589  159.6969 C   0  0  1  0  0  0  0  0  0  0  0  0
  152.7297  143.3702  159.3320 C   0  0  0  0  0  0  0  0  0  0  0  0
  152.2372  144.7897  159.6293 C   0  0  0  0  0  0  0  0  0  0  0  0
  150.9792  144.6250  160.2638 O   0  0  0  0  0  0  0  0  0  0  0  0
  150.3916  143.4520  159.7305 C   0  0  0  0  0  0  0  0  0  0  0  0
  149.2682  142.6739  156.9871 H   0  0  0  0  0  0  0  0  0  0  0  0
  151.2891  141.0371  156.5731 H   0  0  0  0  0  0  0  0  0  0  0  0
  151.2908  142.6996  157.1058 H   0  0  0  0  0  0  0  0  0  0  0  0
  150.5564  140.6378  159.1786 H   0  0  0  0  0  0  0  0  0  0  0  0
  153.3085  140.7354  157.9194 H   0  0  0  0  0  0  0  0  0  0  0  0
  153.1970  140.4573  159.6382 H   0  0  0  0  0  0  0  0  0  0  0  0
  152.6002  138.1654  160.4754 H   0  0  0  0  0  0  0  0  0  0  0  0
  150.0163  134.5671  158.3309 H   0  0  0  0  0  0  0  0  0  0  0  0
  148.1949  133.7876  156.4793 H   0  0  0  0  0  0  0  0  0  0  0  0
  148.6465  135.4944  156.4742 H   0  0  0  0  0  0  0  0  0  0  0  0
  149.2604  133.5881  154.3446 H   0  0  0  0  0  0  0  0  0  0  0  0
  149.7267  135.2751  154.4577 H   0  0  0  0  0  0  0  0  0  0  0  0
  151.9088  134.1264  154.6532 H   0  0  0  0  0  0  0  0  0  0  0  0
  152.2862  132.3076  156.2313 H   0  0  0  0  0  0  0  0  0  0  0  0
  149.6489  131.4752  154.9575 H   0  0  0  0  0  0  0  0  0  0  0  0
  151.1697  131.4049  154.1027 H   0  0  0  0  0  0  0  0  0  0  0  0
  151.7871  129.7806  155.3394 H   0  0  0  0  0  0  0  0  0  0  0  0
  151.1171  132.4079  158.1637 H   0  0  0  0  0  0  0  0  0  0  0  0
  149.5698  132.0891  157.3796 H   0  0  0  0  0  0  0  0  0  0  0  0
  151.5439  138.3272  154.1281 H   0  0  0  0  0  0  0  0  0  0  0  0
  151.7131  142.0972  160.7146 H   0  0  0  0  0  0  0  0  0  0  0  0
  153.6138  143.1220  159.9202 H   0  0  0  0  0  0  0  0  0  0  0  0
  152.9989  143.2853  158.2782 H   0  0  0  0  0  0  0  0  0  0  0  0
  152.9249  145.3464  160.2662 H   0  0  0  0  0  0  0  0  0  0  0  0
  152.1022  145.3501  158.7031 H   0  0  0  0  0  0  0  0  0  0  0  0
  150.0113  143.6559  158.7281 H   0  0  0  0  0  0  0  0  0  0  0  0
  149.5631  143.1137  160.3530 H   0  0  0  0  0  0  0  0  0  0  0  0
  1  2  1  0  0  0  0
  1 28  1  0  0  0  0
  2  3  1  0  0  0  0
  2 29  1  0  0  0  0
  2 30  1  0  0  0  0
  3  4  1  0  0  0  0
  3 23  1  0  0  0  0
  3 31  1  0  0  0  0
  4  5  1  0  0  0  0
  4 32  1  0  0  0  0
  4 33  1  0  0  0  0
  5 22  1  0  0  0  0
  5  6  1  0  0  0  0
  6  7  2  0  0  0  0
  6 34  1  0  0  0  0
  7  8  1  0  0  0  0
  8 22  2  0  0  0  0
  8  9  1  0  0  0  0
  9 10  1  0  0  0  0
  9 19  2  0  0  0  0
 10 14  1  0  0  0  0
 10 11  1  0  0  0  0
 11 18  1  0  0  0  0
 11 12  1  0  0  0  0
 11 35  1  0  0  0  0
 12 13  1  0  0  0  0
 12 36  1  0  0  0  0
 12 37  1  0  0  0  0
 13 14  1  0  0  0  0
 13 38  1  0  0  0  0
 13 39  1  0  0  0  0
 14 15  1  0  0  0  0
 14 40  1  0  0  0  0
 15 16  1  0  0  0  0
 15 18  1  0  0  0  0
 15 41  1  0  0  0  0
 16 17  1  0  0  0  0
 16 42  1  0  0  0  0
 16 43  1  0  0  0  0
 17 44  1  0  0  0  0
 18 45  1  0  0  0  0
 18 46  1  0  0  0  0
 19 20  1  0  0  0  0
 20 21  2  0  0  0  0
 20 47  1  0  0  0  0
 21 22  1  0  0  0  0
 23 27  1  0  0  0  0
 23 24  1  0  0  0  0
 23 48  1  0  0  0  0
 24 25  1  0  0  0  0
 24 49  1  0  0  0  0
 24 50  1  0  0  0  0
 25 26  1  0  0  0  0
 25 51  1  0  0  0  0
 25 52  1  0  0  0  0
 26 27  1  0  0  0  0
 27 53  1  0  0  0  0
 27 54  1  0  0  0  0
M  END
> <s_m_source_file>
AV-unprocessed.smi

> <i_m_source_file_index>
227

> <i_lp_mmshare_version>
43012

> <i_f3d_flags>
0

> <s_epik_input>
W0NIMl0xT1tDSDJdW0NIMl1bQ0BIXTFbQ0BIXShbQ0gyXVtPSF0pW0NIMl1uKFtjSF1uMiljKGMyMyluW2NIXW5jM04oW0NASF00NSlbQ0BASF0oW0NIMl1bQ0gyXTQpW0NASF0oW0NIMl01KVtDSDJdW09IXQ==

> <s_epik_cmdline>
J2VwaWtfcHl0aG9uJywgJy1waCcsICc3LjAnLCAnLXRuJywgJzgnLCAnLW1hJywgJzIwMCcsICctbWV0YWxfYmluZGluZycsICctaW1hZScsICc8aW5maWxlLm1hZT4nLCAnLW9tYWUnLCAnPG91dGZpbGUubWFlPic=

> <r_lp_tautomer_probability>
1

> <r_epik_Ionization_Penalty>
0.0055791

> <r_epik_Ionization_Penalty_Charging>
0

> <r_epik_Ionization_Penalty_Neutral>
0.0055791

> <r_epik_State_Penalty>
0.00401299

> <r_epik_Charging_Adjusted_Penalty>
0.00401299

> <i_epik_Tot_Q>
0

> <i_epik_Tot_abs_Q>
0

> <r_epik_Metal_State_Penalty>
-0

> <b_epik_Metal_Only>
0

> <s_lp_Force_Field>
OPLS_2005

> <r_lp_Energy>
88.534

> <b_lp_Chiralities_Consistent>
1

> <s_lp_Variant>
AV-unprocessed.smi:227-16

> <Gold.Version>
5.8.1

> <Gold.Id.Protein>
6NUR|6NUR_protein|mol2

> <Gold.PLP.Fitness>
47.2050

> <Gold.PLP.PLP>
-40.4169

> <Gold.PLP.part.hbond>
-3.0000

> <Gold.PLP.part.metal>
0.0000

> <Gold.PLP.part.buried>
-8.4027

> <Gold.PLP.part.nonpolar>
-30.7311

> <Gold.PLP.part.repulsive>
0.2642

> <Gold.PLP.ligand.clash>
0.0000

> <Gold.PLP.ligand.torsion>
1.2034

> <Gold.PLP.Chemscore.Hbond>
2.9833

> <Gold.PLP.Chemscore.CHOScore>
0.0000

> <Gold.PLP.Chemscore.Metal>
0.0000

> <Gold.Chemscore.Hbonds>
donor molecule, donor type, donor heavy atom, donor atom, acceptor molecule, acceptor atom, score
      P1  H  6896  6907       L1     7  0.50
      P1  H 10752 10765       L1    19  0.35

> <Gold.PLP.Chemscore.Internal.Correction>
0.2450

> <Gold.Rescore>
     Score         DG    S(hbond)    S(metal)    S(lipo)     H(rot)  DE(clash)    DE(int)     intcor
     10.58     -13.25       1.66        0.00      97.92       3.61       0.05       2.62       ----

> <Gold.Chemscore.Fitness>
10.5755

> <Gold.Chemscore.DG>
-13.2456

> <Gold.Chemscore.ZeroCoef>
-5.4800

> <Gold.Chemscore.Hbond>
1.6597

> <Gold.Chemscore.Metal>
0.0000

> <Gold.Chemscore.Lipo>
97.9184

> <Gold.Chemscore.Internal_Hbond>
0.0000

> <Gold.Chemscore.DEClash>
0.0528

> <Gold.Chemscore.DEInternal>
2.6173

> <Gold.Chemscore.Rot>
3.6071

> <Gold.Chemscore.Internal.Correction>
   9.000000E+99

> <Gold.Chemscore.Hbonds>
donor molecule, donor type, donor heavy atom, donor atom, acceptor molecule, acceptor atom, score
      L1  H     1    28       P1  8028  0.03
      P1  H  6896  6907       L1     7  0.44
      P1  H 10752 10765       L1    19  0.01

> <Gold.Chemscore.Hbond.Weighted>
-5.5433

> <Gold.Chemscore.Metal.Weighted>
-0.0000

> <Gold.Chemscore.Lipo.Weighted>
-11.4565

> <Gold.Chemscore.Internal_Hbond.Weighted>
0.0000

> <Gold.Chemscore.DEClash.Weighted>
0.0528

> <Gold.Chemscore.DEInternal.Weighted>
2.6173

> <Gold.Chemscore.Rot.Weighted>
9.2342

> <Gold.Chemscore.Internal.Correction.Weighted>
   9.000000E+99

> <Gold.Protein.RotatedTorsions>
[ 6907 6896 6895 6894 ] final  -24.14 input  -60.11 | X-H torsion
[ 7974 7965 7964 7962 ] final   67.02 input  175.53 | X-H torsion
[ 8008 7997 7996 7995 ] final    1.94 input   59.86 | X-H torsion
[ 10167 10162 10161 10158 ] final    7.48 input  -65.29 | X-H torsion
[ 10718 10713 10712 10709 ] final    4.20 input   66.30 | X-H torsion
[ 10763 10752 10751 10750 ] final -167.52 input  -60.55 | X-H torsion
[ 11005 11000 10999 10996 ] final  168.38 input  -57.11 | X-H torsion

> <Gold.Protein.ActiveResidues>
 VAL166  LYS551  ARG553  GLY616  TRP617  ASP618  TYR619  PRO620  LYS621  CYS622 
 ASP623  PHE694  ASN695  SER759  ASP760  ASP761  ALA762  ILE779  LEU786  VAL792 
 PHE793  MET794  SER795  GLU796  ALA797  LYS798  CYS799  TRP800  GLU811  SER814 

> <Gold.Protein.RotatedAtoms>
  151.1939  135.0414  159.8843 H   0  0  0  0  0  0  0  0  0  0  0  0  # atno 6907 bound_to 6896
  152.5437  134.0926  159.8293 H   0  0  0  0  0  0  0  0  0  0  0  0  # atno 6908 bound_to 6896
  151.1058  133.5162  159.2640 H   0  0  0  0  0  0  0  0  0  0  0  0  # atno 6909 bound_to 6896
  145.8196  139.3077  143.1051 H   0  0  0  0  0  0  0  0  0  0  0  0  # atno 7974 bound_to 7965
  154.6857  140.2642  155.6863 H   0  0  0  0  0  0  0  0  0  0  0  0  # atno 8008 bound_to 7997
  156.2713  140.2801  156.1340 H   0  0  0  0  0  0  0  0  0  0  0  0  # atno 8009 bound_to 7997
  155.0968  140.0374  157.2675 H   0  0  0  0  0  0  0  0  0  0  0  0  # atno 8010 bound_to 7997
  140.6369  143.7865  150.7372 H   0  0  0  0  0  0  0  0  0  0  0  0  # atno 10167 bound_to 10162
  156.8891  130.5681  149.5650 H   0  0  0  0  0  0  0  0  0  0  0  0  # atno 10718 bound_to 10713
  154.6724  135.2941  154.9725 H   0  0  0  0  0  0  0  0  0  0  0  0  # atno 10763 bound_to 10752
  154.0747  135.6613  153.4833 H   0  0  0  0  0  0  0  0  0  0  0  0  # atno 10764 bound_to 10752
  153.0495  135.5183  154.7726 H   0  0  0  0  0  0  0  0  0  0  0  0  # atno 10765 bound_to 10752
  140.2866  134.7707  157.3803 H   0  0  0  0  0  0  0  0  0  0  0  0  # atno 11005 bound_to 11000
  145.9689  140.8776  143.0172 LP  0  0  0  0  0  0  0  0  0  0  0  0  # atno 17320 bound_to 7965
  144.6749  140.1918  143.7396 LP  0  0  0  0  0  0  0  0  0  0  0  0  # atno 17321 bound_to 7965
  140.1488  143.4375  152.2145 LP  0  0  0  0  0  0  0  0  0  0  0  0  # atno 17342 bound_to 10162
  139.5579  144.7385  151.4240 LP  0  0  0  0  0  0  0  0  0  0  0  0  # atno 17343 bound_to 10162
  156.0638  130.5685  150.9247 LP  0  0  0  0  0  0  0  0  0  0  0  0  # atno 17370 bound_to 10713
  157.6095  131.0937  150.8821 LP  0  0  0  0  0  0  0  0  0  0  0  0  # atno 17371 bound_to 10713
  140.1234  134.5190  155.8165 LP  0  0  0  0  0  0  0  0  0  0  0  0  # atno 17394 bound_to 11000
  141.2153  133.6764  156.6907 LP  0  0  0  0  0  0  0  0  0  0  0  0  # atno 17395 bound_to 11000

$$$$
