AV-unprocessed.smi:2562|AV-procd|sdf|10048|dock1
  -GOLD-   2272014 93D 1   1.00000     0.00000
 Structure written by MMmdl.
 30 31  0  0  0  0  0  0  0  0  1 V2000
  151.8443  145.4889  160.0349 C   0  0  0  0  0  0  0  0  0  0  0  0
  151.7266  144.2076  160.8678 C   0  0  0  0  0  0  0  0  0  0  0  0
  152.3869  142.9990  160.1886 C   0  0  0  0  0  0  0  0  0  0  0  0
  151.7570  142.6782  158.8737 C   0  0  0  0  0  0  0  0  0  0  0  0
  150.8571  143.4912  158.3233 N   0  0  0  0  0  0  0  0  0  0  0  0
  150.5924  142.8659  157.1572 N   0  0  0  0  0  0  0  0  0  0  0  0
  151.3282  141.7540  157.0718 C   0  0  0  0  0  0  0  0  0  0  0  0
  151.2970  140.8484  155.8801 C   0  0  2  0  0  0  0  0  0  0  0  0
  149.9356  140.1438  155.7175 C   0  0  0  0  0  0  0  0  0  0  0  0
  149.9784  139.2088  154.5939 N   0  0  0  0  0  0  0  0  0  0  0  0
  151.0798  138.2580  154.7370 C   0  0  0  0  0  0  0  0  0  0  0  0
  152.4113  139.0066  154.9251 C   0  0  0  0  0  0  0  0  0  0  0  0
  152.3180  139.8677  156.0548 O   0  0  0  0  0  0  0  0  0  0  0  0
  152.1089  141.5835  158.1340 N   0  0  0  0  0  0  0  0  0  0  0  0
  149.9343  143.2186  156.4771 H   0  0  0  0  0  0  0  0  0  0  0  0
  151.3653  146.3268  160.5416 H   0  0  0  0  0  0  0  0  0  0  0  0
  151.3665  145.3710  159.0622 H   0  0  0  0  0  0  0  0  0  0  0  0
  152.8884  145.7540  159.8670 H   0  0  0  0  0  0  0  0  0  0  0  0
  152.1825  144.3727  161.8447 H   0  0  0  0  0  0  0  0  0  0  0  0
  150.6730  143.9929  161.0508 H   0  0  0  0  0  0  0  0  0  0  0  0
  153.4491  143.1928  160.0336 H   0  0  0  0  0  0  0  0  0  0  0  0
  152.3240  142.1241  160.8372 H   0  0  0  0  0  0  0  0  0  0  0  0
  151.5185  141.4478  154.9948 H   0  0  0  0  0  0  0  0  0  0  0  0
  149.6859  139.6079  156.6342 H   0  0  0  0  0  0  0  0  0  0  0  0
  149.1472  140.8805  155.5606 H   0  0  0  0  0  0  0  0  0  0  0  0
  149.0989  138.7051  154.5367 H   0  0  0  0  0  0  0  0  0  0  0  0
  150.9010  137.6085  155.5947 H   0  0  0  0  0  0  0  0  0  0  0  0
  151.1332  137.6118  153.8606 H   0  0  0  0  0  0  0  0  0  0  0  0
  153.2212  138.2958  155.0891 H   0  0  0  0  0  0  0  0  0  0  0  0
  152.6671  139.5801  154.0326 H   0  0  0  0  0  0  0  0  0  0  0  0
  1  2  1  0  0  0  0
  1 16  1  0  0  0  0
  1 17  1  0  0  0  0
  1 18  1  0  0  0  0
  2  3  1  0  0  0  0
  2 19  1  0  0  0  0
  2 20  1  0  0  0  0
  3  4  1  0  0  0  0
  3 21  1  0  0  0  0
  3 22  1  0  0  0  0
  4 14  1  0  0  0  0
  4  5  2  0  0  0  0
  5  6  1  0  0  0  0
  6 15  1  0  0  0  0
  6  7  1  0  0  0  0
  7  8  1  0  0  0  0
  7 14  2  0  0  0  0
  8 13  1  0  0  0  0
  8  9  1  0  0  0  0
  8 23  1  0  0  0  0
  9 10  1  0  0  0  0
  9 24  1  0  0  0  0
  9 25  1  0  0  0  0
 10 11  1  0  0  0  0
 10 26  1  0  0  0  0
 11 12  1  0  0  0  0
 11 27  1  0  0  0  0
 11 28  1  0  0  0  0
 12 13  1  0  0  0  0
 12 29  1  0  0  0  0
 12 30  1  0  0  0  0
M  END
> <s_m_source_file>
AV-unprocessed.smi

> <i_m_source_file_index>
2562

> <i_lp_mmshare_version>
43012

> <i_f3d_flags>
0

> <s_epik_input>
W0NIM11bQ0gyXVtDSDJdYzFuW25IXWMobjEpW0NAQEhdMltDSDJdW05IXVtDSDJdW0NIMl1PMg==

> <s_epik_cmdline>
J2VwaWtfcHl0aG9uJywgJy1waCcsICc3LjAnLCAnLXRuJywgJzgnLCAnLW1hJywgJzIwMCcsICctbWV0YWxfYmluZGluZycsICctaW1hZScsICc8aW5maWxlLm1hZT4nLCAnLW9tYWUnLCAnPG91dGZpbGUubWFlPic=

> <r_lp_tautomer_probability>
0.948284

> <r_epik_Ionization_Penalty>
0.982917

> <r_epik_Ionization_Penalty_Charging>
0

> <r_epik_Ionization_Penalty_Neutral>
0.982917

> <r_epik_State_Penalty>
1.68334

> <r_epik_Charging_Adjusted_Penalty>
1.68334

> <i_epik_Tot_Q>
0

> <i_epik_Tot_abs_Q>
0

> <r_epik_Metal_State_Penalty>
1.80323

> <b_epik_Metal_Only>
0

> <s_lp_Force_Field>
OPLS_2005

> <r_lp_Energy>
10.5925

> <b_lp_Chiralities_Consistent>
1

> <s_lp_Variant>
AV-unprocessed.smi:2562-7

> <Gold.Version>
5.8.1

> <Gold.Id.Protein>
6NUR|6NUR_protein|mol2

> <Gold.PLP.Fitness>
36.1733

> <Gold.PLP.PLP>
-30.3982

> <Gold.PLP.part.hbond>
-2.0000

> <Gold.PLP.part.metal>
0.0000

> <Gold.PLP.part.buried>
-4.1466

> <Gold.PLP.part.nonpolar>
-23.3516

> <Gold.PLP.part.repulsive>
0.1431

> <Gold.PLP.ligand.clash>
0.0000

> <Gold.PLP.ligand.torsion>
0.1187

> <Gold.PLP.Chemscore.Hbond>
2.0000

> <Gold.PLP.Chemscore.CHOScore>
0.0000

> <Gold.PLP.Chemscore.Metal>
0.0000

> <Gold.Chemscore.Hbonds>
donor molecule, donor type, donor heavy atom, donor atom, acceptor molecule, acceptor atom, score
      L1  H     6    15       P1  8028  1.00
      P1  H  7997  8008       L1    13  0.85

> <Gold.PLP.Chemscore.Internal.Correction>
0.0125

> <Gold.Rescore>
     Score         DG    S(hbond)    S(metal)    S(lipo)     H(rot)  DE(clash)    DE(int)     intcor
     11.90     -13.55       1.26        0.00      65.18       1.48       0.23       1.42       ----

> <Gold.Chemscore.Fitness>
11.9032

> <Gold.Chemscore.DG>
-13.5496

> <Gold.Chemscore.ZeroCoef>
-5.4800

> <Gold.Chemscore.Hbond>
1.2647

> <Gold.Chemscore.Metal>
0.0000

> <Gold.Chemscore.Lipo>
65.1823

> <Gold.Chemscore.Internal_Hbond>
0.0000

> <Gold.Chemscore.DEClash>
0.2255

> <Gold.Chemscore.DEInternal>
1.4209

> <Gold.Chemscore.Rot>
1.4769

> <Gold.Chemscore.Internal.Correction>
   9.000000E+99

> <Gold.Chemscore.Hbonds>
donor molecule, donor type, donor heavy atom, donor atom, acceptor molecule, acceptor atom, score
      L1  H     6    15       P1  8028  0.92
      P1  H  7997  8008       L1    13  0.19

> <Gold.Chemscore.Hbond.Weighted>
-4.2240

> <Gold.Chemscore.Metal.Weighted>
-0.0000

> <Gold.Chemscore.Lipo.Weighted>
-7.6263

> <Gold.Chemscore.Internal_Hbond.Weighted>
0.0000

> <Gold.Chemscore.DEClash.Weighted>
0.2255

> <Gold.Chemscore.DEInternal.Weighted>
1.4209

> <Gold.Chemscore.Rot.Weighted>
3.7808

> <Gold.Chemscore.Internal.Correction.Weighted>
   9.000000E+99

> <Gold.Protein.RotatedTorsions>
[ 6907 6896 6895 6894 ] final  -15.91 input  -60.11 | X-H torsion
[ 7974 7965 7964 7962 ] final  178.42 input  175.53 | X-H torsion
[ 8008 7997 7996 7995 ] final  -49.89 input   59.86 | X-H torsion
[ 10167 10162 10161 10158 ] final   -9.92 input  -65.29 | X-H torsion
[ 10718 10713 10712 10709 ] final  -68.27 input   66.30 | X-H torsion
[ 10763 10752 10751 10750 ] final   26.64 input  -60.55 | X-H torsion
[ 11005 11000 10999 10996 ] final   54.99 input  -57.11 | X-H torsion

> <Gold.Protein.ActiveResidues>
 VAL166  LYS551  ARG553  GLY616  TRP617  ASP618  TYR619  PRO620  LYS621  CYS622 
 ASP623  PHE694  ASN695  SER759  ASP760  ASP761  ALA762  ILE779  LEU786  VAL792 
 PHE793  MET794  SER795  GLU796  ALA797  LYS798  CYS799  TRP800  GLU811  SER814 

> <Gold.Protein.RotatedAtoms>
  151.3167  135.0808  159.9291 H   0  0  0  0  0  0  0  0  0  0  0  0  # atno 6907 bound_to 6896
  152.5266  133.9681  159.7759 H   0  0  0  0  0  0  0  0  0  0  0  0  # atno 6908 bound_to 6896
  150.9994  133.6019  159.2727 H   0  0  0  0  0  0  0  0  0  0  0  0  # atno 6909 bound_to 6896
  144.7156  140.0394  143.6437 H   0  0  0  0  0  0  0  0  0  0  0  0  # atno 7974 bound_to 7965
  154.4052  140.1285  156.4577 H   0  0  0  0  0  0  0  0  0  0  0  0  # atno 8008 bound_to 7997
  155.7304  140.3491  155.5037 H   0  0  0  0  0  0  0  0  0  0  0  0  # atno 8009 bound_to 7997
  155.9132  140.1039  157.1253 H   0  0  0  0  0  0  0  0  0  0  0  0  # atno 8010 bound_to 7997
  140.7100  143.5805  150.8997 H   0  0  0  0  0  0  0  0  0  0  0  0  # atno 10167 bound_to 10162
  156.0514  130.4292  150.1976 H   0  0  0  0  0  0  0  0  0  0  0  0  # atno 10718 bound_to 10713
  153.0609  135.6555  154.0466 H   0  0  0  0  0  0  0  0  0  0  0  0  # atno 10763 bound_to 10752
  154.0134  135.2926  155.3391 H   0  0  0  0  0  0  0  0  0  0  0  0  # atno 10764 bound_to 10752
  154.6946  135.5269  153.8508 H   0  0  0  0  0  0  0  0  0  0  0  0  # atno 10765 bound_to 10752
  140.0642  134.5559  155.9117 H   0  0  0  0  0  0  0  0  0  0  0  0  # atno 11005 bound_to 11000
  146.0036  139.3111  143.0913 LP  0  0  0  0  0  0  0  0  0  0  0  0  # atno 17320 bound_to 7965
  145.8764  140.9389  143.0624 LP  0  0  0  0  0  0  0  0  0  0  0  0  # atno 17321 bound_to 7965
  139.9530  143.6250  152.3023 LP  0  0  0  0  0  0  0  0  0  0  0  0  # atno 17342 bound_to 10162
  139.6775  144.7657  151.1668 LP  0  0  0  0  0  0  0  0  0  0  0  0  # atno 17343 bound_to 10162
  157.0059  130.9936  151.3379 LP  0  0  0  0  0  0  0  0  0  0  0  0  # atno 17370 bound_to 10713
  157.5443  130.8140  149.8067 LP  0  0  0  0  0  0  0  0  0  0  0  0  # atno 17371 bound_to 10713
  141.1986  133.6602  156.5800 LP  0  0  0  0  0  0  0  0  0  0  0  0  # atno 17394 bound_to 11000
  140.3724  134.7594  157.4607 LP  0  0  0  0  0  0  0  0  0  0  0  0  # atno 17395 bound_to 11000

$$$$
