AV-unprocessed.smi:153|AV-procd|sdf|1263|dock2
  -GOLD-   2262018513D 1   1.00000     0.00000
 Structure written by MMmdl.
 59 62  0  0  0  0  0  0  0  0  1 V2000
  152.2504  144.9572  158.9351 C   0  0  0  0  0  0  0  0  0  0  0  0
  152.3500  143.5472  158.3301 C   0  0  1  0  0  0  0  0  0  0  0  0
  153.0323  142.7045  159.2548 O   0  0  0  0  0  0  0  0  0  0  0  0
  152.5458  141.3823  159.1084 C   0  0  0  0  0  0  0  0  0  0  0  0
  151.0544  141.6086  158.9243 C   0  0  0  0  0  0  0  0  0  0  0  0
  151.0085  142.8311  158.0066 C   0  0  1  0  0  0  0  0  0  0  0  0
  149.8742  143.6065  158.3565 O   0  0  0  0  0  0  0  0  0  0  0  0
  150.9171  142.4797  156.4982 C   0  0  0  0  0  0  0  0  0  0  0  0
  149.8245  141.5808  156.1565 N   0  0  0  0  0  0  0  0  0  0  0  0
  148.4910  141.7575  156.4413 C   0  0  0  0  0  0  0  0  0  0  0  0
  147.7042  140.8067  156.0200 N   0  0  0  0  0  0  0  0  0  0  0  0
  148.5529  139.9024  155.3889 C   0  0  0  0  0  0  0  0  0  0  0  0
  148.3713  138.6569  154.7122 C   0  0  0  0  0  0  0  0  0  0  0  0
  147.1716  138.0249  154.5637 N   0  0  0  0  0  0  0  0  0  0  0  0
  145.9745  138.6773  155.0909 C   0  0  0  0  0  0  0  0  0  0  0  0
  146.9913  137.1033  153.4416 C   0  0  0  0  0  0  0  0  0  0  0  0
  145.9263  137.5743  152.4259 C   0  0  1  0  0  0  0  0  0  0  0  0
  146.2271  138.8658  151.9358 O   0  0  0  0  0  0  0  0  0  0  0  0
  145.7542  136.6141  151.2270 C   0  0  0  0  0  0  0  0  0  0  0  0
  145.3036  135.2515  151.5299 N   0  0  0  0  0  0  0  0  0  0  0  0
  146.3609  134.4066  152.0823 C   0  0  0  0  0  0  0  0  0  0  0  0
  145.8683  132.9758  152.3619 C   0  0  0  0  0  0  0  0  0  0  0  0
  145.3344  132.4089  151.1701 O   0  0  0  0  0  0  0  0  0  0  0  0
  144.2668  133.1794  150.6286 C   0  0  0  0  0  0  0  0  0  0  0  0
  144.7601  134.6074  150.3385 C   0  0  0  0  0  0  0  0  0  0  0  0
  149.4851  138.0782  154.1859 N   0  0  0  0  0  0  0  0  0  0  0  0
  150.6841  138.6501  154.3193 C   0  0  0  0  0  0  0  0  0  0  0  0
  150.9983  139.7913  154.9312 N   0  0  0  0  0  0  0  0  0  0  0  0
  149.8913  140.3896  155.4547 C   0  0  0  0  0  0  0  0  0  0  0  0
  151.7482  145.6440  158.2532 H   0  0  0  0  0  0  0  0  0  0  0  0
  153.2425  145.3614  159.1377 H   0  0  0  0  0  0  0  0  0  0  0  0
  151.6997  144.9494  159.8764 H   0  0  0  0  0  0  0  0  0  0  0  0
  152.9664  143.6008  157.4314 H   0  0  0  0  0  0  0  0  0  0  0  0
  152.9871  140.9159  158.2262 H   0  0  0  0  0  0  0  0  0  0  0  0
  152.7763  140.7694  159.9797 H   0  0  0  0  0  0  0  0  0  0  0  0
  150.5343  140.7310  158.5439 H   0  0  0  0  0  0  0  0  0  0  0  0
  150.6194  141.8435  159.8974 H   0  0  0  0  0  0  0  0  0  0  0  0
  149.5331  144.0062  157.5713 H   0  0  0  0  0  0  0  0  0  0  0  0
  150.7994  143.3910  155.9102 H   0  0  0  0  0  0  0  0  0  0  0  0
  151.8488  142.0237  156.1611 H   0  0  0  0  0  0  0  0  0  0  0  0
  148.1175  142.6188  156.9759 H   0  0  0  0  0  0  0  0  0  0  0  0
  146.1131  138.9570  156.1360 H   0  0  0  0  0  0  0  0  0  0  0  0
  145.1139  138.0100  155.0422 H   0  0  0  0  0  0  0  0  0  0  0  0
  145.7376  139.5749  154.5187 H   0  0  0  0  0  0  0  0  0  0  0  0
  147.9298  136.8565  152.9516 H   0  0  0  0  0  0  0  0  0  0  0  0
  146.6558  136.1586  153.8706 H   0  0  0  0  0  0  0  0  0  0  0  0
  144.9583  137.6467  152.9229 H   0  0  0  0  0  0  0  0  0  0  0  0
  145.4633  139.4112  152.0459 H   0  0  0  0  0  0  0  0  0  0  0  0
  145.0066  137.0715  150.5774 H   0  0  0  0  0  0  0  0  0  0  0  0
  146.6701  136.5861  150.6343 H   0  0  0  0  0  0  0  0  0  0  0  0
  147.2055  134.3710  151.3924 H   0  0  0  0  0  0  0  0  0  0  0  0
  146.7336  134.8268  153.0154 H   0  0  0  0  0  0  0  0  0  0  0  0
  146.6905  132.3538  152.7156 H   0  0  0  0  0  0  0  0  0  0  0  0
  145.1078  132.9768  153.1444 H   0  0  0  0  0  0  0  0  0  0  0  0
  143.9135  132.7059  149.7125 H   0  0  0  0  0  0  0  0  0  0  0  0
  143.4282  133.1944  151.3267 H   0  0  0  0  0  0  0  0  0  0  0  0
  143.9330  135.1976  149.9424 H   0  0  0  0  0  0  0  0  0  0  0  0
  145.5208  134.5735  149.5568 H   0  0  0  0  0  0  0  0  0  0  0  0
  151.5095  138.1156  153.8728 H   0  0  0  0  0  0  0  0  0  0  0  0
  1  2  1  0  0  0  0
  1 30  1  0  0  0  0
  1 31  1  0  0  0  0
  1 32  1  0  0  0  0
  2  6  1  0  0  0  0
  2  3  1  0  0  0  0
  2 33  1  0  0  0  0
  3  4  1  0  0  0  0
  4  5  1  0  0  0  0
  4 34  1  0  0  0  0
  4 35  1  0  0  0  0
  5  6  1  0  0  0  0
  5 36  1  0  0  0  0
  5 37  1  0  0  0  0
  6  7  1  0  0  0  0
  6  8  1  0  0  0  0
  7 38  1  0  0  0  0
  8  9  1  0  0  0  0
  8 39  1  0  0  0  0
  8 40  1  0  0  0  0
  9 29  1  0  0  0  0
  9 10  1  0  0  0  0
 10 11  2  0  0  0  0
 10 41  1  0  0  0  0
 11 12  1  0  0  0  0
 12 29  2  0  0  0  0
 12 13  1  0  0  0  0
 13 14  1  0  0  0  0
 13 26  2  0  0  0  0
 14 15  1  0  0  0  0
 14 16  1  0  0  0  0
 15 42  1  0  0  0  0
 15 43  1  0  0  0  0
 15 44  1  0  0  0  0
 16 17  1  0  0  0  0
 16 45  1  0  0  0  0
 16 46  1  0  0  0  0
 17 18  1  0  0  0  0
 17 19  1  0  0  0  0
 17 47  1  0  0  0  0
 18 48  1  0  0  0  0
 19 20  1  0  0  0  0
 19 49  1  0  0  0  0
 19 50  1  0  0  0  0
 20 25  1  0  0  0  0
 20 21  1  0  0  0  0
 21 22  1  0  0  0  0
 21 51  1  0  0  0  0
 21 52  1  0  0  0  0
 22 23  1  0  0  0  0
 22 53  1  0  0  0  0
 22 54  1  0  0  0  0
 23 24  1  0  0  0  0
 24 25  1  0  0  0  0
 24 55  1  0  0  0  0
 24 56  1  0  0  0  0
 25 57  1  0  0  0  0
 25 58  1  0  0  0  0
 26 27  1  0  0  0  0
 27 28  2  0  0  0  0
 27 59  1  0  0  0  0
 28 29  1  0  0  0  0
M  END
> <s_m_source_file>
AV-unprocessed.smi

> <i_m_source_file_index>
153

> <i_lp_mmshare_version>
43012

> <i_f3d_flags>
0

> <s_epik_input>
W0NIMl0xW0NIMl1PW0NAQEhdKFtDSDNdKVtDQEBdMShbT0hdKVtDSDJdbihbY0hdbjIpYyhjMjMpbltjSF1uYzNOKFtDSDNdKVtDSDJdW0NASF0oW09IXSlbQ0gyXU40W0NIMl1bQ0gyXU9bQ0gyXVtDSDJdNA==

> <s_epik_cmdline>
J2VwaWtfcHl0aG9uJywgJy1waCcsICc3LjAnLCAnLXRuJywgJzgnLCAnLW1hJywgJzIwMCcsICctbWV0YWxfYmluZGluZycsICctaW1hZScsICc8aW5maWxlLm1hZT4nLCAnLW9tYWUnLCAnPG91dGZpbGUubWFlPic=

> <r_lp_tautomer_probability>
1

> <r_epik_Ionization_Penalty>
0.424123

> <r_epik_Ionization_Penalty_Charging>
0

> <r_epik_Ionization_Penalty_Neutral>
0.424123

> <r_epik_State_Penalty>
0.421495

> <r_epik_Charging_Adjusted_Penalty>
0.421495

> <i_epik_Tot_Q>
0

> <i_epik_Tot_abs_Q>
0

> <r_epik_Metal_State_Penalty>
0.421223

> <b_epik_Metal_Only>
0

> <s_lp_Force_Field>
OPLS_2005

> <r_lp_Energy>
60.0656

> <b_lp_Chiralities_Consistent>
1

> <s_lp_Variant>
AV-unprocessed.smi:153-14

> <Gold.Version>
5.8.1

> <Gold.Id.Protein>
6NUR|6NUR_protein|mol2

> <Gold.PLP.Fitness>
50.7458

> <Gold.PLP.PLP>
-40.3991

> <Gold.PLP.part.hbond>
-4.2793

> <Gold.PLP.part.metal>
0.0000

> <Gold.PLP.part.buried>
-2.9415

> <Gold.PLP.part.nonpolar>
-35.7068

> <Gold.PLP.part.repulsive>
1.2323

> <Gold.PLP.ligand.clash>
0.0006

> <Gold.PLP.ligand.torsion>
0.5635

> <Gold.PLP.Chemscore.Hbond>
3.0000

> <Gold.PLP.Chemscore.CHOScore>
0.5767

> <Gold.PLP.Chemscore.Metal>
0.0000

> <Gold.Chemscore.Hbonds>
donor molecule, donor type, donor heavy atom, donor atom, acceptor molecule, acceptor atom, score
      L1  H     7    38       P1  8028  0.80
      L1  H    18    48       P1 10175  0.81
      P1  H  7989  7998       L1    28  1.00
      L1  C    10    41       P1  8028  0.49

> <Gold.PLP.Chemscore.Internal.Correction>
0.7442

> <Gold.Rescore>
     Score         DG    S(hbond)    S(metal)    S(lipo)     H(rot)  DE(clash)    DE(int)     intcor
      9.61     -14.70       1.92        0.00     100.88       3.52       3.11       1.98       ----

> <Gold.Chemscore.Fitness>
9.6076

> <Gold.Chemscore.DG>
-14.7018

> <Gold.Chemscore.ZeroCoef>
-5.4800

> <Gold.Chemscore.Hbond>
1.9227

> <Gold.Chemscore.Metal>
0.0000

> <Gold.Chemscore.Lipo>
100.8836

> <Gold.Chemscore.Internal_Hbond>
0.0000

> <Gold.Chemscore.DEClash>
3.1107

> <Gold.Chemscore.DEInternal>
1.9834

> <Gold.Chemscore.Rot>
3.5170

> <Gold.Chemscore.Internal.Correction>
   9.000000E+99

> <Gold.Chemscore.Hbonds>
donor molecule, donor type, donor heavy atom, donor atom, acceptor molecule, acceptor atom, score
      L1  H     7    38       P1  8028  0.20
      L1  H    18    48       P1 10175  0.78
      P1  H  7989  7998       L1    28  0.26

> <Gold.Chemscore.Hbond.Weighted>
-6.4220

> <Gold.Chemscore.Metal.Weighted>
-0.0000

> <Gold.Chemscore.Lipo.Weighted>
-11.8034

> <Gold.Chemscore.Internal_Hbond.Weighted>
0.0000

> <Gold.Chemscore.DEClash.Weighted>
3.1107

> <Gold.Chemscore.DEInternal.Weighted>
1.9834

> <Gold.Chemscore.Rot.Weighted>
9.0036

> <Gold.Chemscore.Internal.Correction.Weighted>
   9.000000E+99

> <Gold.Protein.RotatedTorsions>
[ 6907 6896 6895 6894 ] final  -21.60 input  -60.11 | X-H torsion
[ 7974 7965 7964 7962 ] final   41.87 input  175.53 | X-H torsion
[ 8008 7997 7996 7995 ] final   48.53 input   59.86 | X-H torsion
[ 10167 10162 10161 10158 ] final   30.25 input  -65.29 | X-H torsion
[ 10718 10713 10712 10709 ] final  163.30 input   66.30 | X-H torsion
[ 10763 10752 10751 10750 ] final  170.21 input  -60.55 | X-H torsion
[ 11005 11000 10999 10996 ] final   14.26 input  -57.11 | X-H torsion

> <Gold.Protein.ActiveResidues>
 VAL166  LYS551  ARG553  GLY616  TRP617  ASP618  TYR619  PRO620  LYS621  CYS622 
 ASP623  PHE694  ASN695  SER759  ASP760  ASP761  ALA762  ILE779  LEU786  VAL792 
 PHE793  MET794  SER795  GLU796  ALA797  LYS798  CYS799  TRP800  GLU811  SER814 

> <Gold.Protein.RotatedAtoms>
  151.2309  135.0554  159.8986 H   0  0  0  0  0  0  0  0  0  0  0  0  # atno 6907 bound_to 6896
  152.5405  134.0538  159.8132 H   0  0  0  0  0  0  0  0  0  0  0  0  # atno 6908 bound_to 6896
  151.0717  133.5412  159.2658 H   0  0  0  0  0  0  0  0  0  0  0  0  # atno 6909 bound_to 6896
  146.0788  139.5366  142.9550 H   0  0  0  0  0  0  0  0  0  0  0  0  # atno 7974 bound_to 7965
  155.3872  140.3431  155.4249 H   0  0  0  0  0  0  0  0  0  0  0  0  # atno 8008 bound_to 7997
  156.1577  140.1591  156.8697 H   0  0  0  0  0  0  0  0  0  0  0  0  # atno 8009 bound_to 7997
  154.5110  140.0790  156.7972 H   0  0  0  0  0  0  0  0  0  0  0  0  # atno 8010 bound_to 7997
  140.4694  144.0785  150.6233 H   0  0  0  0  0  0  0  0  0  0  0  0  # atno 10167 bound_to 10162
  157.1104  131.0466  151.2460 H   0  0  0  0  0  0  0  0  0  0  0  0  # atno 10718 bound_to 10713
  154.3943  135.2754  155.2135 H   0  0  0  0  0  0  0  0  0  0  0  0  # atno 10763 bound_to 10752
  154.4188  135.6005  153.6001 H   0  0  0  0  0  0  0  0  0  0  0  0  # atno 10764 bound_to 10752
  152.9831  135.5967  154.4203 H   0  0  0  0  0  0  0  0  0  0  0  0  # atno 10765 bound_to 10752
  140.4715  134.1026  155.7733 H   0  0  0  0  0  0  0  0  0  0  0  0  # atno 11005 bound_to 11000
  145.6257  141.0314  143.1891 LP  0  0  0  0  0  0  0  0  0  0  0  0  # atno 17320 bound_to 7965
  144.7279  139.7817  143.7358 LP  0  0  0  0  0  0  0  0  0  0  0  0  # atno 17321 bound_to 7965
  140.3995  143.2711  151.9964 LP  0  0  0  0  0  0  0  0  0  0  0  0  # atno 17342 bound_to 10162
  139.4816  144.6009  151.7607 LP  0  0  0  0  0  0  0  0  0  0  0  0  # atno 17343 bound_to 10162
  157.4564  130.7628  149.7197 LP  0  0  0  0  0  0  0  0  0  0  0  0  # atno 17370 bound_to 10713
  155.9852  130.3985  150.3274 LP  0  0  0  0  0  0  0  0  0  0  0  0  # atno 17371 bound_to 10713
  141.1575  133.8856  157.1939 LP  0  0  0  0  0  0  0  0  0  0  0  0  # atno 17394 bound_to 11000
  139.9882  135.0074  156.9913 LP  0  0  0  0  0  0  0  0  0  0  0  0  # atno 17395 bound_to 11000

$$$$
