#       Name:                AV-unprocessed.smi:2951
#       Creating user name   scv26
#       Creation time:       Fri Mar 27 16:18:16 2020


#       File generated by GOLD software.
#

@<TRIPOS>MOLECULE
AV-unprocessed.smi:2951
    20    20     1
SMALL
NO_CHARGES


@<TRIPOS>ATOM
      1 ****        -2.2028   1.4933  -0.6785 N.am           1 S1                 0.0000
      2 ****        -2.0557   0.8780   0.4981 C.2            1 S1                 0.0000
      3 ****        -2.3583   1.4133   1.5626 O.2            1 S1                 0.0000
      4 ****        -1.4888  -0.5426   0.4783 C.3            1 S1                 0.0000
      5 ****         0.0117  -0.5026   0.4991 C.2            1 S1                 0.0000
      6 ****         0.8172  -0.3739   1.6053 C.2            1 S1                 0.0000
      7 ****         2.5090  -0.3719   1.1861 S.3            1 S1                 0.0000
      8 ****         2.0486  -0.5533  -0.4995 C.2            1 S1                 0.0000
      9 ****         2.9960  -0.6270  -1.5058 N.pl3          1 S1                 0.0000
     10 ****         0.7309  -0.6087  -0.6973 N.2            1 S1                 0.0000
     11 ****        -2.5671   2.4346  -0.7098 H              1 S1                 0.0000
     12 ****        -1.9432   1.0191  -1.5316 H              1 S1                 0.0000
     13 ****        -1.8677  -1.0898   1.3424 H              1 S1                 0.0000
     14 ****        -1.8551  -1.0714  -0.4028 H              1 S1                 0.0000
     15 ****         0.5167  -0.2760   2.6381 H              1 S1                 0.0000
     16 ****         3.9838  -0.5786  -1.3014 H              1 S1                 0.0000
     17 ****         2.7338  -0.8195  -2.4617 H              1 S1                 0.0000
     18 ****        -2.7292   2.3420   1.5676 LP             1 S1                 0.0000
     19 ****        -2.2335   0.9201   2.4235 LP             1 S1                 0.0000
     20 ****         0.3058  -0.7139  -1.5963 LP             1 S1                 0.0000
@<TRIPOS>BOND
    1    1    2 am    
    2    1   11 1     
    3    1   12 1     
    4    2    3 2     
    5    2    4 1     
    6    4    5 1     
    7    4   13 1     
    8    4   14 1     
    9    5   10 1     
   10    5    6 2     
   11    6    7 1     
   12    6   15 1     
   13    7    8 1     
   14    8    9 1     
   15    8   10 2     
   16    9   16 1     
   17    9   17 1     
   18    3   18 1     
   19    3   19 1     
   20   10   20 1     
@<TRIPOS>SUBSTRUCTURE
      1 S1             1
@<TRIPOS>SET
LONE_PAIRS      STATIC     ATOMS    <user>   **** ""
3 18 19 20
DONOR_HYDROGENS      STATIC     ATOMS    <user>   **** ""
4 11 12 16 17
ATOM$BLUE        STATIC     ATOMS    COLORGROUP SYSTEM
3 18 19 20
ATOM$RED        STATIC     ATOMS    COLORGROUP SYSTEM
4 11 12 16 17
