AV-unprocessed.smi:2090|AV-procd|sdf|8536|dock1
  -GOLD-   2272011253D 1   1.00000     0.00000
 Structure written by MMmdl.
 41 42  0  0  0  0  0  0  0  0  3 V2000
  147.0846  134.9062  162.8942 C   0  0  0  0  0  0  0  0  0  0  0  0
  147.0798  135.7604  161.6730 C   0  0  0  0  0  0  0  0  0  0  0  0
  147.8389  135.7617  160.5369 C   0  0  0  0  0  0  0  0  0  0  0  0
  147.2978  136.8421  159.7901 C   0  0  0  0  0  0  0  0  0  0  0  0
  147.8244  137.1755  158.5140 N   0  0  0  0  0  0  0  0  0  0  0  0
  148.9609  136.7483  157.9341 C   0  0  0  0  0  0  0  0  0  0  0  0
  149.7045  135.9556  158.5249 O   0  0  0  0  0  0  0  0  0  0  0  0
  149.1458  137.2906  156.6983 N   0  5  0  0  0  0  0  0  0  0  0  0
  148.4821  136.8303  155.4795 C   0  0  0  0  0  0  0  0  0  0  0  0
  148.5248  135.2908  155.3978 C   0  0  0  0  0  0  0  0  0  0  0  0
  147.9476  134.7890  154.1230 N   0  3  2  0  0  0  0  0  0  0  0  0
  146.4928  135.0749  153.9786 C   0  0  0  0  0  0  0  0  0  0  0  0
  145.9839  134.6708  152.5852 C   0  0  0  0  0  0  0  0  0  0  0  0
  146.2672  133.1868  152.2979 C   0  0  1  0  0  0  0  0  0  0  0  0
  145.7870  132.7761  150.8989 C   0  0  0  0  0  0  0  0  0  0  0  0
  147.7680  132.9118  152.4893 C   0  0  0  0  0  0  0  0  0  0  0  0
  148.2442  133.3526  153.8837 C   0  0  0  0  0  0  0  0  0  0  0  0
  146.2986  137.4462  160.4164 N   0  0  0  0  0  0  0  0  0  0  0  0
  146.1545  136.7569  161.6261 O   0  0  0  0  0  0  0  0  0  0  0  0
  147.5306  133.9335  162.6859 H   0  0  0  0  0  0  0  0  0  0  0  0
  146.0700  134.7408  163.2572 H   0  0  0  0  0  0  0  0  0  0  0  0
  147.6578  135.3782  163.6922 H   0  0  0  0  0  0  0  0  0  0  0  0
  148.6498  135.0957  160.2818 H   0  0  0  0  0  0  0  0  0  0  0  0
  147.2712  137.8206  157.9693 H   0  0  0  0  0  0  0  0  0  0  0  0
  147.4458  137.1661  155.4258 H   0  0  0  0  0  0  0  0  0  0  0  0
  148.9637  137.2403  154.5916 H   0  0  0  0  0  0  0  0  0  0  0  0
  149.5669  134.9789  155.4836 H   0  0  0  0  0  0  0  0  0  0  0  0
  148.0071  134.8345  156.2433 H   0  0  0  0  0  0  0  0  0  0  0  0
  145.9371  134.5389  154.7497 H   0  0  0  0  0  0  0  0  0  0  0  0
  146.3004  136.1370  154.1353 H   0  0  0  0  0  0  0  0  0  0  0  0
  144.9136  134.8672  152.5155 H   0  0  0  0  0  0  0  0  0  0  0  0
  146.4624  135.2945  151.8285 H   0  0  0  0  0  0  0  0  0  0  0  0
  145.7170  132.5884  153.0256 H   0  0  0  0  0  0  0  0  0  0  0  0
  146.2962  133.3450  150.1202 H   0  0  0  0  0  0  0  0  0  0  0  0
  144.7156  132.9445  150.7872 H   0  0  0  0  0  0  0  0  0  0  0  0
  145.9745  131.7178  150.7149 H   0  0  0  0  0  0  0  0  0  0  0  0
  147.9746  131.8499  152.3509 H   0  0  0  0  0  0  0  0  0  0  0  0
  148.3416  133.4401  151.7262 H   0  0  0  0  0  0  0  0  0  0  0  0
  149.3186  133.1810  153.9622 H   0  0  0  0  0  0  0  0  0  0  0  0
  147.7674  132.7474  154.6566 H   0  0  0  0  0  0  0  0  0  0  0  0
  148.4219  135.2977  153.3906 H   0  0  0  0  0  0  0  0  0  0  0  0
  1  2  1  0  0  0  0
  1 20  1  0  0  0  0
  1 21  1  0  0  0  0
  1 22  1  0  0  0  0
  2 19  1  0  0  0  0
  2  3  2  0  0  0  0
  3  4  1  0  0  0  0
  3 23  1  0  0  0  0
  4  5  1  0  0  0  0
  4 18  2  0  0  0  0
  5  6  1  0  0  0  0
  5 24  1  0  0  0  0
  6  7  2  0  0  0  0
  6  8  1  0  0  0  0
  8  9  1  0  0  0  0
  9 10  1  0  0  0  0
  9 25  1  0  0  0  0
  9 26  1  0  0  0  0
 10 11  1  0  0  0  0
 10 27  1  0  0  0  0
 10 28  1  0  0  0  0
 11 17  1  0  0  0  0
 11 12  1  0  0  0  0
 11 41  1  0  0  0  0
 12 13  1  0  0  0  0
 12 29  1  0  0  0  0
 12 30  1  0  0  0  0
 13 14  1  0  0  0  0
 13 31  1  0  0  0  0
 13 32  1  0  0  0  0
 14 15  1  0  0  0  0
 14 16  1  0  0  0  0
 14 33  1  0  0  0  0
 15 34  1  0  0  0  0
 15 35  1  0  0  0  0
 15 36  1  0  0  0  0
 16 17  1  0  0  0  0
 16 37  1  0  0  0  0
 16 38  1  0  0  0  0
 17 39  1  0  0  0  0
 17 40  1  0  0  0  0
 18 19  1  0  0  0  0
M  CHG  1   8  -1
M  CHG  1  11   1
M  END
> <s_m_source_file>
AV-unprocessed.smi

> <i_m_source_file_index>
2090

> <i_lp_mmshare_version>
43012

> <i_f3d_flags>
0

> <s_epik_input>
W0NIM11jMVtjSF1jKG5vMSlbTkhdQyg9TylbTkhdW0NIMl1bQ0gyXU4yW0NIMl1bQ0gyXVtDSF0oW0NIM10pW0NIMl1bQ0gyXTI=

> <s_epik_cmdline>
J2VwaWtfcHl0aG9uJywgJy1waCcsICc3LjAnLCAnLXRuJywgJzgnLCAnLW1hJywgJzIwMCcsICctbWV0YWxfYmluZGluZycsICctaW1hZScsICc8aW5maWxlLm1hZT4nLCAnLW9tYWUnLCAnPG91dGZpbGUubWFlPic=

> <r_epik_Ionization_Penalty>
6.7721

> <r_epik_Ionization_Penalty_Charging>
6.7721

> <r_epik_Ionization_Penalty_Neutral>
5.78572e-06

> <r_epik_State_Penalty>
6.79704

> <r_epik_Charging_Adjusted_Penalty>
13.5691

> <i_epik_Tot_Q>
0

> <i_epik_Tot_abs_Q>
2

> <r_epik_Metal_State_Penalty>
2.73105

> <b_epik_Metal_Only>
1

> <s_lp_Force_Field>
OPLS_2005

> <r_lp_Energy>
11.0836

> <b_lp_Chiralities_Consistent>
1

> <s_lp_Variant>
AV-unprocessed.smi:2090-5

> <Gold.Version>
5.8.1

> <Gold.Id.Protein>
6NUR|6NUR_protein|mol2

> <Gold.PLP.Fitness>
38.3842

> <Gold.PLP.PLP>
-27.9656

> <Gold.PLP.part.hbond>
-3.0000

> <Gold.PLP.part.metal>
0.0000

> <Gold.PLP.part.buried>
-2.8464

> <Gold.PLP.part.nonpolar>
-22.2599

> <Gold.PLP.part.repulsive>
0.1117

> <Gold.PLP.ligand.clash>
0.0000

> <Gold.PLP.ligand.torsion>
0.8986

> <Gold.PLP.Chemscore.Hbond>
4.0000

> <Gold.PLP.Chemscore.CHOScore>
0.0000

> <Gold.PLP.Chemscore.Metal>
0.0000

> <Gold.Chemscore.Hbonds>
donor molecule, donor type, donor heavy atom, donor atom, acceptor molecule, acceptor atom, score
      L1  H    11    41       P1  7948  2.00
      P1  H  6896  6907       L1     7  1.00
      P1  H  6934  6947       L1    18  1.00

> <Gold.PLP.Chemscore.Internal.Correction>
0.2158

> <Gold.Rescore>
     Score         DG    S(hbond)    S(metal)    S(lipo)     H(rot)  DE(clash)    DE(int)     intcor
     15.39     -17.74       2.85        0.00      57.09       1.54       0.00       2.35       ----

> <Gold.Chemscore.Fitness>
15.3891

> <Gold.Chemscore.DG>
-17.7420

> <Gold.Chemscore.ZeroCoef>
-5.4800

> <Gold.Chemscore.Hbond>
2.8523

> <Gold.Chemscore.Metal>
0.0000

> <Gold.Chemscore.Lipo>
57.0940

> <Gold.Chemscore.Internal_Hbond>
0.0000

> <Gold.Chemscore.DEClash>
0.0004

> <Gold.Chemscore.DEInternal>
2.3525

> <Gold.Chemscore.Rot>
1.5409

> <Gold.Chemscore.Internal.Correction>
   9.000000E+99

> <Gold.Chemscore.Hbonds>
donor molecule, donor type, donor heavy atom, donor atom, acceptor molecule, acceptor atom, score
      L1  H    11    41       P1  7948  0.97
      P1  H  6896  6907       L1     7  0.98
      P1  H  6934  6947       L1    18  0.11

> <Gold.Chemscore.Hbond.Weighted>
-9.5267

> <Gold.Chemscore.Metal.Weighted>
-0.0000

> <Gold.Chemscore.Lipo.Weighted>
-6.6800

> <Gold.Chemscore.Internal_Hbond.Weighted>
0.0000

> <Gold.Chemscore.DEClash.Weighted>
0.0004

> <Gold.Chemscore.DEInternal.Weighted>
2.3525

> <Gold.Chemscore.Rot.Weighted>
3.9446

> <Gold.Chemscore.Internal.Correction.Weighted>
   9.000000E+99

> <Gold.Protein.RotatedTorsions>
[ 6907 6896 6895 6894 ] final  -52.65 input  -60.11 | X-H torsion
[ 7974 7965 7964 7962 ] final   22.06 input  175.53 | X-H torsion
[ 8008 7997 7996 7995 ] final  172.17 input   59.86 | X-H torsion
[ 10167 10162 10161 10158 ] final    5.63 input  -65.29 | X-H torsion
[ 10718 10713 10712 10709 ] final   63.22 input   66.30 | X-H torsion
[ 10763 10752 10751 10750 ] final  115.39 input  -60.55 | X-H torsion
[ 11005 11000 10999 10996 ] final  126.60 input  -57.11 | X-H torsion

> <Gold.Protein.ActiveResidues>
 VAL166  LYS551  ARG553  GLY616  TRP617  ASP618  TYR619  PRO620  LYS621  CYS622 
 ASP623  PHE694  ASN695  SER759  ASP760  ASP761  ALA762  ILE779  LEU786  VAL792 
 PHE793  MET794  SER795  GLU796  ALA797  LYS798  CYS799  TRP800  GLU811  SER814 

> <Gold.Protein.RotatedAtoms>
  150.8498  134.7819  159.6999 H   0  0  0  0  0  0  0  0  0  0  0  0  # atno 6907 bound_to 6896
  152.4566  134.5275  159.9811 H   0  0  0  0  0  0  0  0  0  0  0  0  # atno 6908 bound_to 6896
  151.5398  133.3396  159.2969 H   0  0  0  0  0  0  0  0  0  0  0  0  # atno 6909 bound_to 6896
  146.2045  139.7938  142.8736 H   0  0  0  0  0  0  0  0  0  0  0  0  # atno 7974 bound_to 7965
  156.1200  140.1493  156.9218 H   0  0  0  0  0  0  0  0  0  0  0  0  # atno 8008 bound_to 7997
  154.4829  140.0874  156.7460 H   0  0  0  0  0  0  0  0  0  0  0  0  # atno 8009 bound_to 7997
  155.4445  140.3432  155.4296 H   0  0  0  0  0  0  0  0  0  0  0  0  # atno 8010 bound_to 7997
  140.6472  143.7634  150.7517 H   0  0  0  0  0  0  0  0  0  0  0  0  # atno 10167 bound_to 10162
  157.5956  130.9093  149.9688 H   0  0  0  0  0  0  0  0  0  0  0  0  # atno 10718 bound_to 10713
  153.5215  135.3597  155.2634 H   0  0  0  0  0  0  0  0  0  0  0  0  # atno 10763 bound_to 10752
  154.8734  135.4046  154.3255 H   0  0  0  0  0  0  0  0  0  0  0  0  # atno 10764 bound_to 10752
  153.3926  135.7072  153.6551 H   0  0  0  0  0  0  0  0  0  0  0  0  # atno 10765 bound_to 10752
  139.9464  134.9629  156.8731 H   0  0  0  0  0  0  0  0  0  0  0  0  # atno 11005 bound_to 11000
  145.3369  141.0279  143.3415 LP  0  0  0  0  0  0  0  0  0  0  0  0  # atno 17320 bound_to 7965
  144.8759  139.4971  143.6745 LP  0  0  0  0  0  0  0  0  0  0  0  0  # atno 17321 bound_to 7965
  140.1277  143.4554  152.2274 LP  0  0  0  0  0  0  0  0  0  0  0  0  # atno 17342 bound_to 10162
  139.5683  144.7448  151.3960 LP  0  0  0  0  0  0  0  0  0  0  0  0  # atno 17343 bound_to 10162
  156.1018  130.3655  150.0204 LP  0  0  0  0  0  0  0  0  0  0  0  0  # atno 17370 bound_to 10713
  156.8318  130.9395  151.3636 LP  0  0  0  0  0  0  0  0  0  0  0  0  # atno 17371 bound_to 10713
  140.5824  134.0340  155.7469 LP  0  0  0  0  0  0  0  0  0  0  0  0  # atno 17394 bound_to 11000
  141.1116  133.9608  157.2900 LP  0  0  0  0  0  0  0  0  0  0  0  0  # atno 17395 bound_to 11000

$$$$
