AV-unprocessed.smi:2163|AV-procd|sdf|8805|dock9
  -GOLD-   2272011593D 1   1.00000     0.00000
 Structure written by MMmdl.
 43 45  0  0  0  0  0  0  0  0  1 V2000
  149.7815  140.8401  155.5416 C   0  0  0  0  0  0  0  0  0  0  0  0
  150.5587  141.4930  156.6403 C   0  0  0  0  0  0  0  0  0  0  0  0
  150.6161  142.8181  156.7771 N   0  0  0  0  0  0  0  0  0  0  0  0
  151.4245  142.9731  157.8866 C   0  0  0  0  0  0  0  0  0  0  0  0
  151.8691  144.1430  158.5432 C   0  0  0  0  0  0  0  0  0  0  0  0
  152.7054  144.0521  159.6752 C   0  0  0  0  0  0  0  0  0  0  0  0
  153.1077  142.7932  160.1666 C   0  0  0  0  0  0  0  0  0  0  0  0
  152.6758  141.6150  159.5276 C   0  0  0  0  0  0  0  0  0  0  0  0
  151.8412  141.7113  158.3981 C   0  0  0  0  0  0  0  0  0  0  0  0
  151.2518  140.7728  157.5571 N   0  0  0  0  0  0  0  0  0  0  0  0
  151.3783  139.3248  157.6640 C   0  0  0  0  0  0  0  0  0  0  0  0
  151.7391  138.6586  156.3208 C   0  0  1  0  0  0  0  0  0  0  0  0
  153.0945  138.9271  156.0205 O   0  0  0  0  0  0  0  0  0  0  0  0
  151.5471  137.1348  156.3675 C   0  0  0  0  0  0  0  0  0  0  0  0
  150.1728  136.8400  156.1523 O   0  0  0  0  0  0  0  0  0  0  0  0
  149.8333  135.5692  155.7403 C   0  0  0  0  0  0  0  0  0  0  0  0
  148.4713  135.3279  155.4657 C   0  0  0  0  0  0  0  0  0  0  0  0
  148.0347  134.0594  155.0379 C   0  0  0  0  0  0  0  0  0  0  0  0
  148.9612  133.0107  154.8798 C   0  0  0  0  0  0  0  0  0  0  0  0
  148.4975  131.6473  154.4116 C   0  0  0  0  0  0  0  0  0  0  0  0
  149.5781  130.6517  154.4676 C   0  0  0  0  0  0  0  0  0  0  0  0
  150.4279  129.8679  154.5122 N   0  0  0  0  0  0  0  0  0  0  0  0
  150.3239  133.2387  155.1531 C   0  0  0  0  0  0  0  0  0  0  0  0
  150.7602  134.5078  155.5805 C   0  0  0  0  0  0  0  0  0  0  0  0
  149.2331  141.5859  154.9653 H   0  0  0  0  0  0  0  0  0  0  0  0
  149.0631  140.1308  155.9523 H   0  0  0  0  0  0  0  0  0  0  0  0
  150.4554  140.3119  154.8670 H   0  0  0  0  0  0  0  0  0  0  0  0
  151.5663  145.1120  158.1748 H   0  0  0  0  0  0  0  0  0  0  0  0
  153.0395  144.9530  160.1685 H   0  0  0  0  0  0  0  0  0  0  0  0
  153.7479  142.7327  161.0346 H   0  0  0  0  0  0  0  0  0  0  0  0
  152.9817  140.6489  159.9005 H   0  0  0  0  0  0  0  0  0  0  0  0
  152.1173  139.0756  158.4255 H   0  0  0  0  0  0  0  0  0  0  0  0
  150.4275  138.9338  158.0282 H   0  0  0  0  0  0  0  0  0  0  0  0
  151.1133  139.0811  155.5338 H   0  0  0  0  0  0  0  0  0  0  0  0
  153.3807  138.3137  155.3609 H   0  0  0  0  0  0  0  0  0  0  0  0
  152.1868  136.6412  155.6336 H   0  0  0  0  0  0  0  0  0  0  0  0
  151.8274  136.7672  157.3561 H   0  0  0  0  0  0  0  0  0  0  0  0
  147.7523  136.1256  155.5818 H   0  0  0  0  0  0  0  0  0  0  0  0
  146.9877  133.8952  154.8288 H   0  0  0  0  0  0  0  0  0  0  0  0
  147.6737  131.2981  155.0346 H   0  0  0  0  0  0  0  0  0  0  0  0
  148.1327  131.7046  153.3859 H   0  0  0  0  0  0  0  0  0  0  0  0
  151.0402  132.4392  155.0323 H   0  0  0  0  0  0  0  0  0  0  0  0
  151.8125  134.6410  155.7791 H   0  0  0  0  0  0  0  0  0  0  0  0
  1  2  1  0  0  0  0
  1 25  1  0  0  0  0
  1 26  1  0  0  0  0
  1 27  1  0  0  0  0
  2 10  1  0  0  0  0
  2  3  2  0  0  0  0
  3  4  1  0  0  0  0
  4  9  2  0  0  0  0
  4  5  1  0  0  0  0
  5  6  2  0  0  0  0
  5 28  1  0  0  0  0
  6  7  1  0  0  0  0
  6 29  1  0  0  0  0
  7  8  2  0  0  0  0
  7 30  1  0  0  0  0
  8  9  1  0  0  0  0
  8 31  1  0  0  0  0
  9 10  1  0  0  0  0
 10 11  1  0  0  0  0
 11 12  1  0  0  0  0
 11 32  1  0  0  0  0
 11 33  1  0  0  0  0
 12 13  1  0  0  0  0
 12 14  1  0  0  0  0
 12 34  1  0  0  0  0
 13 35  1  0  0  0  0
 14 15  1  0  0  0  0
 14 36  1  0  0  0  0
 14 37  1  0  0  0  0
 15 16  1  0  0  0  0
 16 24  1  0  0  0  0
 16 17  2  0  0  0  0
 17 18  1  0  0  0  0
 17 38  1  0  0  0  0
 18 19  2  0  0  0  0
 18 39  1  0  0  0  0
 19 20  1  0  0  0  0
 19 23  1  0  0  0  0
 20 21  1  0  0  0  0
 20 40  1  0  0  0  0
 20 41  1  0  0  0  0
 21 22  3  0  0  0  0
 23 24  2  0  0  0  0
 23 42  1  0  0  0  0
 24 43  1  0  0  0  0
M  END
> <s_m_source_file>
AV-unprocessed.smi

> <i_m_source_file_index>
2163

> <i_lp_mmshare_version>
43012

> <i_f3d_flags>
0

> <s_epik_input>
W2NIXTFbY0hdW2NIXVtjSF1jKGMxMiluKGMobjIpW0NIM10pW0NIMl1bQ0BIXShbT0hdKVtDSDJdT2MzW2NIXVtjSF1jKFtDSDJdQyNOKVtjSF1bY0hdMw==

> <s_epik_cmdline>
J2VwaWtfcHl0aG9uJywgJy1waCcsICc3LjAnLCAnLXRuJywgJzgnLCAnLW1hJywgJzIwMCcsICctbWV0YWxfYmluZGluZycsICctaW1hZScsICc8aW5maWxlLm1hZT4nLCAnLW9tYWUnLCAnPG91dGZpbGUubWFlPic=

> <r_lp_tautomer_probability>
1

> <r_epik_Ionization_Penalty>
0.114213

> <r_epik_Ionization_Penalty_Charging>
0

> <r_epik_Ionization_Penalty_Neutral>
0.114213

> <r_epik_State_Penalty>
0.103875

> <r_epik_Charging_Adjusted_Penalty>
0.103875

> <i_epik_Tot_Q>
0

> <i_epik_Tot_abs_Q>
0

> <r_epik_Metal_State_Penalty>
0.000113526

> <b_epik_Metal_Only>
0

> <s_lp_Force_Field>
OPLS_2005

> <r_lp_Energy>
15.853

> <b_lp_Chiralities_Consistent>
1

> <s_lp_Variant>
AV-unprocessed.smi:2163-2

> <Gold.Version>
5.8.1

> <Gold.Id.Protein>
6NUR|6NUR_protein|mol2

> <Gold.PLP.Fitness>
46.0612

> <Gold.PLP.PLP>
-44.0562

> <Gold.PLP.part.hbond>
-1.0000

> <Gold.PLP.part.metal>
0.0000

> <Gold.PLP.part.buried>
-5.2504

> <Gold.PLP.part.nonpolar>
-37.6827

> <Gold.PLP.part.repulsive>
1.0027

> <Gold.PLP.ligand.clash>
0.0000

> <Gold.PLP.ligand.torsion>
0.5829

> <Gold.PLP.Chemscore.Hbond>
1.0000

> <Gold.PLP.Chemscore.CHOScore>
0.0000

> <Gold.PLP.Chemscore.Metal>
0.0000

> <Gold.Chemscore.Hbonds>
donor molecule, donor type, donor heavy atom, donor atom, acceptor molecule, acceptor atom, score
      P1  H  7997  8009       L1    13  1.00

> <Gold.PLP.Chemscore.Internal.Correction>
0.1709

> <Gold.Rescore>
     Score         DG    S(hbond)    S(metal)    S(lipo)     H(rot)  DE(clash)    DE(int)     intcor
     14.90     -15.71       0.92        0.00     116.04       2.51       0.18       0.63       ----

> <Gold.Chemscore.Fitness>
14.9026

> <Gold.Chemscore.DG>
-15.7128

> <Gold.Chemscore.ZeroCoef>
-5.4800

> <Gold.Chemscore.Hbond>
0.9238

> <Gold.Chemscore.Metal>
0.0000

> <Gold.Chemscore.Lipo>
116.0404

> <Gold.Chemscore.Internal_Hbond>
0.0000

> <Gold.Chemscore.DEClash>
0.1808

> <Gold.Chemscore.DEInternal>
0.6294

> <Gold.Chemscore.Rot>
2.5115

> <Gold.Chemscore.Internal.Correction>
   9.000000E+99

> <Gold.Chemscore.Hbonds>
donor molecule, donor type, donor heavy atom, donor atom, acceptor molecule, acceptor atom, score
      P1  H  7997  8009       L1    13  0.81

> <Gold.Chemscore.Hbond.Weighted>
-3.0856

> <Gold.Chemscore.Metal.Weighted>
-0.0000

> <Gold.Chemscore.Lipo.Weighted>
-13.5767

> <Gold.Chemscore.Internal_Hbond.Weighted>
0.0000

> <Gold.Chemscore.DEClash.Weighted>
0.1808

> <Gold.Chemscore.DEInternal.Weighted>
0.6294

> <Gold.Chemscore.Rot.Weighted>
6.4296

> <Gold.Chemscore.Internal.Correction.Weighted>
   9.000000E+99

> <Gold.Protein.RotatedTorsions>
[ 6907 6896 6895 6894 ] final  -43.92 input  -60.11 | X-H torsion
[ 7974 7965 7964 7962 ] final  119.40 input  175.53 | X-H torsion
[ 8008 7997 7996 7995 ] final -168.94 input   59.86 | X-H torsion
[ 10167 10162 10161 10158 ] final  -77.10 input  -65.29 | X-H torsion
[ 10718 10713 10712 10709 ] final  122.81 input   66.30 | X-H torsion
[ 10763 10752 10751 10750 ] final   60.43 input  -60.55 | X-H torsion
[ 11005 11000 10999 10996 ] final  174.12 input  -57.11 | X-H torsion

> <Gold.Protein.ActiveResidues>
 VAL166  LYS551  ARG553  GLY616  TRP617  ASP618  TYR619  PRO620  LYS621  CYS622 
 ASP623  PHE694  ASN695  SER759  ASP760  ASP761  ALA762  ILE779  LEU786  VAL792 
 PHE793  MET794  SER795  GLU796  ALA797  LYS798  CYS799  TRP800  GLU811  SER814 

> <Gold.Protein.RotatedAtoms>
  150.9385  134.8796  159.7596 H   0  0  0  0  0  0  0  0  0  0  0  0  # atno 6907 bound_to 6896
  152.5070  134.3976  159.9415 H   0  0  0  0  0  0  0  0  0  0  0  0  # atno 6908 bound_to 6896
  151.3998  133.3721  159.2766 H   0  0  0  0  0  0  0  0  0  0  0  0  # atno 6909 bound_to 6896
  145.1436  139.3253  143.4603 H   0  0  0  0  0  0  0  0  0  0  0  0  # atno 7974 bound_to 7965
  155.8982  140.1036  157.1369 H   0  0  0  0  0  0  0  0  0  0  0  0  # atno 8008 bound_to 7997
  154.4023  140.1297  156.4466 H   0  0  0  0  0  0  0  0  0  0  0  0  # atno 8009 bound_to 7997
  155.7454  140.3466  155.5126 H   0  0  0  0  0  0  0  0  0  0  0  0  # atno 8010 bound_to 7997
  140.4799  143.2405  151.8073 H   0  0  0  0  0  0  0  0  0  0  0  0  # atno 10167 bound_to 10162
  157.5713  131.1083  150.8361 H   0  0  0  0  0  0  0  0  0  0  0  0  # atno 10718 bound_to 10713
  152.9921  135.5536  154.5872 H   0  0  0  0  0  0  0  0  0  0  0  0  # atno 10763 bound_to 10752
  154.5241  135.2809  155.1239 H   0  0  0  0  0  0  0  0  0  0  0  0  # atno 10764 bound_to 10752
  154.2580  135.6386  153.5317 H   0  0  0  0  0  0  0  0  0  0  0  0  # atno 10765 bound_to 10752
  140.3479  134.7220  157.4247 H   0  0  0  0  0  0  0  0  0  0  0  0  # atno 11005 bound_to 11000
  146.3502  140.1483  142.8593 LP  0  0  0  0  0  0  0  0  0  0  0  0  # atno 17320 bound_to 7965
  145.0506  140.9014  143.4998 LP  0  0  0  0  0  0  0  0  0  0  0  0  # atno 17321 bound_to 7965
  139.4832  144.4785  151.9336 LP  0  0  0  0  0  0  0  0  0  0  0  0  # atno 17342 bound_to 10162
  140.3870  144.2663  150.5903 LP  0  0  0  0  0  0  0  0  0  0  0  0  # atno 17343 bound_to 10162
  156.8832  130.5186  149.5290 LP  0  0  0  0  0  0  0  0  0  0  0  0  # atno 17370 bound_to 10713
  156.0759  130.5781  150.9472 LP  0  0  0  0  0  0  0  0  0  0  0  0  # atno 17371 bound_to 10713
  140.0727  134.5840  155.8624 LP  0  0  0  0  0  0  0  0  0  0  0  0  # atno 17394 bound_to 11000
  141.2020  133.6622  156.5984 LP  0  0  0  0  0  0  0  0  0  0  0  0  # atno 17395 bound_to 11000

$$$$
