#       Name:                AV-unprocessed.smi:1326
#       Creating user name   scv26
#       Creation time:       Fri Mar 27 05:04:33 2020


#       File generated by GOLD software.
#

@<TRIPOS>MOLECULE
AV-unprocessed.smi:1326
    44    44     1
SMALL
NO_CHARGES


@<TRIPOS>ATOM
      1 ****        -3.4252  -0.1237   4.1985 C.3            1 S1                 0.0000
      2 ****        -3.0155   0.3600   2.8234 C.2            1 S1                 0.0000
      3 ****        -3.0951  -0.3590   1.7524 N.2            1 S1                 0.0000
      4 ****        -2.6829   0.1973   0.5334 C.2            1 S1                 0.0000
      5 ****        -2.8154  -0.7129  -0.6760 C.3            1 S1                 0.0000
      6 ****        -2.2029   1.4739   0.4561 C.2            1 S1                 0.0000
      7 ****        -1.7308   2.1182  -0.8476 C.3            1 S1                 0.0000
      8 ****        -0.2315   2.0216  -1.1466 C.2            1 S1                 0.0000
      9 ****         0.3767   3.0118  -1.5513 O.2            1 S1                 0.0000
     10 ****         0.3532   0.8298  -0.9564 N.am           1 S1                 0.0000
     11 ****         1.7621   0.5511  -1.1923 C.3            1 S1                 0.0000
     12 ****         2.0522  -0.9452  -0.9915 C.3            1 S1                 0.0000
     13 ****         3.5395  -1.3249  -1.1429 C.3            1 S1                 0.0000
     14 ****         4.0546  -1.1286  -2.5790 C.3            1 S1                 0.0000
     15 ****         3.7803  -2.7708  -0.6826 C.3            1 S1                 0.0000
     16 ****        -2.1174   2.2857   1.6855 C.2            1 S1                 0.0000
     17 ****        -1.6981   3.4411   1.7285 O.2            1 S1                 0.0000
     18 ****        -2.5368   1.6687   2.8126 N.am           1 S1                 0.0000
     19 ****        -2.4977   2.1836   3.6802 H              1 S1                 0.0000
     20 ****        -3.2692   0.6430   4.9587 H              1 S1                 0.0000
     21 ****        -2.8424  -1.0025   4.4761 H              1 S1                 0.0000
     22 ****        -4.4807  -0.3968   4.2007 H              1 S1                 0.0000
     23 ****        -3.5471  -0.3098  -1.3764 H              1 S1                 0.0000
     24 ****        -3.1465  -1.7110  -0.3861 H              1 S1                 0.0000
     25 ****        -1.8622  -0.8184  -1.1928 H              1 S1                 0.0000
     26 ****        -2.2605   1.6762  -1.6908 H              1 S1                 0.0000
     27 ****        -2.0272   3.1683  -0.8584 H              1 S1                 0.0000
     28 ****        -0.2174   0.0655  -0.6247 H              1 S1                 0.0000
     29 ****         2.0201   0.8597  -2.2059 H              1 S1                 0.0000
     30 ****         2.3648   1.1482  -0.5065 H              1 S1                 0.0000
     31 ****         1.7173  -1.2272   0.0079 H              1 S1                 0.0000
     32 ****         1.4509  -1.5330  -1.6868 H              1 S1                 0.0000
     33 ****         4.1218  -0.6767  -0.4866 H              1 S1                 0.0000
     34 ****         3.4764  -1.7174  -3.2919 H              1 S1                 0.0000
     35 ****         5.0973  -1.4356  -2.6655 H              1 S1                 0.0000
     36 ****         4.0030  -0.0847  -2.8872 H              1 S1                 0.0000
     37 ****         3.2217  -3.4796  -1.2950 H              1 S1                 0.0000
     38 ****         3.4727  -2.9119   0.3540 H              1 S1                 0.0000
     39 ****         4.8363  -3.0347  -0.7480 H              1 S1                 0.0000
     40 ****        -3.4443  -1.2951   1.7925 LP             1 S1                 0.0000
     41 ****        -0.1078   3.8765  -1.6841 LP             1 S1                 0.0000
     42 ****         1.3555   2.9519  -1.7473 LP             1 S1                 0.0000
     43 ****        -1.3859   3.8912   0.8919 LP             1 S1                 0.0000
     44 ****        -1.6693   3.9305   2.6001 LP             1 S1                 0.0000
@<TRIPOS>BOND
    1    1    2 1     
    2    1   20 1     
    3    1   21 1     
    4    1   22 1     
    5    2   18 1     
    6    2    3 2     
    7    3    4 1     
    8    4    5 1     
    9    4    6 2     
   10    5   23 1     
   11    5   24 1     
   12    5   25 1     
   13    6    7 1     
   14    6   16 1     
   15    7    8 1     
   16    7   26 1     
   17    7   27 1     
   18    8    9 2     
   19    8   10 am    
   20   10   11 1     
   21   10   28 1     
   22   11   12 1     
   23   11   29 1     
   24   11   30 1     
   25   12   13 1     
   26   12   31 1     
   27   12   32 1     
   28   13   14 1     
   29   13   15 1     
   30   13   33 1     
   31   14   34 1     
   32   14   35 1     
   33   14   36 1     
   34   15   37 1     
   35   15   38 1     
   36   15   39 1     
   37   16   17 2     
   38   16   18 am    
   39   18   19 1     
   40    3   40 1     
   41    9   41 1     
   42    9   42 1     
   43   17   43 1     
   44   17   44 1     
@<TRIPOS>SUBSTRUCTURE
      1 S1             1
@<TRIPOS>SET
LONE_PAIRS      STATIC     ATOMS    <user>   **** ""
5 40 41 42 43 44
DONOR_HYDROGENS      STATIC     ATOMS    <user>   **** ""
2 28 19
ATOM$BLUE        STATIC     ATOMS    COLORGROUP SYSTEM
5 40 41 42 43 44
ATOM$RED        STATIC     ATOMS    COLORGROUP SYSTEM
2 28 19
