AV-unprocessed.smi:1487|AV-procd|sdf|6016|dock2
  -GOLD-   22720 6113D 1   1.00000     0.00000
 Structure written by MMmdl.
 49 51  0  0  0  0  0  0  0  0  3 V2000
  152.5482  143.5770  160.5903 C   0  0  0  0  0  0  0  0  0  0  0  0
  152.2986  142.6054  159.4493 C   0  0  0  0  0  0  0  0  0  0  0  0
  151.5177  143.0380  158.3540 C   0  0  0  0  0  0  0  0  0  0  0  0
  151.3075  142.1273  157.3255 C   0  0  0  0  0  0  0  0  0  0  0  0
  150.5972  142.2475  156.1294 N   0  3  0  0  0  0  0  0  0  0  0  0
  150.6743  141.0787  155.4349 C   0  0  0  0  0  0  0  0  0  0  0  0
  151.4251  140.2126  156.1694 N   0  0  0  0  0  0  0  0  0  0  0  0
  151.8019  138.8201  155.8822 C   0  0  0  0  0  0  0  0  0  0  0  0
  150.9651  138.1880  154.7523 C   0  0  1  0  0  0  0  0  0  0  0  0
  151.7048  137.1536  154.1332 O   0  0  0  0  0  0  0  0  0  0  0  0
  149.6474  137.5934  155.2881 C   0  0  0  0  0  0  0  0  0  0  0  0
  148.5692  137.5803  154.2659 N   0  3  1  0  0  0  0  0  0  0  0  0
  147.2870  137.0538  154.8027 C   0  0  0  0  0  0  0  0  0  0  0  0
  146.2323  136.9147  153.6913 C   0  0  0  0  0  0  0  0  0  0  0  0
  146.0121  138.2509  152.9707 C   0  0  0  0  0  0  0  0  0  0  0  0
  147.3536  138.7883  152.4518 C   0  0  1  0  0  0  0  0  0  0  0  0
  147.1597  140.0592  151.8685 O   0  0  0  0  0  0  0  0  0  0  0  0
  148.3823  138.8935  153.5924 C   0  0  0  0  0  0  0  0  0  0  0  0
  151.8418  140.8242  157.3588 C   0  0  0  0  0  0  0  0  0  0  0  0
  152.6139  140.3825  158.4311 C   0  0  0  0  0  0  0  0  0  0  0  0
  152.8388  141.2940  159.4875 C   0  0  0  0  0  0  0  0  0  0  0  0
  153.6763  140.8388  160.6705 C   0  0  0  0  0  0  0  0  0  0  0  0
  152.1332  144.5616  160.3740 H   0  0  0  0  0  0  0  0  0  0  0  0
  153.6172  143.6996  160.7654 H   0  0  0  0  0  0  0  0  0  0  0  0
  152.0855  143.2132  161.5080 H   0  0  0  0  0  0  0  0  0  0  0  0
  151.1020  144.0346  158.3187 H   0  0  0  0  0  0  0  0  0  0  0  0
  150.2185  140.8757  154.4763 H   0  0  0  0  0  0  0  0  0  0  0  0
  152.8684  138.7744  155.6602 H   0  0  0  0  0  0  0  0  0  0  0  0
  151.6612  138.2557  156.8049 H   0  0  0  0  0  0  0  0  0  0  0  0
  150.7638  138.9536  154.0035 H   0  0  0  0  0  0  0  0  0  0  0  0
  151.2547  136.8935  153.3435 H   0  0  0  0  0  0  0  0  0  0  0  0
  149.8456  136.5766  155.6314 H   0  0  0  0  0  0  0  0  0  0  0  0
  149.3041  138.1451  156.1645 H   0  0  0  0  0  0  0  0  0  0  0  0
  147.4511  136.0770  155.2595 H   0  0  0  0  0  0  0  0  0  0  0  0
  146.9215  137.7153  155.5899 H   0  0  0  0  0  0  0  0  0  0  0  0
  146.5546  136.1597  152.9727 H   0  0  0  0  0  0  0  0  0  0  0  0
  145.2913  136.5590  154.1122 H   0  0  0  0  0  0  0  0  0  0  0  0
  145.3094  138.1214  152.1466 H   0  0  0  0  0  0  0  0  0  0  0  0
  145.5611  138.9670  153.6594 H   0  0  0  0  0  0  0  0  0  0  0  0
  147.7380  138.1209  151.6791 H   0  0  0  0  0  0  0  0  0  0  0  0
  147.9279  140.2858  151.3664 H   0  0  0  0  0  0  0  0  0  0  0  0
  148.0570  139.6324  154.3271 H   0  0  0  0  0  0  0  0  0  0  0  0
  149.3295  139.2481  153.1870 H   0  0  0  0  0  0  0  0  0  0  0  0
  153.0311  139.3869  158.4615 H   0  0  0  0  0  0  0  0  0  0  0  0
  153.9689  139.7928  160.5735 H   0  0  0  0  0  0  0  0  0  0  0  0
  153.1163  140.9414  161.6001 H   0  0  0  0  0  0  0  0  0  0  0  0
  154.5867  141.4341  160.7463 H   0  0  0  0  0  0  0  0  0  0  0  0
  148.8649  136.9234  153.5574 H   0  0  0  0  0  0  0  0  0  0  0  0
  150.0938  143.0654  155.8097 H   0  0  0  0  0  0  0  0  0  0  0  0
  1  2  1  0  0  0  0
  1 23  1  0  0  0  0
  1 24  1  0  0  0  0
  1 25  1  0  0  0  0
  2 21  1  0  0  0  0
  2  3  2  0  0  0  0
  3  4  1  0  0  0  0
  3 26  1  0  0  0  0
  4 19  2  0  0  0  0
  4  5  1  0  0  0  0
  5  6  2  0  0  0  0
  5 49  1  0  0  0  0
  6  7  1  0  0  0  0
  6 27  1  0  0  0  0
  7  8  1  0  0  0  0
  7 19  1  0  0  0  0
  8  9  1  0  0  0  0
  8 28  1  0  0  0  0
  8 29  1  0  0  0  0
  9 10  1  0  0  0  0
  9 11  1  0  0  0  0
  9 30  1  0  0  0  0
 10 31  1  0  0  0  0
 11 12  1  0  0  0  0
 11 32  1  0  0  0  0
 11 33  1  0  0  0  0
 12 18  1  0  0  0  0
 12 13  1  0  0  0  0
 12 48  1  0  0  0  0
 13 14  1  0  0  0  0
 13 34  1  0  0  0  0
 13 35  1  0  0  0  0
 14 15  1  0  0  0  0
 14 36  1  0  0  0  0
 14 37  1  0  0  0  0
 15 16  1  0  0  0  0
 15 38  1  0  0  0  0
 15 39  1  0  0  0  0
 16 17  1  0  0  0  0
 16 18  1  0  0  0  0
 16 40  1  0  0  0  0
 17 41  1  0  0  0  0
 18 42  1  0  0  0  0
 18 43  1  0  0  0  0
 19 20  1  0  0  0  0
 20 21  2  0  0  0  0
 20 44  1  0  0  0  0
 21 22  1  0  0  0  0
 22 45  1  0  0  0  0
 22 46  1  0  0  0  0
 22 47  1  0  0  0  0
M  CHG  1   5   1
M  CHG  1  12   1
M  END
> <s_m_source_file>
AV-unprocessed.smi

> <i_m_source_file_index>
1487

> <i_lp_mmshare_version>
43012

> <i_f3d_flags>
0

> <s_epik_input>
W0NIM11jKFtjSF0xKWMoW0NIM10pW2NIXWMoYzEyKW4oW2NIXW4yKVtDSDJdW0NASF0oW09IXSlbQ0gyXU4zW0NIMl1bQ0gyXVtDSDJdW0NAQEhdKFtPSF0pW0NIMl0z

> <s_epik_cmdline>
J2VwaWtfcHl0aG9uJywgJy1waCcsICc3LjAnLCAnLXRuJywgJzgnLCAnLW1hJywgJzIwMCcsICctbWV0YWxfYmluZGluZycsICctaW1hZScsICc8aW5maWxlLm1hZT4nLCAnLW9tYWUnLCAnPG91dGZpbGUubWFlPic=

> <r_epik_Ionization_Penalty>
1.1857

> <r_epik_Ionization_Penalty_Charging>
1.1857

> <r_epik_Ionization_Penalty_Neutral>
1.75578e-06

> <r_epik_State_Penalty>
1.26953

> <r_epik_Charging_Adjusted_Penalty>
2.45524

> <i_epik_Tot_Q>
2

> <i_epik_Tot_abs_Q>
2

> <r_epik_Metal_State_Penalty>
5.28243

> <b_epik_Metal_Only>
0

> <s_lp_Force_Field>
OPLS_2005

> <r_lp_Energy>
30.1376

> <b_lp_Chiralities_Consistent>
1

> <s_lp_Variant>
AV-unprocessed.smi:1487-10

> <Gold.Version>
5.8.1

> <Gold.Id.Protein>
6NUR|6NUR_protein|mol2

> <Gold.PLP.Fitness>
61.4678

> <Gold.PLP.PLP>
-42.3760

> <Gold.PLP.part.hbond>
-5.3170

> <Gold.PLP.part.metal>
0.0000

> <Gold.PLP.part.buried>
-2.7987

> <Gold.PLP.part.nonpolar>
-34.1424

> <Gold.PLP.part.repulsive>
0.0916

> <Gold.PLP.ligand.clash>
0.0000

> <Gold.PLP.ligand.torsion>
0.8274

> <Gold.PLP.Chemscore.Hbond>
6.9027

> <Gold.PLP.Chemscore.CHOScore>
0.0000

> <Gold.PLP.Chemscore.Metal>
0.0000

> <Gold.Chemscore.Hbonds>
donor molecule, donor type, donor heavy atom, donor atom, acceptor molecule, acceptor atom, score
      L1  H     5    49       P1  8028  1.89
      L1  H    10    31       P1  7949  0.91
      L1  H    12    48       P1  7948  2.00
      L1  H    17    41       P1  7957  0.96
      P1  H 10752 10765       L1    10  0.95

> <Gold.PLP.Chemscore.Internal.Correction>
0.0384

> <Gold.Rescore>
     Score         DG    S(hbond)    S(metal)    S(lipo)     H(rot)  DE(clash)    DE(int)     intcor
     21.19     -22.49       3.22        0.00     113.46       2.74       0.47       0.84       ----

> <Gold.Chemscore.Fitness>
21.1854

> <Gold.Chemscore.DG>
-22.4940

> <Gold.Chemscore.ZeroCoef>
-5.4800

> <Gold.Chemscore.Hbond>
3.2183

> <Gold.Chemscore.Metal>
0.0000

> <Gold.Chemscore.Lipo>
113.4635

> <Gold.Chemscore.Internal_Hbond>
0.0000

> <Gold.Chemscore.DEClash>
0.4653

> <Gold.Chemscore.DEInternal>
0.8433

> <Gold.Chemscore.Rot>
2.7384

> <Gold.Chemscore.Internal.Correction>
   9.000000E+99

> <Gold.Chemscore.Hbonds>
donor molecule, donor type, donor heavy atom, donor atom, acceptor molecule, acceptor atom, score
      L1  H     5    49       P1  8028  0.90
      L1  H    10    31       P1  7949  0.52
      L1  H    12    48       P1  7948  0.99
      L1  H    17    41       P1  7957  0.92
      P1  H 10752 10765       L1    10  0.21

> <Gold.Chemscore.Hbond.Weighted>
-10.7492

> <Gold.Chemscore.Metal.Weighted>
-0.0000

> <Gold.Chemscore.Lipo.Weighted>
-13.2752

> <Gold.Chemscore.Internal_Hbond.Weighted>
0.0000

> <Gold.Chemscore.DEClash.Weighted>
0.4653

> <Gold.Chemscore.DEInternal.Weighted>
0.8433

> <Gold.Chemscore.Rot.Weighted>
7.0103

> <Gold.Chemscore.Internal.Correction.Weighted>
   9.000000E+99

> <Gold.Protein.RotatedTorsions>
[ 6907 6896 6895 6894 ] final   93.39 input  -60.11 | X-H torsion
[ 7974 7965 7964 7962 ] final   -3.83 input  175.53 | X-H torsion
[ 8008 7997 7996 7995 ] final  112.10 input   59.86 | X-H torsion
[ 10167 10162 10161 10158 ] final   89.22 input  -65.29 | X-H torsion
[ 10718 10713 10712 10709 ] final -156.72 input   66.30 | X-H torsion
[ 10763 10752 10751 10750 ] final  161.34 input  -60.55 | X-H torsion
[ 11005 11000 10999 10996 ] final   19.57 input  -57.11 | X-H torsion

> <Gold.Protein.ActiveResidues>
 VAL166  LYS551  ARG553  GLY616  TRP617  ASP618  TYR619  PRO620  LYS621  CYS622 
 ASP623  PHE694  ASN695  SER759  ASP760  ASP761  ALA762  ILE779  LEU786  VAL792 
 PHE793  MET794  SER795  GLU796  ALA797  LYS798  CYS799  TRP800  GLU811  SER814 

> <Gold.Protein.RotatedAtoms>
  152.5452  134.1355  159.8456 H   0  0  0  0  0  0  0  0  0  0  0  0  # atno 6907 bound_to 6896
  151.1396  133.4973  159.2604 H   0  0  0  0  0  0  0  0  0  0  0  0  # atno 6908 bound_to 6896
  151.1587  135.0273  159.8755 H   0  0  0  0  0  0  0  0  0  0  0  0  # atno 6909 bound_to 6896
  146.2383  140.1780  142.8332 H   0  0  0  0  0  0  0  0  0  0  0  0  # atno 7974 bound_to 7965
  156.2170  140.3006  155.9862 H   0  0  0  0  0  0  0  0  0  0  0  0  # atno 8008 bound_to 7997
  155.2581  140.0428  157.3011 H   0  0  0  0  0  0  0  0  0  0  0  0  # atno 8009 bound_to 7997
  154.5782  140.2367  155.8100 H   0  0  0  0  0  0  0  0  0  0  0  0  # atno 8010 bound_to 7997
  139.8594  144.6552  150.9076 H   0  0  0  0  0  0  0  0  0  0  0  0  # atno 10167 bound_to 10162
  156.5304  130.8518  151.2714 H   0  0  0  0  0  0  0  0  0  0  0  0  # atno 10718 bound_to 10713
  154.2614  135.2768  155.2776 H   0  0  0  0  0  0  0  0  0  0  0  0  # atno 10763 bound_to 10752
  154.5381  135.5710  153.6819 H   0  0  0  0  0  0  0  0  0  0  0  0  # atno 10764 bound_to 10752
  152.9961  135.6244  154.2764 H   0  0  0  0  0  0  0  0  0  0  0  0  # atno 10765 bound_to 10752
  140.4122  134.1606  155.7668 H   0  0  0  0  0  0  0  0  0  0  0  0  # atno 11005 bound_to 11000
  144.9957  140.8587  143.5312 LP  0  0  0  0  0  0  0  0  0  0  0  0  # atno 17320 bound_to 7965
  145.1792  139.2361  143.5301 LP  0  0  0  0  0  0  0  0  0  0  0  0  # atno 17321 bound_to 7965
  140.7777  143.3757  151.1567 LP  0  0  0  0  0  0  0  0  0  0  0  0  # atno 17342 bound_to 10162
  139.7388  143.8956  152.3043 LP  0  0  0  0  0  0  0  0  0  0  0  0  # atno 17343 bound_to 10162
  157.7422  130.9887  150.2503 LP  0  0  0  0  0  0  0  0  0  0  0  0  # atno 17370 bound_to 10713
  156.3065  130.3766  149.7701 LP  0  0  0  0  0  0  0  0  0  0  0  0  # atno 17371 bound_to 10713
  141.1817  133.8400  157.1235 LP  0  0  0  0  0  0  0  0  0  0  0  0  # atno 17394 bound_to 11000
  140.0259  134.9924  157.0685 LP  0  0  0  0  0  0  0  0  0  0  0  0  # atno 17395 bound_to 11000

$$$$
