AV-unprocessed.smi:55|AV-procd|sdf|565|dock10
  -GOLD-   2262016473D 1   1.00000     0.00000
 Structure written by MMmdl.
 31 32  0  0  0  0  0  0  0  0  1 V2000
  146.7205  142.1999  153.9592 C   0  0  0  0  0  0  0  0  0  0  0  0
  147.8077  141.1411  154.0383 C   0  0  0  0  0  0  0  0  0  0  0  0
  148.8921  141.2706  154.8447 C   0  0  0  0  0  0  0  0  0  0  0  0
  149.9007  140.3221  154.9400 N   0  0  0  0  0  0  0  0  0  0  0  0
  151.0842  140.5307  155.8577 C   0  0  2  0  0  0  0  0  0  0  0  0
  151.2008  139.3857  156.8693 C   0  0  0  0  0  0  0  0  0  0  0  0
  151.5998  140.1164  158.1361 C   0  0  1  0  0  0  0  0  0  0  0  0
  153.0063  140.2591  158.2073 O   0  0  0  0  0  0  0  0  0  0  0  0
  150.8829  141.4641  157.9701 C   0  0  1  0  0  0  0  0  0  0  0  0
  151.4504  142.6572  158.7584 C   0  0  0  0  0  0  0  0  0  0  0  0
  151.4301  142.3841  160.1435 O   0  0  0  0  0  0  0  0  0  0  0  0
  150.9041  141.7218  156.5679 O   0  0  0  0  0  0  0  0  0  0  0  0
  149.8074  139.1367  154.1809 C   0  0  0  0  0  0  0  0  0  0  0  0
  150.6454  138.2373  154.2324 O   0  0  0  0  0  0  0  0  0  0  0  0
  148.6963  139.0045  153.3496 N   0  0  0  0  0  0  0  0  0  0  0  0
  147.6667  139.9388  153.2126 C   0  0  0  0  0  0  0  0  0  0  0  0
  146.7362  139.7088  152.4418 O   0  0  0  0  0  0  0  0  0  0  0  0
  151.9761  140.6530  155.2415 H   0  0  0  0  0  0  0  0  0  0  0  0
  151.2640  139.5893  159.0295 H   0  0  0  0  0  0  0  0  0  0  0  0
  149.8365  141.3278  158.2471 H   0  0  0  0  0  0  0  0  0  0  0  0
  148.6274  138.1590  152.8019 H   0  0  0  0  0  0  0  0  0  0  0  0
  146.9322  143.0465  154.6131 H   0  0  0  0  0  0  0  0  0  0  0  0
  145.7585  141.7806  154.2559 H   0  0  0  0  0  0  0  0  0  0  0  0
  146.6303  142.5787  152.9405 H   0  0  0  0  0  0  0  0  0  0  0  0
  148.9682  142.1621  155.4485 H   0  0  0  0  0  0  0  0  0  0  0  0
  150.2264  138.9140  157.0049 H   0  0  0  0  0  0  0  0  0  0  0  0
  151.9135  138.6297  156.5374 H   0  0  0  0  0  0  0  0  0  0  0  0
  153.2140  140.8097  158.9472 H   0  0  0  0  0  0  0  0  0  0  0  0
  152.4656  142.9004  158.4446 H   0  0  0  0  0  0  0  0  0  0  0  0
  150.8423  143.5436  158.5768 H   0  0  0  0  0  0  0  0  0  0  0  0
  152.2708  142.0311  160.3923 H   0  0  0  0  0  0  0  0  0  0  0  0
  1  2  1  0  0  0  0
  1 22  1  0  0  0  0
  1 23  1  0  0  0  0
  1 24  1  0  0  0  0
  2 16  1  0  0  0  0
  2  3  2  0  0  0  0
  3  4  1  0  0  0  0
  3 25  1  0  0  0  0
  4  5  1  0  0  0  0
  4 13  1  0  0  0  0
  5 18  1  0  0  0  0
  5 12  1  0  0  0  0
  5  6  1  0  0  0  0
  6  7  1  0  0  0  0
  6 26  1  0  0  0  0
  6 27  1  0  0  0  0
  7 19  1  0  0  0  0
  7  8  1  0  0  0  0
  7  9  1  0  0  0  0
  8 28  1  0  0  0  0
  9 20  1  0  0  0  0
  9 10  1  0  0  0  0
  9 12  1  0  0  0  0
 10 11  1  0  0  0  0
 10 29  1  0  0  0  0
 10 30  1  0  0  0  0
 11 31  1  0  0  0  0
 13 14  2  0  0  0  0
 13 15  1  0  0  0  0
 15 21  1  0  0  0  0
 15 16  1  0  0  0  0
 16 17  2  0  0  0  0
M  END
> <s_m_source_file>
AV-unprocessed.smi

> <i_m_source_file_index>
55

> <i_lp_mmshare_version>
43012

> <i_f3d_flags>
0

> <s_epik_input>
Tz1jMVtuSF1jKD1PKW4oW2NIXWMxW0NIM10pW0NAQEhdMltDSDJdW0NAQEhdKFtPSF0pW0NAQEhdKE8yKVtDSDJdW09IXQ==

> <s_epik_cmdline>
J2VwaWtfcHl0aG9uJywgJy1waCcsICc3LjAnLCAnLXRuJywgJzgnLCAnLW1hJywgJzIwMCcsICctbWV0YWxfYmluZGluZycsICctaW1hZScsICc8aW5maWxlLm1hZT4nLCAnLW9tYWUnLCAnPG91dGZpbGUubWFlPic=

> <r_lp_tautomer_probability>
0.999537

> <r_epik_Ionization_Penalty>
0.00121888

> <r_epik_Ionization_Penalty_Charging>
0.00121876

> <r_epik_Ionization_Penalty_Neutral>
1.19946e-07

> <r_epik_State_Penalty>
0.000805124

> <r_epik_Charging_Adjusted_Penalty>
0.00202389

> <i_epik_Tot_Q>
0

> <i_epik_Tot_abs_Q>
0

> <r_epik_Metal_State_Penalty>
0.662472

> <b_epik_Metal_Only>
0

> <s_epik_Chemistry_Notes>
This compound contains an acetal/aminal-like group ( X-CH(R)-Y where X, Y are N, S, or O) that may be acid/base labile, releasing an aldehyde.

> <s_lp_Force_Field>
OPLS_2005

> <r_lp_Energy>
27.6975

> <b_lp_Chiralities_Consistent>
1

> <s_lp_Variant>
AV-unprocessed.smi:55-5

> <Gold.Version>
5.8.1

> <Gold.Id.Protein>
6NUR|6NUR_protein|mol2

> <Gold.PLP.Fitness>
37.9760

> <Gold.PLP.PLP>
-30.2057

> <Gold.PLP.part.hbond>
-3.4346

> <Gold.PLP.part.metal>
0.0000

> <Gold.PLP.part.buried>
-2.7531

> <Gold.PLP.part.nonpolar>
-24.4776

> <Gold.PLP.part.repulsive>
0.8625

> <Gold.PLP.ligand.clash>
0.0000

> <Gold.PLP.ligand.torsion>
0.0232

> <Gold.PLP.Chemscore.Hbond>
1.6588

> <Gold.PLP.Chemscore.CHOScore>
0.9461

> <Gold.PLP.Chemscore.Metal>
0.0000

> <Gold.Chemscore.Hbonds>
donor molecule, donor type, donor heavy atom, donor atom, acceptor molecule, acceptor atom, score
      L1  H    15    21       P1  7948  0.71
      P1  H  7997  8010       L1     8  0.93
      L1  C     3    25       P1  8028  0.92

> <Gold.PLP.Chemscore.Internal.Correction>
0.0021

> <Gold.Rescore>
     Score         DG    S(hbond)    S(metal)    S(lipo)     H(rot)  DE(clash)    DE(int)     intcor
      6.97      -9.21       1.56        0.00      46.93       2.73       1.19       1.05       ----

> <Gold.Chemscore.Fitness>
6.9704

> <Gold.Chemscore.DG>
-9.2103

> <Gold.Chemscore.ZeroCoef>
-5.4800

> <Gold.Chemscore.Hbond>
1.5619

> <Gold.Chemscore.Metal>
0.0000

> <Gold.Chemscore.Lipo>
46.9263

> <Gold.Chemscore.Internal_Hbond>
0.0000

> <Gold.Chemscore.DEClash>
1.1896

> <Gold.Chemscore.DEInternal>
1.0503

> <Gold.Chemscore.Rot>
2.7253

> <Gold.Chemscore.Internal.Correction>
   9.000000E+99

> <Gold.Chemscore.Hbonds>
donor molecule, donor type, donor heavy atom, donor atom, acceptor molecule, acceptor atom, score
      L1  H    15    21       P1  7948  0.71
      P1  H  7997  8010       L1     8  0.65

> <Gold.Chemscore.Hbond.Weighted>
-5.2168

> <Gold.Chemscore.Metal.Weighted>
-0.0000

> <Gold.Chemscore.Lipo.Weighted>
-5.4904

> <Gold.Chemscore.Internal_Hbond.Weighted>
0.0000

> <Gold.Chemscore.DEClash.Weighted>
1.1896

> <Gold.Chemscore.DEInternal.Weighted>
1.0503

> <Gold.Chemscore.Rot.Weighted>
6.9769

> <Gold.Chemscore.Internal.Correction.Weighted>
   9.000000E+99

> <Gold.Protein.RotatedTorsions>
[ 6907 6896 6895 6894 ] final   81.59 input  -60.11 | X-H torsion
[ 7974 7965 7964 7962 ] final  -63.27 input  175.53 | X-H torsion
[ 8008 7997 7996 7995 ] final   34.19 input   59.86 | X-H torsion
[ 10167 10162 10161 10158 ] final   96.14 input  -65.29 | X-H torsion
[ 10718 10713 10712 10709 ] final  102.90 input   66.30 | X-H torsion
[ 10763 10752 10751 10750 ] final  -41.60 input  -60.55 | X-H torsion
[ 11005 11000 10999 10996 ] final  -92.69 input  -57.11 | X-H torsion

> <Gold.Protein.ActiveResidues>
 VAL166  LYS551  ARG553  GLY616  TRP617  ASP618  TYR619  PRO620  LYS621  CYS622 
 ASP623  PHE694  ASN695  SER759  ASP760  ASP761  ALA762  ILE779  LEU786  VAL792 
 PHE793  MET794  SER795  GLU796  ALA797  LYS798  CYS799  TRP800  GLU811  SER814 

> <Gold.Protein.RotatedAtoms>
  152.5273  134.3181  159.9137 H   0  0  0  0  0  0  0  0  0  0  0  0  # atno 6907 bound_to 6896
  151.3130  133.4066  159.2656 H   0  0  0  0  0  0  0  0  0  0  0  0  # atno 6908 bound_to 6896
  151.0022  134.9348  159.8018 H   0  0  0  0  0  0  0  0  0  0  0  0  # atno 6909 bound_to 6896
  145.7811  140.8761  143.0330 H   0  0  0  0  0  0  0  0  0  0  0  0  # atno 7974 bound_to 7965
  155.1508  140.3274  155.4432 H   0  0  0  0  0  0  0  0  0  0  0  0  # atno 8008 bound_to 7997
  156.2575  140.1977  156.6569 H   0  0  0  0  0  0  0  0  0  0  0  0  # atno 8009 bound_to 7997
  154.6475  140.0562  156.9903 H   0  0  0  0  0  0  0  0  0  0  0  0  # atno 8010 bound_to 7997
  139.7922  144.6847  150.9876 H   0  0  0  0  0  0  0  0  0  0  0  0  # atno 10167 bound_to 10162
  157.6789  131.0765  150.5474 H   0  0  0  0  0  0  0  0  0  0  0  0  # atno 10718 bound_to 10713
  153.9653  135.6735  153.4746 H   0  0  0  0  0  0  0  0  0  0  0  0  # atno 10763 bound_to 10752
  153.0819  135.4919  154.8516 H   0  0  0  0  0  0  0  0  0  0  0  0  # atno 10764 bound_to 10752
  154.7250  135.3125  154.8946 H   0  0  0  0  0  0  0  0  0  0  0  0  # atno 10765 bound_to 10752
  141.1516  133.7838  157.0055 H   0  0  0  0  0  0  0  0  0  0  0  0  # atno 11005 bound_to 11000
  144.6796  139.9990  143.7484 LP  0  0  0  0  0  0  0  0  0  0  0  0  # atno 17320 bound_to 7965
  146.0073  139.3140  143.0891 LP  0  0  0  0  0  0  0  0  0  0  0  0  # atno 17321 bound_to 7965
  140.7820  143.4368  151.0611 LP  0  0  0  0  0  0  0  0  0  0  0  0  # atno 17342 bound_to 10162
  139.8044  143.8038  152.3166 LP  0  0  0  0  0  0  0  0  0  0  0  0  # atno 17343 bound_to 10162
  156.5779  130.4297  149.5990 LP  0  0  0  0  0  0  0  0  0  0  0  0  # atno 17370 bound_to 10713
  156.2686  130.7004  151.1794 LP  0  0  0  0  0  0  0  0  0  0  0  0  # atno 17371 bound_to 10713
  140.0912  134.9591  157.1778 LP  0  0  0  0  0  0  0  0  0  0  0  0  # atno 17394 bound_to 11000
  140.3444  134.2668  155.7207 LP  0  0  0  0  0  0  0  0  0  0  0  0  # atno 17395 bound_to 11000

$$$$
