AV-unprocessed.smi:949|AV-procd|sdf|4246|dock2
  -GOLD-   22720 2153D 1   1.00000     0.00000
 Structure written by MMmdl.
 32 33  0  0  0  0  0  0  0  0  1 V2000
  151.5969  141.0541  156.4349 C   0  0  0  0  0  0  0  0  0  0  0  0
  150.3208  141.7869  156.8893 C   0  0  2  0  0  0  0  0  0  0  0  0
  149.5251  142.1797  155.7321 N   0  0  0  0  0  0  0  0  0  0  0  0
  148.7952  141.2609  154.9571 C   0  0  0  0  0  0  0  0  0  0  0  0
  149.2952  139.9833  154.6092 C   0  0  0  0  0  0  0  0  0  0  0  0
  148.4929  139.1262  153.8307 C   0  0  0  0  0  0  0  0  0  0  0  0
  147.2607  139.4551  153.3928 N   0  0  0  0  0  0  0  0  0  0  0  0
  146.7825  140.6721  153.7238 C   0  0  0  0  0  0  0  0  0  0  0  0
  147.5007  141.6085  154.4973 C   0  0  0  0  0  0  0  0  0  0  0  0
  146.9226  142.8465  154.7893 N   0  0  0  0  0  0  0  0  0  0  0  0
  150.6531  143.0335  157.7324 C   0  0  2  0  0  0  0  0  0  0  0  0
  151.5244  144.0742  157.0265 C   0  0  0  0  0  0  0  0  0  0  0  0
  152.2128  144.8035  158.1696 C   0  0  0  0  0  0  0  0  0  0  0  0
  152.0151  143.8783  159.3730 C   0  0  0  0  0  0  0  0  0  0  0  0
  151.4753  142.6797  158.8346 O   0  0  0  0  0  0  0  0  0  0  0  0
  152.1769  140.6993  157.2867 H   0  0  0  0  0  0  0  0  0  0  0  0
  152.2393  141.7094  155.8456 H   0  0  0  0  0  0  0  0  0  0  0  0
  151.3662  140.1833  155.8215 H   0  0  0  0  0  0  0  0  0  0  0  0
  149.7297  141.1175  157.5145 H   0  0  0  0  0  0  0  0  0  0  0  0
  149.4052  143.1663  155.5543 H   0  0  0  0  0  0  0  0  0  0  0  0
  150.2718  139.6452  154.9190 H   0  0  0  0  0  0  0  0  0  0  0  0
  148.8529  138.1470  153.5521 H   0  0  0  0  0  0  0  0  0  0  0  0
  145.7931  140.9055  153.3578 H   0  0  0  0  0  0  0  0  0  0  0  0
  147.4099  143.5387  155.3404 H   0  0  0  0  0  0  0  0  0  0  0  0
  146.0272  143.1136  154.4066 H   0  0  0  0  0  0  0  0  0  0  0  0
  149.7401  143.5036  158.1041 H   0  0  0  0  0  0  0  0  0  0  0  0
  152.2740  143.5793  156.4074 H   0  0  0  0  0  0  0  0  0  0  0  0
  150.9484  144.7434  156.3867 H   0  0  0  0  0  0  0  0  0  0  0  0
  153.2688  144.9651  157.9508 H   0  0  0  0  0  0  0  0  0  0  0  0
  151.7550  145.7757  158.3551 H   0  0  0  0  0  0  0  0  0  0  0  0
  152.9441  143.6826  159.9087 H   0  0  0  0  0  0  0  0  0  0  0  0
  151.3012  144.3102  160.0757 H   0  0  0  0  0  0  0  0  0  0  0  0
  1  2  1  0  0  0  0
  1 16  1  0  0  0  0
  1 17  1  0  0  0  0
  1 18  1  0  0  0  0
  2  3  1  0  0  0  0
  2 11  1  0  0  0  0
  2 19  1  0  0  0  0
  3  4  1  0  0  0  0
  3 20  1  0  0  0  0
  4  9  1  0  0  0  0
  4  5  2  0  0  0  0
  5  6  1  0  0  0  0
  5 21  1  0  0  0  0
  6  7  2  0  0  0  0
  6 22  1  0  0  0  0
  7  8  1  0  0  0  0
  8  9  2  0  0  0  0
  8 23  1  0  0  0  0
  9 10  1  0  0  0  0
 10 24  1  0  0  0  0
 10 25  1  0  0  0  0
 11 15  1  0  0  0  0
 11 12  1  0  0  0  0
 11 26  1  0  0  0  0
 12 13  1  0  0  0  0
 12 27  1  0  0  0  0
 12 28  1  0  0  0  0
 13 14  1  0  0  0  0
 13 29  1  0  0  0  0
 13 30  1  0  0  0  0
 14 15  1  0  0  0  0
 14 31  1  0  0  0  0
 14 32  1  0  0  0  0
M  END
> <s_m_source_file>
AV-unprocessed.smi

> <i_m_source_file_index>
949

> <i_lp_mmshare_version>
43012

> <i_f3d_flags>
0

> <s_epik_input>
TzFbQ0gyXVtDSDJdW0NIMl1bQ0BIXTFbQ0BIXShbQ0gzXSlbTkhdYzJbY0hdW2NIXW5bY0hdYzJbTkgyXQ==

> <s_epik_cmdline>
J2VwaWtfcHl0aG9uJywgJy1waCcsICc3LjAnLCAnLXRuJywgJzgnLCAnLW1hJywgJzIwMCcsICctbWV0YWxfYmluZGluZycsICctaW1hZScsICc8aW5maWxlLm1hZT4nLCAnLW9tYWUnLCAnPG91dGZpbGUubWFlPic=

> <r_epik_Ionization_Penalty>
3.88091

> <r_epik_Ionization_Penalty_Charging>
0

> <r_epik_Ionization_Penalty_Neutral>
3.88091

> <r_epik_State_Penalty>
3.88049

> <r_epik_Charging_Adjusted_Penalty>
3.88049

> <i_epik_Tot_Q>
0

> <i_epik_Tot_abs_Q>
0

> <r_epik_Metal_State_Penalty>
0.313783

> <b_epik_Metal_Only>
1

> <s_lp_Force_Field>
OPLS_2005

> <r_lp_Energy>
24.4145

> <b_lp_Chiralities_Consistent>
1

> <s_lp_Variant>
AV-unprocessed.smi:949-5

> <Gold.Version>
5.8.1

> <Gold.Id.Protein>
6NUR|6NUR_protein|mol2

> <Gold.PLP.Fitness>
42.5525

> <Gold.PLP.PLP>
-31.5582

> <Gold.PLP.part.hbond>
-2.0000

> <Gold.PLP.part.metal>
0.0000

> <Gold.PLP.part.buried>
-2.4723

> <Gold.PLP.part.nonpolar>
-28.4354

> <Gold.PLP.part.repulsive>
1.2571

> <Gold.PLP.ligand.clash>
0.0000

> <Gold.PLP.ligand.torsion>
0.5049

> <Gold.PLP.Chemscore.Hbond>
1.9920

> <Gold.PLP.Chemscore.CHOScore>
1.9991

> <Gold.PLP.Chemscore.Metal>
0.0000

> <Gold.Chemscore.Hbonds>
donor molecule, donor type, donor heavy atom, donor atom, acceptor molecule, acceptor atom, score
      L1  H     3    20       P1  8028  1.00
      L1  H    10    24       P1  8028  0.55
      L1  C     6    22       P1  7948  0.99
      L1  C     8    23       P1 10175  1.00

> <Gold.PLP.Chemscore.Internal.Correction>
0.0309

> <Gold.Rescore>
     Score         DG    S(hbond)    S(metal)    S(lipo)     H(rot)  DE(clash)    DE(int)     intcor
     16.83     -17.59       1.33        0.00      92.05       1.22       0.11       0.65       ----

> <Gold.Chemscore.Fitness>
16.8302

> <Gold.Chemscore.DG>
-17.5857

> <Gold.Chemscore.ZeroCoef>
-5.4800

> <Gold.Chemscore.Hbond>
1.3327

> <Gold.Chemscore.Metal>
0.0000

> <Gold.Chemscore.Lipo>
92.0480

> <Gold.Chemscore.Internal_Hbond>
0.0000

> <Gold.Chemscore.DEClash>
0.1104

> <Gold.Chemscore.DEInternal>
0.6451

> <Gold.Chemscore.Rot>
1.2169

> <Gold.Chemscore.Internal.Correction>
   9.000000E+99

> <Gold.Chemscore.Hbonds>
donor molecule, donor type, donor heavy atom, donor atom, acceptor molecule, acceptor atom, score
      L1  H     3    20       P1  8028  0.99
      L1  H    10    24       P1  8028  0.03

> <Gold.Chemscore.Hbond.Weighted>
-4.4513

> <Gold.Chemscore.Metal.Weighted>
-0.0000

> <Gold.Chemscore.Lipo.Weighted>
-10.7696

> <Gold.Chemscore.Internal_Hbond.Weighted>
0.0000

> <Gold.Chemscore.DEClash.Weighted>
0.1104

> <Gold.Chemscore.DEInternal.Weighted>
0.6451

> <Gold.Chemscore.Rot.Weighted>
3.1152

> <Gold.Chemscore.Internal.Correction.Weighted>
   9.000000E+99

> <Gold.Protein.RotatedTorsions>
[ 6907 6896 6895 6894 ] final  -79.46 input  -60.11 | X-H torsion
[ 7974 7965 7964 7962 ] final  127.99 input  175.53 | X-H torsion
[ 8008 7997 7996 7995 ] final  166.20 input   59.86 | X-H torsion
[ 10167 10162 10161 10158 ] final  -84.97 input  -65.29 | X-H torsion
[ 10718 10713 10712 10709 ] final  -56.48 input   66.30 | X-H torsion
[ 10763 10752 10751 10750 ] final   81.76 input  -60.55 | X-H torsion
[ 11005 11000 10999 10996 ] final  155.58 input  -57.11 | X-H torsion

> <Gold.Protein.ActiveResidues>
 VAL166  LYS551  ARG553  GLY616  TRP617  ASP618  TYR619  PRO620  LYS621  CYS622 
 ASP623  PHE694  ASN695  SER759  ASP760  ASP761  ALA762  ILE779  LEU786  VAL792 
 PHE793  MET794  SER795  GLU796  ALA797  LYS798  CYS799  TRP800  GLU811  SER814 

> <Gold.Protein.RotatedAtoms>
  150.6949  134.4117  159.5164 H   0  0  0  0  0  0  0  0  0  0  0  0  # atno 6907 bound_to 6896
  152.1875  134.8698  160.0530 H   0  0  0  0  0  0  0  0  0  0  0  0  # atno 6908 bound_to 6896
  151.9666  133.3677  159.4092 H   0  0  0  0  0  0  0  0  0  0  0  0  # atno 6909 bound_to 6896
  145.0444  139.3935  143.5085 H   0  0  0  0  0  0  0  0  0  0  0  0  # atno 7974 bound_to 7965
  156.1738  140.1650  156.8399 H   0  0  0  0  0  0  0  0  0  0  0  0  # atno 8008 bound_to 7997
  154.5285  140.0762  156.8336 H   0  0  0  0  0  0  0  0  0  0  0  0  # atno 8009 bound_to 7997
  155.3456  140.3387  155.4241 H   0  0  0  0  0  0  0  0  0  0  0  0  # atno 8010 bound_to 7997
  140.4082  143.2634  151.9053 H   0  0  0  0  0  0  0  0  0  0  0  0  # atno 10167 bound_to 10162
  156.1285  130.4161  150.0311 H   0  0  0  0  0  0  0  0  0  0  0  0  # atno 10718 bound_to 10713
  153.1144  135.4753  154.9090 H   0  0  0  0  0  0  0  0  0  0  0  0  # atno 10763 bound_to 10752
  154.7514  135.3107  154.8553 H   0  0  0  0  0  0  0  0  0  0  0  0  # atno 10764 bound_to 10752
  153.9134  135.6862  153.4804 H   0  0  0  0  0  0  0  0  0  0  0  0  # atno 10765 bound_to 10752
  140.1595  134.8619  157.2556 H   0  0  0  0  0  0  0  0  0  0  0  0  # atno 11005 bound_to 11000
  146.3512  140.0062  142.8671 LP  0  0  0  0  0  0  0  0  0  0  0  0  # atno 17320 bound_to 7965
  145.1606  140.9671  143.4379 LP  0  0  0  0  0  0  0  0  0  0  0  0  # atno 17321 bound_to 7965
  139.4783  144.5564  151.8307 LP  0  0  0  0  0  0  0  0  0  0  0  0  # atno 17342 bound_to 10162
  140.4666  144.1646  150.5912 LP  0  0  0  0  0  0  0  0  0  0  0  0  # atno 17343 bound_to 10162
  156.8230  130.9365  151.3640 LP  0  0  0  0  0  0  0  0  0  0  0  0  # atno 17370 bound_to 10713
  157.6465  130.8848  149.9549 LP  0  0  0  0  0  0  0  0  0  0  0  0  # atno 17371 bound_to 10713
  140.2507  134.3687  155.7443 LP  0  0  0  0  0  0  0  0  0  0  0  0  # atno 17394 bound_to 11000
  141.2208  133.7315  156.8931 LP  0  0  0  0  0  0  0  0  0  0  0  0  # atno 17395 bound_to 11000

$$$$
