AV-unprocessed.smi:2888|AV-procd|sdf|11101|dock3
  -GOLD-   2272015573D 1   1.00000     0.00000
 Structure written by MMmdl.
 33 35  0  0  0  0  0  0  0  0  1 V2000
  152.0467  144.7896  158.6281 C   0  0  0  0  0  0  0  0  0  0  0  0
  152.3624  143.3440  158.9470 C   0  0  0  0  0  0  0  0  0  0  0  0
  153.1059  142.9842  160.0904 C   0  0  0  0  0  0  0  0  0  0  0  0
  153.3314  141.6038  160.2738 C   0  0  0  0  0  0  0  0  0  0  0  0
  154.1127  141.0803  161.4602 C   0  0  0  0  0  0  0  0  0  0  0  0
  152.8589  140.6827  159.4047 N   0  0  0  0  0  0  0  0  0  0  0  0
  152.1643  141.1356  158.3581 C   0  0  0  0  0  0  0  0  0  0  0  0
  151.6881  140.1645  157.4967 N   0  0  0  0  0  0  0  0  0  0  0  0
  151.5792  140.3318  156.0520 C   0  0  1  0  0  0  0  0  0  0  0  0
  152.2945  139.2351  155.2601 C   0  0  0  0  0  0  0  0  0  0  0  0
  151.1782  138.7423  154.3279 C   0  0  1  0  0  0  0  0  0  0  0  0
  150.1576  137.8790  155.0802 C   0  0  0  0  0  0  0  0  0  0  0  0
  149.4201  138.9258  155.9127 C   0  0  0  0  0  0  0  0  0  0  0  0
  150.1416  140.2226  155.5063 C   0  0  2  0  0  0  0  0  0  0  0  0
  150.4268  139.9315  154.1483 O   0  0  0  0  0  0  0  0  0  0  0  0
  151.8930  142.4172  158.0834 N   0  0  0  0  0  0  0  0  0  0  0  0
  152.5518  145.4649  159.3189 H   0  0  0  0  0  0  0  0  0  0  0  0
  150.9733  144.9665  158.7003 H   0  0  0  0  0  0  0  0  0  0  0  0
  152.3691  145.0354  157.6158 H   0  0  0  0  0  0  0  0  0  0  0  0
  153.4802  143.7222  160.7848 H   0  0  0  0  0  0  0  0  0  0  0  0
  154.5672  141.8963  162.0230 H   0  0  0  0  0  0  0  0  0  0  0  0
  154.9077  140.4120  161.1286 H   0  0  0  0  0  0  0  0  0  0  0  0
  153.4551  140.5270  162.1310 H   0  0  0  0  0  0  0  0  0  0  0  0
  151.2120  139.3797  157.9164 H   0  0  0  0  0  0  0  0  0  0  0  0
  152.0014  141.2980  155.7717 H   0  0  0  0  0  0  0  0  0  0  0  0
  153.1211  139.6594  154.6891 H   0  0  0  0  0  0  0  0  0  0  0  0
  152.6910  138.4303  155.8809 H   0  0  0  0  0  0  0  0  0  0  0  0
  151.5395  138.2936  153.4022 H   0  0  0  0  0  0  0  0  0  0  0  0
  149.4726  137.3921  154.3853 H   0  0  0  0  0  0  0  0  0  0  0  0
  150.6319  137.1090  155.6895 H   0  0  0  0  0  0  0  0  0  0  0  0
  148.3690  138.9665  155.6249 H   0  0  0  0  0  0  0  0  0  0  0  0
  149.4663  138.7274  156.9837 H   0  0  0  0  0  0  0  0  0  0  0  0
  149.5438  141.1227  155.6516 H   0  0  0  0  0  0  0  0  0  0  0  0
  1  2  1  0  0  0  0
  1 17  1  0  0  0  0
  1 18  1  0  0  0  0
  1 19  1  0  0  0  0
  2 16  1  0  0  0  0
  2  3  2  0  0  0  0
  3  4  1  0  0  0  0
  3 20  1  0  0  0  0
  4  5  1  0  0  0  0
  4  6  2  0  0  0  0
  5 21  1  0  0  0  0
  5 22  1  0  0  0  0
  5 23  1  0  0  0  0
  6  7  1  0  0  0  0
  7  8  1  0  0  0  0
  7 16  2  0  0  0  0
  8  9  1  0  0  0  0
  8 24  1  0  0  0  0
  9 14  1  0  0  0  0
  9 10  1  0  0  0  0
  9 25  1  0  0  0  0
 10 11  1  0  0  0  0
 10 26  1  0  0  0  0
 10 27  1  0  0  0  0
 11 15  1  0  0  0  0
 11 12  1  0  0  0  0
 11 28  1  0  0  0  0
 12 13  1  0  0  0  0
 12 29  1  0  0  0  0
 12 30  1  0  0  0  0
 13 14  1  0  0  0  0
 13 31  1  0  0  0  0
 13 32  1  0  0  0  0
 14 15  1  0  0  0  0
 14 33  1  0  0  0  0
M  END
> <s_m_source_file>
AV-unprocessed.smi

> <i_m_source_file_index>
2888

> <i_lp_mmshare_version>
43012

> <i_f3d_flags>
0

> <s_epik_input>
W0NIM11jMVtjSF1jKFtDSDNdKW5jKG4xKVtOSF1bQ0BIXShbQ0gyXVtDQEBIXTIzKVtDQEBIXShPMylbQ0gyXVtDSDJdMg==

> <s_epik_cmdline>
J2VwaWtfcHl0aG9uJywgJy1waCcsICc3LjAnLCAnLXRuJywgJzgnLCAnLW1hJywgJzIwMCcsICctbWV0YWxfYmluZGluZycsICctaW1hZScsICc8aW5maWxlLm1hZT4nLCAnLW9tYWUnLCAnPG91dGZpbGUubWFlPic=

> <r_lp_tautomer_probability>
1

> <r_epik_Ionization_Penalty>
0.00890508

> <r_epik_Ionization_Penalty_Charging>
0

> <r_epik_Ionization_Penalty_Neutral>
0.00890508

> <r_epik_State_Penalty>
0.0067342

> <r_epik_Charging_Adjusted_Penalty>
0.0067342

> <i_epik_Tot_Q>
0

> <i_epik_Tot_abs_Q>
0

> <r_epik_Metal_State_Penalty>
0.00663442

> <b_epik_Metal_Only>
0

> <s_lp_Force_Field>
OPLS_2005

> <r_lp_Energy>
31.8734

> <b_lp_Chiralities_Consistent>
1

> <s_lp_Variant>
AV-unprocessed.smi:2888-2

> <Gold.Version>
5.8.1

> <Gold.Id.Protein>
6NUR|6NUR_protein|mol2

> <Gold.PLP.Fitness>
39.1068

> <Gold.PLP.PLP>
-36.6251

> <Gold.PLP.part.hbond>
-1.0000

> <Gold.PLP.part.metal>
0.0000

> <Gold.PLP.part.buried>
-4.7828

> <Gold.PLP.part.nonpolar>
-31.4069

> <Gold.PLP.part.repulsive>
0.5089

> <Gold.PLP.ligand.clash>
0.0000

> <Gold.PLP.ligand.torsion>
0.2637

> <Gold.PLP.Chemscore.Hbond>
1.0000

> <Gold.PLP.Chemscore.CHOScore>
0.0000

> <Gold.PLP.Chemscore.Metal>
0.0000

> <Gold.Chemscore.Hbonds>
donor molecule, donor type, donor heavy atom, donor atom, acceptor molecule, acceptor atom, score
      P1  H  7989  7998       L1    15  0.90

> <Gold.PLP.Chemscore.Internal.Correction>
0.0090

> <Gold.Rescore>
     Score         DG    S(hbond)    S(metal)    S(lipo)     H(rot)  DE(clash)    DE(int)     intcor
     15.96     -16.24       0.61        0.00      96.57       1.00       0.01       0.28       ----

> <Gold.Chemscore.Fitness>
15.9566

> <Gold.Chemscore.DG>
-16.2412

> <Gold.Chemscore.ZeroCoef>
-5.4800

> <Gold.Chemscore.Hbond>
0.6055

> <Gold.Chemscore.Metal>
0.0000

> <Gold.Chemscore.Lipo>
96.5724

> <Gold.Chemscore.Internal_Hbond>
0.0000

> <Gold.Chemscore.DEClash>
0.0085

> <Gold.Chemscore.DEInternal>
0.2760

> <Gold.Chemscore.Rot>
1.0000

> <Gold.Chemscore.Internal.Correction>
   9.000000E+99

> <Gold.Chemscore.Hbonds>
donor molecule, donor type, donor heavy atom, donor atom, acceptor molecule, acceptor atom, score
      P1  H  7989  7998       L1    15  0.16

> <Gold.Chemscore.Hbond.Weighted>
-2.0222

> <Gold.Chemscore.Metal.Weighted>
-0.0000

> <Gold.Chemscore.Lipo.Weighted>
-11.2990

> <Gold.Chemscore.Internal_Hbond.Weighted>
0.0000

> <Gold.Chemscore.DEClash.Weighted>
0.0085

> <Gold.Chemscore.DEInternal.Weighted>
0.2760

> <Gold.Chemscore.Rot.Weighted>
2.5600

> <Gold.Chemscore.Internal.Correction.Weighted>
   9.000000E+99

> <Gold.Protein.RotatedTorsions>
[ 6907 6896 6895 6894 ] final  -54.46 input  -60.11 | X-H torsion
[ 7974 7965 7964 7962 ] final   80.87 input  175.53 | X-H torsion
[ 8008 7997 7996 7995 ] final -131.25 input   59.86 | X-H torsion
[ 10167 10162 10161 10158 ] final -178.30 input  -65.29 | X-H torsion
[ 10718 10713 10712 10709 ] final   72.27 input   66.30 | X-H torsion
[ 10763 10752 10751 10750 ] final -131.92 input  -60.55 | X-H torsion
[ 11005 11000 10999 10996 ] final -112.71 input  -57.11 | X-H torsion

> <Gold.Protein.ActiveResidues>
 VAL166  LYS551  ARG553  GLY616  TRP617  ASP618  TYR619  PRO620  LYS621  CYS622 
 ASP623  PHE694  ASN695  SER759  ASP760  ASP761  ALA762  ILE779  LEU786  VAL792 
 PHE793  MET794  SER795  GLU796  ALA797  LYS798  CYS799  TRP800  GLU811  SER814 

> <Gold.Protein.RotatedAtoms>
  150.8336  134.7600  159.6873 H   0  0  0  0  0  0  0  0  0  0  0  0  # atno 6907 bound_to 6896
  152.4436  134.5536  159.9884 H   0  0  0  0  0  0  0  0  0  0  0  0  # atno 6908 bound_to 6896
  151.5692  133.3354  159.3022 H   0  0  0  0  0  0  0  0  0  0  0  0  # atno 6909 bound_to 6896
  145.6456  139.2435  143.2006 H   0  0  0  0  0  0  0  0  0  0  0  0  # atno 7974 bound_to 7965
  155.3093  140.0456  157.3034 H   0  0  0  0  0  0  0  0  0  0  0  0  # atno 8008 bound_to 7997
  154.5442  140.2297  155.8557 H   0  0  0  0  0  0  0  0  0  0  0  0  # atno 8009 bound_to 7997
  156.1909  140.3051  155.9337 H   0  0  0  0  0  0  0  0  0  0  0  0  # atno 8010 bound_to 7997
  139.5439  144.2288  152.0950 H   0  0  0  0  0  0  0  0  0  0  0  0  # atno 10167 bound_to 10162
  157.6492  130.9570  150.0905 H   0  0  0  0  0  0  0  0  0  0  0  0  # atno 10718 bound_to 10713
  154.8747  135.3814  154.4324 H   0  0  0  0  0  0  0  0  0  0  0  0  # atno 10763 bound_to 10752
  153.5017  135.7030  153.5833 H   0  0  0  0  0  0  0  0  0  0  0  0  # atno 10764 bound_to 10752
  153.4162  135.3912  155.2048 H   0  0  0  0  0  0  0  0  0  0  0  0  # atno 10765 bound_to 10752
  141.0659  133.9460  157.2580 H   0  0  0  0  0  0  0  0  0  0  0  0  # atno 11005 bound_to 11000
  146.1246  140.7265  142.9441 LP  0  0  0  0  0  0  0  0  0  0  0  0  # atno 17320 bound_to 7965
  144.7141  140.4147  143.7058 LP  0  0  0  0  0  0  0  0  0  0  0  0  # atno 17321 bound_to 7965
  140.1771  144.4880  150.6548 LP  0  0  0  0  0  0  0  0  0  0  0  0  # atno 17342 bound_to 10162
  140.6680  143.2275  151.5696 LP  0  0  0  0  0  0  0  0  0  0  0  0  # atno 17343 bound_to 10162
  156.1855  130.3652  149.8978 LP  0  0  0  0  0  0  0  0  0  0  0  0  # atno 17370 bound_to 10713
  156.6920  130.8899  151.3589 LP  0  0  0  0  0  0  0  0  0  0  0  0  # atno 17371 bound_to 10713
  139.9475  135.0181  156.8897 LP  0  0  0  0  0  0  0  0  0  0  0  0  # atno 17394 bound_to 11000
  140.5775  134.0384  155.7452 LP  0  0  0  0  0  0  0  0  0  0  0  0  # atno 17395 bound_to 11000

$$$$
