AV-unprocessed.smi:2710|AV-procd|sdf|10466|dock1
  -GOLD-   2272014503D 1   1.00000     0.00000
 Structure written by MMmdl.
 53 54  0  0  0  0  0  0  0  0  2 V2000
  143.0245  140.2176  155.8501 C   0  0  0  0  0  0  0  0  0  0  0  0
  143.8711  141.4978  155.9448 C   0  0  0  0  0  0  0  0  0  0  0  0
  145.0191  141.5212  154.9919 N   0  3  2  0  0  0  0  0  0  0  0  0
  146.0268  140.4714  155.3172 C   0  0  0  0  0  0  0  0  0  0  0  0
  147.1405  140.3927  154.2626 C   0  0  0  0  0  0  0  0  0  0  0  0
  147.8482  141.7440  154.0821 C   0  0  2  0  0  0  0  0  0  0  0  0
  148.6552  142.1058  155.2477 N   0  0  0  0  0  0  0  0  0  0  0  0
  149.5841  141.3243  155.8172 C   0  0  0  0  0  0  0  0  0  0  0  0
  149.8463  140.1902  155.4199 O   0  0  0  0  0  0  0  0  0  0  0  0
  150.1686  141.9452  156.8561 N   0  0  0  0  0  0  0  0  0  0  0  0
  151.1903  141.4727  157.7253 C   0  0  0  0  0  0  0  0  0  0  0  0
  152.1132  140.4382  157.4355 C   0  0  0  0  0  0  0  0  0  0  0  0
  153.0515  140.0558  158.3273 N   0  0  0  0  0  0  0  0  0  0  0  0
  153.0683  140.6647  159.5199 C   0  0  0  0  0  0  0  0  0  0  0  0
  154.2316  140.3211  160.4669 C   0  0  0  0  0  0  0  0  0  0  0  0
  155.5965  140.6416  159.8131 C   0  0  0  0  0  0  0  0  0  0  0  0
  154.1730  138.8257  160.8291 C   0  0  0  0  0  0  0  0  0  0  0  0
  154.1669  141.1705  161.7582 C   0  0  0  0  0  0  0  0  0  0  0  0
  152.2703  141.6802  159.8748 N   0  0  0  0  0  0  0  0  0  0  0  0
  151.3265  142.0720  158.9939 C   0  0  0  0  0  0  0  0  0  0  0  0
  146.7974  142.8243  153.7916 C   0  0  0  0  0  0  0  0  0  0  0  0
  145.6617  142.8685  154.8412 C   0  0  1  0  0  0  0  0  0  0  0  0
  144.6679  143.9783  154.4391 C   0  0  0  0  0  0  0  0  0  0  0  0
  142.1155  140.3197  156.4434 H   0  0  0  0  0  0  0  0  0  0  0  0
  143.5487  139.3413  156.2298 H   0  0  0  0  0  0  0  0  0  0  0  0
  142.7232  140.0172  154.8216 H   0  0  0  0  0  0  0  0  0  0  0  0
  143.1865  142.3168  155.7373 H   0  0  0  0  0  0  0  0  0  0  0  0
  144.2295  141.6442  156.9646 H   0  0  0  0  0  0  0  0  0  0  0  0
  146.4525  140.6676  156.3025 H   0  0  0  0  0  0  0  0  0  0  0  0
  145.5586  139.4904  155.3709 H   0  0  0  0  0  0  0  0  0  0  0  0
  147.8570  139.6160  154.5324 H   0  0  0  0  0  0  0  0  0  0  0  0
  146.7080  140.0829  153.3104 H   0  0  0  0  0  0  0  0  0  0  0  0
  148.5146  141.6807  153.2197 H   0  0  0  0  0  0  0  0  0  0  0  0
  148.5100  143.0260  155.6365 H   0  0  0  0  0  0  0  0  0  0  0  0
  149.8429  142.8806  157.0505 H   0  0  0  0  0  0  0  0  0  0  0  0
  152.1298  139.9033  156.4999 H   0  0  0  0  0  0  0  0  0  0  0  0
  156.4211  140.4463  160.4997 H   0  0  0  0  0  0  0  0  0  0  0  0
  155.6585  141.6894  159.5164 H   0  0  0  0  0  0  0  0  0  0  0  0
  155.7771  140.0350  158.9250 H   0  0  0  0  0  0  0  0  0  0  0  0
  154.2532  138.2002  159.9394 H   0  0  0  0  0  0  0  0  0  0  0  0
  153.2336  138.5750  161.3231 H   0  0  0  0  0  0  0  0  0  0  0  0
  154.9839  138.5467  161.5026 H   0  0  0  0  0  0  0  0  0  0  0  0
  155.0141  140.9635  162.4131 H   0  0  0  0  0  0  0  0  0  0  0  0
  153.2657  140.9661  162.3372 H   0  0  0  0  0  0  0  0  0  0  0  0
  154.1803  142.2377  161.5331 H   0  0  0  0  0  0  0  0  0  0  0  0
  150.6778  142.8778  159.3050 H   0  0  0  0  0  0  0  0  0  0  0  0
  147.2867  143.7971  153.7231 H   0  0  0  0  0  0  0  0  0  0  0  0
  146.3656  142.6378  152.8071 H   0  0  0  0  0  0  0  0  0  0  0  0
  146.0938  143.1420  155.8052 H   0  0  0  0  0  0  0  0  0  0  0  0
  145.1949  144.8965  154.1775 H   0  0  0  0  0  0  0  0  0  0  0  0
  143.9905  144.2439  155.2498 H   0  0  0  0  0  0  0  0  0  0  0  0
  144.0717  143.6867  153.5737 H   0  0  0  0  0  0  0  0  0  0  0  0
  144.6386  141.2882  154.0854 H   0  0  0  0  0  0  0  0  0  0  0  0
  1  2  1  0  0  0  0
  1 24  1  0  0  0  0
  1 25  1  0  0  0  0
  1 26  1  0  0  0  0
  2  3  1  0  0  0  0
  2 27  1  0  0  0  0
  2 28  1  0  0  0  0
  3 22  1  0  0  0  0
  3  4  1  0  0  0  0
  3 53  1  0  0  0  0
  4  5  1  0  0  0  0
  4 29  1  0  0  0  0
  4 30  1  0  0  0  0
  5  6  1  0  0  0  0
  5 31  1  0  0  0  0
  5 32  1  0  0  0  0
  6  7  1  0  0  0  0
  6 21  1  0  0  0  0
  6 33  1  0  0  0  0
  7  8  1  0  0  0  0
  7 34  1  0  0  0  0
  8  9  2  0  0  0  0
  8 10  1  0  0  0  0
 10 11  1  0  0  0  0
 10 35  1  0  0  0  0
 11 20  1  0  0  0  0
 11 12  2  0  0  0  0
 12 13  1  0  0  0  0
 12 36  1  0  0  0  0
 13 14  2  0  0  0  0
 14 15  1  0  0  0  0
 14 19  1  0  0  0  0
 15 16  1  0  0  0  0
 15 17  1  0  0  0  0
 15 18  1  0  0  0  0
 16 37  1  0  0  0  0
 16 38  1  0  0  0  0
 16 39  1  0  0  0  0
 17 40  1  0  0  0  0
 17 41  1  0  0  0  0
 17 42  1  0  0  0  0
 18 43  1  0  0  0  0
 18 44  1  0  0  0  0
 18 45  1  0  0  0  0
 19 20  2  0  0  0  0
 20 46  1  0  0  0  0
 21 22  1  0  0  0  0
 21 47  1  0  0  0  0
 21 48  1  0  0  0  0
 22 23  1  0  0  0  0
 22 49  1  0  0  0  0
 23 50  1  0  0  0  0
 23 51  1  0  0  0  0
 23 52  1  0  0  0  0
M  CHG  1   3   1
M  END
> <s_m_source_file>
AV-unprocessed.smi

> <i_m_source_file_index>
2710

> <i_lp_mmshare_version>
43012

> <i_f3d_flags>
0

> <s_epik_input>
W0NIM11bQ0gyXU4xW0NIMl1bQ0gyXVtDQEhdKFtDSDJdW0NASF0xW0NIM10pW05IXUMoPU8pW05IXWMyW2NIXW5jKEMoW0NIM10pKFtDSDNdKVtDSDNdKW5bY0hdMg==

> <s_epik_cmdline>
J2VwaWtfcHl0aG9uJywgJy1waCcsICc3LjAnLCAnLXRuJywgJzgnLCAnLW1hJywgJzIwMCcsICctbWV0YWxfYmluZGluZycsICctaW1hZScsICc8aW5maWxlLm1hZT4nLCAnLW9tYWUnLCAnPG91dGZpbGUubWFlPic=

> <r_lp_tautomer_probability>
1

> <r_epik_Ionization_Penalty>
0.00396003

> <r_epik_Ionization_Penalty_Charging>
0.0039379

> <r_epik_Ionization_Penalty_Neutral>
2.21316e-05

> <r_epik_State_Penalty>
0.00281651

> <r_epik_Charging_Adjusted_Penalty>
0.00675441

> <i_epik_Tot_Q>
1

> <i_epik_Tot_abs_Q>
1

> <r_epik_Metal_State_Penalty>
-0

> <b_epik_Metal_Only>
0

> <s_lp_Force_Field>
OPLS_2005

> <r_lp_Energy>
19.072

> <b_lp_Chiralities_Consistent>
1

> <s_lp_Variant>
AV-unprocessed.smi:2710-3

> <Gold.Version>
5.8.1

> <Gold.Id.Protein>
6NUR|6NUR_protein|mol2

> <Gold.PLP.Fitness>
48.8196

> <Gold.PLP.PLP>
-37.3519

> <Gold.PLP.part.hbond>
-3.1809

> <Gold.PLP.part.metal>
0.0000

> <Gold.PLP.part.buried>
-5.9933

> <Gold.PLP.part.nonpolar>
-27.8608

> <Gold.PLP.part.repulsive>
0.2420

> <Gold.PLP.ligand.clash>
0.0000

> <Gold.PLP.ligand.torsion>
0.2756

> <Gold.PLP.Chemscore.Hbond>
3.9440

> <Gold.PLP.Chemscore.CHOScore>
0.0000

> <Gold.PLP.Chemscore.Metal>
0.0000

> <Gold.Chemscore.Hbonds>
donor molecule, donor type, donor heavy atom, donor atom, acceptor molecule, acceptor atom, score
      L1  H     3    53       P1 10175  2.00
      L1  H     7    34       P1  8028  1.00
      P1  H  7997  8008       L1    13  0.92

> <Gold.PLP.Chemscore.Internal.Correction>
0.1869

> <Gold.Rescore>
     Score         DG    S(hbond)    S(metal)    S(lipo)     H(rot)  DE(clash)    DE(int)     intcor
     17.33     -20.00       2.41        0.00      84.05       1.31       0.40       2.27       ----

> <Gold.Chemscore.Fitness>
17.3348

> <Gold.Chemscore.DG>
-19.9981

> <Gold.Chemscore.ZeroCoef>
-5.4800

> <Gold.Chemscore.Hbond>
2.4052

> <Gold.Chemscore.Metal>
0.0000

> <Gold.Chemscore.Lipo>
84.0482

> <Gold.Chemscore.Internal_Hbond>
0.0000

> <Gold.Chemscore.DEClash>
0.3982

> <Gold.Chemscore.DEInternal>
2.2650

> <Gold.Chemscore.Rot>
1.3081

> <Gold.Chemscore.Internal.Correction>
   9.000000E+99

> <Gold.Chemscore.Hbonds>
donor molecule, donor type, donor heavy atom, donor atom, acceptor molecule, acceptor atom, score
      L1  H     3    53       P1 10175  0.52
      L1  H     7    34       P1  8028  0.94
      L1  H    10    35       P1  8028  0.01
      P1  H  7997  8008       L1    13  0.24

> <Gold.Chemscore.Hbond.Weighted>
-8.0332

> <Gold.Chemscore.Metal.Weighted>
-0.0000

> <Gold.Chemscore.Lipo.Weighted>
-9.8336

> <Gold.Chemscore.Internal_Hbond.Weighted>
0.0000

> <Gold.Chemscore.DEClash.Weighted>
0.3982

> <Gold.Chemscore.DEInternal.Weighted>
2.2650

> <Gold.Chemscore.Rot.Weighted>
3.3488

> <Gold.Chemscore.Internal.Correction.Weighted>
   9.000000E+99

> <Gold.Protein.RotatedTorsions>
[ 6907 6896 6895 6894 ] final  -91.38 input  -60.11 | X-H torsion
[ 7974 7965 7964 7962 ] final -119.70 input  175.53 | X-H torsion
[ 8008 7997 7996 7995 ] final  -96.78 input   59.86 | X-H torsion
[ 10167 10162 10161 10158 ] final  157.39 input  -65.29 | X-H torsion
[ 10718 10713 10712 10709 ] final   42.55 input   66.30 | X-H torsion
[ 10763 10752 10751 10750 ] final  -49.83 input  -60.55 | X-H torsion
[ 11005 11000 10999 10996 ] final   59.98 input  -57.11 | X-H torsion

> <Gold.Protein.ActiveResidues>
 VAL166  LYS551  ARG553  GLY616  TRP617  ASP618  TYR619  PRO620  LYS621  CYS622 
 ASP623  PHE694  ASN695  SER759  ASP760  ASP761  ALA762  ILE779  LEU786  VAL792 
 PHE793  MET794  SER795  GLU796  ALA797  LYS798  CYS799  TRP800  GLU811  SER814 

> <Gold.Protein.RotatedAtoms>
  150.6892  134.2286  159.4425 H   0  0  0  0  0  0  0  0  0  0  0  0  # atno 6907 bound_to 6896
  152.0238  134.9805  160.0580 H   0  0  0  0  0  0  0  0  0  0  0  0  # atno 6908 bound_to 6896
  152.1371  133.4407  159.4786 H   0  0  0  0  0  0  0  0  0  0  0  0  # atno 6909 bound_to 6896
  145.0596  140.8280  143.4160 H   0  0  0  0  0  0  0  0  0  0  0  0  # atno 7974 bound_to 7965
  154.7790  140.0468  157.1112 H   0  0  0  0  0  0  0  0  0  0  0  0  # atno 8008 bound_to 7997
  154.9728  140.3091  155.4961 H   0  0  0  0  0  0  0  0  0  0  0  0  # atno 8009 bound_to 7997
  156.2933  140.2250  156.4822 H   0  0  0  0  0  0  0  0  0  0  0  0  # atno 8010 bound_to 7997
  139.4823  144.4922  151.8292 H   0  0  0  0  0  0  0  0  0  0  0  0  # atno 10167 bound_to 10162
  157.4061  130.7887  149.7390 H   0  0  0  0  0  0  0  0  0  0  0  0  # atno 10718 bound_to 10713
  154.1005  135.6564  153.4867 H   0  0  0  0  0  0  0  0  0  0  0  0  # atno 10763 bound_to 10752
  153.0290  135.5224  154.7291 H   0  0  0  0  0  0  0  0  0  0  0  0  # atno 10764 bound_to 10752
  154.6442  135.2992  155.0035 H   0  0  0  0  0  0  0  0  0  0  0  0  # atno 10765 bound_to 10752
  140.0265  134.6076  155.9566 H   0  0  0  0  0  0  0  0  0  0  0  0  # atno 11005 bound_to 11000
  145.1425  139.2563  143.5482 LP  0  0  0  0  0  0  0  0  0  0  0  0  # atno 17320 bound_to 7965
  146.3523  140.1106  142.8604 LP  0  0  0  0  0  0  0  0  0  0  0  0  # atno 17321 bound_to 7965
  140.4407  144.1990  150.5891 LP  0  0  0  0  0  0  0  0  0  0  0  0  # atno 17342 bound_to 10162
  140.4686  143.2421  151.9120 LP  0  0  0  0  0  0  0  0  0  0  0  0  # atno 17343 bound_to 10162
  155.9837  130.3998  150.3351 LP  0  0  0  0  0  0  0  0  0  0  0  0  # atno 17370 bound_to 10713
  157.1484  131.0314  151.2896 LP  0  0  0  0  0  0  0  0  0  0  0  0  # atno 17371 bound_to 10713
  141.1805  133.6546  156.5002 LP  0  0  0  0  0  0  0  0  0  0  0  0  # atno 17394 bound_to 11000
  140.4298  134.7112  157.4936 LP  0  0  0  0  0  0  0  0  0  0  0  0  # atno 17395 bound_to 11000

$$$$
