#       Name:                AV-unprocessed.smi:1824
#       Creating user name   scv26
#       Creation time:       Fri Mar 27 09:06:56 2020


#       File generated by GOLD software.
#

@<TRIPOS>MOLECULE
AV-unprocessed.smi:1824
    50    52     1
SMALL
NO_CHARGES


@<TRIPOS>ATOM
      1 ****        -4.9908   2.2655   1.6941 C.3            1 S1                 0.0000
      2 ****        -3.5555   2.2208   1.1599 C.3            1 S1                 0.0000
      3 ****        -2.9064   0.8394   1.3578 C.3            1 S1                 0.0000
      4 ****        -1.5705   0.7750   0.7787 N.3            1 S1                 0.0000
      5 ****        -0.9573  -0.5316   1.0231 C.3            1 S1                 0.0000
      6 ****         0.5465  -0.6340   0.6966 C.3            1 S1                 0.0000
      7 ****         1.2661   0.1782   1.6045 O.3            1 S1                 0.0000
      8 ****         1.0509  -2.0852   0.8086 C.3            1 S1                 0.0000
      9 ****         2.4600  -2.2089   0.4801 N.pl3          1 S1                 0.0000
     10 ****         3.4871  -2.3575   1.3387 C.2            1 S1                 0.0000
     11 ****         4.7076  -2.4504   0.8183 N.2            1 S1                 0.0000
     12 ****         4.4422  -2.3508  -0.5367 C.ar           1 S1                 0.0000
     13 ****         5.3158  -2.3764  -1.6474 C.ar           1 S1                 0.0000
     14 ****         4.8093  -2.2564  -2.9582 C.ar           1 S1                 0.0000
     15 ****         5.6603  -2.2828  -4.0112 F              1 S1                 0.0000
     16 ****         3.4235  -2.1096  -3.1782 C.ar           1 S1                 0.0000
     17 ****         2.9458  -1.9952  -4.4400 F              1 S1                 0.0000
     18 ****         2.5337  -2.0813  -2.0872 C.ar           1 S1                 0.0000
     19 ****         3.0439  -2.2009  -0.7816 C.ar           1 S1                 0.0000
     20 ****        -1.6553   1.1040  -0.6435 C.3            1 S1                 0.0000
     21 ****        -2.3309   2.4660  -0.9014 C.3            1 S1                 0.0000
     22 ****        -1.4348   3.6653  -0.5488 C.3            1 S1                 0.0000
     23 ****        -3.5910   2.5306  -0.2318 O.3            1 S1                 0.0000
     24 ****        -5.0189   2.0484   2.7621 H              1 S1                 0.0000
     25 ****        -5.6236   1.5367   1.1869 H              1 S1                 0.0000
     26 ****        -5.4315   3.2514   1.5439 H              1 S1                 0.0000
     27 ****        -2.9708   2.9768   1.6847 H              1 S1                 0.0000
     28 ****        -2.8561   0.6195   2.4250 H              1 S1                 0.0000
     29 ****        -3.5394   0.0704   0.9113 H              1 S1                 0.0000
     30 ****        -1.0922  -0.8021   2.0717 H              1 S1                 0.0000
     31 ****        -1.4996  -1.2880   0.4536 H              1 S1                 0.0000
     32 ****         0.7487  -0.2802  -0.3133 H              1 S1                 0.0000
     33 ****         1.0651  -0.1027   2.4839 H              1 S1                 0.0000
     34 ****         0.8897  -2.4712   1.8163 H              1 S1                 0.0000
     35 ****         0.4891  -2.7317   0.1335 H              1 S1                 0.0000
     36 ****         3.3299  -2.3967   2.4068 H              1 S1                 0.0000
     37 ****         6.3783  -2.4882  -1.4913 H              1 S1                 0.0000
     38 ****         1.4727  -1.9678  -2.2517 H              1 S1                 0.0000
     39 ****        -0.6658   1.1159  -1.0982 H              1 S1                 0.0000
     40 ****        -2.2216   0.3277  -1.1604 H              1 S1                 0.0000
     41 ****        -2.5481   2.5350  -1.9677 H              1 S1                 0.0000
     42 ****        -0.5289   3.6633  -1.1554 H              1 S1                 0.0000
     43 ****        -1.1255   3.6533   0.4961 H              1 S1                 0.0000
     44 ****        -1.9537   4.6061  -0.7336 H              1 S1                 0.0000
     45 ****        -0.9727   1.4456   1.2180 LP             1 S1                 0.0000
     46 ****         0.9983   1.1344   1.4866 LP             1 S1                 0.0000
     47 ****         2.2474   0.0838   1.4365 LP             1 S1                 0.0000
     48 ****         5.5858  -2.5626   1.2834 LP             1 S1                 0.0000
     49 ****        -3.9479   3.4592  -0.3330 LP             1 S1                 0.0000
     50 ****        -4.2113   1.8847  -0.6768 LP             1 S1                 0.0000
@<TRIPOS>BOND
    1    1    2 1     
    2    1   24 1     
    3    1   25 1     
    4    1   26 1     
    5    2   23 1     
    6    2    3 1     
    7    2   27 1     
    8    3    4 1     
    9    3   28 1     
   10    3   29 1     
   11    4    5 1     
   12    4   20 1     
   13    5    6 1     
   14    5   30 1     
   15    5   31 1     
   16    6    7 1     
   17    6    8 1     
   18    6   32 1     
   19    7   33 1     
   20    8    9 1     
   21    8   34 1     
   22    8   35 1     
   23    9   19 1     
   24    9   10 1     
   25   10   11 2     
   26   10   36 1     
   27   11   12 1     
   28   12   19 ar    
   29   12   13 ar    
   30   13   14 ar    
   31   13   37 1     
   32   14   15 1     
   33   14   16 ar    
   34   16   17 1     
   35   16   18 ar    
   36   18   19 ar    
   37   18   38 1     
   38   20   21 1     
   39   20   39 1     
   40   20   40 1     
   41   21   22 1     
   42   21   23 1     
   43   21   41 1     
   44   22   42 1     
   45   22   43 1     
   46   22   44 1     
   47    4   45 1     
   48    7   46 1     
   49    7   47 1     
   50   11   48 1     
   51   23   49 1     
   52   23   50 1     
@<TRIPOS>SUBSTRUCTURE
      1 S1             1
@<TRIPOS>SET
LONE_PAIRS      STATIC     ATOMS    <user>   **** ""
6 45 46 47 48 49 50
DONOR_HYDROGENS      STATIC     ATOMS    <user>   **** ""
1 33
ATOM$BLUE        STATIC     ATOMS    COLORGROUP SYSTEM
6 45 46 47 48 49 50
ATOM$RED        STATIC     ATOMS    COLORGROUP SYSTEM
1 33
