AV-unprocessed.smi:1795|AV-procd|sdf|7244|dock8
  -GOLD-   22720 8493D 1   1.00000     0.00000
 Structure written by MMmdl.
 48 49  0  0  0  0  0  0  0  0  2 V2000
  148.6656  141.7145  154.4184 C   0  0  0  0  0  0  0  0  0  0  0  0
  149.1768  140.3224  154.8050 C   0  0  1  0  0  0  0  0  0  0  0  0
  148.6196  139.2222  153.8728 C   0  0  0  0  0  0  0  0  0  0  0  0
  149.2039  137.8878  154.1832 N   0  3  2  0  0  0  0  0  0  0  0  0
  148.6141  137.2206  155.3927 C   0  0  2  0  0  0  0  0  0  0  0  0
  148.8467  138.0130  156.7025 C   0  0  0  0  0  0  0  0  0  0  0  0
  149.1699  135.7778  155.5430 C   0  0  0  0  0  0  0  0  0  0  0  0
  149.0304  134.9883  154.3244 N   0  0  0  0  0  0  0  0  0  0  0  0
  148.8137  133.6641  154.2862 C   0  0  0  0  0  0  0  0  0  0  0  0
  148.6725  132.9749  155.2959 O   0  0  0  0  0  0  0  0  0  0  0  0
  148.7738  133.0105  152.9008 C   0  0  0  0  0  0  0  0  0  0  0  0
  147.4017  132.6656  152.4946 N   0  0  0  0  0  0  0  0  0  0  0  0
  146.7208  133.6100  151.7009 C   0  0  0  0  0  0  0  0  0  0  0  0
  145.4633  133.4079  151.2765 C   0  0  0  0  0  0  0  0  0  0  0  0
  144.8062  132.1785  151.6515 C   0  0  0  0  0  0  0  0  0  0  0  0
  145.4452  131.2712  152.4160 C   0  0  0  0  0  0  0  0  0  0  0  0
  146.8157  131.4932  152.8911 C   0  0  0  0  0  0  0  0  0  0  0  0
  147.3974  130.6789  153.6083 O   0  0  0  0  0  0  0  0  0  0  0  0
  150.6870  138.0030  154.1358 C   0  0  0  0  0  0  0  0  0  0  0  0
  151.1909  139.0978  155.0981 C   0  0  1  0  0  0  0  0  0  0  0  0
  152.7134  139.2627  155.0383 C   0  0  0  0  0  0  0  0  0  0  0  0
  150.5983  140.3367  154.7228 O   0  0  0  0  0  0  0  0  0  0  0  0
  147.5777  141.7632  154.4746 H   0  0  0  0  0  0  0  0  0  0  0  0
  148.9605  141.9764  153.4019 H   0  0  0  0  0  0  0  0  0  0  0  0
  149.0664  142.4762  155.0878 H   0  0  0  0  0  0  0  0  0  0  0  0
  148.8823  140.1326  155.8376 H   0  0  0  0  0  0  0  0  0  0  0  0
  147.5326  139.2138  153.9079 H   0  0  0  0  0  0  0  0  0  0  0  0
  148.8743  139.4661  152.8404 H   0  0  0  0  0  0  0  0  0  0  0  0
  147.5352  137.1638  155.2554 H   0  0  0  0  0  0  0  0  0  0  0  0
  148.4534  137.4857  157.5716 H   0  0  0  0  0  0  0  0  0  0  0  0
  148.3377  138.9765  156.6948 H   0  0  0  0  0  0  0  0  0  0  0  0
  149.9083  138.1868  156.8800 H   0  0  0  0  0  0  0  0  0  0  0  0
  150.2212  135.7626  155.8255 H   0  0  0  0  0  0  0  0  0  0  0  0
  148.6364  135.2593  156.3402 H   0  0  0  0  0  0  0  0  0  0  0  0
  149.1317  135.4776  153.4460 H   0  0  0  0  0  0  0  0  0  0  0  0
  149.2171  133.6911  152.1718 H   0  0  0  0  0  0  0  0  0  0  0  0
  149.4243  132.1342  152.8995 H   0  0  0  0  0  0  0  0  0  0  0  0
  147.2822  134.5039  151.4695 H   0  0  0  0  0  0  0  0  0  0  0  0
  144.9560  134.1457  150.6724 H   0  0  0  0  0  0  0  0  0  0  0  0
  143.7979  131.9846  151.3163 H   0  0  0  0  0  0  0  0  0  0  0  0
  144.9380  130.3563  152.6856 H   0  0  0  0  0  0  0  0  0  0  0  0
  151.1843  137.0504  154.3115 H   0  0  0  0  0  0  0  0  0  0  0  0
  150.9675  138.2745  153.1168 H   0  0  0  0  0  0  0  0  0  0  0  0
  150.9104  138.8582  156.1250 H   0  0  0  0  0  0  0  0  0  0  0  0
  153.2196  138.3407  155.3253 H   0  0  0  0  0  0  0  0  0  0  0  0
  153.0471  140.0487  155.7162 H   0  0  0  0  0  0  0  0  0  0  0  0
  153.0437  139.5278  154.0335 H   0  0  0  0  0  0  0  0  0  0  0  0
  148.9595  137.2825  153.4123 H   0  0  0  0  0  0  0  0  0  0  0  0
  1  2  1  0  0  0  0
  1 23  1  0  0  0  0
  1 24  1  0  0  0  0
  1 25  1  0  0  0  0
  2 22  1  0  0  0  0
  2  3  1  0  0  0  0
  2 26  1  0  0  0  0
  3  4  1  0  0  0  0
  3 27  1  0  0  0  0
  3 28  1  0  0  0  0
  4  5  1  0  0  0  0
  4 19  1  0  0  0  0
  4 48  1  0  0  0  0
  5  6  1  0  0  0  0
  5  7  1  0  0  0  0
  5 29  1  0  0  0  0
  6 30  1  0  0  0  0
  6 31  1  0  0  0  0
  6 32  1  0  0  0  0
  7  8  1  0  0  0  0
  7 33  1  0  0  0  0
  7 34  1  0  0  0  0
  8  9  1  0  0  0  0
  8 35  1  0  0  0  0
  9 10  2  0  0  0  0
  9 11  1  0  0  0  0
 11 12  1  0  0  0  0
 11 36  1  0  0  0  0
 11 37  1  0  0  0  0
 12 17  1  0  0  0  0
 12 13  1  0  0  0  0
 13 14  2  0  0  0  0
 13 38  1  0  0  0  0
 14 15  1  0  0  0  0
 14 39  1  0  0  0  0
 15 16  2  0  0  0  0
 15 40  1  0  0  0  0
 16 17  1  0  0  0  0
 16 41  1  0  0  0  0
 17 18  2  0  0  0  0
 19 20  1  0  0  0  0
 19 42  1  0  0  0  0
 19 43  1  0  0  0  0
 20 21  1  0  0  0  0
 20 22  1  0  0  0  0
 20 44  1  0  0  0  0
 21 45  1  0  0  0  0
 21 46  1  0  0  0  0
 21 47  1  0  0  0  0
M  CHG  1   4   1
M  END
> <s_m_source_file>
AV-unprocessed.smi

> <i_m_source_file_index>
1795

> <i_lp_mmshare_version>
43012

> <i_f3d_flags>
0

> <s_epik_input>
W0NIM11bQ0BASF0xW0NIMl1OKFtDSDJdW0NASF0oTzEpW0NIM10pW0NASF0oW0NIM10pW0NIMl1bTkhdQyg9TylbQ0gyXW4yW2NIXVtjSF1bY0hdW2NIXWMyPU8=

> <s_epik_cmdline>
J2VwaWtfcHl0aG9uJywgJy1waCcsICc3LjAnLCAnLXRuJywgJzgnLCAnLW1hJywgJzIwMCcsICctbWV0YWxfYmluZGluZycsICctaW1hZScsICc8aW5maWxlLm1hZT4nLCAnLW9tYWUnLCAnPG91dGZpbGUubWFlPic=

> <r_lp_tautomer_probability>
1

> <r_epik_Ionization_Penalty>
0.656654

> <r_epik_Ionization_Penalty_Charging>
0.656654

> <r_epik_Ionization_Penalty_Neutral>
8.90321e-08

> <r_epik_State_Penalty>
0.675641

> <r_epik_Charging_Adjusted_Penalty>
1.33229

> <i_epik_Tot_Q>
1

> <i_epik_Tot_abs_Q>
1

> <r_epik_Metal_State_Penalty>
0.675691

> <b_epik_Metal_Only>
0

> <s_lp_Force_Field>
OPLS_2005

> <r_lp_Energy>
32.228

> <b_lp_Chiralities_Consistent>
1

> <s_lp_Variant>
AV-unprocessed.smi:1795-8

> <Gold.Version>
5.8.1

> <Gold.Id.Protein>
6NUR|6NUR_protein|mol2

> <Gold.PLP.Fitness>
51.5832

> <Gold.PLP.PLP>
-38.0390

> <Gold.PLP.part.hbond>
-3.0000

> <Gold.PLP.part.metal>
0.0000

> <Gold.PLP.part.buried>
-0.9639

> <Gold.PLP.part.nonpolar>
-32.9894

> <Gold.PLP.part.repulsive>
0.2088

> <Gold.PLP.ligand.clash>
0.0000

> <Gold.PLP.ligand.torsion>
0.7556

> <Gold.PLP.Chemscore.Hbond>
4.0000

> <Gold.PLP.Chemscore.CHOScore>
0.9989

> <Gold.PLP.Chemscore.Metal>
0.0000

> <Gold.Chemscore.Hbonds>
donor molecule, donor type, donor heavy atom, donor atom, acceptor molecule, acceptor atom, score
      L1  H     4    48       P1  7948  2.00
      L1  H     8    35       P1  7948  1.00
      P1  H  7989  7998       L1    22  1.00
      L1  C    13    38       P1  7948  1.00

> <Gold.PLP.Chemscore.Internal.Correction>
0.0585

> <Gold.Rescore>
     Score         DG    S(hbond)    S(metal)    S(lipo)     H(rot)  DE(clash)    DE(int)     intcor
     16.42     -18.51       2.57        0.00      79.43       1.89       0.08       2.01       ----

> <Gold.Chemscore.Fitness>
16.4231

> <Gold.Chemscore.DG>
-18.5134

> <Gold.Chemscore.ZeroCoef>
-5.4800

> <Gold.Chemscore.Hbond>
2.5660

> <Gold.Chemscore.Metal>
0.0000

> <Gold.Chemscore.Lipo>
79.4331

> <Gold.Chemscore.Internal_Hbond>
0.0000

> <Gold.Chemscore.DEClash>
0.0825

> <Gold.Chemscore.DEInternal>
2.0078

> <Gold.Chemscore.Rot>
1.8870

> <Gold.Chemscore.Internal.Correction>
   9.000000E+99

> <Gold.Chemscore.Hbonds>
donor molecule, donor type, donor heavy atom, donor atom, acceptor molecule, acceptor atom, score
      L1  H     4    48       P1  7948  1.00
      L1  H     8    35       P1  7948  0.50
      P1  H  7989  7998       L1    22  0.39

> <Gold.Chemscore.Hbond.Weighted>
-8.5705

> <Gold.Chemscore.Metal.Weighted>
-0.0000

> <Gold.Chemscore.Lipo.Weighted>
-9.2937

> <Gold.Chemscore.Internal_Hbond.Weighted>
0.0000

> <Gold.Chemscore.DEClash.Weighted>
0.0825

> <Gold.Chemscore.DEInternal.Weighted>
2.0078

> <Gold.Chemscore.Rot.Weighted>
4.8308

> <Gold.Chemscore.Internal.Correction.Weighted>
   9.000000E+99

> <Gold.Protein.RotatedTorsions>
[ 6907 6896 6895 6894 ] final   30.53 input  -60.11 | X-H torsion
[ 7974 7965 7964 7962 ] final  163.50 input  175.53 | X-H torsion
[ 8008 7997 7996 7995 ] final  -59.81 input   59.86 | X-H torsion
[ 10167 10162 10161 10158 ] final   54.46 input  -65.29 | X-H torsion
[ 10718 10713 10712 10709 ] final   80.86 input   66.30 | X-H torsion
[ 10763 10752 10751 10750 ] final  -88.07 input  -60.55 | X-H torsion
[ 11005 11000 10999 10996 ] final -155.77 input  -57.11 | X-H torsion

> <Gold.Protein.ActiveResidues>
 VAL166  LYS551  ARG553  GLY616  TRP617  ASP618  TYR619  PRO620  LYS621  CYS622 
 ASP623  PHE694  ASN695  SER759  ASP760  ASP761  ALA762  ILE779  LEU786  VAL792 
 PHE793  MET794  SER795  GLU796  ALA797  LYS798  CYS799  TRP800  GLU811  SER814 

> <Gold.Protein.RotatedAtoms>
  152.0473  134.9675  160.0574 H   0  0  0  0  0  0  0  0  0  0  0  0  # atno 6907 bound_to 6896
  152.1090  133.4286  159.4630 H   0  0  0  0  0  0  0  0  0  0  0  0  # atno 6908 bound_to 6896
  150.6842  134.2589  159.4584 H   0  0  0  0  0  0  0  0  0  0  0  0  # atno 6909 bound_to 6896
  144.7587  139.8191  143.6340 H   0  0  0  0  0  0  0  0  0  0  0  0  # atno 7974 bound_to 7965
  154.4369  140.1053  156.6174 H   0  0  0  0  0  0  0  0  0  0  0  0  # atno 8008 bound_to 7997
  155.5744  140.3490  155.4505 H   0  0  0  0  0  0  0  0  0  0  0  0  # atno 8009 bound_to 7997
  156.0365  140.1272  157.0191 H   0  0  0  0  0  0  0  0  0  0  0  0  # atno 8010 bound_to 7997
  140.2299  144.3698  150.6418 H   0  0  0  0  0  0  0  0  0  0  0  0  # atno 10167 bound_to 10162
  157.6817  130.9978  150.2141 H   0  0  0  0  0  0  0  0  0  0  0  0  # atno 10718 bound_to 10713
  154.6405  135.5390  153.7784 H   0  0  0  0  0  0  0  0  0  0  0  0  # atno 10763 bound_to 10752
  153.0331  135.6458  154.1167 H   0  0  0  0  0  0  0  0  0  0  0  0  # atno 10764 bound_to 10752
  154.1091  135.2928  155.3214 H   0  0  0  0  0  0  0  0  0  0  0  0  # atno 10765 bound_to 10752
  140.6828  134.4126  157.5225 H   0  0  0  0  0  0  0  0  0  0  0  0  # atno 11005 bound_to 11000
  146.1627  139.4747  142.9978 LP  0  0  0  0  0  0  0  0  0  0  0  0  # atno 17320 bound_to 7965
  145.6691  141.0221  143.1667 LP  0  0  0  0  0  0  0  0  0  0  0  0  # atno 17321 bound_to 7965
  140.6193  143.2175  151.6728 LP  0  0  0  0  0  0  0  0  0  0  0  0  # atno 17342 bound_to 10162
  139.5113  144.3512  152.0650 LP  0  0  0  0  0  0  0  0  0  0  0  0  # atno 17343 bound_to 10162
  156.2806  130.3733  149.7939 LP  0  0  0  0  0  0  0  0  0  0  0  0  # atno 17370 bound_to 10713
  156.5629  130.8391  151.3334 LP  0  0  0  0  0  0  0  0  0  0  0  0  # atno 17371 bound_to 10713
  139.8946  134.8701  156.2167 LP  0  0  0  0  0  0  0  0  0  0  0  0  # atno 17394 bound_to 11000
  141.0304  133.6992  156.1420 LP  0  0  0  0  0  0  0  0  0  0  0  0  # atno 17395 bound_to 11000

$$$$
