AV-unprocessed.smi:2746|AV-procd|sdf|10573|dock7
  -GOLD-   2272015 23D 1   1.00000     0.00000
 Structure written by MMmdl.
 39 40  0  0  0  0  0  0  0  0  2 V2000
  146.5163  133.3280  150.3993 C   0  0  0  0  0  0  0  0  0  0  0  0
  146.5191  134.0362  151.5420 C   0  0  0  0  0  0  0  0  0  0  0  0
  145.5680  135.1648  151.9205 C   0  0  2  0  0  0  0  0  0  0  0  0
  144.6192  135.4955  150.7611 C   0  0  0  0  0  0  0  0  0  0  0  0
  146.2715  136.3793  152.3323 N   0  0  0  0  0  0  0  0  0  0  0  0
  145.7222  137.4339  152.9576 C   0  0  0  0  0  0  0  0  0  0  0  0
  144.5229  137.5307  153.2183 O   0  0  0  0  0  0  0  0  0  0  0  0
  146.6667  138.5526  153.2841 C   0  0  0  0  0  0  0  0  0  0  0  0
  147.8787  138.3409  153.9831 C   0  0  0  0  0  0  0  0  0  0  0  0
  148.7108  139.4435  154.2904 C   0  0  0  0  0  0  0  0  0  0  0  0
  149.9199  139.2877  154.9815 N   0  0  0  0  0  0  0  0  0  0  0  0
  150.3668  140.5057  155.6458 C   0  0  0  0  0  0  0  0  0  0  0  0
  151.6261  140.2169  156.4813 C   0  0  0  0  0  0  0  0  0  0  0  0
  152.6331  139.6532  155.6458 O   0  0  0  0  0  0  0  0  0  0  0  0
  152.2163  138.4226  155.0610 C   0  0  0  0  0  0  0  0  0  0  0  0
  150.9721  138.6631  154.1885 C   0  0  0  0  0  0  0  0  0  0  0  0
  148.3063  140.7347  153.8910 C   0  0  0  0  0  0  0  0  0  0  0  0
  147.0851  140.8936  153.2071 C   0  0  0  0  0  0  0  0  0  0  0  0
  146.3204  139.8138  152.9374 N   0  3  0  0  0  0  0  0  0  0  0  0
  145.8012  133.5082  149.6104 H   0  0  0  0  0  0  0  0  0  0  0  0
  147.2438  132.5459  150.2390 H   0  0  0  0  0  0  0  0  0  0  0  0
  147.2665  133.7971  152.2847 H   0  0  0  0  0  0  0  0  0  0  0  0
  144.9588  134.7938  152.7464 H   0  0  0  0  0  0  0  0  0  0  0  0
  144.0507  134.6164  150.4554 H   0  0  0  0  0  0  0  0  0  0  0  0
  145.1662  135.8570  149.8896 H   0  0  0  0  0  0  0  0  0  0  0  0
  143.9025  136.2658  151.0479 H   0  0  0  0  0  0  0  0  0  0  0  0
  147.2617  136.4105  152.1376 H   0  0  0  0  0  0  0  0  0  0  0  0
  148.1683  137.3458  154.2887 H   0  0  0  0  0  0  0  0  0  0  0  0
  150.5862  141.2740  154.9030 H   0  0  0  0  0  0  0  0  0  0  0  0
  149.5729  140.8916  156.2865 H   0  0  0  0  0  0  0  0  0  0  0  0
  152.0046  141.1390  156.9226 H   0  0  0  0  0  0  0  0  0  0  0  0
  151.3999  139.5379  157.3049 H   0  0  0  0  0  0  0  0  0  0  0  0
  153.0296  138.0235  154.4546 H   0  0  0  0  0  0  0  0  0  0  0  0
  152.0095  137.6883  155.8413 H   0  0  0  0  0  0  0  0  0  0  0  0
  150.6145  137.7178  153.7780 H   0  0  0  0  0  0  0  0  0  0  0  0
  151.2346  139.3034  153.3454 H   0  0  0  0  0  0  0  0  0  0  0  0
  148.9207  141.5957  154.1118 H   0  0  0  0  0  0  0  0  0  0  0  0
  146.6974  141.8450  152.8736 H   0  0  0  0  0  0  0  0  0  0  0  0
  145.4359  139.9524  152.4472 H   0  0  0  0  0  0  0  0  0  0  0  0
  1  2  2  0  0  0  0
  1 20  1  0  0  0  0
  1 21  1  0  0  0  0
  2  3  1  0  0  0  0
  2 22  1  0  0  0  0
  3  4  1  0  0  0  0
  3  5  1  0  0  0  0
  3 23  1  0  0  0  0
  4 24  1  0  0  0  0
  4 25  1  0  0  0  0
  4 26  1  0  0  0  0
  5  6  1  0  0  0  0
  5 27  1  0  0  0  0
  6  7  2  0  0  0  0
  6  8  1  0  0  0  0
  8 19  1  0  0  0  0
  8  9  2  0  0  0  0
  9 10  1  0  0  0  0
  9 28  1  0  0  0  0
 10 11  1  0  0  0  0
 10 17  2  0  0  0  0
 11 16  1  0  0  0  0
 11 12  1  0  0  0  0
 12 13  1  0  0  0  0
 12 29  1  0  0  0  0
 12 30  1  0  0  0  0
 13 14  1  0  0  0  0
 13 31  1  0  0  0  0
 13 32  1  0  0  0  0
 14 15  1  0  0  0  0
 15 16  1  0  0  0  0
 15 33  1  0  0  0  0
 15 34  1  0  0  0  0
 16 35  1  0  0  0  0
 16 36  1  0  0  0  0
 17 18  1  0  0  0  0
 17 37  1  0  0  0  0
 18 19  2  0  0  0  0
 18 38  1  0  0  0  0
 19 39  1  0  0  0  0
M  CHG  1  19   1
M  END
> <s_m_source_file>
AV-unprocessed.smi

> <i_m_source_file_index>
2746

> <i_lp_mmshare_version>
43012

> <i_f3d_flags>
0

> <s_epik_input>
W0NIMl09W0NIXVtDQEhdKFtDSDNdKVtOSF1DKD1PKWMxW2NIXWMoW2NIXVtjSF1uMSlOMltDSDJdW0NIMl1PW0NIMl1bQ0gyXTI=

> <s_epik_cmdline>
J2VwaWtfcHl0aG9uJywgJy1waCcsICc3LjAnLCAnLXRuJywgJzgnLCAnLW1hJywgJzIwMCcsICctbWV0YWxfYmluZGluZycsICctaW1hZScsICc8aW5maWxlLm1hZT4nLCAnLW9tYWUnLCAnPG91dGZpbGUubWFlPic=

> <r_lp_tautomer_probability>
1

> <r_epik_Ionization_Penalty>
0.451073

> <r_epik_Ionization_Penalty_Charging>
0.450607

> <r_epik_Ionization_Penalty_Neutral>
0.000466544

> <r_epik_State_Penalty>
0.453375

> <r_epik_Charging_Adjusted_Penalty>
0.903982

> <i_epik_Tot_Q>
1

> <i_epik_Tot_abs_Q>
1

> <r_epik_Metal_State_Penalty>
1.0249

> <b_epik_Metal_Only>
0

> <s_lp_Force_Field>
OPLS_2005

> <r_lp_Energy>
26.9967

> <b_lp_Chiralities_Consistent>
1

> <s_lp_Variant>
AV-unprocessed.smi:2746-3

> <Gold.Version>
5.8.1

> <Gold.Id.Protein>
6NUR|6NUR_protein|mol2

> <Gold.PLP.Fitness>
41.6514

> <Gold.PLP.PLP>
-33.6927

> <Gold.PLP.part.hbond>
-3.0000

> <Gold.PLP.part.metal>
0.0000

> <Gold.PLP.part.buried>
-4.6818

> <Gold.PLP.part.nonpolar>
-27.0404

> <Gold.PLP.part.repulsive>
0.2867

> <Gold.PLP.ligand.clash>
1.2216

> <Gold.PLP.ligand.torsion>
1.4777

> <Gold.PLP.Chemscore.Hbond>
4.0000

> <Gold.PLP.Chemscore.CHOScore>
0.0000

> <Gold.PLP.Chemscore.Metal>
0.0000

> <Gold.Chemscore.Hbonds>
donor molecule, donor type, donor heavy atom, donor atom, acceptor molecule, acceptor atom, score
      L1  H     5    27       P1  7948  1.00
      L1  H    19    39       P1 10175  2.00
      P1  H  7997  8009       L1    14  1.00

> <Gold.PLP.Chemscore.Internal.Correction>
0.1357

> <Gold.Rescore>
     Score         DG    S(hbond)    S(metal)    S(lipo)     H(rot)  DE(clash)    DE(int)     intcor
     19.90     -21.42       2.90        0.00      82.00       1.30       0.03       1.48       ----

> <Gold.Chemscore.Fitness>
19.9023

> <Gold.Chemscore.DG>
-21.4204

> <Gold.Chemscore.ZeroCoef>
-5.4800

> <Gold.Chemscore.Hbond>
2.8976

> <Gold.Chemscore.Metal>
0.0000

> <Gold.Chemscore.Lipo>
81.9967

> <Gold.Chemscore.Internal_Hbond>
0.0000

> <Gold.Chemscore.DEClash>
0.0348

> <Gold.Chemscore.DEInternal>
1.4833

> <Gold.Chemscore.Rot>
1.3013

> <Gold.Chemscore.Internal.Correction>
   9.000000E+99

> <Gold.Chemscore.Hbonds>
donor molecule, donor type, donor heavy atom, donor atom, acceptor molecule, acceptor atom, score
      L1  H     5    27       P1  7948  1.00
      L1  H    19    39       P1 10175  0.89
      P1  H  7997  8009       L1    14  0.94

> <Gold.Chemscore.Hbond.Weighted>
-9.6781

> <Gold.Chemscore.Metal.Weighted>
-0.0000

> <Gold.Chemscore.Lipo.Weighted>
-9.5936

> <Gold.Chemscore.Internal_Hbond.Weighted>
0.0000

> <Gold.Chemscore.DEClash.Weighted>
0.0348

> <Gold.Chemscore.DEInternal.Weighted>
1.4833

> <Gold.Chemscore.Rot.Weighted>
3.3313

> <Gold.Chemscore.Internal.Correction.Weighted>
   9.000000E+99

> <Gold.Protein.RotatedTorsions>
[ 6907 6896 6895 6894 ] final  175.23 input  -60.11 | X-H torsion
[ 7974 7965 7964 7962 ] final  -13.20 input  175.53 | X-H torsion
[ 8008 7997 7996 7995 ] final -132.13 input   59.86 | X-H torsion
[ 10167 10162 10161 10158 ] final -143.02 input  -65.29 | X-H torsion
[ 10718 10713 10712 10709 ] final  -98.78 input   66.30 | X-H torsion
[ 10763 10752 10751 10750 ] final  -81.87 input  -60.55 | X-H torsion
[ 11005 11000 10999 10996 ] final  -12.51 input  -57.11 | X-H torsion

> <Gold.Protein.ActiveResidues>
 VAL166  LYS551  ARG553  GLY616  TRP617  ASP618  TYR619  PRO620  LYS621  CYS622 
 ASP623  PHE694  ASN695  SER759  ASP760  ASP761  ALA762  ILE779  LEU786  VAL792 
 PHE793  MET794  SER795  GLU796  ALA797  LYS798  CYS799  TRP800  GLU811  SER814 

> <Gold.Protein.RotatedAtoms>
  151.7396  133.3321  159.3361 H   0  0  0  0  0  0  0  0  0  0  0  0  # atno 6907 bound_to 6896
  150.7579  134.6290  159.6185 H   0  0  0  0  0  0  0  0  0  0  0  0  # atno 6908 bound_to 6896
  152.3539  134.6969  160.0279 H   0  0  0  0  0  0  0  0  0  0  0  0  # atno 6909 bound_to 6896
  146.2123  140.3168  142.8387 H   0  0  0  0  0  0  0  0  0  0  0  0  # atno 7974 bound_to 7965
  155.3238  140.0463  157.3040 H   0  0  0  0  0  0  0  0  0  0  0  0  # atno 8008 bound_to 7997
  154.5366  140.2274  155.8679 H   0  0  0  0  0  0  0  0  0  0  0  0  # atno 8009 bound_to 7997
  156.1840  140.3067  155.9210 H   0  0  0  0  0  0  0  0  0  0  0  0  # atno 8010 bound_to 7997
  139.8033  143.7804  152.2659 H   0  0  0  0  0  0  0  0  0  0  0  0  # atno 10167 bound_to 10162
  156.0116  130.5253  150.6573 H   0  0  0  0  0  0  0  0  0  0  0  0  # atno 10718 bound_to 10713
  154.5689  135.5611  153.7076 H   0  0  0  0  0  0  0  0  0  0  0  0  # atno 10763 bound_to 10752
  153.0042  135.6292  154.2142 H   0  0  0  0  0  0  0  0  0  0  0  0  # atno 10764 bound_to 10752
  154.2081  135.2875  155.2948 H   0  0  0  0  0  0  0  0  0  0  0  0  # atno 10765 bound_to 10752
  140.7665  133.8473  155.9169 H   0  0  0  0  0  0  0  0  0  0  0  0  # atno 11005 bound_to 11000
  144.8948  140.7570  143.5904 LP  0  0  0  0  0  0  0  0  0  0  0  0  # atno 17320 bound_to 7965
  145.3092  139.1824  143.4648 LP  0  0  0  0  0  0  0  0  0  0  0  0  # atno 17321 bound_to 7965
  139.7930  144.7403  150.9928 LP  0  0  0  0  0  0  0  0  0  0  0  0  # atno 17342 bound_to 10162
  140.7820  143.4422  151.0535 LP  0  0  0  0  0  0  0  0  0  0  0  0  # atno 17343 bound_to 10162
  157.4322  131.0851  151.1027 LP  0  0  0  0  0  0  0  0  0  0  0  0  # atno 17370 bound_to 10713
  157.1596  130.6220  149.5607 LP  0  0  0  0  0  0  0  0  0  0  0  0  # atno 17371 bound_to 10713
  140.9614  134.1650  157.4651 LP  0  0  0  0  0  0  0  0  0  0  0  0  # atno 17394 bound_to 11000
  139.8762  134.9946  156.5702 LP  0  0  0  0  0  0  0  0  0  0  0  0  # atno 17395 bound_to 11000

$$$$
