AV-unprocessed.smi:2079|AV-procd|sdf|8477|dock2
  -GOLD-   2272011183D 1   1.00000     0.00000
 Structure written by MMmdl.
 42 43  0  0  0  0  0  0  0  0  2 V2000
  151.8410  141.0819  157.9646 C   0  0  0  0  0  0  0  0  0  0  0  0
  151.4593  140.4887  156.6517 C   0  0  0  0  0  0  0  0  0  0  0  0
  150.2836  140.4471  155.9563 C   0  0  0  0  0  0  0  0  0  0  0  0
  150.6292  139.7180  154.7875 C   0  0  0  0  0  0  0  0  0  0  0  0
  149.6624  139.4462  153.7861 N   0  0  0  0  0  0  0  0  0  0  0  0
  148.3967  139.0302  153.9628 C   0  0  0  0  0  0  0  0  0  0  0  0
  147.8653  138.8128  155.0522 O   0  0  0  0  0  0  0  0  0  0  0  0
  147.7641  138.8719  152.7910 N   0  0  0  0  0  0  0  0  0  0  0  0
  146.3783  138.4411  152.6472 C   0  0  0  0  0  0  0  0  0  0  0  0
  146.1032  137.1494  153.4427 C   0  0  0  0  0  0  0  0  0  0  0  0
  146.1610  135.9180  152.6096 N   0  3  2  0  0  0  0  0  0  0  0  0
  145.0486  135.8619  151.6225 C   0  0  0  0  0  0  0  0  0  0  0  0
  145.2412  134.7102  150.6234 C   0  0  0  0  0  0  0  0  0  0  0  0
  145.3950  133.3696  151.3498 C   0  0  0  0  0  0  0  0  0  0  0  0
  146.5349  133.4597  152.3733 C   0  0  0  0  0  0  0  0  0  0  0  0
  146.3448  134.6338  153.3577 C   0  0  2  0  0  0  0  0  0  0  0  0
  145.2322  134.3538  154.3910 C   0  0  0  0  0  0  0  0  0  0  0  0
  151.9019  139.3523  154.7684 N   0  0  0  0  0  0  0  0  0  0  0  0
  152.4401  139.8433  155.9638 O   0  0  0  0  0  0  0  0  0  0  0  0
  151.0693  141.7634  158.3229 H   0  0  0  0  0  0  0  0  0  0  0  0
  152.7736  141.6407  157.8812 H   0  0  0  0  0  0  0  0  0  0  0  0
  151.9787  140.3026  158.7141 H   0  0  0  0  0  0  0  0  0  0  0  0
  149.3313  140.8689  156.2422 H   0  0  0  0  0  0  0  0  0  0  0  0
  149.9668  139.5885  152.8343 H   0  0  0  0  0  0  0  0  0  0  0  0
  148.2723  139.0721  151.9416 H   0  0  0  0  0  0  0  0  0  0  0  0
  145.7039  139.2393  152.9623 H   0  0  0  0  0  0  0  0  0  0  0  0
  146.2065  138.2856  151.5827 H   0  0  0  0  0  0  0  0  0  0  0  0
  146.7826  137.0674  154.2913 H   0  0  0  0  0  0  0  0  0  0  0  0
  145.1013  137.2163  153.8690 H   0  0  0  0  0  0  0  0  0  0  0  0
  144.0935  135.7625  152.1392 H   0  0  0  0  0  0  0  0  0  0  0  0
  145.0031  136.8004  151.0685 H   0  0  0  0  0  0  0  0  0  0  0  0
  144.3955  134.6676  149.9363 H   0  0  0  0  0  0  0  0  0  0  0  0
  146.1255  134.8999  150.0136 H   0  0  0  0  0  0  0  0  0  0  0  0
  144.4614  133.1057  151.8477 H   0  0  0  0  0  0  0  0  0  0  0  0
  145.5983  132.5747  150.6317 H   0  0  0  0  0  0  0  0  0  0  0  0
  146.6241  132.5185  152.9168 H   0  0  0  0  0  0  0  0  0  0  0  0
  147.4784  133.5895  151.8409 H   0  0  0  0  0  0  0  0  0  0  0  0
  147.2803  134.7035  153.9114 H   0  0  0  0  0  0  0  0  0  0  0  0
  145.4039  133.3999  154.8903 H   0  0  0  0  0  0  0  0  0  0  0  0
  144.2437  134.3054  153.9350 H   0  0  0  0  0  0  0  0  0  0  0  0
  145.2030  135.1134  155.1715 H   0  0  0  0  0  0  0  0  0  0  0  0
  146.9968  136.0199  152.0515 H   0  0  0  0  0  0  0  0  0  0  0  0
  1  2  1  0  0  0  0
  1 20  1  0  0  0  0
  1 21  1  0  0  0  0
  1 22  1  0  0  0  0
  2 19  1  0  0  0  0
  2  3  2  0  0  0  0
  3  4  1  0  0  0  0
  3 23  1  0  0  0  0
  4  5  1  0  0  0  0
  4 18  2  0  0  0  0
  5  6  1  0  0  0  0
  5 24  1  0  0  0  0
  6  7  2  0  0  0  0
  6  8  1  0  0  0  0
  8  9  1  0  0  0  0
  8 25  1  0  0  0  0
  9 10  1  0  0  0  0
  9 26  1  0  0  0  0
  9 27  1  0  0  0  0
 10 11  1  0  0  0  0
 10 28  1  0  0  0  0
 10 29  1  0  0  0  0
 11 16  1  0  0  0  0
 11 12  1  0  0  0  0
 11 42  1  0  0  0  0
 12 13  1  0  0  0  0
 12 30  1  0  0  0  0
 12 31  1  0  0  0  0
 13 14  1  0  0  0  0
 13 32  1  0  0  0  0
 13 33  1  0  0  0  0
 14 15  1  0  0  0  0
 14 34  1  0  0  0  0
 14 35  1  0  0  0  0
 15 16  1  0  0  0  0
 15 36  1  0  0  0  0
 15 37  1  0  0  0  0
 16 17  1  0  0  0  0
 16 38  1  0  0  0  0
 17 39  1  0  0  0  0
 17 40  1  0  0  0  0
 17 41  1  0  0  0  0
 18 19  1  0  0  0  0
M  CHG  1  11   1
M  END
> <s_m_source_file>
AV-unprocessed.smi

> <i_m_source_file_index>
2079

> <i_lp_mmshare_version>
43012

> <i_f3d_flags>
0

> <s_epik_input>
W0NIM11jMVtjSF1jKG5vMSlbTkhdQyg9TylbTkhdW0NIMl1bQ0gyXU4yW0NIMl1bQ0gyXVtDSDJdW0NIMl1bQ0BIXTJbQ0gzXQ==

> <s_epik_cmdline>
J2VwaWtfcHl0aG9uJywgJy1waCcsICc3LjAnLCAnLXRuJywgJzgnLCAnLW1hJywgJzIwMCcsICctbWV0YWxfYmluZGluZycsICctaW1hZScsICc8aW5maWxlLm1hZT4nLCAnLW9tYWUnLCAnPG91dGZpbGUubWFlPic=

> <r_epik_Ionization_Penalty>
0.00265971

> <r_epik_Ionization_Penalty_Charging>
0.00262393

> <r_epik_Ionization_Penalty_Neutral>
3.57846e-05

> <r_epik_State_Penalty>
0.00182566

> <r_epik_Charging_Adjusted_Penalty>
0.00444959

> <i_epik_Tot_Q>
1

> <i_epik_Tot_abs_Q>
1

> <r_epik_Metal_State_Penalty>
0.0216344

> <b_epik_Metal_Only>
0

> <s_lp_Force_Field>
OPLS_2005

> <r_lp_Energy>
16.7127

> <b_lp_Chiralities_Consistent>
1

> <s_lp_Variant>
AV-unprocessed.smi:2079-3

> <Gold.Version>
5.8.1

> <Gold.Id.Protein>
6NUR|6NUR_protein|mol2

> <Gold.PLP.Fitness>
44.1928

> <Gold.PLP.PLP>
-30.7427

> <Gold.PLP.part.hbond>
-6.0000

> <Gold.PLP.part.metal>
0.0000

> <Gold.PLP.part.buried>
-2.3498

> <Gold.PLP.part.nonpolar>
-22.6740

> <Gold.PLP.part.repulsive>
0.3194

> <Gold.PLP.ligand.clash>
0.0000

> <Gold.PLP.ligand.torsion>
0.7572

> <Gold.PLP.Chemscore.Hbond>
4.9680

> <Gold.PLP.Chemscore.CHOScore>
0.0000

> <Gold.PLP.Chemscore.Metal>
0.0000

> <Gold.Chemscore.Hbonds>
donor molecule, donor type, donor heavy atom, donor atom, acceptor molecule, acceptor atom, score
      L1  H     5    24       P1  7957  1.00
      L1  H     8    25       P1  7957  0.96
      L1  H    11    42       P1  7948  2.00
      P1  H  7997  8009       L1    19  1.00

> <Gold.PLP.Chemscore.Internal.Correction>
0.0605

> <Gold.Rescore>
     Score         DG    S(hbond)    S(metal)    S(lipo)     H(rot)  DE(clash)    DE(int)     intcor
     18.34     -20.57       3.80        0.00      54.99       1.57       0.17       2.06       ----

> <Gold.Chemscore.Fitness>
18.3432

> <Gold.Chemscore.DG>
-20.5736

> <Gold.Chemscore.ZeroCoef>
-5.4800

> <Gold.Chemscore.Hbond>
3.7960

> <Gold.Chemscore.Metal>
0.0000

> <Gold.Chemscore.Lipo>
54.9861

> <Gold.Chemscore.Internal_Hbond>
0.0000

> <Gold.Chemscore.DEClash>
0.1734

> <Gold.Chemscore.DEInternal>
2.0570

> <Gold.Chemscore.Rot>
1.5697

> <Gold.Chemscore.Internal.Correction>
   9.000000E+99

> <Gold.Chemscore.Hbonds>
donor molecule, donor type, donor heavy atom, donor atom, acceptor molecule, acceptor atom, score
      L1  H     5    24       P1  7957  0.95
      L1  H     8    25       P1  7957  0.91
      L1  H    11    42       P1  7948  0.96
      P1  H  7997  8009       L1    19  0.90

> <Gold.Chemscore.Hbond.Weighted>
-12.6787

> <Gold.Chemscore.Metal.Weighted>
-0.0000

> <Gold.Chemscore.Lipo.Weighted>
-6.4334

> <Gold.Chemscore.Internal_Hbond.Weighted>
0.0000

> <Gold.Chemscore.DEClash.Weighted>
0.1734

> <Gold.Chemscore.DEInternal.Weighted>
2.0570

> <Gold.Chemscore.Rot.Weighted>
4.0185

> <Gold.Chemscore.Internal.Correction.Weighted>
   9.000000E+99

> <Gold.Protein.RotatedTorsions>
[ 6907 6896 6895 6894 ] final   72.22 input  -60.11 | X-H torsion
[ 7974 7965 7964 7962 ] final  -67.47 input  175.53 | X-H torsion
[ 8008 7997 7996 7995 ] final -142.07 input   59.86 | X-H torsion
[ 10167 10162 10161 10158 ] final   54.56 input  -65.29 | X-H torsion
[ 10718 10713 10712 10709 ] final  167.97 input   66.30 | X-H torsion
[ 10763 10752 10751 10750 ] final -164.18 input  -60.55 | X-H torsion
[ 11005 11000 10999 10996 ] final  -36.26 input  -57.11 | X-H torsion

> <Gold.Protein.ActiveResidues>
 VAL166  LYS551  ARG553  GLY616  TRP617  ASP618  TYR619  PRO620  LYS621  CYS622 
 ASP623  PHE694  ASN695  SER759  ASP760  ASP761  ALA762  ILE779  LEU786  VAL792 
 PHE793  MET794  SER795  GLU796  ALA797  LYS798  CYS799  TRP800  GLU811  SER814 

> <Gold.Protein.RotatedAtoms>
  152.4855  134.4604  159.9603 H   0  0  0  0  0  0  0  0  0  0  0  0  # atno 6907 bound_to 6896
  151.4601  133.3589  159.2816 H   0  0  0  0  0  0  0  0  0  0  0  0  # atno 6908 bound_to 6896
  150.8962  134.8396  159.7389 H   0  0  0  0  0  0  0  0  0  0  0  0  # atno 6909 bound_to 6896
  145.7288  140.9006  143.0591 H   0  0  0  0  0  0  0  0  0  0  0  0  # atno 7974 bound_to 7965
  155.4881  140.0565  157.2957 H   0  0  0  0  0  0  0  0  0  0  0  0  # atno 8008 bound_to 7997
  154.4634  140.2007  156.0136 H   0  0  0  0  0  0  0  0  0  0  0  0  # atno 8009 bound_to 7997
  156.0930  140.3230  155.7845 H   0  0  0  0  0  0  0  0  0  0  0  0  # atno 8010 bound_to 7997
  140.2288  144.3709  150.6422 H   0  0  0  0  0  0  0  0  0  0  0  0  # atno 10167 bound_to 10162
  157.0438  131.0294  151.2704 H   0  0  0  0  0  0  0  0  0  0  0  0  # atno 10718 bound_to 10713
  154.7052  135.2995  154.9281 H   0  0  0  0  0  0  0  0  0  0  0  0  # atno 10763 bound_to 10752
  154.0200  135.6684  153.4776 H   0  0  0  0  0  0  0  0  0  0  0  0  # atno 10764 bound_to 10752
  153.0712  135.5060  154.8219 H   0  0  0  0  0  0  0  0  0  0  0  0  # atno 10765 bound_to 10752
  140.9861  133.7030  156.1767 H   0  0  0  0  0  0  0  0  0  0  0  0  # atno 11005 bound_to 11000
  144.6898  139.9303  143.7471 LP  0  0  0  0  0  0  0  0  0  0  0  0  # atno 17320 bound_to 7965
  146.0557  139.3554  143.0612 LP  0  0  0  0  0  0  0  0  0  0  0  0  # atno 17321 bound_to 7965
  140.6200  143.2175  151.6713 LP  0  0  0  0  0  0  0  0  0  0  0  0  # atno 17342 bound_to 10162
  139.5117  144.3499  152.0662 LP  0  0  0  0  0  0  0  0  0  0  0  0  # atno 17343 bound_to 10162
  157.5084  130.7923  149.7678 LP  0  0  0  0  0  0  0  0  0  0  0  0  # atno 17370 bound_to 10713
  156.0029  130.3870  150.2536 LP  0  0  0  0  0  0  0  0  0  0  0  0  # atno 17371 bound_to 10713
  140.7113  134.4459  157.5581 LP  0  0  0  0  0  0  0  0  0  0  0  0  # atno 17394 bound_to 11000
  139.8971  134.8644  156.2059 LP  0  0  0  0  0  0  0  0  0  0  0  0  # atno 17395 bound_to 11000

$$$$
