AV-unprocessed.smi:34|AV-procd|sdf|246|dock8
  -GOLD-   2262016 03D 1   1.00000     0.00000
 Structure written by MMmdl.
 54 58  0  0  0  0  0  0  0  0  2 V2000
  150.3277  142.3439  156.2475 O   0  0  0  0  0  0  0  0  0  0  0  0
  151.1779  141.8184  156.9693 C   0  0  0  0  0  0  0  0  0  0  0  0
  151.7010  140.5701  156.8667 N   0  5  0  0  0  0  0  0  0  0  0  0
  151.0497  139.6282  156.1678 C   0  0  0  0  0  0  0  0  0  0  0  0
  150.7394  139.8356  154.8628 N   0  0  0  0  0  0  0  0  0  0  0  0
  150.0879  138.8979  154.1665 C   0  0  0  0  0  0  0  0  0  0  0  0
  149.6551  137.7005  154.5719 N   0  0  0  0  0  0  0  0  0  0  0  0
  149.9500  137.4816  155.8864 C   0  0  0  0  0  0  0  0  0  0  0  0
  150.6361  138.3941  156.7406 C   0  0  0  0  0  0  0  0  0  0  0  0
  150.7708  137.8683  158.0165 N   0  0  0  0  0  0  0  0  0  0  0  0
  150.1745  136.6861  157.8834 C   0  0  0  0  0  0  0  0  0  0  0  0
  149.6727  136.3721  156.6721 N   0  0  0  0  0  0  0  0  0  0  0  0
  148.9572  135.1102  156.3019 C   0  0  1  0  0  0  0  0  0  0  0  0
  149.3159  134.7706  154.9922 O   0  0  0  0  0  0  0  0  0  0  0  0
  150.0082  133.5240  154.9821 C   0  0  2  0  0  0  0  0  0  0  0  0
  149.8079  132.8000  153.6447 C   0  0  0  0  0  0  0  0  0  0  0  0
  148.4781  133.0003  153.1925 O   0  0  0  0  0  0  0  0  0  0  0  0
  147.7790  131.9686  152.6803 C   0  0  0  0  0  0  0  0  0  0  0  0
  148.1178  130.7894  152.7998 O   0  0  0  0  0  0  0  0  0  0  0  0
  146.5558  132.4026  151.9457 C   0  0  0  0  0  0  0  0  0  0  0  0
  145.6569  131.4245  151.4597 C   0  0  0  0  0  0  0  0  0  0  0  0
  144.4961  131.8024  150.7575 C   0  0  0  0  0  0  0  0  0  0  0  0
  144.2181  133.1636  150.5354 C   0  0  0  0  0  0  0  0  0  0  0  0
  145.1028  134.1465  151.0162 C   0  0  0  0  0  0  0  0  0  0  0  0
  146.2657  133.7703  151.7168 C   0  0  0  0  0  0  0  0  0  0  0  0
  149.4518  132.8003  156.2077 C   0  0  2  0  0  0  0  0  0  0  0  0
  148.2366  132.3248  155.9175 F   0  0  0  0  0  0  0  0  0  0  0  0
  149.3639  133.9395  157.2107 C   0  0  2  0  0  0  0  0  0  0  0  0
  148.4165  133.6472  158.2181 O   0  0  0  0  0  0  0  0  0  0  0  0
  151.6874  142.5810  158.1630 C   0  0  0  0  0  0  0  0  0  0  0  0
  152.3379  141.8889  159.2102 C   0  0  0  0  0  0  0  0  0  0  0  0
  152.7999  142.5797  160.3474 C   0  0  0  0  0  0  0  0  0  0  0  0
  152.6077  143.9699  160.4542 C   0  0  0  0  0  0  0  0  0  0  0  0
  151.9490  144.6677  159.4247 C   0  0  0  0  0  0  0  0  0  0  0  0
  151.4867  143.9777  158.2871 C   0  0  0  0  0  0  0  0  0  0  0  0
  149.8843  139.1419  153.1345 H   0  0  0  0  0  0  0  0  0  0  0  0
  150.1004  136.0056  158.7191 H   0  0  0  0  0  0  0  0  0  0  0  0
  147.8941  135.3524  156.3415 H   0  0  0  0  0  0  0  0  0  0  0  0
  151.0711  133.7139  155.1264 H   0  0  0  0  0  0  0  0  0  0  0  0
  150.5220  133.1619  152.9035 H   0  0  0  0  0  0  0  0  0  0  0  0
  149.9852  131.7313  153.7721 H   0  0  0  0  0  0  0  0  0  0  0  0
  145.8496  130.3730  151.6170 H   0  0  0  0  0  0  0  0  0  0  0  0
  143.8189  131.0460  150.3889 H   0  0  0  0  0  0  0  0  0  0  0  0
  143.3276  133.4531  149.9972 H   0  0  0  0  0  0  0  0  0  0  0  0
  144.8897  135.1918  150.8476 H   0  0  0  0  0  0  0  0  0  0  0  0
  146.9235  134.5498  152.0723 H   0  0  0  0  0  0  0  0  0  0  0  0
  150.0710  131.9679  156.5430 H   0  0  0  0  0  0  0  0  0  0  0  0
  150.3422  134.1214  157.6564 H   0  0  0  0  0  0  0  0  0  0  0  0
  148.4425  134.3378  158.8627 H   0  0  0  0  0  0  0  0  0  0  0  0
  152.4911  140.8212  159.1448 H   0  0  0  0  0  0  0  0  0  0  0  0
  153.3003  142.0414  161.1386 H   0  0  0  0  0  0  0  0  0  0  0  0
  152.9614  144.4997  161.3261 H   0  0  0  0  0  0  0  0  0  0  0  0
  151.7949  145.7335  159.5075 H   0  0  0  0  0  0  0  0  0  0  0  0
  150.9743  144.5313  157.5134 H   0  0  0  0  0  0  0  0  0  0  0  0
  1  2  2  0  0  0  0
  2  3  1  0  0  0  0
  2 30  1  0  0  0  0
  3  4  1  0  0  0  0
  4  9  1  0  0  0  0
  4  5  2  0  0  0  0
  5  6  1  0  0  0  0
  6  7  2  0  0  0  0
  6 36  1  0  0  0  0
  7  8  1  0  0  0  0
  8 12  1  0  0  0  0
  8  9  2  0  0  0  0
  9 10  1  0  0  0  0
 10 11  2  0  0  0  0
 11 12  1  0  0  0  0
 11 37  1  0  0  0  0
 12 13  1  0  0  0  0
 13 28  1  0  0  0  0
 13 14  1  0  0  0  0
 13 38  1  0  0  0  0
 14 15  1  0  0  0  0
 15 16  1  0  0  0  0
 15 26  1  0  0  0  0
 15 39  1  0  0  0  0
 16 17  1  0  0  0  0
 16 40  1  0  0  0  0
 16 41  1  0  0  0  0
 17 18  1  0  0  0  0
 18 19  2  0  0  0  0
 18 20  1  0  0  0  0
 20 25  1  0  0  0  0
 20 21  2  0  0  0  0
 21 22  1  0  0  0  0
 21 42  1  0  0  0  0
 22 23  2  0  0  0  0
 22 43  1  0  0  0  0
 23 24  1  0  0  0  0
 23 44  1  0  0  0  0
 24 25  2  0  0  0  0
 24 45  1  0  0  0  0
 25 46  1  0  0  0  0
 26 27  1  0  0  0  0
 26 28  1  0  0  0  0
 26 47  1  0  0  0  0
 28 29  1  0  0  0  0
 28 48  1  0  0  0  0
 29 49  1  0  0  0  0
 30 35  1  0  0  0  0
 30 31  2  0  0  0  0
 31 32  1  0  0  0  0
 31 50  1  0  0  0  0
 32 33  2  0  0  0  0
 32 51  1  0  0  0  0
 33 34  1  0  0  0  0
 33 52  1  0  0  0  0
 34 35  2  0  0  0  0
 34 53  1  0  0  0  0
 35 54  1  0  0  0  0
M  CHG  1   3  -1
M  END
> <s_m_source_file>
AV-unprocessed.smi

> <i_m_source_file_index>
34

> <i_lp_mmshare_version>
43012

> <i_f3d_flags>
0

> <s_epik_input>
W2NIXTFbY0hdW2NIXVtjSF1bY0hdYzFDKD1PKVtOSF1jKG5bY0hdbjIpYyhjMjMpbltjSF1uM1tDQEBIXTRPW0NASF0oW0NAQEhdKEYpW0NASF00W09IXSlbQ0gyXU9DKD1PKWM1W2NIXVtjSF1bY0hdW2NIXVtjSF01

> <s_epik_cmdline>
J2VwaWtfcHl0aG9uJywgJy1waCcsICc3LjAnLCAnLXRuJywgJzgnLCAnLW1hJywgJzIwMCcsICctbWV0YWxfYmluZGluZycsICctaW1hZScsICc8aW5maWxlLm1hZT4nLCAnLW9tYWUnLCAnPG91dGZpbGUubWFlPic=

> <r_lp_tautomer_probability>
1

> <r_epik_Ionization_Penalty>
4.33227

> <r_epik_Ionization_Penalty_Charging>
3.41027

> <r_epik_Ionization_Penalty_Neutral>
0.922001

> <r_epik_State_Penalty>
3.41358

> <r_epik_Charging_Adjusted_Penalty>
6.82385

> <i_epik_Tot_Q>
-1

> <i_epik_Tot_abs_Q>
1

> <r_epik_Metal_State_Penalty>
0.496292

> <b_epik_Metal_Only>
1

> <s_epik_Chemistry_Notes>
This compound has an ester and may undergo hydrolysis at high or low pH. This compound contains an acetal/aminal-like group ( X-CH(R)-Y where X, Y are N, S, or O) that may be acid/base labile, releasing an aldehyde.

> <s_lp_Force_Field>
OPLS_2005

> <r_lp_Energy>
46.0199

> <b_lp_Chiralities_Consistent>
1

> <s_lp_Variant>
AV-unprocessed.smi:34-32

> <Gold.Version>
5.8.1

> <Gold.Id.Protein>
6NUR|6NUR_protein|mol2

> <Gold.PLP.Fitness>
55.1737

> <Gold.PLP.PLP>
-52.9207

> <Gold.PLP.part.hbond>
-1.0000

> <Gold.PLP.part.metal>
0.0000

> <Gold.PLP.part.buried>
-10.2216

> <Gold.PLP.part.nonpolar>
-43.4135

> <Gold.PLP.part.repulsive>
1.6829

> <Gold.PLP.ligand.clash>
0.0000

> <Gold.PLP.ligand.torsion>
2.1183

> <Gold.PLP.Chemscore.Hbond>
1.0000

> <Gold.PLP.Chemscore.CHOScore>
1.0000

> <Gold.PLP.Chemscore.Metal>
0.0000

> <Gold.Chemscore.Hbonds>
donor molecule, donor type, donor heavy atom, donor atom, acceptor molecule, acceptor atom, score
      P1  H  7989  7998       L1     5  1.00
      L1  C     6    36       P1  7957  1.00

> <Gold.PLP.Chemscore.Internal.Correction>
0.4897

> <Gold.Rescore>
     Score         DG    S(hbond)    S(metal)    S(lipo)     H(rot)  DE(clash)    DE(int)     intcor
     11.00     -17.76       0.90        0.00     138.29       2.69       1.54       5.22       ----

> <Gold.Chemscore.Fitness>
10.9976

> <Gold.Chemscore.DG>
-17.7612

> <Gold.Chemscore.ZeroCoef>
-5.4800

> <Gold.Chemscore.Hbond>
0.8979

> <Gold.Chemscore.Metal>
0.0000

> <Gold.Chemscore.Lipo>
138.2891

> <Gold.Chemscore.Internal_Hbond>
0.0000

> <Gold.Chemscore.DEClash>
1.5416

> <Gold.Chemscore.DEInternal>
5.2220

> <Gold.Chemscore.Rot>
2.6944

> <Gold.Chemscore.Internal.Correction>
   9.000000E+99

> <Gold.Chemscore.Hbonds>
donor molecule, donor type, donor heavy atom, donor atom, acceptor molecule, acceptor atom, score
      P1  H  7989  7998       L1     5  0.39

> <Gold.Chemscore.Hbond.Weighted>
-2.9989

> <Gold.Chemscore.Metal.Weighted>
-0.0000

> <Gold.Chemscore.Lipo.Weighted>
-16.1798

> <Gold.Chemscore.Internal_Hbond.Weighted>
0.0000

> <Gold.Chemscore.DEClash.Weighted>
1.5416

> <Gold.Chemscore.DEInternal.Weighted>
5.2220

> <Gold.Chemscore.Rot.Weighted>
6.8975

> <Gold.Chemscore.Internal.Correction.Weighted>
   9.000000E+99

> <Gold.Protein.RotatedTorsions>
[ 6907 6896 6895 6894 ] final  -28.69 input  -60.11 | X-H torsion
[ 7974 7965 7964 7962 ] final  -70.37 input  175.53 | X-H torsion
[ 8008 7997 7996 7995 ] final  -68.66 input   59.86 | X-H torsion
[ 10167 10162 10161 10158 ] final  162.42 input  -65.29 | X-H torsion
[ 10718 10713 10712 10709 ] final   30.20 input   66.30 | X-H torsion
[ 10763 10752 10751 10750 ] final   -0.08 input  -60.55 | X-H torsion
[ 11005 11000 10999 10996 ] final  -15.10 input  -57.11 | X-H torsion

> <Gold.Protein.ActiveResidues>
 VAL166  LYS551  ARG553  GLY616  TRP617  ASP618  TYR619  PRO620  LYS621  CYS622 
 ASP623  PHE694  ASN695  SER759  ASP760  ASP761  ALA762  ILE779  LEU786  VAL792 
 PHE793  MET794  SER795  GLU796  ALA797  LYS798  CYS799  TRP800  GLU811  SER814 

> <Gold.Protein.RotatedAtoms>
  151.1295  135.0123  159.8575 H   0  0  0  0  0  0  0  0  0  0  0  0  # atno 6907 bound_to 6896
  152.5450  134.1627  159.8574 H   0  0  0  0  0  0  0  0  0  0  0  0  # atno 6908 bound_to 6896
  151.1692  133.4750  159.2627 H   0  0  0  0  0  0  0  0  0  0  0  0  # atno 6909 bound_to 6896
  145.6918  140.9150  143.0777 H   0  0  0  0  0  0  0  0  0  0  0  0  # atno 7974 bound_to 7965
  154.4884  140.0868  156.7538 H   0  0  0  0  0  0  0  0  0  0  0  0  # atno 8008 bound_to 7997
  155.4293  140.3449  155.4260 H   0  0  0  0  0  0  0  0  0  0  0  0  # atno 8009 bound_to 7997
  156.1294  140.1497  156.9075 H   0  0  0  0  0  0  0  0  0  0  0  0  # atno 8010 bound_to 7997
  139.4860  144.4439  151.8917 H   0  0  0  0  0  0  0  0  0  0  0  0  # atno 10167 bound_to 10162
  157.2566  130.7140  149.6432 H   0  0  0  0  0  0  0  0  0  0  0  0  # atno 10718 bound_to 10713
  153.3273  135.6973  153.6978 H   0  0  0  0  0  0  0  0  0  0  0  0  # atno 10763 bound_to 10752
  153.5795  135.3501  155.2870 H   0  0  0  0  0  0  0  0  0  0  0  0  # atno 10764 bound_to 10752
  154.8610  135.4291  154.2452 H   0  0  0  0  0  0  0  0  0  0  0  0  # atno 10765 bound_to 10752
  140.7932  133.8271  155.9399 H   0  0  0  0  0  0  0  0  0  0  0  0  # atno 11005 bound_to 11000
  144.6994  139.8832  143.7448 LP  0  0  0  0  0  0  0  0  0  0  0  0  # atno 17320 bound_to 7965
  146.0875  139.3864  143.0426 LP  0  0  0  0  0  0  0  0  0  0  0  0  # atno 17321 bound_to 7965
  140.3892  144.2637  150.5901 LP  0  0  0  0  0  0  0  0  0  0  0  0  # atno 17342 bound_to 10162
  140.5162  143.2277  151.8460 LP  0  0  0  0  0  0  0  0  0  0  0  0  # atno 17343 bound_to 10162
  155.9665  130.4411  150.5326 LP  0  0  0  0  0  0  0  0  0  0  0  0  # atno 17370 bound_to 10713
  157.3221  131.0684  151.1924 LP  0  0  0  0  0  0  0  0  0  0  0  0  # atno 17371 bound_to 10713
  140.9369  134.1951  157.4825 LP  0  0  0  0  0  0  0  0  0  0  0  0  # atno 17394 bound_to 11000
  139.8729  134.9856  156.5287 LP  0  0  0  0  0  0  0  0  0  0  0  0  # atno 17395 bound_to 11000

$$$$
