AV-unprocessed.smi:1106|AV-procd|sdf|4779|dock2
  -GOLD-   22720 3323D 1   1.00000     0.00000
 Structure written by MMmdl.
 48 49  0  0  0  0  0  0  0  0  2 V2000
  151.2577  142.6490  157.5074 C   0  0  0  0  0  0  0  0  0  0  0  0
  150.8738  142.0991  156.1254 C   0  0  0  0  0  0  0  0  0  0  0  0
  149.4882  141.7169  156.0373 N   0  0  0  0  0  0  0  0  0  0  0  0
  148.6513  141.7629  157.1353 C   0  0  0  0  0  0  0  0  0  0  0  0
  147.3499  141.4062  157.0799 C   0  0  0  0  0  0  0  0  0  0  0  0
  146.5054  141.4667  158.2270 C   0  0  0  0  0  0  0  0  0  0  0  0
  145.8315  141.4987  159.1672 N   0  0  0  0  0  0  0  0  0  0  0  0
  146.7466  140.9403  155.8335 C   0  0  0  0  0  0  0  0  0  0  0  0
  145.5609  140.6213  155.7252 O   0  0  0  0  0  0  0  0  0  0  0  0
  147.6367  140.8877  154.7313 N   0  0  0  0  0  0  0  0  0  0  0  0
  147.0976  140.4242  153.4607 C   0  0  0  0  0  0  0  0  0  0  0  0
  147.1318  138.8898  153.2817 C   0  0  2  0  0  0  0  0  0  0  0  0
  148.4891  138.5002  153.2323 O   0  0  0  0  0  0  0  0  0  0  0  0
  146.4349  138.4006  151.9942 C   0  0  0  0  0  0  0  0  0  0  0  0
  146.3564  136.9196  151.9179 N   0  3  2  0  0  0  0  0  0  0  0  0
  145.5387  136.4575  150.7672 C   0  0  0  0  0  0  0  0  0  0  0  0
  145.5890  134.9255  150.6265 C   0  0  0  0  0  0  0  0  0  0  0  0
  145.1597  134.2063  151.9183 C   0  0  2  0  0  0  0  0  0  0  0  0
  143.6414  134.2707  152.1601 C   0  0  0  0  0  0  0  0  0  0  0  0
  145.9749  134.7547  153.1034 C   0  0  0  0  0  0  0  0  0  0  0  0
  145.9152  136.2901  153.1912 C   0  0  0  0  0  0  0  0  0  0  0  0
  148.9998  141.2696  154.7873 C   0  0  0  0  0  0  0  0  0  0  0  0
  149.7294  141.2273  153.7929 O   0  0  0  0  0  0  0  0  0  0  0  0
  152.3018  142.9621  157.5205 H   0  0  0  0  0  0  0  0  0  0  0  0
  151.1287  141.9003  158.2893 H   0  0  0  0  0  0  0  0  0  0  0  0
  150.6489  143.5150  157.7690 H   0  0  0  0  0  0  0  0  0  0  0  0
  151.0255  142.8563  155.3550 H   0  0  0  0  0  0  0  0  0  0  0  0
  151.4738  141.2344  155.8359 H   0  0  0  0  0  0  0  0  0  0  0  0
  149.0536  142.0996  158.0802 H   0  0  0  0  0  0  0  0  0  0  0  0
  146.0881  140.8200  153.3406 H   0  0  0  0  0  0  0  0  0  0  0  0
  147.6774  140.9246  152.6823 H   0  0  0  0  0  0  0  0  0  0  0  0
  146.6895  138.4201  154.1591 H   0  0  0  0  0  0  0  0  0  0  0  0
  148.5513  137.6854  152.7562 H   0  0  0  0  0  0  0  0  0  0  0  0
  145.4255  138.8048  151.9161 H   0  0  0  0  0  0  0  0  0  0  0  0
  146.9849  138.7914  151.1364 H   0  0  0  0  0  0  0  0  0  0  0  0
  144.5097  136.7994  150.8870 H   0  0  0  0  0  0  0  0  0  0  0  0
  145.9137  136.9082  149.8475 H   0  0  0  0  0  0  0  0  0  0  0  0
  144.9663  134.6053  149.7905 H   0  0  0  0  0  0  0  0  0  0  0  0
  146.6079  134.6282  150.3745 H   0  0  0  0  0  0  0  0  0  0  0  0
  145.4092  133.1500  151.8069 H   0  0  0  0  0  0  0  0  0  0  0  0
  143.2865  135.2933  152.2842 H   0  0  0  0  0  0  0  0  0  0  0  0
  143.3658  133.7157  153.0571 H   0  0  0  0  0  0  0  0  0  0  0  0
  143.0942  133.8319  151.3253 H   0  0  0  0  0  0  0  0  0  0  0  0
  145.6272  134.3123  154.0376 H   0  0  0  0  0  0  0  0  0  0  0  0
  147.0160  134.4477  152.9936 H   0  0  0  0  0  0  0  0  0  0  0  0
  146.5483  136.6173  154.0148 H   0  0  0  0  0  0  0  0  0  0  0  0
  144.9028  136.6180  153.4308 H   0  0  0  0  0  0  0  0  0  0  0  0
  147.2977  136.5995  151.7382 H   0  0  0  0  0  0  0  0  0  0  0  0
  1  2  1  0  0  0  0
  1 24  1  0  0  0  0
  1 25  1  0  0  0  0
  1 26  1  0  0  0  0
  2  3  1  0  0  0  0
  2 27  1  0  0  0  0
  2 28  1  0  0  0  0
  3 22  1  0  0  0  0
  3  4  1  0  0  0  0
  4  5  2  0  0  0  0
  4 29  1  0  0  0  0
  5  6  1  0  0  0  0
  5  8  1  0  0  0  0
  6  7  3  0  0  0  0
  8  9  2  0  0  0  0
  8 10  1  0  0  0  0
 10 11  1  0  0  0  0
 10 22  1  0  0  0  0
 11 12  1  0  0  0  0
 11 30  1  0  0  0  0
 11 31  1  0  0  0  0
 12 13  1  0  0  0  0
 12 14  1  0  0  0  0
 12 32  1  0  0  0  0
 13 33  1  0  0  0  0
 14 15  1  0  0  0  0
 14 34  1  0  0  0  0
 14 35  1  0  0  0  0
 15 21  1  0  0  0  0
 15 16  1  0  0  0  0
 15 48  1  0  0  0  0
 16 17  1  0  0  0  0
 16 36  1  0  0  0  0
 16 37  1  0  0  0  0
 17 18  1  0  0  0  0
 17 38  1  0  0  0  0
 17 39  1  0  0  0  0
 18 19  1  0  0  0  0
 18 20  1  0  0  0  0
 18 40  1  0  0  0  0
 19 41  1  0  0  0  0
 19 42  1  0  0  0  0
 19 43  1  0  0  0  0
 20 21  1  0  0  0  0
 20 44  1  0  0  0  0
 20 45  1  0  0  0  0
 21 46  1  0  0  0  0
 21 47  1  0  0  0  0
 22 23  2  0  0  0  0
M  CHG  1  15   1
M  END
> <s_m_source_file>
AV-unprocessed.smi

> <i_m_source_file_index>
1106

> <i_lp_mmshare_version>
43012

> <i_f3d_flags>
0

> <s_epik_input>
W0NIM11bQ0gyXW4xW2NIXWMoQyNOKWMoPU8pbihjMT1PKVtDSDJdW0NASF0oW09IXSlbQ0gyXU4yW0NIMl1bQ0gyXVtDSF0oW0NIM10pW0NIMl1bQ0gyXTI=

> <s_epik_cmdline>
J2VwaWtfcHl0aG9uJywgJy1waCcsICc3LjAnLCAnLXRuJywgJzgnLCAnLW1hJywgJzIwMCcsICctbWV0YWxfYmluZGluZycsICctaW1hZScsICc8aW5maWxlLm1hZT4nLCAnLW9tYWUnLCAnPG91dGZpbGUubWFlPic=

> <r_epik_Ionization_Penalty>
0.00136816

> <r_epik_Ionization_Penalty_Charging>
0.00136813

> <r_epik_Ionization_Penalty_Neutral>
3.19882e-08

> <r_epik_State_Penalty>
0.000910892

> <r_epik_Charging_Adjusted_Penalty>
0.00227902

> <i_epik_Tot_Q>
1

> <i_epik_Tot_abs_Q>
1

> <r_epik_Metal_State_Penalty>
-0

> <b_epik_Metal_Only>
0

> <s_lp_Force_Field>
OPLS_2005

> <r_lp_Energy>
29.5745

> <b_lp_Chiralities_Consistent>
1

> <s_lp_Variant>
AV-unprocessed.smi:1106-3

> <Gold.Version>
5.8.1

> <Gold.Id.Protein>
6NUR|6NUR_protein|mol2

> <Gold.PLP.Fitness>
48.7202

> <Gold.PLP.PLP>
-34.6284

> <Gold.PLP.part.hbond>
-5.7818

> <Gold.PLP.part.metal>
0.0000

> <Gold.PLP.part.buried>
-0.7909

> <Gold.PLP.part.nonpolar>
-30.1983

> <Gold.PLP.part.repulsive>
1.4894

> <Gold.PLP.ligand.clash>
0.0000

> <Gold.PLP.ligand.torsion>
0.4798

> <Gold.PLP.Chemscore.Hbond>
5.0003

> <Gold.PLP.Chemscore.CHOScore>
0.0000

> <Gold.PLP.Chemscore.Metal>
0.0000

> <Gold.Chemscore.Hbonds>
donor molecule, donor type, donor heavy atom, donor atom, acceptor molecule, acceptor atom, score
      L1  H    13    33       P1  7948  1.00
      L1  H    15    48       P1  7948  2.00
      P1  H  6934  6946       L1     7  0.88
      P1  H  7989  7998       L1    23  0.27
      P1  H  8011  8017       L1    23  0.83

> <Gold.PLP.Chemscore.Internal.Correction>
0.0506

> <Gold.Rescore>
     Score         DG    S(hbond)    S(metal)    S(lipo)     H(rot)  DE(clash)    DE(int)     intcor
     17.09     -20.43       3.85        0.00      72.15       2.48       2.85       0.49       ----

> <Gold.Chemscore.Fitness>
17.0942

> <Gold.Chemscore.DG>
-20.4309

> <Gold.Chemscore.ZeroCoef>
-5.4800

> <Gold.Chemscore.Hbond>
3.8527

> <Gold.Chemscore.Metal>
0.0000

> <Gold.Chemscore.Lipo>
72.1483

> <Gold.Chemscore.Internal_Hbond>
0.0000

> <Gold.Chemscore.DEClash>
2.8499

> <Gold.Chemscore.DEInternal>
0.4868

> <Gold.Chemscore.Rot>
2.4838

> <Gold.Chemscore.Internal.Correction>
   9.000000E+99

> <Gold.Chemscore.Hbonds>
donor molecule, donor type, donor heavy atom, donor atom, acceptor molecule, acceptor atom, score
      L1  H    13    33       P1  7948  1.00
      L1  H    15    48       P1  7948  1.00
      P1  H  6934  6946       L1     7  0.55
      P1  H  7989  7998       L1    23  0.28
      P1  H  8011  8017       L1    23  0.83

> <Gold.Chemscore.Hbond.Weighted>
-12.8680

> <Gold.Chemscore.Metal.Weighted>
-0.0000

> <Gold.Chemscore.Lipo.Weighted>
-8.4413

> <Gold.Chemscore.Internal_Hbond.Weighted>
0.0000

> <Gold.Chemscore.DEClash.Weighted>
2.8499

> <Gold.Chemscore.DEInternal.Weighted>
0.4868

> <Gold.Chemscore.Rot.Weighted>
6.3585

> <Gold.Chemscore.Internal.Correction.Weighted>
   9.000000E+99

> <Gold.Protein.RotatedTorsions>
[ 6907 6896 6895 6894 ] final   54.75 input  -60.11 | X-H torsion
[ 7974 7965 7964 7962 ] final  -43.26 input  175.53 | X-H torsion
[ 8008 7997 7996 7995 ] final  167.68 input   59.86 | X-H torsion
[ 10167 10162 10161 10158 ] final  -80.35 input  -65.29 | X-H torsion
[ 10718 10713 10712 10709 ] final  175.79 input   66.30 | X-H torsion
[ 10763 10752 10751 10750 ] final  133.79 input  -60.55 | X-H torsion
[ 11005 11000 10999 10996 ] final  -27.03 input  -57.11 | X-H torsion

> <Gold.Protein.ActiveResidues>
 VAL166  LYS551  ARG553  GLY616  TRP617  ASP618  TYR619  PRO620  LYS621  CYS622 
 ASP623  PHE694  ASN695  SER759  ASP760  ASP761  ALA762  ILE779  LEU786  VAL792 
 PHE793  MET794  SER795  GLU796  ALA797  LYS798  CYS799  TRP800  GLU811  SER814 

> <Gold.Protein.RotatedAtoms>
  152.3470  134.7057  160.0247 H   0  0  0  0  0  0  0  0  0  0  0  0  # atno 6907 bound_to 6896
  151.7423  133.3317  159.3377 H   0  0  0  0  0  0  0  0  0  0  0  0  # atno 6908 bound_to 6896
  150.7516  134.6200  159.6175 H   0  0  0  0  0  0  0  0  0  0  0  0  # atno 6909 bound_to 6896
  146.0036  140.7046  142.9258 H   0  0  0  0  0  0  0  0  0  0  0  0  # atno 7974 bound_to 7965
  156.1612  140.1610  156.8608 H   0  0  0  0  0  0  0  0  0  0  0  0  # atno 8008 bound_to 7997
  154.5163  140.0789  156.8123 H   0  0  0  0  0  0  0  0  0  0  0  0  # atno 8009 bound_to 7997
  155.3702  140.3400  155.4245 H   0  0  0  0  0  0  0  0  0  0  0  0  # atno 8010 bound_to 7997
  140.4511  143.2483  151.8487 H   0  0  0  0  0  0  0  0  0  0  0  0  # atno 10167 bound_to 10162
  156.9297  130.9967  151.2989 H   0  0  0  0  0  0  0  0  0  0  0  0  # atno 10718 bound_to 10713
  153.8129  135.3126  155.3402 H   0  0  0  0  0  0  0  0  0  0  0  0  # atno 10763 bound_to 10752
  154.8044  135.4707  154.0358 H   0  0  0  0  0  0  0  0  0  0  0  0  # atno 10764 bound_to 10752
  153.1742  135.6883  153.8655 H   0  0  0  0  0  0  0  0  0  0  0  0  # atno 10765 bound_to 10752
  140.9083  133.7478  156.0635 H   0  0  0  0  0  0  0  0  0  0  0  0  # atno 11005 bound_to 11000
  144.6928  140.3275  143.7221 LP  0  0  0  0  0  0  0  0  0  0  0  0  # atno 17320 bound_to 7965
  145.7450  139.1776  143.2354 LP  0  0  0  0  0  0  0  0  0  0  0  0  # atno 17321 bound_to 7965
  139.4797  144.5118  151.8922 LP  0  0  0  0  0  0  0  0  0  0  0  0  # atno 17342 bound_to 10162
  140.4206  144.2249  150.5887 LP  0  0  0  0  0  0  0  0  0  0  0  0  # atno 17343 bound_to 10162
  157.5855  130.8406  149.8583 LP  0  0  0  0  0  0  0  0  0  0  0  0  # atno 17370 bound_to 10713
  156.0453  130.3729  150.1334 LP  0  0  0  0  0  0  0  0  0  0  0  0  # atno 17371 bound_to 10713
  140.8143  134.3363  157.5402 LP  0  0  0  0  0  0  0  0  0  0  0  0  # atno 17394 bound_to 11000
  139.8753  134.9272  156.3420 LP  0  0  0  0  0  0  0  0  0  0  0  0  # atno 17395 bound_to 11000

$$$$
