AV-unprocessed.smi:2758|AV-procd|sdf|10622|dock6
  -GOLD-   2272015 73D 1   1.00000     0.00000
 Structure written by MMmdl.
 32 33  0  0  0  0  0  0  0  0  1 V2000
  146.1197  143.0367  154.0262 C   0  0  0  0  0  0  0  0  0  0  0  0
  147.3569  142.3492  154.0923 O   0  0  0  0  0  0  0  0  0  0  0  0
  147.3655  141.3422  155.0910 C   0  0  0  0  0  0  0  0  0  0  0  0
  148.6915  140.5692  155.0182 C   0  0  1  0  0  0  0  0  0  0  0  0
  148.7253  139.8586  153.7962 O   0  0  0  0  0  0  0  0  0  0  0  0
  149.9094  141.5123  155.0883 C   0  0  0  0  0  0  0  0  0  0  0  0
  150.8716  141.1133  156.1073 N   0  0  0  0  0  0  0  0  0  0  0  0
  151.6235  139.9856  156.1609 C   0  0  0  0  0  0  0  0  0  0  0  0
  151.5533  138.9343  155.0994 C   0  0  0  0  0  0  0  0  0  0  0  0
  152.4314  139.8748  157.2158 N   0  0  0  0  0  0  0  0  0  0  0  0
  152.1831  141.0422  157.9113 C   0  0  0  0  0  0  0  0  0  0  0  0
  152.7305  141.5243  159.1219 C   0  0  0  0  0  0  0  0  0  0  0  0
  152.3199  142.7678  159.6457 C   0  0  0  0  0  0  0  0  0  0  0  0
  151.3574  143.5449  158.9689 C   0  0  0  0  0  0  0  0  0  0  0  0
  150.7985  143.0827  157.7618 C   0  0  0  0  0  0  0  0  0  0  0  0
  151.2124  141.8412  157.2430 C   0  0  0  0  0  0  0  0  0  0  0  0
  148.7446  139.8565  155.8424 H   0  0  0  0  0  0  0  0  0  0  0  0
  146.1598  143.7886  153.2384 H   0  0  0  0  0  0  0  0  0  0  0  0
  145.9021  143.5457  154.9660 H   0  0  0  0  0  0  0  0  0  0  0  0
  145.2993  142.3549  153.7989 H   0  0  0  0  0  0  0  0  0  0  0  0
  147.2108  141.7643  156.0858 H   0  0  0  0  0  0  0  0  0  0  0  0
  146.5335  140.6633  154.8959 H   0  0  0  0  0  0  0  0  0  0  0  0
  149.2099  140.3716  153.1673 H   0  0  0  0  0  0  0  0  0  0  0  0
  150.4035  141.5703  154.1184 H   0  0  0  0  0  0  0  0  0  0  0  0
  149.5806  142.5262  155.3200 H   0  0  0  0  0  0  0  0  0  0  0  0
  152.1796  138.0815  155.3633 H   0  0  0  0  0  0  0  0  0  0  0  0
  151.9046  139.3361  154.1488 H   0  0  0  0  0  0  0  0  0  0  0  0
  150.5290  138.5823  154.9792 H   0  0  0  0  0  0  0  0  0  0  0  0
  153.4690  140.9367  159.6469 H   0  0  0  0  0  0  0  0  0  0  0  0
  152.7460  143.1271  160.5711 H   0  0  0  0  0  0  0  0  0  0  0  0
  151.0489  144.4964  159.3769 H   0  0  0  0  0  0  0  0  0  0  0  0
  150.0613  143.6751  157.2405 H   0  0  0  0  0  0  0  0  0  0  0  0
  1  2  1  0  0  0  0
  1 18  1  0  0  0  0
  1 19  1  0  0  0  0
  1 20  1  0  0  0  0
  2  3  1  0  0  0  0
  3  4  1  0  0  0  0
  3 21  1  0  0  0  0
  3 22  1  0  0  0  0
  4 17  1  0  0  0  0
  4  5  1  0  0  0  0
  4  6  1  0  0  0  0
  5 23  1  0  0  0  0
  6  7  1  0  0  0  0
  6 24  1  0  0  0  0
  6 25  1  0  0  0  0
  7 16  1  0  0  0  0
  7  8  1  0  0  0  0
  8  9  1  0  0  0  0
  8 10  2  0  0  0  0
  9 26  1  0  0  0  0
  9 27  1  0  0  0  0
  9 28  1  0  0  0  0
 10 11  1  0  0  0  0
 11 16  2  0  0  0  0
 11 12  1  0  0  0  0
 12 13  2  0  0  0  0
 12 29  1  0  0  0  0
 13 14  1  0  0  0  0
 13 30  1  0  0  0  0
 14 15  2  0  0  0  0
 14 31  1  0  0  0  0
 15 16  1  0  0  0  0
 15 32  1  0  0  0  0
M  END
> <s_m_source_file>
AV-unprocessed.smi

> <i_m_source_file_index>
2758

> <i_lp_mmshare_version>
43012

> <i_f3d_flags>
0

> <s_epik_input>
W0NIM11PW0NIMl1bQ0BASF0oW09IXSlbQ0gyXW4oYyhuMSlbQ0gzXSljKGMxMilbY0hdW2NIXVtjSF1bY0hdMg==

> <s_epik_cmdline>
J2VwaWtfcHl0aG9uJywgJy1waCcsICc3LjAnLCAnLXRuJywgJzgnLCAnLW1hJywgJzIwMCcsICctbWV0YWxfYmluZGluZycsICctaW1hZScsICc8aW5maWxlLm1hZT4nLCAnLW9tYWUnLCAnPG91dGZpbGUubWFlPic=

> <r_epik_Ionization_Penalty>
0.126985

> <r_epik_Ionization_Penalty_Charging>
0

> <r_epik_Ionization_Penalty_Neutral>
0.126985

> <r_epik_State_Penalty>
0.116428

> <r_epik_Charging_Adjusted_Penalty>
0.116428

> <i_epik_Tot_Q>
0

> <i_epik_Tot_abs_Q>
0

> <r_epik_Metal_State_Penalty>
0.000128642

> <b_epik_Metal_Only>
0

> <s_lp_Force_Field>
OPLS_2005

> <r_lp_Energy>
8.80871

> <b_lp_Chiralities_Consistent>
1

> <s_lp_Variant>
AV-unprocessed.smi:2758-1

> <Gold.Version>
5.8.1

> <Gold.Id.Protein>
6NUR|6NUR_protein|mol2

> <Gold.PLP.Fitness>
37.9906

> <Gold.PLP.PLP>
-34.6532

> <Gold.PLP.part.hbond>
-2.0000

> <Gold.PLP.part.metal>
0.0000

> <Gold.PLP.part.buried>
-3.5953

> <Gold.PLP.part.nonpolar>
-28.9448

> <Gold.PLP.part.repulsive>
0.1686

> <Gold.PLP.ligand.clash>
0.0000

> <Gold.PLP.ligand.torsion>
0.7616

> <Gold.PLP.Chemscore.Hbond>
1.6185

> <Gold.PLP.Chemscore.CHOScore>
0.0000

> <Gold.PLP.Chemscore.Metal>
0.0000

> <Gold.Chemscore.Hbonds>
donor molecule, donor type, donor heavy atom, donor atom, acceptor molecule, acceptor atom, score
      L1  H     5    23       P1  7957  0.56
      P1  H  7997  8009       L1    10  0.98

> <Gold.PLP.Chemscore.Internal.Correction>
0.0050

> <Gold.Rescore>
     Score         DG    S(hbond)    S(metal)    S(lipo)     H(rot)  DE(clash)    DE(int)     intcor
     13.93     -15.06       1.47        0.00      84.83       2.05       0.24       0.88       ----

> <Gold.Chemscore.Fitness>
13.9324

> <Gold.Chemscore.DG>
-15.0567

> <Gold.Chemscore.ZeroCoef>
-5.4800

> <Gold.Chemscore.Hbond>
1.4679

> <Gold.Chemscore.Metal>
0.0000

> <Gold.Chemscore.Lipo>
84.8317

> <Gold.Chemscore.Internal_Hbond>
0.0000

> <Gold.Chemscore.DEClash>
0.2393

> <Gold.Chemscore.DEInternal>
0.8849

> <Gold.Chemscore.Rot>
2.0513

> <Gold.Chemscore.Internal.Correction>
   9.000000E+99

> <Gold.Chemscore.Hbonds>
donor molecule, donor type, donor heavy atom, donor atom, acceptor molecule, acceptor atom, score
      L1  H     5    23       P1  7957  0.54
      P1  H  7997  8009       L1    10  0.24

> <Gold.Chemscore.Hbond.Weighted>
-4.9028

> <Gold.Chemscore.Metal.Weighted>
-0.0000

> <Gold.Chemscore.Lipo.Weighted>
-9.9253

> <Gold.Chemscore.Internal_Hbond.Weighted>
0.0000

> <Gold.Chemscore.DEClash.Weighted>
0.2393

> <Gold.Chemscore.DEInternal.Weighted>
0.8849

> <Gold.Chemscore.Rot.Weighted>
5.2514

> <Gold.Chemscore.Internal.Correction.Weighted>
   9.000000E+99

> <Gold.Protein.RotatedTorsions>
[ 6907 6896 6895 6894 ] final  -16.58 input  -60.11 | X-H torsion
[ 7974 7965 7964 7962 ] final   98.01 input  175.53 | X-H torsion
[ 8008 7997 7996 7995 ] final -174.93 input   59.86 | X-H torsion
[ 10167 10162 10161 10158 ] final  -50.49 input  -65.29 | X-H torsion
[ 10718 10713 10712 10709 ] final  -25.17 input   66.30 | X-H torsion
[ 10763 10752 10751 10750 ] final   59.65 input  -60.55 | X-H torsion
[ 11005 11000 10999 10996 ] final  -77.85 input  -57.11 | X-H torsion

> <Gold.Protein.ActiveResidues>
 VAL166  LYS551  ARG553  GLY616  TRP617  ASP618  TYR619  PRO620  LYS621  CYS622 
 ASP623  PHE694  ASN695  SER759  ASP760  ASP761  ALA762  ILE779  LEU786  VAL792 
 PHE793  MET794  SER795  GLU796  ALA797  LYS798  CYS799  TRP800  GLU811  SER814 

> <Gold.Protein.RotatedAtoms>
  151.3064  135.0782  159.9256 H   0  0  0  0  0  0  0  0  0  0  0  0  # atno 6907 bound_to 6896
  152.5287  133.9780  159.7803 H   0  0  0  0  0  0  0  0  0  0  0  0  # atno 6908 bound_to 6896
  151.0076  133.5944  159.2717 H   0  0  0  0  0  0  0  0  0  0  0  0  # atno 6909 bound_to 6896
  145.4178  139.2325  143.3213 H   0  0  0  0  0  0  0  0  0  0  0  0  # atno 7974 bound_to 7965
  155.9762  140.1172  157.0768 H   0  0  0  0  0  0  0  0  0  0  0  0  # atno 8008 bound_to 7997
  154.4170  140.1153  156.5441 H   0  0  0  0  0  0  0  0  0  0  0  0  # atno 8009 bound_to 7997
  155.6531  140.3473  155.4757 H   0  0  0  0  0  0  0  0  0  0  0  0  # atno 8010 bound_to 7997
  140.6635  143.2656  151.4366 H   0  0  0  0  0  0  0  0  0  0  0  0  # atno 10167 bound_to 10162
  156.4679  130.4518  149.6887 H   0  0  0  0  0  0  0  0  0  0  0  0  # atno 10718 bound_to 10713
  152.9900  135.5564  154.5747 H   0  0  0  0  0  0  0  0  0  0  0  0  # atno 10763 bound_to 10752
  154.5140  135.2804  155.1321 H   0  0  0  0  0  0  0  0  0  0  0  0  # atno 10764 bound_to 10752
  154.2701  135.6364  153.5360 H   0  0  0  0  0  0  0  0  0  0  0  0  # atno 10765 bound_to 10752
  141.1662  133.7039  156.7882 H   0  0  0  0  0  0  0  0  0  0  0  0  # atno 11005 bound_to 11000
  146.2672  140.4899  142.8829 LP  0  0  0  0  0  0  0  0  0  0  0  0  # atno 17320 bound_to 7965
  144.8265  140.6637  143.6318 LP  0  0  0  0  0  0  0  0  0  0  0  0  # atno 17321 bound_to 7965
  139.5876  144.1570  152.2048 LP  0  0  0  0  0  0  0  0  0  0  0  0  # atno 17342 bound_to 10162
  140.0914  144.5617  150.7052 LP  0  0  0  0  0  0  0  0  0  0  0  0  # atno 17343 bound_to 10162
  156.3649  130.7500  151.2477 LP  0  0  0  0  0  0  0  0  0  0  0  0  # atno 17370 bound_to 10713
  157.7493  131.0340  150.4296 LP  0  0  0  0  0  0  0  0  0  0  0  0  # atno 17371 bound_to 10713
  140.2344  134.8661  157.3510 LP  0  0  0  0  0  0  0  0  0  0  0  0  # atno 17394 bound_to 11000
  140.1858  134.4433  155.7745 LP  0  0  0  0  0  0  0  0  0  0  0  0  # atno 17395 bound_to 11000

$$$$
