AV-unprocessed.smi:283|AV-procd|sdf|2147|dock8
  -GOLD-   2262021483D 1   1.00000     0.00000
 Structure written by MMmdl.
 48 51  0  0  0  0  0  0  0  0  1 V2000
  151.2797  140.3186  156.3265 C   0  0  0  0  0  0  0  0  0  0  0  0
  150.9535  140.4652  157.8186 C   0  0  2  0  0  0  0  0  0  0  0  0
  149.5062  140.3989  158.0192 N   0  0  0  0  0  0  0  0  0  0  0  0
  148.8120  139.3187  157.5983 C   0  0  0  0  0  0  0  0  0  0  0  0
  148.8043  138.2559  158.4377 N   0  0  0  0  0  0  0  0  0  0  0  0
  148.1839  137.1274  158.0826 C   0  0  0  0  0  0  0  0  0  0  0  0
  147.5316  136.8550  156.9511 N   0  0  0  0  0  0  0  0  0  0  0  0
  147.5243  137.9254  156.1048 C   0  0  0  0  0  0  0  0  0  0  0  0
  148.1158  139.1947  156.3609 C   0  0  0  0  0  0  0  0  0  0  0  0
  147.8536  140.0461  155.2951 N   0  0  0  0  0  0  0  0  0  0  0  0
  147.1721  139.3151  154.4575 C   0  0  0  0  0  0  0  0  0  0  0  0
  146.9785  138.0048  154.8393 N   0  0  0  0  0  0  0  0  0  0  0  0
  146.2534  136.9119  154.1105 C   0  0  1  0  0  0  0  0  0  0  0  0
  145.2176  136.4500  154.9305 O   0  0  0  0  0  0  0  0  0  0  0  0
  143.9688  137.0068  154.5289 C   0  0  1  0  0  0  0  0  0  0  0  0
  143.7177  138.3454  155.2618 C   0  0  0  0  0  0  0  0  0  0  0  0
  142.5870  139.0054  154.7314 O   0  0  0  0  0  0  0  0  0  0  0  0
  144.1276  137.0851  153.0046 C   0  0  1  0  0  0  0  0  0  0  0  0
  143.2811  138.0484  152.4080 O   0  0  0  0  0  0  0  0  0  0  0  0
  145.5992  137.4358  152.8130 C   0  0  2  0  0  0  0  0  0  0  0  0
  146.1049  136.7766  151.6690 O   0  0  0  0  0  0  0  0  0  0  0  0
  151.6244  141.7191  158.3905 C   0  0  0  0  0  0  0  0  0  0  0  0
  151.3252  142.9888  157.8432 C   0  0  0  0  0  0  0  0  0  0  0  0
  151.9126  144.1548  158.3685 C   0  0  0  0  0  0  0  0  0  0  0  0
  152.8170  144.0637  159.4413 C   0  0  0  0  0  0  0  0  0  0  0  0
  153.1385  142.8049  159.9808 C   0  0  0  0  0  0  0  0  0  0  0  0
  152.5527  141.6337  159.4593 C   0  0  0  0  0  0  0  0  0  0  0  0
  152.9981  140.1144  160.1546 Cl  0  0  0  0  0  0  0  0  0  0  0  0
  147.0112  136.1416  153.9608 H   0  0  0  0  0  0  0  0  0  0  0  0
  143.1808  136.3024  154.7993 H   0  0  0  0  0  0  0  0  0  0  0  0
  143.9104  136.1025  152.5818 H   0  0  0  0  0  0  0  0  0  0  0  0
  145.7331  138.5152  152.7262 H   0  0  0  0  0  0  0  0  0  0  0  0
  152.3572  140.2781  156.1642 H   0  0  0  0  0  0  0  0  0  0  0  0
  150.8876  141.1566  155.7491 H   0  0  0  0  0  0  0  0  0  0  0  0
  150.8519  139.4025  155.9181 H   0  0  0  0  0  0  0  0  0  0  0  0
  151.3616  139.5866  158.3146 H   0  0  0  0  0  0  0  0  0  0  0  0
  149.1605  140.9908  158.7602 H   0  0  0  0  0  0  0  0  0  0  0  0
  148.2261  136.3236  158.8027 H   0  0  0  0  0  0  0  0  0  0  0  0
  146.8053  139.7182  153.5252 H   0  0  0  0  0  0  0  0  0  0  0  0
  143.5080  138.1583  156.3146 H   0  0  0  0  0  0  0  0  0  0  0  0
  144.5861  139.0035  155.2175 H   0  0  0  0  0  0  0  0  0  0  0  0
  142.8740  139.5852  154.0424 H   0  0  0  0  0  0  0  0  0  0  0  0
  143.6758  138.9008  152.5134 H   0  0  0  0  0  0  0  0  0  0  0  0
  147.0236  136.6019  151.8034 H   0  0  0  0  0  0  0  0  0  0  0  0
  150.6324  143.0768  157.0191 H   0  0  0  0  0  0  0  0  0  0  0  0
  151.6679  145.1191  157.9481 H   0  0  0  0  0  0  0  0  0  0  0  0
  153.2682  144.9575  159.8462 H   0  0  0  0  0  0  0  0  0  0  0  0
  153.8402  142.7378  160.7992 H   0  0  0  0  0  0  0  0  0  0  0  0
  1  2  1  0  0  0  0
  1 33  1  0  0  0  0
  1 34  1  0  0  0  0
  1 35  1  0  0  0  0
  2  3  1  0  0  0  0
  2 22  1  0  0  0  0
  2 36  1  0  0  0  0
  3  4  1  0  0  0  0
  3 37  1  0  0  0  0
  4  9  1  0  0  0  0
  4  5  2  0  0  0  0
  5  6  1  0  0  0  0
  6  7  2  0  0  0  0
  6 38  1  0  0  0  0
  7  8  1  0  0  0  0
  8 12  1  0  0  0  0
  8  9  2  0  0  0  0
  9 10  1  0  0  0  0
 10 11  2  0  0  0  0
 11 12  1  0  0  0  0
 11 39  1  0  0  0  0
 12 13  1  0  0  0  0
 13 29  1  0  0  0  0
 13 20  1  0  0  0  0
 13 14  1  0  0  0  0
 14 15  1  0  0  0  0
 15 30  1  0  0  0  0
 15 16  1  0  0  0  0
 15 18  1  0  0  0  0
 16 17  1  0  0  0  0
 16 40  1  0  0  0  0
 16 41  1  0  0  0  0
 17 42  1  0  0  0  0
 18 31  1  0  0  0  0
 18 19  1  0  0  0  0
 18 20  1  0  0  0  0
 19 43  1  0  0  0  0
 20 32  1  0  0  0  0
 20 21  1  0  0  0  0
 21 44  1  0  0  0  0
 22 27  1  0  0  0  0
 22 23  2  0  0  0  0
 23 24  1  0  0  0  0
 23 45  1  0  0  0  0
 24 25  2  0  0  0  0
 24 46  1  0  0  0  0
 25 26  1  0  0  0  0
 25 47  1  0  0  0  0
 26 27  2  0  0  0  0
 26 48  1  0  0  0  0
 27 28  1  0  0  0  0
M  END
> <s_m_source_file>
AV-unprocessed.smi

> <i_m_source_file_index>
283

> <i_lp_mmshare_version>
43012

> <i_f3d_flags>
0

> <s_epik_input>
Q2xjMVtjSF1bY0hdW2NIXVtjSF1jMVtDQEhdKFtDSDNdKVtOSF1jKG5bY0hdbjIpYyhjMjMpbltjSF1uM1tDQEBIXTRPW0NASF0oW0NIMl1bT0hdKVtDQEBIXShbT0hdKVtDQEhdNFtPSF0=

> <s_epik_cmdline>
J2VwaWtfcHl0aG9uJywgJy1waCcsICc3LjAnLCAnLXRuJywgJzgnLCAnLW1hJywgJzIwMCcsICctbWV0YWxfYmluZGluZycsICctaW1hZScsICc8aW5maWxlLm1hZT4nLCAnLW9tYWUnLCAnPG91dGZpbGUubWFlPic=

> <r_lp_tautomer_probability>
1

> <r_epik_Ionization_Penalty>
0.000266407

> <r_epik_Ionization_Penalty_Charging>
0

> <r_epik_Ionization_Penalty_Neutral>
0.000266407

> <r_epik_State_Penalty>
-0

> <r_epik_Charging_Adjusted_Penalty>
0

> <i_epik_Tot_Q>
0

> <i_epik_Tot_abs_Q>
0

> <r_epik_Metal_State_Penalty>
-0

> <b_epik_Metal_Only>
0

> <s_epik_Chemistry_Notes>
This compound contains an acetal/aminal-like group ( X-CH(R)-Y where X, Y are N, S, or O) that may be acid/base labile, releasing an aldehyde.

> <s_lp_Force_Field>
OPLS_2005

> <r_lp_Energy>
42.7281

> <b_lp_Chiralities_Consistent>
1

> <s_lp_Variant>
AV-unprocessed.smi:283-23

> <Gold.Version>
5.8.1

> <Gold.Id.Protein>
6NUR|6NUR_protein|mol2

> <Gold.PLP.Fitness>
46.4301

> <Gold.PLP.PLP>
-39.0836

> <Gold.PLP.part.hbond>
-3.7077

> <Gold.PLP.part.metal>
0.0000

> <Gold.PLP.part.buried>
-5.6641

> <Gold.PLP.part.nonpolar>
-29.6817

> <Gold.PLP.part.repulsive>
0.1950

> <Gold.PLP.ligand.clash>
0.0000

> <Gold.PLP.ligand.torsion>
0.8682

> <Gold.PLP.Chemscore.Hbond>
3.0000

> <Gold.PLP.Chemscore.CHOScore>
0.0000

> <Gold.PLP.Chemscore.Metal>
0.0000

> <Gold.Chemscore.Hbonds>
donor molecule, donor type, donor heavy atom, donor atom, acceptor molecule, acceptor atom, score
      L1  H    17    42       P1 10175  1.00
      L1  H    19    43       P1 10175  1.00
      L1  H    21    44       P1  7948  1.00

> <Gold.PLP.Chemscore.Internal.Correction>
0.0828

> <Gold.Rescore>
     Score         DG    S(hbond)    S(metal)    S(lipo)     H(rot)  DE(clash)    DE(int)     intcor
     15.94     -16.84       2.99        0.00     101.48       4.10       0.01       0.89       ----

> <Gold.Chemscore.Fitness>
15.9394

> <Gold.Chemscore.DG>
-16.8450

> <Gold.Chemscore.ZeroCoef>
-5.4800

> <Gold.Chemscore.Hbond>
2.9878

> <Gold.Chemscore.Metal>
0.0000

> <Gold.Chemscore.Lipo>
101.4833

> <Gold.Chemscore.Internal_Hbond>
0.0000

> <Gold.Chemscore.DEClash>
0.0118

> <Gold.Chemscore.DEInternal>
0.8938

> <Gold.Chemscore.Rot>
4.0968

> <Gold.Chemscore.Internal.Correction>
   9.000000E+99

> <Gold.Chemscore.Hbonds>
donor molecule, donor type, donor heavy atom, donor atom, acceptor molecule, acceptor atom, score
      L1  H    17    42       P1 10175  1.00
      L1  H    19    43       P1 10175  0.90
      L1  H    21    44       P1  7948  0.99

> <Gold.Chemscore.Hbond.Weighted>
-9.9793

> <Gold.Chemscore.Metal.Weighted>
-0.0000

> <Gold.Chemscore.Lipo.Weighted>
-11.8735

> <Gold.Chemscore.Internal_Hbond.Weighted>
0.0000

> <Gold.Chemscore.DEClash.Weighted>
0.0118

> <Gold.Chemscore.DEInternal.Weighted>
0.8938

> <Gold.Chemscore.Rot.Weighted>
10.4879

> <Gold.Chemscore.Internal.Correction.Weighted>
   9.000000E+99

> <Gold.Protein.RotatedTorsions>
[ 6907 6896 6895 6894 ] final -118.81 input  -60.11 | X-H torsion
[ 7974 7965 7964 7962 ] final   74.34 input  175.53 | X-H torsion
[ 8008 7997 7996 7995 ] final   47.12 input   59.86 | X-H torsion
[ 10167 10162 10161 10158 ] final   14.62 input  -65.29 | X-H torsion
[ 10718 10713 10712 10709 ] final  -14.63 input   66.30 | X-H torsion
[ 10763 10752 10751 10750 ] final  174.45 input  -60.55 | X-H torsion
[ 11005 11000 10999 10996 ] final   45.64 input  -57.11 | X-H torsion

> <Gold.Protein.ActiveResidues>
 VAL166  LYS551  ARG553  GLY616  TRP617  ASP618  TYR619  PRO620  LYS621  CYS622 
 ASP623  PHE694  ASN695  SER759  ASP760  ASP761  ALA762  ILE779  LEU786  VAL792 
 PHE793  MET794  SER795  GLU796  ALA797  LYS798  CYS799  TRP800  GLU811  SER814 

> <Gold.Protein.RotatedAtoms>
  150.8251  133.8185  159.3121 H   0  0  0  0  0  0  0  0  0  0  0  0  # atno 6907 bound_to 6896
  151.5932  135.1050  160.0053 H   0  0  0  0  0  0  0  0  0  0  0  0  # atno 6908 bound_to 6896
  152.4337  133.7282  159.6628 H   0  0  0  0  0  0  0  0  0  0  0  0  # atno 6909 bound_to 6896
  145.7294  139.2678  143.1550 H   0  0  0  0  0  0  0  0  0  0  0  0  # atno 7974 bound_to 7965
  155.3638  140.3420  155.4241 H   0  0  0  0  0  0  0  0  0  0  0  0  # atno 8008 bound_to 7997
  156.1699  140.1628  156.8500 H   0  0  0  0  0  0  0  0  0  0  0  0  # atno 8009 bound_to 7997
  154.5223  140.0764  156.8176 H   0  0  0  0  0  0  0  0  0  0  0  0  # atno 8010 bound_to 7997
  140.5923  143.8771  150.6885 H   0  0  0  0  0  0  0  0  0  0  0  0  # atno 10167 bound_to 10162
  156.6132  130.4855  149.6193 H   0  0  0  0  0  0  0  0  0  0  0  0  # atno 10718 bound_to 10713
  154.4541  135.2765  155.1760 H   0  0  0  0  0  0  0  0  0  0  0  0  # atno 10763 bound_to 10752
  154.3575  135.6136  153.5677 H   0  0  0  0  0  0  0  0  0  0  0  0  # atno 10764 bound_to 10752
  152.9849  135.5826  154.4891 H   0  0  0  0  0  0  0  0  0  0  0  0  # atno 10765 bound_to 10752
  140.1441  134.4545  155.8428 H   0  0  0  0  0  0  0  0  0  0  0  0  # atno 11005 bound_to 11000
  146.0551  140.8029  142.9762 LP  0  0  0  0  0  0  0  0  0  0  0  0  # atno 17320 bound_to 7965
  144.6896  140.3112  143.7248 LP  0  0  0  0  0  0  0  0  0  0  0  0  # atno 17321 bound_to 7965
  140.2297  143.3745  152.1576 LP  0  0  0  0  0  0  0  0  0  0  0  0  # atno 17342 bound_to 10162
  139.5235  144.7072  151.5316 LP  0  0  0  0  0  0  0  0  0  0  0  0  # atno 17343 bound_to 10162
  156.2372  130.6830  151.1521 LP  0  0  0  0  0  0  0  0  0  0  0  0  # atno 17370 bound_to 10713
  157.7248  131.0657  150.5978 LP  0  0  0  0  0  0  0  0  0  0  0  0  # atno 17371 bound_to 10713
  141.2190  133.6845  156.7302 LP  0  0  0  0  0  0  0  0  0  0  0  0  # atno 17394 bound_to 11000
  140.2685  134.8411  157.3825 LP  0  0  0  0  0  0  0  0  0  0  0  0  # atno 17395 bound_to 11000

$$$$
