AV-unprocessed.smi:2886|AV-procd|sdf|11093|dock8
  -GOLD-   2272015563D 1   1.00000     0.00000
 Structure written by MMmdl.
 28 30  0  0  0  0  0  0  0  0  3 V2000
  153.4125  138.2855  156.7733 O   0  0  0  0  0  0  0  0  0  0  0  0
  152.5291  138.3897  155.9245 C   0  0  0  0  0  0  0  0  0  0  0  0
  152.3273  137.4677  154.9365 N   0  5  0  0  0  0  0  0  0  0  0  0
  151.3758  137.6059  154.0404 N   0  3  0  0  0  0  0  0  0  0  0  0
  150.5364  138.6362  154.0107 C   0  0  0  0  0  0  0  0  0  0  0  0
  150.6332  139.6650  154.9891 C   0  0  0  0  0  0  0  0  0  0  0  0
  149.7822  140.7632  155.0028 N   0  0  0  0  0  0  0  0  0  0  0  0
  148.6864  141.0941  154.1007 C   0  0  2  0  0  0  0  0  0  0  0  0
  147.6730  142.0663  154.7060 C   0  0  0  0  0  0  0  0  0  0  0  0
  146.3562  141.3004  154.5134 C   0  0  2  0  0  0  0  0  0  0  0  0
  146.2251  140.1469  155.5163 C   0  0  0  0  0  0  0  0  0  0  0  0
  147.2416  139.1452  154.9714 C   0  0  0  0  0  0  0  0  0  0  0  0
  147.7984  139.8893  153.7452 C   0  0  1  0  0  0  0  0  0  0  0  0
  146.6318  140.5770  153.3244 O   0  0  0  0  0  0  0  0  0  0  0  0
  151.6158  139.5475  155.9283 C   0  0  0  0  0  0  0  0  0  0  0  0
  151.8179  140.7536  157.1563 Cl  0  0  0  0  0  0  0  0  0  0  0  0
  151.2448  136.8979  153.3011 H   0  0  0  0  0  0  0  0  0  0  0  0
  149.7999  138.6444  153.2177 H   0  0  0  0  0  0  0  0  0  0  0  0
  149.8549  141.3713  155.8066 H   0  0  0  0  0  0  0  0  0  0  0  0
  149.0691  141.5115  153.1699 H   0  0  0  0  0  0  0  0  0  0  0  0
  147.8614  142.2985  155.7554 H   0  0  0  0  0  0  0  0  0  0  0  0
  147.6676  143.0026  154.1471 H   0  0  0  0  0  0  0  0  0  0  0  0
  145.4752  141.9403  154.4588 H   0  0  0  0  0  0  0  0  0  0  0  0
  146.4414  140.4573  156.5392 H   0  0  0  0  0  0  0  0  0  0  0  0
  145.2204  139.7231  155.4924 H   0  0  0  0  0  0  0  0  0  0  0  0
  148.0097  138.8799  155.6982 H   0  0  0  0  0  0  0  0  0  0  0  0
  146.7391  138.2269  154.6654 H   0  0  0  0  0  0  0  0  0  0  0  0
  148.2288  139.2329  152.9883 H   0  0  0  0  0  0  0  0  0  0  0  0
  1  2  2  0  0  0  0
  2  3  1  0  0  0  0
  2 15  1  0  0  0  0
  3  4  1  0  0  0  0
  4  5  2  0  0  0  0
  4 17  1  0  0  0  0
  5  6  1  0  0  0  0
  5 18  1  0  0  0  0
  6 15  2  0  0  0  0
  6  7  1  0  0  0  0
  7  8  1  0  0  0  0
  7 19  1  0  0  0  0
  8 13  1  0  0  0  0
  8  9  1  0  0  0  0
  8 20  1  0  0  0  0
  9 10  1  0  0  0  0
  9 21  1  0  0  0  0
  9 22  1  0  0  0  0
 10 14  1  0  0  0  0
 10 11  1  0  0  0  0
 10 23  1  0  0  0  0
 11 12  1  0  0  0  0
 11 24  1  0  0  0  0
 11 25  1  0  0  0  0
 12 13  1  0  0  0  0
 12 26  1  0  0  0  0
 12 27  1  0  0  0  0
 13 14  1  0  0  0  0
 13 28  1  0  0  0  0
 15 16  1  0  0  0  0
M  CHG  1   3  -1
M  CHG  1   4   1
M  END
> <s_m_source_file>
AV-unprocessed.smi

> <i_m_source_file_index>
2886

> <i_lp_mmshare_version>
43012

> <i_f3d_flags>
0

> <s_epik_input>
Tz1jMVtuSF1uW2NIXWMoYzFDbClbTkhdW0NASF0oW0NIMl1bQ0BASF0yMylbQ0BASF0oTzMpW0NIMl1bQ0gyXTI=

> <s_epik_cmdline>
J2VwaWtfcHl0aG9uJywgJy1waCcsICc3LjAnLCAnLXRuJywgJzgnLCAnLW1hJywgJzIwMCcsICctbWV0YWxfYmluZGluZycsICctaW1hZScsICc8aW5maWxlLm1hZT4nLCAnLW9tYWUnLCAnPG91dGZpbGUubWFlPic=

> <r_lp_tautomer_probability>
0.0138196

> <r_epik_Ionization_Penalty>
2.43027

> <r_epik_Ionization_Penalty_Charging>
2.43027

> <r_epik_Ionization_Penalty_Neutral>
1.33267e-06

> <r_epik_State_Penalty>
2.7044

> <r_epik_Charging_Adjusted_Penalty>
5.13467

> <i_epik_Tot_Q>
0

> <i_epik_Tot_abs_Q>
2

> <r_epik_Metal_State_Penalty>
2.98589

> <b_epik_Metal_Only>
0

> <s_lp_Force_Field>
OPLS_2005

> <r_lp_Energy>
57.8079

> <b_lp_Chiralities_Consistent>
1

> <s_lp_Variant>
AV-unprocessed.smi:2886-7

> <Gold.Version>
5.8.1

> <Gold.Id.Protein>
6NUR|6NUR_protein|mol2

> <Gold.PLP.Fitness>
36.1096

> <Gold.PLP.PLP>
-23.8661

> <Gold.PLP.part.hbond>
-3.0000

> <Gold.PLP.part.metal>
0.0000

> <Gold.PLP.part.buried>
-1.9967

> <Gold.PLP.part.nonpolar>
-20.1372

> <Gold.PLP.part.repulsive>
0.9548

> <Gold.PLP.ligand.clash>
0.0000

> <Gold.PLP.ligand.torsion>
0.2669

> <Gold.PLP.Chemscore.Hbond>
4.2560

> <Gold.PLP.Chemscore.CHOScore>
0.0000

> <Gold.PLP.Chemscore.Metal>
0.0000

> <Gold.Chemscore.Hbonds>
donor molecule, donor type, donor heavy atom, donor atom, acceptor molecule, acceptor atom, score
      L1  H     4    17       P1  7949  2.00
      P1  H  7997  8010       L1     1  0.88
      P1  H 10752 10763       L1     3  1.34

> <Gold.PLP.Chemscore.Internal.Correction>
0.0093

> <Gold.Rescore>
     Score         DG    S(hbond)    S(metal)    S(lipo)     H(rot)  DE(clash)    DE(int)     intcor
     12.90     -14.68       1.52        0.00      57.16       1.00       0.68       1.09       ----

> <Gold.Chemscore.Fitness>
12.9048

> <Gold.Chemscore.DG>
-14.6752

> <Gold.Chemscore.ZeroCoef>
-5.4800

> <Gold.Chemscore.Hbond>
1.5172

> <Gold.Chemscore.Metal>
0.0000

> <Gold.Chemscore.Lipo>
57.1613

> <Gold.Chemscore.Internal_Hbond>
0.0000

> <Gold.Chemscore.DEClash>
0.6794

> <Gold.Chemscore.DEInternal>
1.0910

> <Gold.Chemscore.Rot>
1.0000

> <Gold.Chemscore.Internal.Correction>
   9.000000E+99

> <Gold.Chemscore.Hbonds>
donor molecule, donor type, donor heavy atom, donor atom, acceptor molecule, acceptor atom, score
      L1  H     4    17       P1  7949  0.56
      P1  H  7997  8010       L1     1  0.49
      P1  H 10752 10763       L1     3  0.17

> <Gold.Chemscore.Hbond.Weighted>
-5.0674

> <Gold.Chemscore.Metal.Weighted>
-0.0000

> <Gold.Chemscore.Lipo.Weighted>
-6.6879

> <Gold.Chemscore.Internal_Hbond.Weighted>
0.0000

> <Gold.Chemscore.DEClash.Weighted>
0.6794

> <Gold.Chemscore.DEInternal.Weighted>
1.0910

> <Gold.Chemscore.Rot.Weighted>
2.5600

> <Gold.Chemscore.Internal.Correction.Weighted>
   9.000000E+99

> <Gold.Protein.RotatedTorsions>
[ 6907 6896 6895 6894 ] final -165.55 input  -60.11 | X-H torsion
[ 7974 7965 7964 7962 ] final -128.34 input  175.53 | X-H torsion
[ 8008 7997 7996 7995 ] final   51.85 input   59.86 | X-H torsion
[ 10167 10162 10161 10158 ] final -163.73 input  -65.29 | X-H torsion
[ 10718 10713 10712 10709 ] final  -14.93 input   66.30 | X-H torsion
[ 10763 10752 10751 10750 ] final   54.66 input  -60.55 | X-H torsion
[ 11005 11000 10999 10996 ] final   -7.50 input  -57.11 | X-H torsion

> <Gold.Protein.ActiveResidues>
 VAL166  LYS551  ARG553  GLY616  TRP617  ASP618  TYR619  PRO620  LYS621  CYS622 
 ASP623  PHE694  ASN695  SER759  ASP760  ASP761  ALA762  ILE779  LEU786  VAL792 
 PHE793  MET794  SER795  GLU796  ALA797  LYS798  CYS799  TRP800  GLU811  SER814 

> <Gold.Protein.RotatedAtoms>
  151.4294  133.3675  159.2766 H   0  0  0  0  0  0  0  0  0  0  0  0  # atno 6907 bound_to 6896
  150.9236  134.8655  159.7516 H   0  0  0  0  0  0  0  0  0  0  0  0  # atno 6908 bound_to 6896
  152.4994  134.4234  159.9540 H   0  0  0  0  0  0  0  0  0  0  0  0  # atno 6909 bound_to 6896
  144.9680  140.7516  143.4688 H   0  0  0  0  0  0  0  0  0  0  0  0  # atno 7974 bound_to 7965
  155.4421  140.3455  155.4291 H   0  0  0  0  0  0  0  0  0  0  0  0  # atno 8008 bound_to 7997
  156.1272  140.1504  156.9148 H   0  0  0  0  0  0  0  0  0  0  0  0  # atno 8009 bound_to 7997
  154.4867  140.0853  156.7483 H   0  0  0  0  0  0  0  0  0  0  0  0  # atno 8010 bound_to 7997
  139.6300  144.0458  152.2007 H   0  0  0  0  0  0  0  0  0  0  0  0  # atno 10167 bound_to 10162
  156.6090  130.4844  149.6209 H   0  0  0  0  0  0  0  0  0  0  0  0  # atno 10718 bound_to 10713
  152.9807  135.5737  154.4941 H   0  0  0  0  0  0  0  0  0  0  0  0  # atno 10763 bound_to 10752
  154.4471  135.2777  155.1809 H   0  0  0  0  0  0  0  0  0  0  0  0  # atno 10764 bound_to 10752
  154.3453  135.6221  153.5669 H   0  0  0  0  0  0  0  0  0  0  0  0  # atno 10765 bound_to 10752
  140.7134  133.8889  155.8767 H   0  0  0  0  0  0  0  0  0  0  0  0  # atno 11005 bound_to 11000
  145.2600  139.1996  143.4897 LP  0  0  0  0  0  0  0  0  0  0  0  0  # atno 17320 bound_to 7965
  146.3373  140.2529  142.8599 LP  0  0  0  0  0  0  0  0  0  0  0  0  # atno 17321 bound_to 7965
  140.0121  144.6216  150.7638 LP  0  0  0  0  0  0  0  0  0  0  0  0  # atno 17342 bound_to 10162
  140.7433  143.2844  151.3504 LP  0  0  0  0  0  0  0  0  0  0  0  0  # atno 17343 bound_to 10162
  156.2405  130.6848  151.1551 LP  0  0  0  0  0  0  0  0  0  0  0  0  # atno 17370 bound_to 10713
  157.7259  131.0650  150.5932 LP  0  0  0  0  0  0  0  0  0  0  0  0  # atno 17371 bound_to 10713
  141.0065  134.1079  157.4265 LP  0  0  0  0  0  0  0  0  0  0  0  0  # atno 17394 bound_to 11000
  139.8866  135.0082  156.6508 LP  0  0  0  0  0  0  0  0  0  0  0  0  # atno 17395 bound_to 11000

$$$$
