AV-unprocessed.smi:2735|AV-procd|sdf|10544|dock1
  -GOLD-   2272014593D 1   1.00000     0.00000
 Structure written by MMmdl.
 42 42  0  0  0  0  0  0  0  0  2 V2000
  147.5451  136.8694  163.4570 C   0  0  0  0  0  0  0  0  0  0  0  0
  147.7168  136.3366  162.0654 C   0  0  0  0  0  0  0  0  0  0  0  0
  147.5440  135.0033  161.6035 C   0  0  0  0  0  0  0  0  0  0  0  0
  147.8325  135.0675  160.2693 C   0  0  0  0  0  0  0  0  0  0  0  0
  147.8442  133.9793  159.2451 C   0  0  0  0  0  0  0  0  0  0  0  0
  148.1371  136.3894  159.9811 N   0  0  0  0  0  0  0  0  0  0  0  0
  148.5583  136.9777  158.7092 C   0  0  1  0  0  0  0  0  0  0  0  0
  147.5939  138.0718  158.2047 C   0  0  0  0  0  0  0  0  0  0  0  0
  150.0027  137.4885  158.8172 C   0  0  0  0  0  0  0  0  0  0  0  0
  150.9030  136.7443  159.2074 O   0  0  0  0  0  0  0  0  0  0  0  0
  150.2017  138.7672  158.4613 N   0  0  0  0  0  0  0  0  0  0  0  0
  151.4780  139.4784  158.4253 C   0  0  2  0  0  0  0  0  0  0  0  0
  151.4519  140.7270  159.3392 C   0  0  0  0  0  0  0  0  0  0  0  0
  152.7963  141.4687  159.5185 C   0  0  0  0  0  0  0  0  0  0  0  0
  153.8141  140.5709  160.2386 C   0  0  0  0  0  0  0  0  0  0  0  0
  152.6367  142.8008  160.2709 C   0  0  0  0  0  0  0  0  0  0  0  0
  151.8159  139.8245  156.9706 C   0  0  0  0  0  0  0  0  0  0  0  0
  152.8418  139.3021  156.4787 O   0  0  0  0  0  0  0  0  0  0  0  0
  151.0438  140.6047  156.3716 O   0  5  0  0  0  0  0  0  0  0  0  0
  148.0799  137.1572  161.0951 N   0  0  0  0  0  0  0  0  0  0  0  0
  152.2699  138.8105  158.7670 H   0  0  0  0  0  0  0  0  0  0  0  0
  147.2340  136.0827  164.1445 H   0  0  0  0  0  0  0  0  0  0  0  0
  146.7889  137.6542  163.4865 H   0  0  0  0  0  0  0  0  0  0  0  0
  148.4779  137.2897  163.8340 H   0  0  0  0  0  0  0  0  0  0  0  0
  147.2602  134.1280  162.1689 H   0  0  0  0  0  0  0  0  0  0  0  0
  147.4991  133.0385  159.6745 H   0  0  0  0  0  0  0  0  0  0  0  0
  148.8501  133.8165  158.8588 H   0  0  0  0  0  0  0  0  0  0  0  0
  147.1902  134.2217  158.4076 H   0  0  0  0  0  0  0  0  0  0  0  0
  148.5407  136.1833  157.9623 H   0  0  0  0  0  0  0  0  0  0  0  0
  147.9023  138.4420  157.2265 H   0  0  0  0  0  0  0  0  0  0  0  0
  147.5491  138.9281  158.8792 H   0  0  0  0  0  0  0  0  0  0  0  0
  146.5823  137.6791  158.1004 H   0  0  0  0  0  0  0  0  0  0  0  0
  149.4009  139.2949  158.1452 H   0  0  0  0  0  0  0  0  0  0  0  0
  150.7144  141.4352  158.9578 H   0  0  0  0  0  0  0  0  0  0  0  0
  151.0828  140.4240  160.3205 H   0  0  0  0  0  0  0  0  0  0  0  0
  153.2117  141.6849  158.5346 H   0  0  0  0  0  0  0  0  0  0  0  0
  153.4719  140.3076  161.2401 H   0  0  0  0  0  0  0  0  0  0  0  0
  154.7788  141.0692  160.3368 H   0  0  0  0  0  0  0  0  0  0  0  0
  153.9800  139.6439  159.6892 H   0  0  0  0  0  0  0  0  0  0  0  0
  152.2027  142.6484  161.2595 H   0  0  0  0  0  0  0  0  0  0  0  0
  151.9969  143.4974  159.7303 H   0  0  0  0  0  0  0  0  0  0  0  0
  153.6009  143.2921  160.4046 H   0  0  0  0  0  0  0  0  0  0  0  0
  1  2  1  0  0  0  0
  1 22  1  0  0  0  0
  1 23  1  0  0  0  0
  1 24  1  0  0  0  0
  2 20  2  0  0  0  0
  2  3  1  0  0  0  0
  3  4  2  0  0  0  0
  3 25  1  0  0  0  0
  4  5  1  0  0  0  0
  4  6  1  0  0  0  0
  5 26  1  0  0  0  0
  5 27  1  0  0  0  0
  5 28  1  0  0  0  0
  6  7  1  0  0  0  0
  6 20  1  0  0  0  0
  7  8  1  0  0  0  0
  7  9  1  0  0  0  0
  7 29  1  0  0  0  0
  8 30  1  0  0  0  0
  8 31  1  0  0  0  0
  8 32  1  0  0  0  0
  9 10  2  0  0  0  0
  9 11  1  0  0  0  0
 11 12  1  0  0  0  0
 11 33  1  0  0  0  0
 12 21  1  0  0  0  0
 12 13  1  0  0  0  0
 12 17  1  0  0  0  0
 13 14  1  0  0  0  0
 13 34  1  0  0  0  0
 13 35  1  0  0  0  0
 14 15  1  0  0  0  0
 14 16  1  0  0  0  0
 14 36  1  0  0  0  0
 15 37  1  0  0  0  0
 15 38  1  0  0  0  0
 15 39  1  0  0  0  0
 16 40  1  0  0  0  0
 16 41  1  0  0  0  0
 16 42  1  0  0  0  0
 17 18  2  0  0  0  0
 17 19  1  0  0  0  0
M  CHG  1  19  -1
M  END
> <s_m_source_file>
AV-unprocessed.smi

> <i_m_source_file_index>
2735

> <i_lp_mmshare_version>
43012

> <i_f3d_flags>
0

> <s_epik_input>
W0NIM11jMVtjSF1jKFtDSDNdKW4objEpW0NASF0oW0NIM10pQyg9TylbTkhdW0NASF0oQyg9TylbT0hdKVtDSDJdW0NIXShbQ0gzXSlbQ0gzXQ==

> <s_epik_cmdline>
J2VwaWtfcHl0aG9uJywgJy1waCcsICc3LjAnLCAnLXRuJywgJzgnLCAnLW1hJywgJzIwMCcsICctbWV0YWxfYmluZGluZycsICctaW1hZScsICc8aW5maWxlLm1hZT4nLCAnLW9tYWUnLCAnPG91dGZpbGUubWFlPic=

> <r_lp_tautomer_probability>
1

> <r_epik_Ionization_Penalty>
0.0012303

> <r_epik_Ionization_Penalty_Charging>
0.000186407

> <r_epik_Ionization_Penalty_Neutral>
0.0010439

> <r_epik_State_Penalty>
-0

> <r_epik_Charging_Adjusted_Penalty>
0.000186407

> <i_epik_Tot_Q>
-1

> <i_epik_Tot_abs_Q>
1

> <r_epik_Metal_State_Penalty>
-0

> <b_epik_Metal_Only>
0

> <s_lp_Force_Field>
OPLS_2005

> <r_lp_Energy>
6.63837

> <b_lp_Chiralities_Consistent>
1

> <s_lp_Variant>
AV-unprocessed.smi:2735-4

> <Gold.Version>
5.8.1

> <Gold.Id.Protein>
6NUR|6NUR_protein|mol2

> <Gold.PLP.Fitness>
49.1088

> <Gold.PLP.PLP>
-37.0570

> <Gold.PLP.part.hbond>
-4.0000

> <Gold.PLP.part.metal>
0.0000

> <Gold.PLP.part.buried>
-4.7170

> <Gold.PLP.part.nonpolar>
-29.0227

> <Gold.PLP.part.repulsive>
0.1562

> <Gold.PLP.ligand.clash>
1.4059

> <Gold.PLP.ligand.torsion>
0.1493

> <Gold.PLP.Chemscore.Hbond>
4.5242

> <Gold.PLP.Chemscore.CHOScore>
0.0000

> <Gold.PLP.Chemscore.Metal>
0.0000

> <Gold.Chemscore.Hbonds>
donor molecule, donor type, donor heavy atom, donor atom, acceptor molecule, acceptor atom, score
      P1  H  6896  6909       L1    10  1.00
      P1  H  6931  6943       L1    20  1.00
      P1  H  6934  6947       L1    20  0.63
      P1  H  7997  8008       L1    18  2.00

> <Gold.PLP.Chemscore.Internal.Correction>
0.1838

> <Gold.Rescore>
     Score         DG    S(hbond)    S(metal)    S(lipo)     H(rot)  DE(clash)    DE(int)     intcor
     19.13     -19.26       3.03        0.00      80.18       2.24       0.02       0.11       ----

> <Gold.Chemscore.Fitness>
19.1341

> <Gold.Chemscore.DG>
-19.2635

> <Gold.Chemscore.ZeroCoef>
-5.4800

> <Gold.Chemscore.Hbond>
3.0342

> <Gold.Chemscore.Metal>
0.0000

> <Gold.Chemscore.Lipo>
80.1761

> <Gold.Chemscore.Internal_Hbond>
0.0000

> <Gold.Chemscore.DEClash>
0.0237

> <Gold.Chemscore.DEInternal>
0.1056

> <Gold.Chemscore.Rot>
2.2388

> <Gold.Chemscore.Internal.Correction>
   9.000000E+99

> <Gold.Chemscore.Hbonds>
donor molecule, donor type, donor heavy atom, donor atom, acceptor molecule, acceptor atom, score
      P1  H  6896  6909       L1    10  1.00
      P1  H  6931  6943       L1    20  0.33
      P1  H  6934  6947       L1    20  0.57
      P1  H  7997  8008       L1    18  0.99

> <Gold.Chemscore.Hbond.Weighted>
-10.1342

> <Gold.Chemscore.Metal.Weighted>
-0.0000

> <Gold.Chemscore.Lipo.Weighted>
-9.3806

> <Gold.Chemscore.Internal_Hbond.Weighted>
0.0000

> <Gold.Chemscore.DEClash.Weighted>
0.0237

> <Gold.Chemscore.DEInternal.Weighted>
0.1056

> <Gold.Chemscore.Rot.Weighted>
5.7314

> <Gold.Chemscore.Internal.Correction.Weighted>
   9.000000E+99

> <Gold.Protein.RotatedTorsions>
[ 6907 6896 6895 6894 ] final   95.32 input  -60.11 | X-H torsion
[ 7974 7965 7964 7962 ] final  -80.63 input  175.53 | X-H torsion
[ 8008 7997 7996 7995 ] final  -49.15 input   59.86 | X-H torsion
[ 10167 10162 10161 10158 ] final -167.41 input  -65.29 | X-H torsion
[ 10718 10713 10712 10709 ] final   39.96 input   66.30 | X-H torsion
[ 10763 10752 10751 10750 ] final -168.25 input  -60.55 | X-H torsion
[ 11005 11000 10999 10996 ] final  -26.44 input  -57.11 | X-H torsion

> <Gold.Protein.ActiveResidues>
 VAL166  LYS551  ARG553  GLY616  TRP617  ASP618  TYR619  PRO620  LYS621  CYS622 
 ASP623  PHE694  ASN695  SER759  ASP760  ASP761  ALA762  ILE779  LEU786  VAL792 
 PHE793  MET794  SER795  GLU796  ALA797  LYS798  CYS799  TRP800  GLU811  SER814 

> <Gold.Protein.RotatedAtoms>
  152.5444  134.1058  159.8337 H   0  0  0  0  0  0  0  0  0  0  0  0  # atno 6907 bound_to 6896
  151.1131  133.5151  159.2612 H   0  0  0  0  0  0  0  0  0  0  0  0  # atno 6908 bound_to 6896
  151.1862  135.0392  159.8868 H   0  0  0  0  0  0  0  0  0  0  0  0  # atno 6909 bound_to 6896
  145.5574  140.9487  143.1466 H   0  0  0  0  0  0  0  0  0  0  0  0  # atno 7974 bound_to 7965
  154.4039  140.1304  156.4455 H   0  0  0  0  0  0  0  0  0  0  0  0  # atno 8008 bound_to 7997
  155.7417  140.3489  155.5087 H   0  0  0  0  0  0  0  0  0  0  0  0  # atno 8009 bound_to 7997
  155.9032  140.1023  157.1324 H   0  0  0  0  0  0  0  0  0  0  0  0  # atno 8010 bound_to 7997
  139.6051  144.0929  152.1784 H   0  0  0  0  0  0  0  0  0  0  0  0  # atno 10167 bound_to 10162
  157.3766  130.7730  149.7160 H   0  0  0  0  0  0  0  0  0  0  0  0  # atno 10718 bound_to 10713
  154.6647  135.2930  154.9820 H   0  0  0  0  0  0  0  0  0  0  0  0  # atno 10763 bound_to 10752
  154.0868  135.6596  153.4850 H   0  0  0  0  0  0  0  0  0  0  0  0  # atno 10764 bound_to 10752
  153.0451  135.5210  154.7615 H   0  0  0  0  0  0  0  0  0  0  0  0  # atno 10765 bound_to 10752
  140.9029  133.7512  156.0568 H   0  0  0  0  0  0  0  0  0  0  0  0  # atno 11005 bound_to 11000
  144.7500  139.7220  143.7277 LP  0  0  0  0  0  0  0  0  0  0  0  0  # atno 17320 bound_to 7965
  146.1875  139.5098  142.9827 LP  0  0  0  0  0  0  0  0  0  0  0  0  # atno 17321 bound_to 7965
  140.0535  144.5914  150.7318 LP  0  0  0  0  0  0  0  0  0  0  0  0  # atno 17342 bound_to 10162
  140.7279  143.2656  151.4056 LP  0  0  0  0  0  0  0  0  0  0  0  0  # atno 17343 bound_to 10162
  155.9766  130.4073  150.3764 LP  0  0  0  0  0  0  0  0  0  0  0  0  # atno 17370 bound_to 10713
  157.1862  131.0404  151.2723 LP  0  0  0  0  0  0  0  0  0  0  0  0  # atno 17371 bound_to 10713
  140.8207  134.3293  157.5382 LP  0  0  0  0  0  0  0  0  0  0  0  0  # atno 17394 bound_to 11000
  139.8745  134.9307  156.3510 LP  0  0  0  0  0  0  0  0  0  0  0  0  # atno 17395 bound_to 11000

$$$$
