#       Name:                AV-unprocessed.smi:713
#       Creating user name   scv26
#       Creation time:       Fri Mar 27 00:47:12 2020


#       File generated by GOLD software.
#

@<TRIPOS>MOLECULE
AV-unprocessed.smi:713
    44    45     1
SMALL
NO_CHARGES


@<TRIPOS>ATOM
      1 ****        -3.1642  -2.2499   2.3492 C.3            1 S1                 0.0000
      2 ****        -2.7196  -1.2190   1.2912 C.3            1 S1                 0.0000
      3 ****        -1.2125  -0.9301   1.3546 C.2            1 S1                 0.0000
      4 ****        -0.4133  -1.8258   1.6304 O.2            1 S1                 0.0000
      5 ****        -0.8373   0.3309   1.0869 N.am           1 S1                 0.0000
      6 ****         0.5390   0.8154   1.0728 C.3            1 S1                 0.0000
      7 ****         0.5575   2.3265   1.3645 C.3            1 S1                 0.0000
      8 ****         1.9857   2.8887   1.3031 C.3            1 S1                 0.0000
      9 ****         2.6454   2.5832  -0.0501 C.3            1 S1                 0.0000
     10 ****         2.6383   1.0736  -0.3537 C.3            1 S1                 0.0000
     11 ****         3.3999   0.7687  -2.0124 S.o2           1 S1                 0.0000
     12 ****         3.5039  -1.0681  -2.0846 C.3            1 S1                 0.0000
     13 ****         2.4565   1.2105  -3.0509 O.2            1 S1                 0.0000
     14 ****         4.7671   1.3108  -1.9977 O.2            1 S1                 0.0000
     15 ****         1.2054   0.5088  -0.2837 C.3            1 S1                 0.0000
     16 ****        -3.0984  -1.6064  -0.0634 N.pl3          1 S1                 0.0000
     17 ****        -3.5712  -0.7947  -1.0750 C.2            1 S1                 0.0000
     18 ****        -3.7501  -1.5757  -2.1806 C.2            1 S1                 0.0000
     19 ****        -3.3402  -2.8679  -1.7506 C.2            1 S1                 0.0000
     20 ****        -2.9409  -2.8816  -0.4898 N.2            1 S1                 0.0000
     21 ****        -2.9206  -1.9078   3.3556 H              1 S1                 0.0000
     22 ****        -2.6857  -3.2198   2.2077 H              1 S1                 0.0000
     23 ****        -4.2427  -2.4055   2.3102 H              1 S1                 0.0000
     24 ****        -3.2444  -0.2882   1.5137 H              1 S1                 0.0000
     25 ****        -1.5581   1.0029   0.8675 H              1 S1                 0.0000
     26 ****         1.1009   0.3135   1.8630 H              1 S1                 0.0000
     27 ****        -0.0690   2.8517   0.6419 H              1 S1                 0.0000
     28 ****         0.1279   2.5232   2.3477 H              1 S1                 0.0000
     29 ****         1.9686   3.9656   1.4731 H              1 S1                 0.0000
     30 ****         2.5840   2.4583   2.1071 H              1 S1                 0.0000
     31 ****         2.1181   3.1190  -0.8407 H              1 S1                 0.0000
     32 ****         3.6685   2.9603  -0.0517 H              1 S1                 0.0000
     33 ****         3.2618   0.5631   0.3812 H              1 S1                 0.0000
     34 ****         4.0368  -1.3615  -2.9888 H              1 S1                 0.0000
     35 ****         2.5037  -1.4987  -2.1092 H              1 S1                 0.0000
     36 ****         4.0429  -1.4395  -1.2135 H              1 S1                 0.0000
     37 ****         1.2212  -0.5687  -0.4441 H              1 S1                 0.0000
     38 ****         0.6043   0.9325  -1.0895 H              1 S1                 0.0000
     39 ****        -3.7393   0.2616  -0.9254 H              1 S1                 0.0000
     40 ****        -4.1128  -1.2695  -3.1506 H              1 S1                 0.0000
     41 ****        -3.3153  -3.7887  -2.3147 H              1 S1                 0.0000
     42 ****        -0.7439  -2.7513   1.8155 LP             1 S1                 0.0000
     43 ****         0.5660  -1.6276   1.6692 LP             1 S1                 0.0000
     44 ****        -2.5982  -3.6620   0.0332 LP             1 S1                 0.0000
@<TRIPOS>BOND
    1    1    2 1     
    2    1   21 1     
    3    1   22 1     
    4    1   23 1     
    5    2    3 1     
    6    2   16 1     
    7    2   24 1     
    8    3    4 2     
    9    3    5 am    
   10    5    6 1     
   11    5   25 1     
   12    6   15 1     
   13    6    7 1     
   14    6   26 1     
   15    7    8 1     
   16    7   27 1     
   17    7   28 1     
   18    8    9 1     
   19    8   29 1     
   20    8   30 1     
   21    9   10 1     
   22    9   31 1     
   23    9   32 1     
   24   10   11 1     
   25   10   15 1     
   26   10   33 1     
   27   11   12 1     
   28   11   13 2     
   29   11   14 2     
   30   12   34 1     
   31   12   35 1     
   32   12   36 1     
   33   15   37 1     
   34   15   38 1     
   35   16   20 1     
   36   16   17 1     
   37   17   18 2     
   38   17   39 1     
   39   18   19 1     
   40   18   40 1     
   41   19   20 2     
   42   19   41 1     
   43    4   42 1     
   44    4   43 1     
   45   20   44 1     
@<TRIPOS>SUBSTRUCTURE
      1 S1             1
@<TRIPOS>SET
LONE_PAIRS      STATIC     ATOMS    <user>   **** ""
5 42 43 13 14 44
DONOR_HYDROGENS      STATIC     ATOMS    <user>   **** ""
1 25
ATOM$BLUE        STATIC     ATOMS    COLORGROUP SYSTEM
5 42 43 13 14 44
ATOM$RED        STATIC     ATOMS    COLORGROUP SYSTEM
1 25
