AV-unprocessed.smi:2178|AV-procd|sdf|8852|dock8
  -GOLD-   2272012 43D 1   1.00000     0.00000
 Structure written by MMmdl.
 46 48  0  0  0  0  0  0  0  0  1 V2000
  147.4225  134.7425  158.6080 C   0  0  0  0  0  0  0  0  0  0  0  0
  147.2934  134.7403  160.1203 C   0  0  0  0  0  0  0  0  0  0  0  0
  146.9054  133.5546  160.7773 C   0  0  0  0  0  0  0  0  0  0  0  0
  146.7604  133.5334  162.1767 C   0  0  0  0  0  0  0  0  0  0  0  0
  146.9978  134.7000  162.9264 C   0  0  0  0  0  0  0  0  0  0  0  0
  147.3892  135.8909  162.2806 C   0  0  0  0  0  0  0  0  0  0  0  0
  147.6348  137.1444  163.0996 C   0  0  0  0  0  0  0  0  0  0  0  0
  147.5522  135.9095  160.8759 C   0  0  0  0  0  0  0  0  0  0  0  0
  147.9331  137.0705  160.2542 O   0  0  0  0  0  0  0  0  0  0  0  0
  149.1780  136.9742  159.5776 C   0  0  0  0  0  0  0  0  0  0  0  0
  149.2187  138.0273  158.4604 C   0  0  2  0  0  0  0  0  0  0  0  0
  148.1623  137.7654  157.5570 O   0  0  0  0  0  0  0  0  0  0  0  0
  150.5574  138.0022  157.6957 C   0  0  0  0  0  0  0  0  0  0  0  0
  150.7503  139.1805  156.8605 N   0  0  0  0  0  0  0  0  0  0  0  0
  150.9241  139.2328  155.5157 C   0  0  0  0  0  0  0  0  0  0  0  0
  150.9310  138.0024  154.6612 C   0  0  0  0  0  0  0  0  0  0  0  0
  149.6317  137.5409  154.3602 O   0  0  0  0  0  0  0  0  0  0  0  0
  151.0817  140.4511  154.9974 N   0  0  0  0  0  0  0  0  0  0  0  0
  151.0001  141.2667  156.1091 C   0  0  0  0  0  0  0  0  0  0  0  0
  151.0903  142.6722  156.2241 C   0  0  0  0  0  0  0  0  0  0  0  0
  150.9747  143.2943  157.4845 C   0  0  0  0  0  0  0  0  0  0  0  0
  150.7668  142.5213  158.6452 C   0  0  0  0  0  0  0  0  0  0  0  0
  150.6732  141.1193  158.5528 C   0  0  0  0  0  0  0  0  0  0  0  0
  150.7905  140.5030  157.2924 C   0  0  0  0  0  0  0  0  0  0  0  0
  146.7615  133.9996  158.1607 H   0  0  0  0  0  0  0  0  0  0  0  0
  148.4460  134.5065  158.3164 H   0  0  0  0  0  0  0  0  0  0  0  0
  147.1602  135.7150  158.1903 H   0  0  0  0  0  0  0  0  0  0  0  0
  146.7138  132.6564  160.2088 H   0  0  0  0  0  0  0  0  0  0  0  0
  146.4608  132.6231  162.6750 H   0  0  0  0  0  0  0  0  0  0  0  0
  146.8767  134.6767  163.9996 H   0  0  0  0  0  0  0  0  0  0  0  0
  147.1276  138.0003  162.6534 H   0  0  0  0  0  0  0  0  0  0  0  0
  148.7019  137.3622  163.1473 H   0  0  0  0  0  0  0  0  0  0  0  0
  147.2657  137.0300  164.1193 H   0  0  0  0  0  0  0  0  0  0  0  0
  149.9722  137.1743  160.2986 H   0  0  0  0  0  0  0  0  0  0  0  0
  149.3559  135.9727  159.1828 H   0  0  0  0  0  0  0  0  0  0  0  0
  149.0706  139.0174  158.8920 H   0  0  0  0  0  0  0  0  0  0  0  0
  147.3692  137.6302  158.0524 H   0  0  0  0  0  0  0  0  0  0  0  0
  151.3916  137.9297  158.3936 H   0  0  0  0  0  0  0  0  0  0  0  0
  150.6179  137.1139  157.0655 H   0  0  0  0  0  0  0  0  0  0  0  0
  151.4495  138.2171  153.7260 H   0  0  0  0  0  0  0  0  0  0  0  0
  151.4919  137.2091  155.1541 H   0  0  0  0  0  0  0  0  0  0  0  0
  149.6728  137.0245  153.5700 H   0  0  0  0  0  0  0  0  0  0  0  0
  151.2488  143.2726  155.3405 H   0  0  0  0  0  0  0  0  0  0  0  0
  151.0458  144.3695  157.5608 H   0  0  0  0  0  0  0  0  0  0  0  0
  150.6798  143.0056  159.6068 H   0  0  0  0  0  0  0  0  0  0  0  0
  150.5155  140.5252  159.4404 H   0  0  0  0  0  0  0  0  0  0  0  0
  1  2  1  0  0  0  0
  1 25  1  0  0  0  0
  1 26  1  0  0  0  0
  1 27  1  0  0  0  0
  2  8  1  0  0  0  0
  2  3  2  0  0  0  0
  3  4  1  0  0  0  0
  3 28  1  0  0  0  0
  4  5  2  0  0  0  0
  4 29  1  0  0  0  0
  5  6  1  0  0  0  0
  5 30  1  0  0  0  0
  6  7  1  0  0  0  0
  6  8  2  0  0  0  0
  7 31  1  0  0  0  0
  7 32  1  0  0  0  0
  7 33  1  0  0  0  0
  8  9  1  0  0  0  0
  9 10  1  0  0  0  0
 10 11  1  0  0  0  0
 10 34  1  0  0  0  0
 10 35  1  0  0  0  0
 11 12  1  0  0  0  0
 11 13  1  0  0  0  0
 11 36  1  0  0  0  0
 12 37  1  0  0  0  0
 13 14  1  0  0  0  0
 13 38  1  0  0  0  0
 13 39  1  0  0  0  0
 14 24  1  0  0  0  0
 14 15  1  0  0  0  0
 15 16  1  0  0  0  0
 15 18  2  0  0  0  0
 16 17  1  0  0  0  0
 16 40  1  0  0  0  0
 16 41  1  0  0  0  0
 17 42  1  0  0  0  0
 18 19  1  0  0  0  0
 19 24  2  0  0  0  0
 19 20  1  0  0  0  0
 20 21  2  0  0  0  0
 20 43  1  0  0  0  0
 21 22  1  0  0  0  0
 21 44  1  0  0  0  0
 22 23  2  0  0  0  0
 22 45  1  0  0  0  0
 23 24  1  0  0  0  0
 23 46  1  0  0  0  0
M  END
> <s_m_source_file>
AV-unprocessed.smi

> <i_m_source_file_index>
2178

> <i_lp_mmshare_version>
43012

> <i_f3d_flags>
0

> <s_epik_input>
W0NIM11jMVtjSF1bY0hdW2NIXWMoW0NIM10pYzFPW0NIMl1bQ0BIXShbT0hdKVtDSDJdbihjKG4yKVtDSDJdW09IXSljKGMyMylbY0hdW2NIXVtjSF1bY0hdMw==

> <s_epik_cmdline>
J2VwaWtfcHl0aG9uJywgJy1waCcsICc3LjAnLCAnLXRuJywgJzgnLCAnLW1hJywgJzIwMCcsICctbWV0YWxfYmluZGluZycsICctaW1hZScsICc8aW5maWxlLm1hZT4nLCAnLW9tYWUnLCAnPG91dGZpbGUubWFlPic=

> <r_lp_tautomer_probability>
1

> <r_epik_Ionization_Penalty>
0.0555874

> <r_epik_Ionization_Penalty_Charging>
0

> <r_epik_Ionization_Penalty_Neutral>
0.0555874

> <r_epik_State_Penalty>
0.0478234

> <r_epik_Charging_Adjusted_Penalty>
0.0478234

> <i_epik_Tot_Q>
0

> <i_epik_Tot_abs_Q>
0

> <r_epik_Metal_State_Penalty>
4.98044e-05

> <b_epik_Metal_Only>
0

> <s_lp_Force_Field>
OPLS_2005

> <r_lp_Energy>
19.7692

> <b_lp_Chiralities_Consistent>
1

> <s_lp_Variant>
AV-unprocessed.smi:2178-1

> <Gold.Version>
5.8.1

> <Gold.Id.Protein>
6NUR|6NUR_protein|mol2

> <Gold.PLP.Fitness>
50.9570

> <Gold.PLP.PLP>
-42.7988

> <Gold.PLP.part.hbond>
-4.0000

> <Gold.PLP.part.metal>
0.0000

> <Gold.PLP.part.buried>
-1.5383

> <Gold.PLP.part.nonpolar>
-36.9667

> <Gold.PLP.part.repulsive>
0.0589

> <Gold.PLP.ligand.clash>
0.0000

> <Gold.PLP.ligand.torsion>
0.5304

> <Gold.PLP.Chemscore.Hbond>
3.0308

> <Gold.PLP.Chemscore.CHOScore>
0.0000

> <Gold.PLP.Chemscore.Metal>
0.0000

> <Gold.Chemscore.Hbonds>
donor molecule, donor type, donor heavy atom, donor atom, acceptor molecule, acceptor atom, score
      L1  H    17    42       P1  7948  1.00
      P1  H  6931  6943       L1     9  0.08
      P1  H  6934  6947       L1     9  0.48
      P1  H  7989  7998       L1    18  1.00

> <Gold.PLP.Chemscore.Internal.Correction>
0.1264

> <Gold.Rescore>
     Score         DG    S(hbond)    S(metal)    S(lipo)     H(rot)  DE(clash)    DE(int)     intcor
     18.69     -19.71       2.50        0.00     114.86       2.96       0.54       0.48       ----

> <Gold.Chemscore.Fitness>
18.6918

> <Gold.Chemscore.DG>
-19.7095

> <Gold.Chemscore.ZeroCoef>
-5.4800

> <Gold.Chemscore.Hbond>
2.5027

> <Gold.Chemscore.Metal>
0.0000

> <Gold.Chemscore.Lipo>
114.8551

> <Gold.Chemscore.Internal_Hbond>
0.0000

> <Gold.Chemscore.DEClash>
0.5405

> <Gold.Chemscore.DEInternal>
0.4772

> <Gold.Chemscore.Rot>
2.9561

> <Gold.Chemscore.Internal.Correction>
   9.000000E+99

> <Gold.Chemscore.Hbonds>
donor molecule, donor type, donor heavy atom, donor atom, acceptor molecule, acceptor atom, score
      L1  H    17    42       P1  7948  0.67
      P1  H  6934  6947       L1     9  0.46
      P1  H  7989  7998       L1    18  0.96

> <Gold.Chemscore.Hbond.Weighted>
-8.3591

> <Gold.Chemscore.Metal.Weighted>
-0.0000

> <Gold.Chemscore.Lipo.Weighted>
-13.4381

> <Gold.Chemscore.Internal_Hbond.Weighted>
0.0000

> <Gold.Chemscore.DEClash.Weighted>
0.5405

> <Gold.Chemscore.DEInternal.Weighted>
0.4772

> <Gold.Chemscore.Rot.Weighted>
7.5677

> <Gold.Chemscore.Internal.Correction.Weighted>
   9.000000E+99

> <Gold.Protein.RotatedTorsions>
[ 6907 6896 6895 6894 ] final  102.30 input  -60.11 | X-H torsion
[ 7974 7965 7964 7962 ] final  -12.54 input  175.53 | X-H torsion
[ 8008 7997 7996 7995 ] final   82.74 input   59.86 | X-H torsion
[ 10167 10162 10161 10158 ] final -150.13 input  -65.29 | X-H torsion
[ 10718 10713 10712 10709 ] final  -64.45 input   66.30 | X-H torsion
[ 10763 10752 10751 10750 ] final   81.16 input  -60.55 | X-H torsion
[ 11005 11000 10999 10996 ] final   33.66 input  -57.11 | X-H torsion

> <Gold.Protein.ActiveResidues>
 VAL166  LYS551  ARG553  GLY616  TRP617  ASP618  TYR619  PRO620  LYS621  CYS622 
 ASP623  PHE694  ASN695  SER759  ASP760  ASP761  ALA762  ILE779  LEU786  VAL792 
 PHE793  MET794  SER795  GLU796  ALA797  LYS798  CYS799  TRP800  GLU811  SER814 

> <Gold.Protein.RotatedAtoms>
  152.5327  133.9996  159.7888 H   0  0  0  0  0  0  0  0  0  0  0  0  # atno 6907 bound_to 6896
  151.0217  133.5862  159.2677 H   0  0  0  0  0  0  0  0  0  0  0  0  # atno 6908 bound_to 6896
  151.2899  135.0746  159.9254 H   0  0  0  0  0  0  0  0  0  0  0  0  # atno 6909 bound_to 6896
  146.2148  140.3073  142.8380 H   0  0  0  0  0  0  0  0  0  0  0  0  # atno 7974 bound_to 7965
  155.9147  140.3425  155.6126 H   0  0  0  0  0  0  0  0  0  0  0  0  # atno 8008 bound_to 7997
  155.7345  140.0800  157.2292 H   0  0  0  0  0  0  0  0  0  0  0  0  # atno 8009 bound_to 7997
  154.4061  140.1582  156.2534 H   0  0  0  0  0  0  0  0  0  0  0  0  # atno 8010 bound_to 7997
  139.7381  143.8704  152.2554 H   0  0  0  0  0  0  0  0  0  0  0  0  # atno 10167 bound_to 10162
  156.0728  130.4234  150.1422 H   0  0  0  0  0  0  0  0  0  0  0  0  # atno 10718 bound_to 10713
  153.1094  135.4775  154.9008 H   0  0  0  0  0  0  0  0  0  0  0  0  # atno 10763 bound_to 10752
  154.7464  135.3095  154.8638 H   0  0  0  0  0  0  0  0  0  0  0  0  # atno 10764 bound_to 10752
  153.9232  135.6853  153.4800 H   0  0  0  0  0  0  0  0  0  0  0  0  # atno 10765 bound_to 10752
  140.2608  134.3194  155.7858 H   0  0  0  0  0  0  0  0  0  0  0  0  # atno 11005 bound_to 11000
  144.9014  140.7647  143.5865 LP  0  0  0  0  0  0  0  0  0  0  0  0  # atno 17320 bound_to 7965
  145.2999  139.1854  143.4695 LP  0  0  0  0  0  0  0  0  0  0  0  0  # atno 17321 bound_to 7965
  139.8647  144.7099  150.9058 LP  0  0  0  0  0  0  0  0  0  0  0  0  # atno 17342 bound_to 10162
  140.7782  143.3788  151.1514 LP  0  0  0  0  0  0  0  0  0  0  0  0  # atno 17343 bound_to 10162
  156.9470  130.9762  151.3505 LP  0  0  0  0  0  0  0  0  0  0  0  0  # atno 17370 bound_to 10713
  157.5808  130.8375  149.8520 LP  0  0  0  0  0  0  0  0  0  0  0  0  # atno 17371 bound_to 10713
  141.2190  133.7408  156.9184 LP  0  0  0  0  0  0  0  0  0  0  0  0  # atno 17394 bound_to 11000
  140.1466  134.9258  157.2538 LP  0  0  0  0  0  0  0  0  0  0  0  0  # atno 17395 bound_to 11000

$$$$
