#       Name:                AV-unprocessed.smi:1684
#       Creating user name   scv26
#       Creation time:       Fri Mar 27 07:51:11 2020


#       File generated by GOLD software.
#

@<TRIPOS>MOLECULE
AV-unprocessed.smi:1684
    48    49     1
SMALL
NO_CHARGES


@<TRIPOS>ATOM
      1 ****        -3.8950  -0.3926  -2.2801 C.3            1 S1                 0.0000
      2 ****        -3.6395   0.9840  -1.6882 C.ar           1 S1                 0.0000
      3 ****        -4.7107   1.8950  -1.5710 C.ar           1 S1                 0.0000
      4 ****        -4.4728   3.1667  -1.0221 C.ar           1 S1                 0.0000
      5 ****        -3.1647   3.4758  -0.6119 C.ar           1 S1                 0.0000
      6 ****        -2.1350   2.6121  -0.7218 N.ar           1 S1                 0.0000
      7 ****        -2.3476   1.3801  -1.2492 C.ar           1 S1                 0.0000
      8 ****        -1.3100   0.4160  -1.3929 N.am           1 S1                 0.0000
      9 ****        -0.0063   0.5370  -1.0868 C.2            1 S1                 0.0000
     10 ****         0.5275   1.5500  -0.6340 O.2            1 S1                 0.0000
     11 ****         0.6555  -0.6018  -1.3418 N.am           1 S1                 0.0000
     12 ****         2.0823  -0.8306  -1.1201 C.3            1 S1                 0.0000
     13 ****         2.6575  -1.5838  -2.3272 C.3            1 S1                 0.0000
     14 ****         2.3045  -1.6256   0.1853 C.3            1 S1                 0.0000
     15 ****         1.8599  -0.9687   1.4152 N.3            1 S1                 0.0000
     16 ****         1.8757  -1.8957   2.5411 C.3            1 S1                 0.0000
     17 ****         1.4046  -1.2265   3.8441 C.3            1 S1                 0.0000
     18 ****         2.2137  -0.0869   4.1154 O.3            1 S1                 0.0000
     19 ****         2.1914   0.8655   3.0572 C.3            1 S1                 0.0000
     20 ****         2.6687   0.2005   1.7549 C.3            1 S1                 0.0000
     21 ****        -4.9434  -0.5201  -2.5516 H              1 S1                 0.0000
     22 ****        -3.6385  -1.1711  -1.5610 H              1 S1                 0.0000
     23 ****        -3.2952  -0.5387  -3.1791 H              1 S1                 0.0000
     24 ****        -5.7046   1.6251  -1.8966 H              1 S1                 0.0000
     25 ****        -5.2716   3.8859  -0.9182 H              1 S1                 0.0000
     26 ****        -2.9385   4.4413  -0.1843 H              1 S1                 0.0000
     27 ****        -1.5988  -0.4744  -1.7694 H              1 S1                 0.0000
     28 ****         0.1288  -1.3796  -1.7110 H              1 S1                 0.0000
     29 ****         2.6112   0.1214  -1.0681 H              1 S1                 0.0000
     30 ****         3.7293  -1.7471  -2.2114 H              1 S1                 0.0000
     31 ****         2.5093  -1.0206  -3.2492 H              1 S1                 0.0000
     32 ****         2.1843  -2.5585  -2.4522 H              1 S1                 0.0000
     33 ****         1.7813  -2.5776   0.0855 H              1 S1                 0.0000
     34 ****         3.3615  -1.8796   0.2769 H              1 S1                 0.0000
     35 ****         1.2338  -2.7507   2.3256 H              1 S1                 0.0000
     36 ****         2.8835  -2.2894   2.6819 H              1 S1                 0.0000
     37 ****         0.3578  -0.9282   3.7689 H              1 S1                 0.0000
     38 ****         1.4803  -1.9246   4.6777 H              1 S1                 0.0000
     39 ****         1.1835   1.2663   2.9382 H              1 S1                 0.0000
     40 ****         2.8407   1.7017   3.3163 H              1 S1                 0.0000
     41 ****         3.7149  -0.0901   1.8603 H              1 S1                 0.0000
     42 ****         2.6297   0.9384   0.9554 H              1 S1                 0.0000
     43 ****        -1.2205   2.8778  -0.4166 LP             1 S1                 0.0000
     44 ****        -0.0188   2.3706  -0.4661 LP             1 S1                 0.0000
     45 ****         1.5073   1.5521  -0.4342 LP             1 S1                 0.0000
     46 ****         0.9246  -0.6621   1.2385 LP             1 S1                 0.0000
     47 ****         3.1567  -0.3894   4.2541 LP             1 S1                 0.0000
     48 ****         1.8787   0.3526   4.9488 LP             1 S1                 0.0000
@<TRIPOS>BOND
    1    1    2 1     
    2    1   21 1     
    3    1   22 1     
    4    1   23 1     
    5    2    7 ar    
    6    2    3 ar    
    7    3    4 ar    
    8    3   24 1     
    9    4    5 ar    
   10    4   25 1     
   11    5    6 ar    
   12    5   26 1     
   13    6    7 ar    
   14    7    8 1     
   15    8    9 am    
   16    8   27 1     
   17    9   10 2     
   18    9   11 am    
   19   11   12 1     
   20   11   28 1     
   21   12   13 1     
   22   12   14 1     
   23   12   29 1     
   24   13   30 1     
   25   13   31 1     
   26   13   32 1     
   27   14   15 1     
   28   14   33 1     
   29   14   34 1     
   30   15   20 1     
   31   15   16 1     
   32   16   17 1     
   33   16   35 1     
   34   16   36 1     
   35   17   18 1     
   36   17   37 1     
   37   17   38 1     
   38   18   19 1     
   39   19   20 1     
   40   19   39 1     
   41   19   40 1     
   42   20   41 1     
   43   20   42 1     
   44    6   43 1     
   45   10   44 1     
   46   10   45 1     
   47   15   46 1     
   48   18   47 1     
   49   18   48 1     
@<TRIPOS>SUBSTRUCTURE
      1 S1             1
@<TRIPOS>SET
LONE_PAIRS      STATIC     ATOMS    <user>   **** ""
6 43 44 45 46 47 48
DONOR_HYDROGENS      STATIC     ATOMS    <user>   **** ""
2 27 28
ATOM$BLUE        STATIC     ATOMS    COLORGROUP SYSTEM
6 43 44 45 46 47 48
ATOM$RED        STATIC     ATOMS    COLORGROUP SYSTEM
2 27 28
