AV-unprocessed.smi:243|AV-procd|sdf|1851|dock9
  -GOLD-   2262020473D 1   1.00000     0.00000
 Structure written by MMmdl.
 58 61  0  0  0  0  0  0  0  0  2 V2000
  147.7234  128.5989  152.4400 C   0  0  0  0  0  0  0  0  0  0  0  0
  146.4696  128.6982  153.3211 C   0  0  0  0  0  0  0  0  0  0  0  0
  145.9711  130.0910  153.4495 N   0  3  1  0  0  0  0  0  0  0  0  0
  146.7329  130.8685  154.4551 C   0  0  0  0  0  0  0  0  0  0  0  0
  146.0628  132.2253  154.6900 C   0  0  0  0  0  0  0  0  0  0  0  0
  145.9750  133.0483  153.3858 C   0  0  2  0  0  0  0  0  0  0  0  0
  145.4113  134.3934  153.5991 N   0  0  0  0  0  0  0  0  0  0  0  0
  143.9637  134.5721  153.5731 C   0  0  0  0  0  0  0  0  0  0  0  0
  146.1093  135.3266  154.2965 C   0  0  0  0  0  0  0  0  0  0  0  0
  145.4470  136.4327  154.7206 N   0  0  0  0  0  0  0  0  0  0  0  0
  146.0810  137.3761  155.4218 C   0  0  0  0  0  0  0  0  0  0  0  0
  147.3569  137.4110  155.8073 N   0  0  0  0  0  0  0  0  0  0  0  0
  148.0269  136.2953  155.4006 C   0  0  0  0  0  0  0  0  0  0  0  0
  147.4832  135.2075  154.6588 C   0  0  0  0  0  0  0  0  0  0  0  0
  148.4669  134.2478  154.4503 N   0  0  0  0  0  0  0  0  0  0  0  0
  149.5281  134.7410  155.0263 C   0  0  0  0  0  0  0  0  0  0  0  0
  149.3573  135.9759  155.6084 N   0  0  0  0  0  0  0  0  0  0  0  0
  150.3660  136.7560  156.3076 C   0  0  0  0  0  0  0  0  0  0  0  0
  151.2410  137.6314  155.3740 C   0  0  1  0  0  0  0  0  0  0  0  0
  151.9773  136.8069  154.4904 O   0  0  0  0  0  0  0  0  0  0  0  0
  150.4097  138.6191  154.5719 C   0  0  0  0  0  0  0  0  0  0  0  0
  150.2696  139.8038  155.5265 C   0  0  0  0  0  0  0  0  0  0  0  0
  151.3985  139.7496  156.3947 O   0  0  0  0  0  0  0  0  0  0  0  0
  152.1803  138.5946  156.1097 C   0  0  0  0  0  0  0  0  0  0  0  0
  145.2570  132.2121  152.2873 C   0  0  1  0  0  0  0  0  0  0  0  0
  145.2648  132.8781  150.9001 C   0  0  0  0  0  0  0  0  0  0  0  0
  145.9083  130.8155  152.1543 C   0  0  0  0  0  0  0  0  0  0  0  0
  147.9966  127.5556  152.2805 H   0  0  0  0  0  0  0  0  0  0  0  0
  148.5845  129.0898  152.8925 H   0  0  0  0  0  0  0  0  0  0  0  0
  147.5541  129.0479  151.4608 H   0  0  0  0  0  0  0  0  0  0  0  0
  145.6952  128.0816  152.8627 H   0  0  0  0  0  0  0  0  0  0  0  0
  146.6573  128.2742  154.3087 H   0  0  0  0  0  0  0  0  0  0  0  0
  146.7678  130.3223  155.3988 H   0  0  0  0  0  0  0  0  0  0  0  0
  147.7644  131.0007  154.1240 H   0  0  0  0  0  0  0  0  0  0  0  0
  145.0713  132.0322  155.0978 H   0  0  0  0  0  0  0  0  0  0  0  0
  146.6143  132.7830  155.4478 H   0  0  0  0  0  0  0  0  0  0  0  0
  147.0010  133.2037  153.0491 H   0  0  0  0  0  0  0  0  0  0  0  0
  143.7051  135.6300  153.5093 H   0  0  0  0  0  0  0  0  0  0  0  0
  143.4828  134.1591  154.4578 H   0  0  0  0  0  0  0  0  0  0  0  0
  143.5396  134.0783  152.6985 H   0  0  0  0  0  0  0  0  0  0  0  0
  145.4804  138.2240  155.7168 H   0  0  0  0  0  0  0  0  0  0  0  0
  150.4734  134.2179  155.0357 H   0  0  0  0  0  0  0  0  0  0  0  0
  149.8605  137.3825  157.0435 H   0  0  0  0  0  0  0  0  0  0  0  0
  150.9896  136.0652  156.8763 H   0  0  0  0  0  0  0  0  0  0  0  0
  151.5043  136.7428  153.6748 H   0  0  0  0  0  0  0  0  0  0  0  0
  150.9549  138.9428  153.6835 H   0  0  0  0  0  0  0  0  0  0  0  0
  149.4504  138.2179  154.2431 H   0  0  0  0  0  0  0  0  0  0  0  0
  150.2254  140.7549  154.9955 H   0  0  0  0  0  0  0  0  0  0  0  0
  149.3639  139.7110  156.1269 H   0  0  0  0  0  0  0  0  0  0  0  0
  152.6342  138.1794  157.0083 H   0  0  0  0  0  0  0  0  0  0  0  0
  152.9937  138.9077  155.4529 H   0  0  0  0  0  0  0  0  0  0  0  0
  144.2172  132.0679  152.5856 H   0  0  0  0  0  0  0  0  0  0  0  0
  146.2770  133.1404  150.5910 H   0  0  0  0  0  0  0  0  0  0  0  0
  144.6619  133.7811  150.8770 H   0  0  0  0  0  0  0  0  0  0  0  0
  144.8502  132.2121  150.1427 H   0  0  0  0  0  0  0  0  0  0  0  0
  146.9173  130.9092  151.7488 H   0  0  0  0  0  0  0  0  0  0  0  0
  145.3375  130.2302  151.4344 H   0  0  0  0  0  0  0  0  0  0  0  0
  145.0259  130.0255  153.7998 H   0  0  0  0  0  0  0  0  0  0  0  0
  1  2  1  0  0  0  0
  1 28  1  0  0  0  0
  1 29  1  0  0  0  0
  1 30  1  0  0  0  0
  2  3  1  0  0  0  0
  2 31  1  0  0  0  0
  2 32  1  0  0  0  0
  3 27  1  0  0  0  0
  3  4  1  0  0  0  0
  3 58  1  0  0  0  0
  4  5  1  0  0  0  0
  4 33  1  0  0  0  0
  4 34  1  0  0  0  0
  5  6  1  0  0  0  0
  5 35  1  0  0  0  0
  5 36  1  0  0  0  0
  6  7  1  0  0  0  0
  6 25  1  0  0  0  0
  6 37  1  0  0  0  0
  7  8  1  0  0  0  0
  7  9  1  0  0  0  0
  8 38  1  0  0  0  0
  8 39  1  0  0  0  0
  8 40  1  0  0  0  0
  9 14  1  0  0  0  0
  9 10  2  0  0  0  0
 10 11  1  0  0  0  0
 11 12  2  0  0  0  0
 11 41  1  0  0  0  0
 12 13  1  0  0  0  0
 13 17  1  0  0  0  0
 13 14  2  0  0  0  0
 14 15  1  0  0  0  0
 15 16  2  0  0  0  0
 16 17  1  0  0  0  0
 16 42  1  0  0  0  0
 17 18  1  0  0  0  0
 18 19  1  0  0  0  0
 18 43  1  0  0  0  0
 18 44  1  0  0  0  0
 19 24  1  0  0  0  0
 19 20  1  0  0  0  0
 19 21  1  0  0  0  0
 20 45  1  0  0  0  0
 21 22  1  0  0  0  0
 21 46  1  0  0  0  0
 21 47  1  0  0  0  0
 22 23  1  0  0  0  0
 22 48  1  0  0  0  0
 22 49  1  0  0  0  0
 23 24  1  0  0  0  0
 24 50  1  0  0  0  0
 24 51  1  0  0  0  0
 25 26  1  0  0  0  0
 25 27  1  0  0  0  0
 25 52  1  0  0  0  0
 26 53  1  0  0  0  0
 26 54  1  0  0  0  0
 26 55  1  0  0  0  0
 27 56  1  0  0  0  0
 27 57  1  0  0  0  0
M  CHG  1   3   1
M  END
> <s_m_source_file>
AV-unprocessed.smi

> <i_m_source_file_index>
243

> <i_lp_mmshare_version>
43012

> <i_f3d_flags>
0

> <s_epik_input>
W0NIM11bQ0gyXU4xW0NIMl1bQ0gyXVtDQEhdKFtDQEBIXShbQ0gzXSlbQ0gyXTEpTihbQ0gzXSljKG5bY0hdbjIpYyhjMjMpbltjSF1uM1tDSDJdW0NAQF00KFtPSF0pW0NIMl1bQ0gyXU9bQ0gyXTQ=

> <s_epik_cmdline>
J2VwaWtfcHl0aG9uJywgJy1waCcsICc3LjAnLCAnLXRuJywgJzgnLCAnLW1hJywgJzIwMCcsICctbWV0YWxfYmluZGluZycsICctaW1hZScsICc8aW5maWxlLm1hZT4nLCAnLW9tYWUnLCAnPG91dGZpbGUubWFlPic=

> <r_lp_tautomer_probability>
1

> <r_epik_Ionization_Penalty>
0.00253099

> <r_epik_Ionization_Penalty_Charging>
0.00137877

> <r_epik_Ionization_Penalty_Neutral>
0.00115221

> <r_epik_State_Penalty>
-0

> <r_epik_Charging_Adjusted_Penalty>
0.00137877

> <i_epik_Tot_Q>
1

> <i_epik_Tot_abs_Q>
1

> <r_epik_Metal_State_Penalty>
-0

> <b_epik_Metal_Only>
0

> <s_lp_Force_Field>
OPLS_2005

> <r_lp_Energy>
48.9209

> <b_lp_Chiralities_Consistent>
1

> <s_lp_Variant>
AV-unprocessed.smi:243-4

> <Gold.Version>
5.8.1

> <Gold.Id.Protein>
6NUR|6NUR_protein|mol2

> <Gold.PLP.Fitness>
43.0432

> <Gold.PLP.PLP>
-32.5222

> <Gold.PLP.part.hbond>
-2.8609

> <Gold.PLP.part.metal>
0.0000

> <Gold.PLP.part.buried>
-5.3079

> <Gold.PLP.part.nonpolar>
-26.3434

> <Gold.PLP.part.repulsive>
0.6594

> <Gold.PLP.ligand.clash>
0.0000

> <Gold.PLP.ligand.torsion>
1.0235

> <Gold.PLP.Chemscore.Hbond>
3.9420

> <Gold.PLP.Chemscore.CHOScore>
0.0000

> <Gold.PLP.Chemscore.Metal>
0.0000

> <Gold.Chemscore.Hbonds>
donor molecule, donor type, donor heavy atom, donor atom, acceptor molecule, acceptor atom, score
      L1  H     3    58       P1 10956  1.63
      L1  H    20    45       P1  7949  0.24
      P1  H 10752 10765       L1    20  0.34

> <Gold.PLP.Chemscore.Internal.Correction>
0.7421

> <Gold.Rescore>
     Score         DG    S(hbond)    S(metal)    S(lipo)     H(rot)  DE(clash)    DE(int)     intcor
     13.09     -15.63       1.91        0.00      81.26       2.24       0.38       2.16       ----

> <Gold.Chemscore.Fitness>
13.0857

> <Gold.Chemscore.DG>
-15.6251

> <Gold.Chemscore.ZeroCoef>
-5.4800

> <Gold.Chemscore.Hbond>
1.9063

> <Gold.Chemscore.Metal>
0.0000

> <Gold.Chemscore.Lipo>
81.2589

> <Gold.Chemscore.Internal_Hbond>
0.0000

> <Gold.Chemscore.DEClash>
0.3764

> <Gold.Chemscore.DEInternal>
2.1630

> <Gold.Chemscore.Rot>
2.2379

> <Gold.Chemscore.Internal.Correction>
   9.000000E+99

> <Gold.Chemscore.Hbonds>
donor molecule, donor type, donor heavy atom, donor atom, acceptor molecule, acceptor atom, score
      L1  H     3    58       P1 10956  0.13
      L1  H    20    45       P1  7949  0.21
      P1  H 10752 10765       L1    20  0.02

> <Gold.Chemscore.Hbond.Weighted>
-6.3669

> <Gold.Chemscore.Metal.Weighted>
-0.0000

> <Gold.Chemscore.Lipo.Weighted>
-9.5073

> <Gold.Chemscore.Internal_Hbond.Weighted>
0.0000

> <Gold.Chemscore.DEClash.Weighted>
0.3764

> <Gold.Chemscore.DEInternal.Weighted>
2.1630

> <Gold.Chemscore.Rot.Weighted>
5.7291

> <Gold.Chemscore.Internal.Correction.Weighted>
   9.000000E+99

> <Gold.Protein.RotatedTorsions>
[ 6907 6896 6895 6894 ] final  111.15 input  -60.11 | X-H torsion
[ 7974 7965 7964 7962 ] final  -23.50 input  175.53 | X-H torsion
[ 8008 7997 7996 7995 ] final  -50.96 input   59.86 | X-H torsion
[ 10167 10162 10161 10158 ] final  -32.66 input  -65.29 | X-H torsion
[ 10718 10713 10712 10709 ] final  103.25 input   66.30 | X-H torsion
[ 10763 10752 10751 10750 ] final  137.84 input  -60.55 | X-H torsion
[ 11005 11000 10999 10996 ] final  -25.30 input  -57.11 | X-H torsion

> <Gold.Protein.ActiveResidues>
 VAL166  LYS551  ARG553  GLY616  TRP617  ASP618  TYR619  PRO620  LYS621  CYS622 
 ASP623  PHE694  ASN695  SER759  ASP760  ASP761  ALA762  ILE779  LEU786  VAL792 
 PHE793  MET794  SER795  GLU796  ALA797  LYS798  CYS799  TRP800  GLU811  SER814 

> <Gold.Protein.RotatedAtoms>
  152.4984  133.8699  159.7292 H   0  0  0  0  0  0  0  0  0  0  0  0  # atno 6907 bound_to 6896
  150.9188  133.6897  159.2843 H   0  0  0  0  0  0  0  0  0  0  0  0  # atno 6908 bound_to 6896
  151.4281  135.1010  159.9686 H   0  0  0  0  0  0  0  0  0  0  0  0  # atno 6909 bound_to 6896
  146.1612  140.4624  142.8570 H   0  0  0  0  0  0  0  0  0  0  0  0  # atno 7974 bound_to 7965
  154.4072  140.1259  156.4751 H   0  0  0  0  0  0  0  0  0  0  0  0  # atno 8008 bound_to 7997
  155.7141  140.3493  155.4967 H   0  0  0  0  0  0  0  0  0  0  0  0  # atno 8009 bound_to 7997
  155.9274  140.1063  157.1149 H   0  0  0  0  0  0  0  0  0  0  0  0  # atno 8010 bound_to 7997
  140.7217  143.3678  151.1837 H   0  0  0  0  0  0  0  0  0  0  0  0  # atno 10167 bound_to 10162
  157.6778  131.0774  150.5527 H   0  0  0  0  0  0  0  0  0  0  0  0  # atno 10718 bound_to 10713
  153.8797  135.3046  155.3445 H   0  0  0  0  0  0  0  0  0  0  0  0  # atno 10763 bound_to 10752
  154.7767  135.4857  153.9763 H   0  0  0  0  0  0  0  0  0  0  0  0  # atno 10764 bound_to 10752
  153.1359  135.6814  153.9201 H   0  0  0  0  0  0  0  0  0  0  0  0  # atno 10765 bound_to 10752
  140.8925  133.7578  156.0439 H   0  0  0  0  0  0  0  0  0  0  0  0  # atno 11005 bound_to 11000
  144.8030  140.6248  143.6466 LP  0  0  0  0  0  0  0  0  0  0  0  0  # atno 17320 bound_to 7965
  145.4583  139.1515  143.3880 LP  0  0  0  0  0  0  0  0  0  0  0  0  # atno 17321 bound_to 7965
  139.7243  143.9173  152.2997 LP  0  0  0  0  0  0  0  0  0  0  0  0  # atno 17342 bound_to 10162
  139.8941  144.6949  150.8738 LP  0  0  0  0  0  0  0  0  0  0  0  0  # atno 17343 bound_to 10162
  156.5831  130.4309  149.5969 LP  0  0  0  0  0  0  0  0  0  0  0  0  # atno 17370 bound_to 10713
  156.2645  130.6981  151.1760 LP  0  0  0  0  0  0  0  0  0  0  0  0  # atno 17371 bound_to 10713
  140.8329  134.3157  157.5342 LP  0  0  0  0  0  0  0  0  0  0  0  0  # atno 17394 bound_to 11000
  139.8731  134.9373  156.3684 LP  0  0  0  0  0  0  0  0  0  0  0  0  # atno 17395 bound_to 11000

$$$$
