AV-unprocessed.smi:2091|AV-procd|sdf|8540|dock3
  -GOLD-   2272011263D 1   1.00000     0.00000
 Structure written by MMmdl.
 35 36  0  0  0  0  0  0  0  0  2 V2000
  146.5512  130.4973  159.8036 O   0  0  0  0  0  0  0  0  0  0  0  0
  146.3689  131.4631  160.5464 C   0  0  0  0  0  0  0  0  0  0  0  0
  147.5228  132.0454  161.3736 C   0  0  0  0  0  0  0  0  0  0  0  0
  147.5124  133.5164  161.4204 N   0  0  0  0  0  0  0  0  0  0  0  0
  147.3935  134.1300  162.6799 C   0  0  0  0  0  0  0  0  0  0  0  0
  147.3730  135.4695  162.8186 C   0  0  0  0  0  0  0  0  0  0  0  0
  147.4785  136.2897  161.6180 C   0  0  0  0  0  0  0  0  0  0  0  0
  147.4555  137.5143  161.7253 O   0  0  0  0  0  0  0  0  0  0  0  0
  147.5986  135.6473  160.4192 N   0  5  0  0  0  0  0  0  0  0  0  0
  147.6206  134.2837  160.2938 C   0  0  0  0  0  0  0  0  0  0  0  0
  147.7321  133.7240  159.2022 O   0  0  0  0  0  0  0  0  0  0  0  0
  145.1720  132.0490  160.7102 N   0  0  0  0  0  0  0  0  0  0  0  0
  143.9315  131.6490  160.0421 C   0  0  2  0  0  0  0  0  0  0  0  0
  143.5656  130.2335  160.5449 C   0  0  0  0  0  0  0  0  0  0  0  0
  142.0753  129.8844  160.3857 C   0  0  0  0  0  0  0  0  0  0  0  0
  141.5782  129.8013  158.9342 C   0  0  0  0  0  0  0  0  0  0  0  0
  141.6900  131.1281  158.1638 C   0  0  0  0  0  0  0  0  0  0  0  0
  143.0540  131.3932  157.7258 N   0  0  0  0  0  0  0  0  0  0  0  0
  144.1229  131.6084  158.5077 C   0  0  0  0  0  0  0  0  0  0  0  0
  145.2370  131.7646  158.0075 O   0  0  0  0  0  0  0  0  0  0  0  0
  147.4946  131.6389  162.3865 H   0  0  0  0  0  0  0  0  0  0  0  0
  148.4593  131.6843  160.9468 H   0  0  0  0  0  0  0  0  0  0  0  0
  147.3274  133.4516  163.5179 H   0  0  0  0  0  0  0  0  0  0  0  0
  147.2838  135.9253  163.7936 H   0  0  0  0  0  0  0  0  0  0  0  0
  145.1127  132.8277  161.3497 H   0  0  0  0  0  0  0  0  0  0  0  0
  143.1424  132.3561  160.3043 H   0  0  0  0  0  0  0  0  0  0  0  0
  144.1853  129.4743  160.0640 H   0  0  0  0  0  0  0  0  0  0  0  0
  143.7958  130.1649  161.6093 H   0  0  0  0  0  0  0  0  0  0  0  0
  141.8911  128.9243  160.8689 H   0  0  0  0  0  0  0  0  0  0  0  0
  141.4737  130.6108  160.9336 H   0  0  0  0  0  0  0  0  0  0  0  0
  142.1055  129.0099  158.3995 H   0  0  0  0  0  0  0  0  0  0  0  0
  140.5298  129.5016  158.9532 H   0  0  0  0  0  0  0  0  0  0  0  0
  141.0706  131.0756  157.2682 H   0  0  0  0  0  0  0  0  0  0  0  0
  141.3066  131.9625  158.7531 H   0  0  0  0  0  0  0  0  0  0  0  0
  143.2113  131.3828  156.7284 H   0  0  0  0  0  0  0  0  0  0  0  0
  1  2  2  0  0  0  0
  2  3  1  0  0  0  0
  2 12  1  0  0  0  0
  3  4  1  0  0  0  0
  3 21  1  0  0  0  0
  3 22  1  0  0  0  0
  4 10  1  0  0  0  0
  4  5  1  0  0  0  0
  5  6  2  0  0  0  0
  5 23  1  0  0  0  0
  6  7  1  0  0  0  0
  6 24  1  0  0  0  0
  7  8  2  0  0  0  0
  7  9  1  0  0  0  0
  9 10  1  0  0  0  0
 10 11  2  0  0  0  0
 12 13  1  0  0  0  0
 12 25  1  0  0  0  0
 13 19  1  0  0  0  0
 13 14  1  0  0  0  0
 13 26  1  0  0  0  0
 14 15  1  0  0  0  0
 14 27  1  0  0  0  0
 14 28  1  0  0  0  0
 15 16  1  0  0  0  0
 15 29  1  0  0  0  0
 15 30  1  0  0  0  0
 16 17  1  0  0  0  0
 16 31  1  0  0  0  0
 16 32  1  0  0  0  0
 17 18  1  0  0  0  0
 17 33  1  0  0  0  0
 17 34  1  0  0  0  0
 18 19  1  0  0  0  0
 18 35  1  0  0  0  0
 19 20  2  0  0  0  0
M  CHG  1   9  -1
M  END
> <s_m_source_file>
AV-unprocessed.smi

> <i_m_source_file_index>
2091

> <i_lp_mmshare_version>
43012

> <i_f3d_flags>
0

> <s_epik_input>
Tz1jMVtuSF1jKD1PKVtjSF1bY0hdbjFbQ0gyXUMoPU8pW05IXVtDQEBIXTJbQ0gyXVtDSDJdW0NIMl1bQ0gyXVtOSF1DMj1P

> <s_epik_cmdline>
J2VwaWtfcHl0aG9uJywgJy1waCcsICc3LjAnLCAnLXRuJywgJzgnLCAnLW1hJywgJzIwMCcsICctbWV0YWxfYmluZGluZycsICctaW1hZScsICc8aW5maWxlLm1hZT4nLCAnLW9tYWUnLCAnPG91dGZpbGUubWFlPic=

> <r_lp_tautomer_probability>
0.999537

> <r_epik_Ionization_Penalty>
3.03155

> <r_epik_Ionization_Penalty_Charging>
2.38195e-08

> <r_epik_Ionization_Penalty_Neutral>
3.03155

> <r_epik_State_Penalty>
3.03052

> <r_epik_Charging_Adjusted_Penalty>
3.03052

> <i_epik_Tot_Q>
-1

> <i_epik_Tot_abs_Q>
1

> <r_epik_Metal_State_Penalty>
0.455936

> <b_epik_Metal_Only>
1

> <s_lp_Force_Field>
OPLS_2005

> <r_lp_Energy>
21.0708

> <b_lp_Chiralities_Consistent>
1

> <s_lp_Variant>
AV-unprocessed.smi:2091-3

> <Gold.Version>
5.8.1

> <Gold.Id.Protein>
6NUR|6NUR_protein|mol2

> <Gold.PLP.Fitness>
38.4585

> <Gold.PLP.PLP>
-31.5854

> <Gold.PLP.part.hbond>
-3.0000

> <Gold.PLP.part.metal>
0.0000

> <Gold.PLP.part.buried>
-3.3768

> <Gold.PLP.part.nonpolar>
-25.0370

> <Gold.PLP.part.repulsive>
0.0800

> <Gold.PLP.ligand.clash>
0.0000

> <Gold.PLP.ligand.torsion>
0.2963

> <Gold.PLP.Chemscore.Hbond>
2.4880

> <Gold.PLP.Chemscore.CHOScore>
0.0000

> <Gold.PLP.Chemscore.Metal>
0.0000

> <Gold.Chemscore.Hbonds>
donor molecule, donor type, donor heavy atom, donor atom, acceptor molecule, acceptor atom, score
      L1  H    18    35       P1 10957  1.00
      P1  H  6931  6943       L1     8  0.77
      P1  H  6934  6947       L1     8  0.72

> <Gold.PLP.Chemscore.Internal.Correction>
0.0018

> <Gold.Rescore>
     Score         DG    S(hbond)    S(metal)    S(lipo)     H(rot)  DE(clash)    DE(int)     intcor
     10.80     -14.91       2.57        0.00      47.81       1.85       0.01       4.11       ----

> <Gold.Chemscore.Fitness>
10.7991

> <Gold.Chemscore.DG>
-14.9127

> <Gold.Chemscore.ZeroCoef>
-5.4800

> <Gold.Chemscore.Hbond>
2.5688

> <Gold.Chemscore.Metal>
0.0000

> <Gold.Chemscore.Lipo>
47.8096

> <Gold.Chemscore.Internal_Hbond>
0.0000

> <Gold.Chemscore.DEClash>
0.0064

> <Gold.Chemscore.DEInternal>
4.1072

> <Gold.Chemscore.Rot>
1.8519

> <Gold.Chemscore.Internal.Correction>
   9.000000E+99

> <Gold.Chemscore.Hbonds>
donor molecule, donor type, donor heavy atom, donor atom, acceptor molecule, acceptor atom, score
      L1  H    18    35       P1 10957  0.33
      P1  H  6931  6943       L1     8  0.69
      P1  H  6934  6947       L1     8  0.72

> <Gold.Chemscore.Hbond.Weighted>
-8.5798

> <Gold.Chemscore.Metal.Weighted>
-0.0000

> <Gold.Chemscore.Lipo.Weighted>
-5.5937

> <Gold.Chemscore.Internal_Hbond.Weighted>
0.0000

> <Gold.Chemscore.DEClash.Weighted>
0.0064

> <Gold.Chemscore.DEInternal.Weighted>
4.1072

> <Gold.Chemscore.Rot.Weighted>
4.7408

> <Gold.Chemscore.Internal.Correction.Weighted>
   9.000000E+99

> <Gold.Protein.RotatedTorsions>
[ 6907 6896 6895 6894 ] final   67.76 input  -60.11 | X-H torsion
[ 7974 7965 7964 7962 ] final  -39.40 input  175.53 | X-H torsion
[ 8008 7997 7996 7995 ] final    5.30 input   59.86 | X-H torsion
[ 10167 10162 10161 10158 ] final  119.04 input  -65.29 | X-H torsion
[ 10718 10713 10712 10709 ] final  108.45 input   66.30 | X-H torsion
[ 10763 10752 10751 10750 ] final  -91.04 input  -60.55 | X-H torsion
[ 11005 11000 10999 10996 ] final   99.51 input  -57.11 | X-H torsion

> <Gold.Protein.ActiveResidues>
 VAL166  LYS551  ARG553  GLY616  TRP617  ASP618  TYR619  PRO620  LYS621  CYS622 
 ASP623  PHE694  ASN695  SER759  ASP760  ASP761  ALA762  ILE779  LEU786  VAL792 
 PHE793  MET794  SER795  GLU796  ALA797  LYS798  CYS799  TRP800  GLU811  SER814 

> <Gold.Protein.RotatedAtoms>
  152.4574  134.5261  159.9796 H   0  0  0  0  0  0  0  0  0  0  0  0  # atno 6907 bound_to 6896
  151.5318  133.3442  159.2927 H   0  0  0  0  0  0  0  0  0  0  0  0  # atno 6908 bound_to 6896
  150.8523  134.7882  159.7081 H   0  0  0  0  0  0  0  0  0  0  0  0  # atno 6909 bound_to 6896
  146.0400  140.6621  142.9092 H   0  0  0  0  0  0  0  0  0  0  0  0  # atno 7974 bound_to 7965
  154.7267  140.2722  155.6493 H   0  0  0  0  0  0  0  0  0  0  0  0  # atno 8008 bound_to 7997
  156.2838  140.2724  156.1880 H   0  0  0  0  0  0  0  0  0  0  0  0  # atno 8009 bound_to 7997
  155.0436  140.0371  157.2508 H   0  0  0  0  0  0  0  0  0  0  0  0  # atno 8010 bound_to 7997
  139.6072  144.7073  151.2927 H   0  0  0  0  0  0  0  0  0  0  0  0  # atno 10167 bound_to 10162
  157.6585  131.0894  150.6308 H   0  0  0  0  0  0  0  0  0  0  0  0  # atno 10718 bound_to 10713
  154.6719  135.5282  153.8150 H   0  0  0  0  0  0  0  0  0  0  0  0  # atno 10763 bound_to 10752
  153.0507  135.6531  154.0711 H   0  0  0  0  0  0  0  0  0  0  0  0  # atno 10764 bound_to 10752
  154.0608  135.2962  155.3305 H   0  0  0  0  0  0  0  0  0  0  0  0  # atno 10765 bound_to 10752
  139.8771  134.9099  156.4616 H   0  0  0  0  0  0  0  0  0  0  0  0  # atno 11005 bound_to 11000
  144.7070  140.3890  143.7110 LP  0  0  0  0  0  0  0  0  0  0  0  0  # atno 17320 bound_to 7965
  145.6900  139.1637  143.2652 LP  0  0  0  0  0  0  0  0  0  0  0  0  # atno 17321 bound_to 7965
  140.7293  143.6911  150.7921 LP  0  0  0  0  0  0  0  0  0  0  0  0  # atno 17342 bound_to 10162
  140.0499  143.5260  152.2678 LP  0  0  0  0  0  0  0  0  0  0  0  0  # atno 17343 bound_to 10162
  156.6612  130.4513  149.5687 LP  0  0  0  0  0  0  0  0  0  0  0  0  # atno 17370 bound_to 10713
  156.2065  130.6652  151.1224 LP  0  0  0  0  0  0  0  0  0  0  0  0  # atno 17371 bound_to 10713
  140.8859  133.7883  155.9518 LP  0  0  0  0  0  0  0  0  0  0  0  0  # atno 17394 bound_to 11000
  140.8804  134.2618  157.5147 LP  0  0  0  0  0  0  0  0  0  0  0  0  # atno 17395 bound_to 11000

$$$$
