#       Name:                AV-unprocessed.smi:2383
#       Creating user name   scv26
#       Creation time:       Fri Mar 27 13:08:58 2020


#       File generated by GOLD software.
#

@<TRIPOS>MOLECULE
AV-unprocessed.smi:2383
    42    43     1
SMALL
NO_CHARGES


@<TRIPOS>ATOM
      1 ****        -5.5920   1.3100  -0.6629 C.3            1 S1                 0.0000
      2 ****        -4.8539  -0.0065  -0.5399 C.ar           1 S1                 0.0000
      3 ****        -5.5339  -1.2335  -0.6687 C.ar           1 S1                 0.0000
      4 ****        -4.7890  -2.4199  -0.5450 C.ar           1 S1                 0.0000
      5 ****        -3.4050  -2.3312  -0.3003 C.ar           1 S1                 0.0000
      6 ****        -2.7988  -1.0598  -0.1869 C.ar           1 S1                 0.0000
      7 ****        -1.3993  -1.0793   0.0560 N.am           1 S1                 0.0000
      8 ****        -0.5617  -0.0345   0.1807 C.2            1 S1                 0.0000
      9 ****        -0.8866   1.1514   0.1135 O.2            1 S1                 0.0000
     10 ****         0.6983  -0.4455   0.3868 N.am           1 S1                 0.0000
     11 ****         1.8576   0.4285   0.5437 C.3            1 S1                 0.0000
     12 ****         2.4165   0.8377  -0.8341 C.3            1 S1                 0.0000
     13 ****         3.6825   1.7018  -0.6981 C.3            1 S1                 0.0000
     14 ****         4.7645   1.0235   0.1631 C.3            1 S1                 0.0000
     15 ****         5.3122  -0.0828  -0.5271 O.3            1 S1                 0.0000
     16 ****         4.2026   0.5732   1.5249 C.3            1 S1                 0.0000
     17 ****         2.9358  -0.2880   1.3773 C.3            1 S1                 0.0000
     18 ****        -3.5265   0.0787  -0.3068 N.ar           1 S1                 0.0000
     19 ****        -6.6713   1.1570  -0.6874 H              1 S1                 0.0000
     20 ****        -5.2983   1.8226  -1.5793 H              1 S1                 0.0000
     21 ****        -5.3612   1.9580   0.1834 H              1 S1                 0.0000
     22 ****        -6.5969  -1.2677  -0.8574 H              1 S1                 0.0000
     23 ****        -5.2700  -3.3825  -0.6366 H              1 S1                 0.0000
     24 ****        -2.8182  -3.2332  -0.2033 H              1 S1                 0.0000
     25 ****        -0.9858  -1.9965   0.1326 H              1 S1                 0.0000
     26 ****         0.8727  -1.4387   0.4282 H              1 S1                 0.0000
     27 ****         1.5557   1.3282   1.0837 H              1 S1                 0.0000
     28 ****         2.6457  -0.0537  -1.4196 H              1 S1                 0.0000
     29 ****         1.6619   1.3878  -1.3975 H              1 S1                 0.0000
     30 ****         4.0799   1.9425  -1.6846 H              1 S1                 0.0000
     31 ****         3.4107   2.6537  -0.2404 H              1 S1                 0.0000
     32 ****         5.5800   1.7282   0.3293 H              1 S1                 0.0000
     33 ****         6.0113  -0.4466  -0.0055 H              1 S1                 0.0000
     34 ****         4.9628   0.0298   2.0875 H              1 S1                 0.0000
     35 ****         3.9609   1.4564   2.1177 H              1 S1                 0.0000
     36 ****         2.5430  -0.5297   2.3657 H              1 S1                 0.0000
     37 ****         3.1950  -1.2387   0.9091 H              1 S1                 0.0000
     38 ****        -1.8421   1.3998  -0.0458 LP             1 S1                 0.0000
     39 ****        -0.1950   1.8660   0.2182 LP             1 S1                 0.0000
     40 ****         5.6715   0.2158  -1.4113 LP             1 S1                 0.0000
     41 ****         4.6043  -0.7742  -0.6714 LP             1 S1                 0.0000
     42 ****        -3.0846   0.9718  -0.2235 LP             1 S1                 0.0000
@<TRIPOS>BOND
    1    1    2 1     
    2    1   19 1     
    3    1   20 1     
    4    1   21 1     
    5    2   18 ar    
    6    2    3 ar    
    7    3    4 ar    
    8    3   22 1     
    9    4    5 ar    
   10    4   23 1     
   11    5    6 ar    
   12    5   24 1     
   13    6    7 1     
   14    6   18 ar    
   15    7    8 am    
   16    7   25 1     
   17    8    9 2     
   18    8   10 am    
   19   10   11 1     
   20   10   26 1     
   21   11   17 1     
   22   11   12 1     
   23   11   27 1     
   24   12   13 1     
   25   12   28 1     
   26   12   29 1     
   27   13   14 1     
   28   13   30 1     
   29   13   31 1     
   30   14   15 1     
   31   14   16 1     
   32   14   32 1     
   33   15   33 1     
   34   16   17 1     
   35   16   34 1     
   36   16   35 1     
   37   17   36 1     
   38   17   37 1     
   39    9   38 1     
   40    9   39 1     
   41   15   40 1     
   42   15   41 1     
   43   18   42 1     
@<TRIPOS>SUBSTRUCTURE
      1 S1             1
@<TRIPOS>SET
LONE_PAIRS      STATIC     ATOMS    <user>   **** ""
5 38 39 40 41 42
DONOR_HYDROGENS      STATIC     ATOMS    <user>   **** ""
3 25 26 33
ATOM$BLUE        STATIC     ATOMS    COLORGROUP SYSTEM
5 38 39 40 41 42
ATOM$RED        STATIC     ATOMS    COLORGROUP SYSTEM
3 25 26 33
