AV-unprocessed.smi:1648|AV-procd|sdf|6629|dock7
  -GOLD-   22720 7333D 1   1.00000     0.00000
 Structure written by MMmdl.
 42 42  0  0  0  0  0  0  0  0  2 V2000
  149.3297  136.6578  158.7045 C   0  0  0  0  0  0  0  0  0  0  0  0
  149.3210  135.4411  157.7772 C   0  0  0  0  0  0  0  0  0  0  0  0
  149.0488  134.3343  158.2361 O   0  0  0  0  0  0  0  0  0  0  0  0
  149.6157  135.6030  156.4755 N   0  0  0  0  0  0  0  0  0  0  0  0
  149.6602  134.5703  155.4365 C   0  0  2  0  0  0  0  0  0  0  0  0
  148.2161  134.2308  155.0208 C   0  0  0  0  0  0  0  0  0  0  0  0
  147.3780  133.9138  155.8665 O   0  0  0  0  0  0  0  0  0  0  0  0
  147.9490  134.2806  153.7061 N   0  0  0  0  0  0  0  0  0  0  0  0
  146.6579  133.9769  153.0971 C   0  0  1  0  0  0  0  0  0  0  0  0
  145.6037  134.9606  153.6293 C   0  0  0  0  0  0  0  0  0  0  0  0
  146.7834  133.9935  151.5578 C   0  0  0  0  0  0  0  0  0  0  0  0
  145.6065  133.4432  150.8798 N   0  0  0  0  0  0  0  0  0  0  0  0
  145.5435  132.3219  150.0925 C   0  0  0  0  0  0  0  0  0  0  0  0
  144.2389  132.2022  149.6875 C   0  0  0  0  0  0  0  0  0  0  0  0
  143.5609  133.2515  150.2478 N   0  3  0  0  0  0  0  0  0  0  0  0
  144.3939  134.0038  150.9742 C   0  0  0  0  0  0  0  0  0  0  0  0
  150.3527  133.3031  156.0206 C   0  0  0  0  0  0  0  0  0  0  0  0
  151.7990  133.5951  156.4672 C   0  0  0  0  0  0  0  0  0  0  0  0
  150.3599  132.1099  155.0415 C   0  0  0  0  0  0  0  0  0  0  0  0
  150.3273  137.0941  158.7587 H   0  0  0  0  0  0  0  0  0  0  0  0
  149.0350  136.3715  159.7148 H   0  0  0  0  0  0  0  0  0  0  0  0
  148.6308  137.4187  158.3566 H   0  0  0  0  0  0  0  0  0  0  0  0
  149.8545  136.5376  156.1766 H   0  0  0  0  0  0  0  0  0  0  0  0
  150.2290  134.9209  154.5737 H   0  0  0  0  0  0  0  0  0  0  0  0
  148.6965  134.5487  153.0821 H   0  0  0  0  0  0  0  0  0  0  0  0
  146.3550  132.9763  153.4117 H   0  0  0  0  0  0  0  0  0  0  0  0
  144.6071  134.7175  153.2609 H   0  0  0  0  0  0  0  0  0  0  0  0
  145.8295  135.9848  153.3309 H   0  0  0  0  0  0  0  0  0  0  0  0
  145.5593  134.9337  154.7187 H   0  0  0  0  0  0  0  0  0  0  0  0
  146.9320  135.0123  151.1967 H   0  0  0  0  0  0  0  0  0  0  0  0
  147.6492  133.4148  151.2322 H   0  0  0  0  0  0  0  0  0  0  0  0
  146.4087  131.7094  149.8830 H   0  0  0  0  0  0  0  0  0  0  0  0
  143.7549  131.4671  149.0608 H   0  0  0  0  0  0  0  0  0  0  0  0
  144.1380  134.8902  151.5274 H   0  0  0  0  0  0  0  0  0  0  0  0
  149.8037  132.9872  156.9097 H   0  0  0  0  0  0  0  0  0  0  0  0
  152.4064  133.9459  155.6324 H   0  0  0  0  0  0  0  0  0  0  0  0
  152.2741  132.6994  156.8686 H   0  0  0  0  0  0  0  0  0  0  0  0
  151.8414  134.3522  157.2504 H   0  0  0  0  0  0  0  0  0  0  0  0
  150.8514  132.3722  154.1041 H   0  0  0  0  0  0  0  0  0  0  0  0
  149.3541  131.7623  154.8055 H   0  0  0  0  0  0  0  0  0  0  0  0
  150.8926  131.2585  155.4661 H   0  0  0  0  0  0  0  0  0  0  0  0
  142.5713  133.4322  150.1327 H   0  0  0  0  0  0  0  0  0  0  0  0
  1  2  1  0  0  0  0
  1 20  1  0  0  0  0
  1 21  1  0  0  0  0
  1 22  1  0  0  0  0
  2  3  2  0  0  0  0
  2  4  1  0  0  0  0
  4  5  1  0  0  0  0
  4 23  1  0  0  0  0
  5  6  1  0  0  0  0
  5 17  1  0  0  0  0
  5 24  1  0  0  0  0
  6  7  2  0  0  0  0
  6  8  1  0  0  0  0
  8  9  1  0  0  0  0
  8 25  1  0  0  0  0
  9 10  1  0  0  0  0
  9 11  1  0  0  0  0
  9 26  1  0  0  0  0
 10 27  1  0  0  0  0
 10 28  1  0  0  0  0
 10 29  1  0  0  0  0
 11 12  1  0  0  0  0
 11 30  1  0  0  0  0
 11 31  1  0  0  0  0
 12 16  1  0  0  0  0
 12 13  1  0  0  0  0
 13 14  2  0  0  0  0
 13 32  1  0  0  0  0
 14 15  1  0  0  0  0
 14 33  1  0  0  0  0
 15 16  2  0  0  0  0
 15 42  1  0  0  0  0
 16 34  1  0  0  0  0
 17 18  1  0  0  0  0
 17 19  1  0  0  0  0
 17 35  1  0  0  0  0
 18 36  1  0  0  0  0
 18 37  1  0  0  0  0
 18 38  1  0  0  0  0
 19 39  1  0  0  0  0
 19 40  1  0  0  0  0
 19 41  1  0  0  0  0
M  CHG  1  15   1
M  END
> <s_m_source_file>
AV-unprocessed.smi

> <i_m_source_file_index>
1648

> <i_lp_mmshare_version>
43012

> <i_f3d_flags>
0

> <s_epik_input>
W0NIM11DKD1PKVtOSF1bQ0BASF0oW0NIXShbQ0gzXSlbQ0gzXSlDKD1PKVtOSF1bQ0BIXShbQ0gzXSlbQ0gyXW4xW2NIXVtjSF1uW2NIXTE=

> <s_epik_cmdline>
J2VwaWtfcHl0aG9uJywgJy1waCcsICc3LjAnLCAnLXRuJywgJzgnLCAnLW1hJywgJzIwMCcsICctbWV0YWxfYmluZGluZycsICctaW1hZScsICc8aW5maWxlLm1hZT4nLCAnLW9tYWUnLCAnPG91dGZpbGUubWFlPic=

> <r_lp_tautomer_probability>
1

> <r_epik_Ionization_Penalty>
0.251562

> <r_epik_Ionization_Penalty_Charging>
0

> <r_epik_Ionization_Penalty_Neutral>
0.251562

> <r_epik_State_Penalty>
0.242926

> <r_epik_Charging_Adjusted_Penalty>
0.242926

> <i_epik_Tot_Q>
1

> <i_epik_Tot_abs_Q>
1

> <r_epik_Metal_State_Penalty>
0.53388

> <b_epik_Metal_Only>
0

> <s_lp_Force_Field>
OPLS_2005

> <r_lp_Energy>
11.8238

> <b_lp_Chiralities_Consistent>
1

> <s_lp_Variant>
AV-unprocessed.smi:1648-3

> <Gold.Version>
5.8.1

> <Gold.Id.Protein>
6NUR|6NUR_protein|mol2

> <Gold.PLP.Fitness>
38.4147

> <Gold.PLP.PLP>
-26.0835

> <Gold.PLP.part.hbond>
-3.0000

> <Gold.PLP.part.metal>
0.0000

> <Gold.PLP.part.buried>
-3.0284

> <Gold.PLP.part.nonpolar>
-19.2421

> <Gold.PLP.part.repulsive>
0.0836

> <Gold.PLP.ligand.clash>
0.0000

> <Gold.PLP.ligand.torsion>
0.4209

> <Gold.PLP.Chemscore.Hbond>
3.6384

> <Gold.PLP.Chemscore.CHOScore>
0.7312

> <Gold.PLP.Chemscore.Metal>
0.0000

> <Gold.Chemscore.Hbonds>
donor molecule, donor type, donor heavy atom, donor atom, acceptor molecule, acceptor atom, score
      L1  H     8    25       P1  7948  0.58
      L1  H    15    42       P1 10186  2.00
      P1  H  6896  6909       L1     3  0.85
      L1  C    13    32       P1 10747  0.53

> <Gold.PLP.Chemscore.Internal.Correction>
0.0642

> <Gold.Rescore>
     Score         DG    S(hbond)    S(metal)    S(lipo)     H(rot)  DE(clash)    DE(int)     intcor
      9.90     -12.03       2.02        0.00      55.49       2.61       0.08       2.05       ----

> <Gold.Chemscore.Fitness>
9.9027

> <Gold.Chemscore.DG>
-12.0348

> <Gold.Chemscore.ZeroCoef>
-5.4800

> <Gold.Chemscore.Hbond>
2.0220

> <Gold.Chemscore.Metal>
0.0000

> <Gold.Chemscore.Lipo>
55.4886

> <Gold.Chemscore.Internal_Hbond>
0.0000

> <Gold.Chemscore.DEClash>
0.0790

> <Gold.Chemscore.DEInternal>
2.0532

> <Gold.Chemscore.Rot>
2.6135

> <Gold.Chemscore.Internal.Correction>
   9.000000E+99

> <Gold.Chemscore.Hbonds>
donor molecule, donor type, donor heavy atom, donor atom, acceptor molecule, acceptor atom, score
      L1  H     8    25       P1  7948  0.11
      L1  H    15    42       P1 10186  0.98
      P1  H  6896  6909       L1     3  0.14

> <Gold.Chemscore.Hbond.Weighted>
-6.7533

> <Gold.Chemscore.Metal.Weighted>
-0.0000

> <Gold.Chemscore.Lipo.Weighted>
-6.4922

> <Gold.Chemscore.Internal_Hbond.Weighted>
0.0000

> <Gold.Chemscore.DEClash.Weighted>
0.0790

> <Gold.Chemscore.DEInternal.Weighted>
2.0532

> <Gold.Chemscore.Rot.Weighted>
6.6906

> <Gold.Chemscore.Internal.Correction.Weighted>
   9.000000E+99

> <Gold.Protein.RotatedTorsions>
[ 6907 6896 6895 6894 ] final   22.75 input  -60.11 | X-H torsion
[ 7974 7965 7964 7962 ] final -163.65 input  175.53 | X-H torsion
[ 8008 7997 7996 7995 ] final   79.95 input   59.86 | X-H torsion
[ 10167 10162 10161 10158 ] final   20.67 input  -65.29 | X-H torsion
[ 10718 10713 10712 10709 ] final   -7.11 input   66.30 | X-H torsion
[ 10763 10752 10751 10750 ] final -172.95 input  -60.55 | X-H torsion
[ 11005 11000 10999 10996 ] final -121.16 input  -57.11 | X-H torsion

> <Gold.Protein.ActiveResidues>
 VAL166  LYS551  ARG553  GLY616  TRP617  ASP618  TYR619  PRO620  LYS621  CYS622 
 ASP623  PHE694  ASN695  SER759  ASP760  ASP761  ALA762  ILE779  LEU786  VAL792 
 PHE793  MET794  SER795  GLU796  ALA797  LYS798  CYS799  TRP800  GLU811  SER814 

> <Gold.Protein.RotatedAtoms>
  151.9319  135.0252  160.0529 H   0  0  0  0  0  0  0  0  0  0  0  0  # atno 6907 bound_to 6896
  152.2111  133.4907  159.5119 H   0  0  0  0  0  0  0  0  0  0  0  0  # atno 6908 bound_to 6896
  150.6976  134.1382  159.4138 H   0  0  0  0  0  0  0  0  0  0  0  0  # atno 6909 bound_to 6896
  144.7320  140.3076  143.6193 H   0  0  0  0  0  0  0  0  0  0  0  0  # atno 7974 bound_to 7965
  155.8767  140.3446  155.5859 H   0  0  0  0  0  0  0  0  0  0  0  0  # atno 8008 bound_to 7997
  155.7766  140.0852  157.2100 H   0  0  0  0  0  0  0  0  0  0  0  0  # atno 8009 bound_to 7997
  154.4021  140.1508  156.2991 H   0  0  0  0  0  0  0  0  0  0  0  0  # atno 8010 bound_to 7997
  140.5485  143.9551  150.6563 H   0  0  0  0  0  0  0  0  0  0  0  0  # atno 10167 bound_to 10162
  156.7220  130.5154  149.5866 H   0  0  0  0  0  0  0  0  0  0  0  0  # atno 10718 bound_to 10713
  154.6134  135.2867  155.0406 H   0  0  0  0  0  0  0  0  0  0  0  0  # atno 10763 bound_to 10752
  154.1628  135.6485  153.4994 H   0  0  0  0  0  0  0  0  0  0  0  0  # atno 10764 bound_to 10752
  153.0205  135.5382  154.6897 H   0  0  0  0  0  0  0  0  0  0  0  0  # atno 10765 bound_to 10752
  141.0090  134.0292  157.3438 H   0  0  0  0  0  0  0  0  0  0  0  0  # atno 11005 bound_to 11000
  145.7697  139.1853  143.2219 LP  0  0  0  0  0  0  0  0  0  0  0  0  # atno 17320 bound_to 7965
  146.0921  140.7644  142.9590 LP  0  0  0  0  0  0  0  0  0  0  0  0  # atno 17321 bound_to 7965
  140.2970  143.3286  152.1008 LP  0  0  0  0  0  0  0  0  0  0  0  0  # atno 17342 bound_to 10162
  139.5017  144.6720  151.6219 LP  0  0  0  0  0  0  0  0  0  0  0  0  # atno 17343 bound_to 10162
  156.1588  130.6360  151.0692 LP  0  0  0  0  0  0  0  0  0  0  0  0  # atno 17370 bound_to 10713
  157.6894  131.0815  150.7151 LP  0  0  0  0  0  0  0  0  0  0  0  0  # atno 17371 bound_to 10713
  139.9079  135.0184  156.7567 LP  0  0  0  0  0  0  0  0  0  0  0  0  # atno 17394 bound_to 11000
  140.6764  133.9513  155.7885 LP  0  0  0  0  0  0  0  0  0  0  0  0  # atno 17395 bound_to 11000

$$$$
