AV-unprocessed.smi:2504|AV-procd|sdf|9851|dock3
  -GOLD-   2272013483D 1   1.00000     0.00000
 Structure written by MMmdl.
 45 47  0  0  0  0  0  0  0  0  2 V2000
  150.4651  141.8431  158.8997 O   0  0  0  0  0  0  0  0  0  0  0  0
  151.5886  141.3582  159.0429 C   0  0  0  0  0  0  0  0  0  0  0  0
  152.8313  142.2593  159.2284 C   0  0  0  0  0  0  0  0  0  0  0  0
  153.6856  141.8952  160.4549 C   0  0  0  0  0  0  0  0  0  0  0  0
  153.0563  142.6388  161.6407 C   0  0  0  0  0  0  0  0  0  0  0  0
  152.2494  143.7997  161.0394 C   0  0  0  0  0  0  0  0  0  0  0  0
  152.4450  143.7177  159.5197 C   0  0  0  0  0  0  0  0  0  0  0  0
  151.7761  139.9747  159.1204 N   0  0  0  0  0  0  0  0  0  0  0  0
  151.0367  139.0483  158.2753 C   0  0  0  0  0  0  0  0  0  0  0  0
  152.2579  138.1314  158.4049 C   0  0  0  0  0  0  0  0  0  0  0  0
  152.7637  137.3785  156.7937 S   0  0  0  0  0  0  0  0  0  0  0  0
  153.7817  138.2783  156.2282 O   0  0  0  0  0  0  0  0  0  0  0  0
  153.1920  136.0011  157.0907 O   0  0  0  0  0  0  0  0  0  0  0  0
  151.3608  137.4577  155.9821 N   0  5  0  0  0  0  0  0  0  0  0  0
  150.9420  136.3387  155.1523 C   0  0  0  0  0  0  0  0  0  0  0  0
  150.1751  135.2928  155.9951 C   0  0  0  0  0  0  0  0  0  0  0  0
  149.9193  133.9599  155.2993 C   0  0  0  0  0  0  0  0  0  0  0  0
  150.4067  132.7473  155.8344 C   0  0  0  0  0  0  0  0  0  0  0  0
  150.1322  131.5447  155.1554 C   0  0  0  0  0  0  0  0  0  0  0  0
  149.3838  131.6040  153.9630 C   0  0  0  0  0  0  0  0  0  0  0  0
  148.9224  132.7563  153.4324 N   0  0  0  0  0  0  0  0  0  0  0  0
  149.1876  133.9044  154.0916 C   0  0  0  0  0  0  0  0  0  0  0  0
  153.0655  139.3705  158.8200 C   0  0  0  0  0  0  0  0  0  0  0  0
  153.4433  142.1929  158.3288 H   0  0  0  0  0  0  0  0  0  0  0  0
  153.7668  140.8221  160.6338 H   0  0  0  0  0  0  0  0  0  0  0  0
  154.7012  142.2614  160.2985 H   0  0  0  0  0  0  0  0  0  0  0  0
  152.3910  141.9736  162.1929 H   0  0  0  0  0  0  0  0  0  0  0  0
  153.8181  142.9892  162.3377 H   0  0  0  0  0  0  0  0  0  0  0  0
  151.1939  143.6801  161.2875 H   0  0  0  0  0  0  0  0  0  0  0  0
  152.5687  144.7662  161.4306 H   0  0  0  0  0  0  0  0  0  0  0  0
  153.2661  144.3708  159.2213 H   0  0  0  0  0  0  0  0  0  0  0  0
  151.5603  144.0546  158.9777 H   0  0  0  0  0  0  0  0  0  0  0  0
  150.1262  138.6571  158.7297 H   0  0  0  0  0  0  0  0  0  0  0  0
  150.8782  139.4142  157.2589 H   0  0  0  0  0  0  0  0  0  0  0  0
  152.1498  137.3798  159.1885 H   0  0  0  0  0  0  0  0  0  0  0  0
  150.2871  136.6779  154.3492 H   0  0  0  0  0  0  0  0  0  0  0  0
  151.7814  135.8521  154.6540 H   0  0  0  0  0  0  0  0  0  0  0  0
  150.7123  135.1070  156.9262 H   0  0  0  0  0  0  0  0  0  0  0  0
  149.2118  135.7111  156.2893 H   0  0  0  0  0  0  0  0  0  0  0  0
  150.9730  132.7378  156.7542 H   0  0  0  0  0  0  0  0  0  0  0  0
  150.4826  130.5991  155.5414 H   0  0  0  0  0  0  0  0  0  0  0  0
  149.1535  130.7007  153.4177 H   0  0  0  0  0  0  0  0  0  0  0  0
  148.7952  134.8071  153.6463 H   0  0  0  0  0  0  0  0  0  0  0  0
  153.5937  139.8674  158.0049 H   0  0  0  0  0  0  0  0  0  0  0  0
  153.6989  139.2230  159.6949 H   0  0  0  0  0  0  0  0  0  0  0  0
  1  2  2  0  0  0  0
  2  3  1  0  0  0  0
  2  8  1  0  0  0  0
  3  7  1  0  0  0  0
  3  4  1  0  0  0  0
  3 24  1  0  0  0  0
  4  5  1  0  0  0  0
  4 25  1  0  0  0  0
  4 26  1  0  0  0  0
  5  6  1  0  0  0  0
  5 27  1  0  0  0  0
  5 28  1  0  0  0  0
  6  7  1  0  0  0  0
  6 29  1  0  0  0  0
  6 30  1  0  0  0  0
  7 31  1  0  0  0  0
  7 32  1  0  0  0  0
  8 23  1  0  0  0  0
  8  9  1  0  0  0  0
  9 10  1  0  0  0  0
  9 33  1  0  0  0  0
  9 34  1  0  0  0  0
 10 11  1  0  0  0  0
 10 23  1  0  0  0  0
 10 35  1  0  0  0  0
 11 12  2  0  0  0  0
 11 13  2  0  0  0  0
 11 14  1  0  0  0  0
 14 15  1  0  0  0  0
 15 16  1  0  0  0  0
 15 36  1  0  0  0  0
 15 37  1  0  0  0  0
 16 17  1  0  0  0  0
 16 38  1  0  0  0  0
 16 39  1  0  0  0  0
 17 22  1  0  0  0  0
 17 18  2  0  0  0  0
 18 19  1  0  0  0  0
 18 40  1  0  0  0  0
 19 20  2  0  0  0  0
 19 41  1  0  0  0  0
 20 21  1  0  0  0  0
 20 42  1  0  0  0  0
 21 22  2  0  0  0  0
 22 43  1  0  0  0  0
 23 44  1  0  0  0  0
 23 45  1  0  0  0  0
M  CHG  1  14  -1
M  END
> <s_m_source_file>
AV-unprocessed.smi

> <i_m_source_file_index>
2504

> <i_lp_mmshare_version>
43012

> <i_f3d_flags>
0

> <s_epik_input>
W0NIMl0xW0NIMl1bQ0gyXVtDSDJdW0NIXTFDKD1PKU4yW0NIMl1bQ0hdKFtDSDJdMilTKD1PKSg9TylbTkhdW0NIMl1bQ0gyXWMzW2NIXVtjSF1bY0hdbltjSF0z

> <s_epik_cmdline>
J2VwaWtfcHl0aG9uJywgJy1waCcsICc3LjAnLCAnLXRuJywgJzgnLCAnLW1hJywgJzIwMCcsICctbWV0YWxfYmluZGluZycsICctaW1hZScsICc8aW5maWxlLm1hZT4nLCAnLW9tYWUnLCAnPG91dGZpbGUubWFlPic=

> <r_epik_Ionization_Penalty>
5.82897

> <r_epik_Ionization_Penalty_Charging>
5.8024

> <r_epik_Ionization_Penalty_Neutral>
0.0265674

> <r_epik_State_Penalty>
5.81059

> <r_epik_Charging_Adjusted_Penalty>
11.613

> <i_epik_Tot_Q>
-1

> <i_epik_Tot_abs_Q>
1

> <r_epik_Metal_State_Penalty>
1.79017

> <b_epik_Metal_Only>
1

> <s_lp_Force_Field>
OPLS_2005

> <r_lp_Energy>
30.9789

> <b_lp_Chiralities_Consistent>
1

> <s_lp_Variant>
AV-unprocessed.smi:2504-3

> <Gold.Version>
5.8.1

> <Gold.Id.Protein>
6NUR|6NUR_protein|mol2

> <Gold.PLP.Fitness>
51.0950

> <Gold.PLP.PLP>
-44.8569

> <Gold.PLP.part.hbond>
-2.6252

> <Gold.PLP.part.metal>
0.0000

> <Gold.PLP.part.buried>
-5.2402

> <Gold.PLP.part.nonpolar>
-36.4199

> <Gold.PLP.part.repulsive>
0.2000

> <Gold.PLP.ligand.clash>
0.0000

> <Gold.PLP.ligand.torsion>
1.9854

> <Gold.PLP.Chemscore.Hbond>
1.5280

> <Gold.PLP.Chemscore.CHOScore>
1.0000

> <Gold.PLP.Chemscore.Metal>
0.0000

> <Gold.Chemscore.Hbonds>
donor molecule, donor type, donor heavy atom, donor atom, acceptor molecule, acceptor atom, score
      P1  H  7997  8010       L1    12  0.53
      P1  H 10752 10764       L1    13  1.00
      L1  C    22    43       P1  7948  1.00

> <Gold.PLP.Chemscore.Internal.Correction>
2.6249

> <Gold.Rescore>
     Score         DG    S(hbond)    S(metal)    S(lipo)     H(rot)  DE(clash)    DE(int)     intcor
     17.42     -19.31       1.57        0.00     108.70       1.61       0.00       1.88       ----

> <Gold.Chemscore.Fitness>
17.4209

> <Gold.Chemscore.DG>
-19.3070

> <Gold.Chemscore.ZeroCoef>
-5.4800

> <Gold.Chemscore.Hbond>
1.5670

> <Gold.Chemscore.Metal>
0.0000

> <Gold.Chemscore.Lipo>
108.6962

> <Gold.Chemscore.Internal_Hbond>
0.0000

> <Gold.Chemscore.DEClash>
0.0038

> <Gold.Chemscore.DEInternal>
1.8823

> <Gold.Chemscore.Rot>
1.6110

> <Gold.Chemscore.Internal.Correction>
   9.000000E+99

> <Gold.Chemscore.Hbonds>
donor molecule, donor type, donor heavy atom, donor atom, acceptor molecule, acceptor atom, score
      P1  H  7997  8010       L1    12  0.51
      P1  H 10752 10764       L1    13  0.47

> <Gold.Chemscore.Hbond.Weighted>
-5.2338

> <Gold.Chemscore.Metal.Weighted>
-0.0000

> <Gold.Chemscore.Lipo.Weighted>
-12.7175

> <Gold.Chemscore.Internal_Hbond.Weighted>
0.0000

> <Gold.Chemscore.DEClash.Weighted>
0.0038

> <Gold.Chemscore.DEInternal.Weighted>
1.8823

> <Gold.Chemscore.Rot.Weighted>
4.1243

> <Gold.Chemscore.Internal.Correction.Weighted>
   9.000000E+99

> <Gold.Protein.RotatedTorsions>
[ 6907 6896 6895 6894 ] final   29.63 input  -60.11 | X-H torsion
[ 7974 7965 7964 7962 ] final  -12.26 input  175.53 | X-H torsion
[ 8008 7997 7996 7995 ] final   49.81 input   59.86 | X-H torsion
[ 10167 10162 10161 10158 ] final  -55.77 input  -65.29 | X-H torsion
[ 10718 10713 10712 10709 ] final -132.76 input   66.30 | X-H torsion
[ 10763 10752 10751 10750 ] final   22.15 input  -60.55 | X-H torsion
[ 11005 11000 10999 10996 ] final  138.35 input  -57.11 | X-H torsion

> <Gold.Protein.ActiveResidues>
 VAL166  LYS551  ARG553  GLY616  TRP617  ASP618  TYR619  PRO620  LYS621  CYS622 
 ASP623  PHE694  ASN695  SER759  ASP760  ASP761  ALA762  ILE779  LEU786  VAL792 
 PHE793  MET794  SER795  GLU796  ALA797  LYS798  CYS799  TRP800  GLU811  SER814 

> <Gold.Protein.RotatedAtoms>
  152.0343  134.9749  160.0572 H   0  0  0  0  0  0  0  0  0  0  0  0  # atno 6907 bound_to 6896
  152.1213  133.4350  159.4685 H   0  0  0  0  0  0  0  0  0  0  0  0  # atno 6908 bound_to 6896
  150.6849  134.2450  159.4531 H   0  0  0  0  0  0  0  0  0  0  0  0  # atno 6909 bound_to 6896
  146.2158  140.3031  142.8376 H   0  0  0  0  0  0  0  0  0  0  0  0  # atno 7974 bound_to 7965
  155.4083  140.3441  155.4262 H   0  0  0  0  0  0  0  0  0  0  0  0  # atno 8008 bound_to 7997
  156.1463  140.1557  156.8872 H   0  0  0  0  0  0  0  0  0  0  0  0  # atno 8009 bound_to 7997
  154.5014  140.0814  156.7786 H   0  0  0  0  0  0  0  0  0  0  0  0  # atno 8010 bound_to 7997
  140.6356  143.2480  151.5127 H   0  0  0  0  0  0  0  0  0  0  0  0  # atno 10167 bound_to 10162
  156.2379  130.7077  151.0926 H   0  0  0  0  0  0  0  0  0  0  0  0  # atno 10718 bound_to 10713
  153.0938  135.6654  153.9802 H   0  0  0  0  0  0  0  0  0  0  0  0  # atno 10763 bound_to 10752
  153.9391  135.2996  155.3444 H   0  0  0  0  0  0  0  0  0  0  0  0  # atno 10764 bound_to 10752
  154.7355  135.5103  153.9109 H   0  0  0  0  0  0  0  0  0  0  0  0  # atno 10765 bound_to 10752
  140.0178  134.9410  157.0411 H   0  0  0  0  0  0  0  0  0  0  0  0  # atno 11005 bound_to 11000
  144.9042  140.7680  143.5848 LP  0  0  0  0  0  0  0  0  0  0  0  0  # atno 17320 bound_to 7965
  145.2959  139.1867  143.4715 LP  0  0  0  0  0  0  0  0  0  0  0  0  # atno 17321 bound_to 7965
  139.5567  144.2259  152.1623 LP  0  0  0  0  0  0  0  0  0  0  0  0  # atno 17342 bound_to 10162
  140.1515  144.5110  150.6685 LP  0  0  0  0  0  0  0  0  0  0  0  0  # atno 17343 bound_to 10162
  157.7162  131.0708  150.6316 LP  0  0  0  0  0  0  0  0  0  0  0  0  # atno 17370 bound_to 10713
  156.6388  130.4452  149.5760 LP  0  0  0  0  0  0  0  0  0  0  0  0  # atno 17371 bound_to 10713
  140.4441  134.1651  155.7176 LP  0  0  0  0  0  0  0  0  0  0  0  0  # atno 17394 bound_to 11000
  141.1754  133.8525  157.1438 LP  0  0  0  0  0  0  0  0  0  0  0  0  # atno 17395 bound_to 11000

$$$$
