AV-unprocessed.smi:1281|AV-procd|sdf|5359|dock5
  -GOLD-   22720 4493D 1   1.00000     0.00000
 Structure written by MMmdl.
 45 46  0  0  0  0  0  0  0  0  1 V2000
  159.7573  141.7607  167.2542 C   0  0  0  0  0  0  0  0  0  0  0  0
  158.4713  141.3353  166.8405 O   0  0  0  0  0  0  0  0  0  0  0  0
  157.7141  140.7780  167.9028 C   0  0  0  0  0  0  0  0  0  0  0  0
  156.3414  140.3335  167.3729 C   0  0  0  0  0  0  0  0  0  0  0  0
  155.8438  141.2321  166.3254 N   0  0  0  0  0  0  0  0  0  0  0  0
  155.6269  140.6099  165.1073 N   0  0  0  0  0  0  0  0  0  0  0  0
  155.1939  141.2913  164.0964 C   0  0  0  0  0  0  0  0  0  0  0  0
  154.9556  140.6610  162.7685 C   0  0  0  0  0  0  0  0  0  0  0  0
  155.0695  139.4462  162.5956 O   0  0  0  0  0  0  0  0  0  0  0  0
  154.6080  141.5079  161.7824 N   0  0  0  0  0  0  0  0  0  0  0  0
  154.3263  141.1239  160.4044 C   0  0  0  0  0  0  0  0  0  0  0  0
  152.8657  141.4188  160.0195 C   0  0  0  0  0  0  0  0  0  0  0  0
  152.6367  142.8798  159.6706 C   0  0  0  0  0  0  0  0  0  0  0  0
  152.6077  143.8414  160.6140 C   0  0  0  0  0  0  0  0  0  0  0  0
  152.3619  145.3123  160.3270 C   0  0  0  0  0  0  0  0  0  0  0  0
  151.8134  145.5492  158.9099 C   0  0  0  0  0  0  0  0  0  0  0  0
  152.5608  144.6965  157.8773 C   0  0  0  0  0  0  0  0  0  0  0  0
  152.4343  143.1951  158.1927 C   0  0  0  0  0  0  0  0  0  0  0  0
  154.9216  142.7137  164.2199 C   0  0  0  0  0  0  0  0  0  0  0  0
  155.1446  143.3083  165.4124 C   0  0  0  0  0  0  0  0  0  0  0  0
  155.6447  142.5626  166.5686 C   0  0  0  0  0  0  0  0  0  0  0  0
  155.8687  143.0844  167.6605 O   0  0  0  0  0  0  0  0  0  0  0  0
  160.2949  142.1799  166.4036 H   0  0  0  0  0  0  0  0  0  0  0  0
  160.3424  140.9269  167.6447 H   0  0  0  0  0  0  0  0  0  0  0  0
  159.6888  142.5319  168.0226 H   0  0  0  0  0  0  0  0  0  0  0  0
  158.2425  139.9153  168.3111 H   0  0  0  0  0  0  0  0  0  0  0  0
  157.5995  141.5004  168.7125 H   0  0  0  0  0  0  0  0  0  0  0  0
  156.4079  139.3114  166.9956 H   0  0  0  0  0  0  0  0  0  0  0  0
  155.6272  140.2888  168.1968 H   0  0  0  0  0  0  0  0  0  0  0  0
  154.5346  142.4899  162.0074 H   0  0  0  0  0  0  0  0  0  0  0  0
  155.0070  141.6798  159.7595 H   0  0  0  0  0  0  0  0  0  0  0  0
  154.5538  140.0664  160.2594 H   0  0  0  0  0  0  0  0  0  0  0  0
  152.5780  140.8010  159.1676 H   0  0  0  0  0  0  0  0  0  0  0  0
  152.1969  141.1429  160.8356 H   0  0  0  0  0  0  0  0  0  0  0  0
  152.7717  143.5824  161.6499 H   0  0  0  0  0  0  0  0  0  0  0  0
  151.6657  145.7114  161.0652 H   0  0  0  0  0  0  0  0  0  0  0  0
  153.3046  145.8436  160.4599 H   0  0  0  0  0  0  0  0  0  0  0  0
  150.7530  145.2953  158.8823 H   0  0  0  0  0  0  0  0  0  0  0  0
  151.8849  146.6067  158.6544 H   0  0  0  0  0  0  0  0  0  0  0  0
  152.1846  144.8989  156.8743 H   0  0  0  0  0  0  0  0  0  0  0  0
  153.6141  144.9806  157.8747 H   0  0  0  0  0  0  0  0  0  0  0  0
  153.1571  142.6365  157.5971 H   0  0  0  0  0  0  0  0  0  0  0  0
  151.4447  142.8419  157.9017 H   0  0  0  0  0  0  0  0  0  0  0  0
  154.5526  143.2890  163.3832 H   0  0  0  0  0  0  0  0  0  0  0  0
  154.9483  144.3651  165.5179 H   0  0  0  0  0  0  0  0  0  0  0  0
  1  2  1  0  0  0  0
  1 23  1  0  0  0  0
  1 24  1  0  0  0  0
  1 25  1  0  0  0  0
  2  3  1  0  0  0  0
  3  4  1  0  0  0  0
  3 26  1  0  0  0  0
  3 27  1  0  0  0  0
  4  5  1  0  0  0  0
  4 28  1  0  0  0  0
  4 29  1  0  0  0  0
  5 21  1  0  0  0  0
  5  6  1  0  0  0  0
  6  7  2  0  0  0  0
  7  8  1  0  0  0  0
  7 19  1  0  0  0  0
  8  9  2  0  0  0  0
  8 10  1  0  0  0  0
 10 11  1  0  0  0  0
 10 30  1  0  0  0  0
 11 12  1  0  0  0  0
 11 31  1  0  0  0  0
 11 32  1  0  0  0  0
 12 13  1  0  0  0  0
 12 33  1  0  0  0  0
 12 34  1  0  0  0  0
 13 18  1  0  0  0  0
 13 14  2  0  0  0  0
 14 15  1  0  0  0  0
 14 35  1  0  0  0  0
 15 16  1  0  0  0  0
 15 36  1  0  0  0  0
 15 37  1  0  0  0  0
 16 17  1  0  0  0  0
 16 38  1  0  0  0  0
 16 39  1  0  0  0  0
 17 18  1  0  0  0  0
 17 40  1  0  0  0  0
 17 41  1  0  0  0  0
 18 42  1  0  0  0  0
 18 43  1  0  0  0  0
 19 20  2  0  0  0  0
 19 44  1  0  0  0  0
 20 21  1  0  0  0  0
 20 45  1  0  0  0  0
 21 22  2  0  0  0  0
M  END
> <s_m_source_file>
AV-unprocessed.smi

> <i_m_source_file_index>
1281

> <i_lp_mmshare_version>
43012

> <i_f3d_flags>
0

> <s_epik_input>
W0NIM11PW0NIMl1bQ0gyXW4xbmMoW2NIXVtjSF1jMT1PKUMoPU8pW05IXVtDSDJdW0NIMl1DMj1bQ0hdW0NIMl1bQ0gyXVtDSDJdW0NIMl0y

> <s_epik_cmdline>
J2VwaWtfcHl0aG9uJywgJy1waCcsICc3LjAnLCAnLXRuJywgJzgnLCAnLW1hJywgJzIwMCcsICctbWV0YWxfYmluZGluZycsICctaW1hZScsICc8aW5maWxlLm1hZT4nLCAnLW9tYWUnLCAnPG91dGZpbGUubWFlPic=

> <r_lp_tautomer_probability>
1

> <r_epik_Ionization_Penalty>
8.17845e-07

> <r_epik_Ionization_Penalty_Charging>
5.79962e-09

> <r_epik_Ionization_Penalty_Neutral>
8.12046e-07

> <r_epik_State_Penalty>
-0

> <r_epik_Charging_Adjusted_Penalty>
5.79962e-09

> <i_epik_Tot_Q>
0

> <i_epik_Tot_abs_Q>
0

> <r_epik_Metal_State_Penalty>
-0

> <b_epik_Metal_Only>
0

> <s_lp_Force_Field>
OPLS_2005

> <r_lp_Energy>
28.483

> <b_lp_Chiralities_Consistent>
1

> <s_lp_Variant>
AV-unprocessed.smi:1281-1

> <Gold.Version>
5.8.1

> <Gold.Id.Protein>
6NUR|6NUR_protein|mol2

> <Gold.PLP.Fitness>
45.4639

> <Gold.PLP.PLP>
-46.5830

> <Gold.PLP.part.hbond>
-1.0000

> <Gold.PLP.part.metal>
0.0000

> <Gold.PLP.part.buried>
-0.9379

> <Gold.PLP.part.nonpolar>
-42.9064

> <Gold.PLP.part.repulsive>
0.0407

> <Gold.PLP.ligand.clash>
0.4561

> <Gold.PLP.ligand.torsion>
0.4101

> <Gold.PLP.Chemscore.Hbond>
0.0000

> <Gold.PLP.Chemscore.CHOScore>
0.0000

> <Gold.PLP.Chemscore.Metal>
0.0000

> <Gold.PLP.Chemscore.Internal.Correction>
0.1570

> <Gold.Rescore>
     Score         DG    S(hbond)    S(metal)    S(lipo)     H(rot)  DE(clash)    DE(int)     intcor
     14.15     -14.89       0.00        0.00     121.26       1.86       0.04       0.71       ----

> <Gold.Chemscore.Fitness>
14.1504

> <Gold.Chemscore.DG>
-14.8935

> <Gold.Chemscore.ZeroCoef>
-5.4800

> <Gold.Chemscore.Hbond>
0.0000

> <Gold.Chemscore.Metal>
0.0000

> <Gold.Chemscore.Lipo>
121.2620

> <Gold.Chemscore.Internal_Hbond>
0.0000

> <Gold.Chemscore.DEClash>
0.0378

> <Gold.Chemscore.DEInternal>
0.7054

> <Gold.Chemscore.Rot>
1.8649

> <Gold.Chemscore.Internal.Correction>
   9.000000E+99

> <Gold.Chemscore.Hbond.Weighted>
-0.0000

> <Gold.Chemscore.Metal.Weighted>
-0.0000

> <Gold.Chemscore.Lipo.Weighted>
-14.1877

> <Gold.Chemscore.Internal_Hbond.Weighted>
0.0000

> <Gold.Chemscore.DEClash.Weighted>
0.0378

> <Gold.Chemscore.DEInternal.Weighted>
0.7054

> <Gold.Chemscore.Rot.Weighted>
4.7741

> <Gold.Chemscore.Internal.Correction.Weighted>
   9.000000E+99

> <Gold.Protein.RotatedTorsions>
[ 6907 6896 6895 6894 ] final  132.12 input  -60.11 | X-H torsion
[ 7974 7965 7964 7962 ] final -159.86 input  175.53 | X-H torsion
[ 8008 7997 7996 7995 ] final   -1.41 input   59.86 | X-H torsion
[ 10167 10162 10161 10158 ] final  127.76 input  -65.29 | X-H torsion
[ 10718 10713 10712 10709 ] final -114.95 input   66.30 | X-H torsion
[ 10763 10752 10751 10750 ] final -146.13 input  -60.55 | X-H torsion
[ 11005 11000 10999 10996 ] final -155.31 input  -57.11 | X-H torsion

> <Gold.Protein.ActiveResidues>
 VAL166  LYS551  ARG553  GLY616  TRP617  ASP618  TYR619  PRO620  LYS621  CYS622 
 ASP623  PHE694  ASN695  SER759  ASP760  ASP761  ALA762  ILE779  LEU786  VAL792 
 PHE793  MET794  SER795  GLU796  ALA797  LYS798  CYS799  TRP800  GLU811  SER814 

> <Gold.Protein.RotatedAtoms>
  152.3357  133.6008  159.5840 H   0  0  0  0  0  0  0  0  0  0  0  0  # atno 6907 bound_to 6896
  150.7449  133.9800  159.3582 H   0  0  0  0  0  0  0  0  0  0  0  0  # atno 6908 bound_to 6896
  151.7670  135.0796  160.0405 H   0  0  0  0  0  0  0  0  0  0  0  0  # atno 6909 bound_to 6896
  144.7449  140.3624  143.6093 H   0  0  0  0  0  0  0  0  0  0  0  0  # atno 7974 bound_to 7965
  154.6472  140.2560  155.7255 H   0  0  0  0  0  0  0  0  0  0  0  0  # atno 8008 bound_to 7997
  156.2557  140.2875  156.0811 H   0  0  0  0  0  0  0  0  0  0  0  0  # atno 8009 bound_to 7997
  155.1507  140.0382  157.2810 H   0  0  0  0  0  0  0  0  0  0  0  0  # atno 8010 bound_to 7997
  139.5562  144.6850  151.4177 H   0  0  0  0  0  0  0  0  0  0  0  0  # atno 10167 bound_to 10162
  156.0864  130.6054  150.8842 H   0  0  0  0  0  0  0  0  0  0  0  0  # atno 10718 bound_to 10713
  154.8351  135.3395  154.6613 H   0  0  0  0  0  0  0  0  0  0  0  0  # atno 10763 bound_to 10752
  153.7228  135.6957  153.5013 H   0  0  0  0  0  0  0  0  0  0  0  0  # atno 10764 bound_to 10752
  153.2369  135.4398  155.0608 H   0  0  0  0  0  0  0  0  0  0  0  0  # atno 10765 bound_to 10752
  140.6878  134.4074  157.5222 H   0  0  0  0  0  0  0  0  0  0  0  0  # atno 11005 bound_to 11000
  145.7163  139.1698  143.2510 LP  0  0  0  0  0  0  0  0  0  0  0  0  # atno 17320 bound_to 7965
  146.1310  140.7186  142.9412 LP  0  0  0  0  0  0  0  0  0  0  0  0  # atno 17321 bound_to 7965
  140.6835  143.8028  150.7153 LP  0  0  0  0  0  0  0  0  0  0  0  0  # atno 17342 bound_to 10162
  140.1489  143.4375  152.2144 LP  0  0  0  0  0  0  0  0  0  0  0  0  # atno 17343 bound_to 10162
  157.5999  131.0941  150.8978 LP  0  0  0  0  0  0  0  0  0  0  0  0  # atno 17370 bound_to 10713
  156.9137  130.5290  149.5280 LP  0  0  0  0  0  0  0  0  0  0  0  0  # atno 17371 bound_to 10713
  139.8932  134.8736  156.2233 LP  0  0  0  0  0  0  0  0  0  0  0  0  # atno 17394 bound_to 11000
  141.0266  133.7012  156.1357 LP  0  0  0  0  0  0  0  0  0  0  0  0  # atno 17395 bound_to 11000

$$$$
