#       Name:                AV-unprocessed.smi:356
#       Creating user name   scv26
#       Creation time:       Thu Mar 26 22:34:31 2020


#       File generated by GOLD software.
#

@<TRIPOS>MOLECULE
AV-unprocessed.smi:356
    47    49     1
SMALL
NO_CHARGES


@<TRIPOS>ATOM
      1 ****        -1.4814   1.2392  -3.2974 C.3            1 S1                 0.0000
      2 ****        -1.9016   1.4781  -1.8818 C.2            1 S1                 0.0000
      3 ****        -2.2037   2.6938  -1.4269 N.2            1 S1                 0.0000
      4 ****        -2.5377   2.4504  -0.1087 C.ar           1 S1                 0.0000
      5 ****        -2.9496   3.3354   0.9131 C.ar           1 S1                 0.0000
      6 ****        -3.2396   2.8488   2.2047 C.ar           1 S1                 0.0000
      7 ****        -3.1226   1.4737   2.4928 C.ar           1 S1                 0.0000
      8 ****        -2.7129   0.5745   1.4896 C.ar           1 S1                 0.0000
      9 ****        -2.4240   1.0653   0.2018 C.ar           1 S1                 0.0000
     10 ****        -1.9976   0.4686  -0.9815 N.pl3          1 S1                 0.0000
     11 ****        -1.7220  -0.9464  -1.1885 C.3            1 S1                 0.0000
     12 ****        -0.2242  -1.2932  -1.0614 C.3            1 S1                 0.0000
     13 ****        -0.0895  -2.6867  -1.2560 O.3            1 S1                 0.0000
     14 ****         0.3839  -0.9223   0.3097 C.3            1 S1                 0.0000
     15 ****         1.8364  -1.2190   0.3935 N.4            1 S1                 1.0000
     16 ****         2.6881  -0.2434  -0.3320 C.3            1 S1                 0.0000
     17 ****         4.1702  -0.6419  -0.2279 C.3            1 S1                 0.0000
     18 ****         4.5454  -0.7408   1.1404 O.3            1 S1                 0.0000
     19 ****         3.7955  -1.7351   1.8268 C.3            1 S1                 0.0000
     20 ****         2.3022  -1.3696   1.7927 C.3            1 S1                 0.0000
     21 ****        -1.5156   2.1682  -3.8675 H              1 S1                 0.0000
     22 ****        -2.1487   0.5224  -3.7759 H              1 S1                 0.0000
     23 ****        -0.4623   0.8559  -3.3323 H              1 S1                 0.0000
     24 ****        -3.0431   4.3906   0.7027 H              1 S1                 0.0000
     25 ****        -3.5546   3.5342   2.9780 H              1 S1                 0.0000
     26 ****        -3.3483   1.1100   3.4848 H              1 S1                 0.0000
     27 ****        -2.6219  -0.4787   1.7092 H              1 S1                 0.0000
     28 ****        -2.3023  -1.5185  -0.4634 H              1 S1                 0.0000
     29 ****        -2.0991  -1.2372  -2.1695 H              1 S1                 0.0000
     30 ****         0.3167  -0.7914  -1.8619 H              1 S1                 0.0000
     31 ****        -0.4559  -2.9107  -2.0985 H              1 S1                 0.0000
     32 ****         0.2336   0.1338   0.5351 H              1 S1                 0.0000
     33 ****        -0.1485  -1.4776   1.0837 H              1 S1                 0.0000
     34 ****         2.4044  -0.1920  -1.3826 H              1 S1                 0.0000
     35 ****         2.5418   0.7535   0.0871 H              1 S1                 0.0000
     36 ****         4.3564  -1.5883  -0.7383 H              1 S1                 0.0000
     37 ****         4.7955   0.1088  -0.7115 H              1 S1                 0.0000
     38 ****         3.9681  -2.7144   1.3773 H              1 S1                 0.0000
     39 ****         4.1448  -1.7918   2.8579 H              1 S1                 0.0000
     40 ****         2.1319  -0.4395   2.3375 H              1 S1                 0.0000
     41 ****         1.7243  -2.1465   2.2947 H              1 S1                 0.0000
     42 ****         1.9685  -2.1185  -0.0478 H              1 S1                 0.0000
     43 ****        -2.1916   3.5650  -1.9176 LP             1 S1                 0.0000
     44 ****        -0.5793  -3.1765  -0.5348 LP             1 S1                 0.0000
     45 ****         0.8780  -2.9382  -1.2319 LP             1 S1                 0.0000
     46 ****         4.3909   0.1428   1.5824 LP             1 S1                 0.0000
     47 ****         5.5162  -0.9747   1.1930 LP             1 S1                 0.0000
@<TRIPOS>BOND
    1    1    2 1     
    2    1   21 1     
    3    1   22 1     
    4    1   23 1     
    5    2   10 1     
    6    2    3 2     
    7    3    4 1     
    8    4    9 ar    
    9    4    5 ar    
   10    5    6 ar    
   11    5   24 1     
   12    6    7 ar    
   13    6   25 1     
   14    7    8 ar    
   15    7   26 1     
   16    8    9 ar    
   17    8   27 1     
   18    9   10 1     
   19   10   11 1     
   20   11   12 1     
   21   11   28 1     
   22   11   29 1     
   23   12   13 1     
   24   12   14 1     
   25   12   30 1     
   26   13   31 1     
   27   14   15 1     
   28   14   32 1     
   29   14   33 1     
   30   15   20 1     
   31   15   16 1     
   32   15   42 1     
   33   16   17 1     
   34   16   34 1     
   35   16   35 1     
   36   17   18 1     
   37   17   36 1     
   38   17   37 1     
   39   18   19 1     
   40   19   20 1     
   41   19   38 1     
   42   19   39 1     
   43   20   40 1     
   44   20   41 1     
   45    3   43 1     
   46   13   44 1     
   47   13   45 1     
   48   18   46 1     
   49   18   47 1     
@<TRIPOS>SUBSTRUCTURE
      1 S1             1
@<TRIPOS>SET
LONE_PAIRS      STATIC     ATOMS    <user>   **** ""
5 43 44 45 46 47
DONOR_HYDROGENS      STATIC     ATOMS    <user>   **** ""
2 31 42
ATOM$BLUE        STATIC     ATOMS    COLORGROUP SYSTEM
5 43 44 45 46 47
ATOM$RED        STATIC     ATOMS    COLORGROUP SYSTEM
2 31 42
