AV-unprocessed.smi:322|AV-procd|sdf|2335|dock10
  -GOLD-   2262022243D 1   1.00000     0.00000
 Structure written by MMmdl.
 43 45  0  0  0  0  0  0  0  0  1 V2000
  150.6658  139.9528  155.0631 O   0  0  0  0  0  0  0  0  0  0  0  0
  151.1504  139.7008  156.3667 C   0  0  0  0  0  0  0  0  0  0  0  0
  151.3452  140.9391  157.1956 C   0  0  0  0  0  0  0  0  0  0  0  0
  151.1257  142.1701  156.7276 N   0  0  0  0  0  0  0  0  0  0  0  0
  151.4420  142.9702  157.8074 C   0  0  0  0  0  0  0  0  0  0  0  0
  151.4166  144.3761  157.9468 C   0  0  0  0  0  0  0  0  0  0  0  0
  151.7906  144.9794  159.1655 C   0  0  0  0  0  0  0  0  0  0  0  0
  152.1934  144.1869  160.2599 C   0  0  0  0  0  0  0  0  0  0  0  0
  152.2255  142.7841  160.1420 C   0  0  0  0  0  0  0  0  0  0  0  0
  151.8526  142.1868  158.9228 C   0  0  0  0  0  0  0  0  0  0  0  0
  151.7745  140.8691  158.4811 N   0  0  0  0  0  0  0  0  0  0  0  0
  152.1007  139.6768  159.2530 C   0  0  0  0  0  0  0  0  0  0  0  0
  153.5735  139.2463  159.0978 C   0  0  2  0  0  0  0  0  0  0  0  0
  153.7723  138.7429  157.7912 O   0  0  0  0  0  0  0  0  0  0  0  0
  153.9558  138.1496  160.1041 C   0  0  0  0  0  0  0  0  0  0  0  0
  155.3692  138.0083  160.1191 O   0  0  0  0  0  0  0  0  0  0  0  0
  155.9474  138.1433  161.4100 C   0  0  0  0  0  0  0  0  0  0  0  0
  155.4624  137.0982  162.4007 C   0  0  0  0  0  0  0  0  0  0  0  0
  155.8435  135.7477  162.2513 C   0  0  0  0  0  0  0  0  0  0  0  0
  155.4060  134.7817  163.1782 C   0  0  0  0  0  0  0  0  0  0  0  0
  154.5909  135.1629  164.2620 C   0  0  0  0  0  0  0  0  0  0  0  0
  154.0570  133.9803  165.3991 Cl  0  0  0  0  0  0  0  0  0  0  0  0
  154.2147  136.5114  164.4184 C   0  0  0  0  0  0  0  0  0  0  0  0
  154.6519  137.4774  163.4911 C   0  0  0  0  0  0  0  0  0  0  0  0
  150.0814  139.2519  154.8187 H   0  0  0  0  0  0  0  0  0  0  0  0
  150.4472  139.0353  156.8663 H   0  0  0  0  0  0  0  0  0  0  0  0
  152.1016  139.1737  156.2889 H   0  0  0  0  0  0  0  0  0  0  0  0
  151.1097  144.9914  157.1140 H   0  0  0  0  0  0  0  0  0  0  0  0
  151.7685  146.0550  159.2612 H   0  0  0  0  0  0  0  0  0  0  0  0
  152.4776  144.6567  161.1902 H   0  0  0  0  0  0  0  0  0  0  0  0
  152.5311  142.1748  160.9797 H   0  0  0  0  0  0  0  0  0  0  0  0
  151.8697  139.8670  160.3014 H   0  0  0  0  0  0  0  0  0  0  0  0
  151.4365  138.8690  158.9431 H   0  0  0  0  0  0  0  0  0  0  0  0
  154.2198  140.1124  159.2421 H   0  0  0  0  0  0  0  0  0  0  0  0
  153.7998  137.7993  157.8346 H   0  0  0  0  0  0  0  0  0  0  0  0
  153.6354  138.4429  161.1049 H   0  0  0  0  0  0  0  0  0  0  0  0
  153.4523  137.2106  159.8680 H   0  0  0  0  0  0  0  0  0  0  0  0
  157.0264  138.0278  161.3068 H   0  0  0  0  0  0  0  0  0  0  0  0
  155.7799  139.1503  161.7959 H   0  0  0  0  0  0  0  0  0  0  0  0
  156.4706  135.4498  161.4237 H   0  0  0  0  0  0  0  0  0  0  0  0
  155.6980  133.7489  163.0574 H   0  0  0  0  0  0  0  0  0  0  0  0
  153.5924  136.8069  165.2503 H   0  0  0  0  0  0  0  0  0  0  0  0
  154.3616  138.5098  163.6205 H   0  0  0  0  0  0  0  0  0  0  0  0
  1  2  1  0  0  0  0
  1 25  1  0  0  0  0
  2  3  1  0  0  0  0
  2 26  1  0  0  0  0
  2 27  1  0  0  0  0
  3 11  1  0  0  0  0
  3  4  2  0  0  0  0
  4  5  1  0  0  0  0
  5 10  2  0  0  0  0
  5  6  1  0  0  0  0
  6  7  2  0  0  0  0
  6 28  1  0  0  0  0
  7  8  1  0  0  0  0
  7 29  1  0  0  0  0
  8  9  2  0  0  0  0
  8 30  1  0  0  0  0
  9 10  1  0  0  0  0
  9 31  1  0  0  0  0
 10 11  1  0  0  0  0
 11 12  1  0  0  0  0
 12 13  1  0  0  0  0
 12 32  1  0  0  0  0
 12 33  1  0  0  0  0
 13 14  1  0  0  0  0
 13 15  1  0  0  0  0
 13 34  1  0  0  0  0
 14 35  1  0  0  0  0
 15 16  1  0  0  0  0
 15 36  1  0  0  0  0
 15 37  1  0  0  0  0
 16 17  1  0  0  0  0
 17 18  1  0  0  0  0
 17 38  1  0  0  0  0
 17 39  1  0  0  0  0
 18 24  1  0  0  0  0
 18 19  2  0  0  0  0
 19 20  1  0  0  0  0
 19 40  1  0  0  0  0
 20 21  2  0  0  0  0
 20 41  1  0  0  0  0
 21 22  1  0  0  0  0
 21 23  1  0  0  0  0
 23 24  2  0  0  0  0
 23 42  1  0  0  0  0
 24 43  1  0  0  0  0
M  END
> <s_m_source_file>
AV-unprocessed.smi

> <i_m_source_file_index>
322

> <i_lp_mmshare_version>
43012

> <i_f3d_flags>
0

> <s_epik_input>
W2NIXTFbY0hdW2NIXVtjSF1jKGMxMiluKGMobjIpW0NIMl1bT0hdKVtDSDJdW0NASF0oW09IXSlbQ0gyXU9bQ0gyXWMzW2NIXVtjSF1jKENsKVtjSF1bY0hdMw==

> <s_epik_cmdline>
J2VwaWtfcHl0aG9uJywgJy1waCcsICc3LjAnLCAnLXRuJywgJzgnLCAnLW1hJywgJzIwMCcsICctbWV0YWxfYmluZGluZycsICctaW1hZScsICc8aW5maWxlLm1hZT4nLCAnLW9tYWUnLCAnPG91dGZpbGUubWFlPic=

> <r_epik_Ionization_Penalty>
0.0649918

> <r_epik_Ionization_Penalty_Charging>
0

> <r_epik_Ionization_Penalty_Neutral>
0.0649918

> <r_epik_State_Penalty>
0.0565791

> <r_epik_Charging_Adjusted_Penalty>
0.0565791

> <i_epik_Tot_Q>
0

> <i_epik_Tot_abs_Q>
0

> <r_epik_Metal_State_Penalty>
5.93658e-05

> <b_epik_Metal_Only>
0

> <s_lp_Force_Field>
OPLS_2005

> <r_lp_Energy>
16.0387

> <b_lp_Chiralities_Consistent>
1

> <s_lp_Variant>
AV-unprocessed.smi:322-1

> <Gold.Version>
5.8.1

> <Gold.Id.Protein>
6NUR|6NUR_protein|mol2

> <Gold.PLP.Fitness>
54.3819

> <Gold.PLP.PLP>
-50.1835

> <Gold.PLP.part.hbond>
-2.0000

> <Gold.PLP.part.metal>
0.0000

> <Gold.PLP.part.buried>
-5.2622

> <Gold.PLP.part.nonpolar>
-43.2067

> <Gold.PLP.part.repulsive>
0.0753

> <Gold.PLP.ligand.clash>
0.0000

> <Gold.PLP.ligand.torsion>
0.9526

> <Gold.PLP.Chemscore.Hbond>
2.0000

> <Gold.PLP.Chemscore.CHOScore>
0.0000

> <Gold.PLP.Chemscore.Metal>
0.0000

> <Gold.Chemscore.Hbonds>
donor molecule, donor type, donor heavy atom, donor atom, acceptor molecule, acceptor atom, score
      P1  H  7989  7998       L1     1  0.94
      P1  H  7997  8010       L1    14  0.89

> <Gold.PLP.Chemscore.Internal.Correction>
0.1036

> <Gold.Rescore>
     Score         DG    S(hbond)    S(metal)    S(lipo)     H(rot)  DE(clash)    DE(int)     intcor
     18.35     -19.55       1.36        0.00     149.95       3.13       0.15       1.04       ----

> <Gold.Chemscore.Fitness>
18.3548

> <Gold.Chemscore.DG>
-19.5498

> <Gold.Chemscore.ZeroCoef>
-5.4800

> <Gold.Chemscore.Hbond>
1.3618

> <Gold.Chemscore.Metal>
0.0000

> <Gold.Chemscore.Lipo>
149.9468

> <Gold.Chemscore.Internal_Hbond>
0.0000

> <Gold.Chemscore.DEClash>
0.1508

> <Gold.Chemscore.DEInternal>
1.0442

> <Gold.Chemscore.Rot>
3.1337

> <Gold.Chemscore.Internal.Correction>
   9.000000E+99

> <Gold.Chemscore.Hbonds>
donor molecule, donor type, donor heavy atom, donor atom, acceptor molecule, acceptor atom, score
      P1  H  7989  7998       L1     1  0.81
      P1  H  7997  8010       L1    14  0.17

> <Gold.Chemscore.Hbond.Weighted>
-4.5484

> <Gold.Chemscore.Metal.Weighted>
-0.0000

> <Gold.Chemscore.Lipo.Weighted>
-17.5438

> <Gold.Chemscore.Internal_Hbond.Weighted>
0.0000

> <Gold.Chemscore.DEClash.Weighted>
0.1508

> <Gold.Chemscore.DEInternal.Weighted>
1.0442

> <Gold.Chemscore.Rot.Weighted>
8.0224

> <Gold.Chemscore.Internal.Correction.Weighted>
   9.000000E+99

> <Gold.Protein.RotatedTorsions>
[ 6907 6896 6895 6894 ] final  -72.08 input  -60.11 | X-H torsion
[ 7974 7965 7964 7962 ] final  112.82 input  175.53 | X-H torsion
[ 8008 7997 7996 7995 ] final   14.57 input   59.86 | X-H torsion
[ 10167 10162 10161 10158 ] final  150.17 input  -65.29 | X-H torsion
[ 10718 10713 10712 10709 ] final -150.86 input   66.30 | X-H torsion
[ 10763 10752 10751 10750 ] final -161.65 input  -60.55 | X-H torsion
[ 11005 11000 10999 10996 ] final  -73.02 input  -57.11 | X-H torsion

> <Gold.Protein.ActiveResidues>
 VAL166  LYS551  ARG553  GLY616  TRP617  ASP618  TYR619  PRO620  LYS621  CYS622 
 ASP623  PHE694  ASN695  SER759  ASP760  ASP761  ALA762  ILE779  LEU786  VAL792 
 PHE793  MET794  SER795  GLU796  ALA797  LYS798  CYS799  TRP800  GLU811  SER814 

> <Gold.Protein.RotatedAtoms>
  150.7185  134.5214  159.5655 H   0  0  0  0  0  0  0  0  0  0  0  0  # atno 6907 bound_to 6896
  152.2768  134.7869  160.0413 H   0  0  0  0  0  0  0  0  0  0  0  0  # atno 6908 bound_to 6896
  151.8530  133.3408  159.3716 H   0  0  0  0  0  0  0  0  0  0  0  0  # atno 6909 bound_to 6896
  145.2247  139.2846  143.4199 H   0  0  0  0  0  0  0  0  0  0  0  0  # atno 7974 bound_to 7965
  154.8504  140.2928  155.5602 H   0  0  0  0  0  0  0  0  0  0  0  0  # atno 8008 bound_to 7997
  156.3016  140.2497  156.3394 H   0  0  0  0  0  0  0  0  0  0  0  0  # atno 8009 bound_to 7997
  154.9027  140.0391  157.1891 H   0  0  0  0  0  0  0  0  0  0  0  0  # atno 8010 bound_to 7997
  139.4853  144.5543  151.7345 H   0  0  0  0  0  0  0  0  0  0  0  0  # atno 10167 bound_to 10162
  156.4517  130.8171  151.2402 H   0  0  0  0  0  0  0  0  0  0  0  0  # atno 10718 bound_to 10713
  154.7285  135.3041  154.8931 H   0  0  0  0  0  0  0  0  0  0  0  0  # atno 10763 bound_to 10752
  153.9782  135.6733  153.4753 H   0  0  0  0  0  0  0  0  0  0  0  0  # atno 10764 bound_to 10752
  153.0896  135.4966  154.8585 H   0  0  0  0  0  0  0  0  0  0  0  0  # atno 10765 bound_to 10752
  141.1617  133.6865  156.7147 H   0  0  0  0  0  0  0  0  0  0  0  0  # atno 11005 bound_to 11000
  146.3367  140.2564  142.8600 LP  0  0  0  0  0  0  0  0  0  0  0  0  # atno 17320 bound_to 7965
  144.9732  140.8389  143.5442 LP  0  0  0  0  0  0  0  0  0  0  0  0  # atno 17321 bound_to 7965
  140.5102  144.1036  150.5993 LP  0  0  0  0  0  0  0  0  0  0  0  0  # atno 17342 bound_to 10162
  140.3959  143.2728  152.0005 LP  0  0  0  0  0  0  0  0  0  0  0  0  # atno 17343 bound_to 10162
  157.7502  131.0136  150.3430 LP  0  0  0  0  0  0  0  0  0  0  0  0  # atno 17370 bound_to 10713
  156.3809  130.3880  149.7102 LP  0  0  0  0  0  0  0  0  0  0  0  0  # atno 17371 bound_to 10713
  140.2860  134.8278  157.3975 LP  0  0  0  0  0  0  0  0  0  0  0  0  # atno 17394 bound_to 11000
  140.1389  134.4997  155.8046 LP  0  0  0  0  0  0  0  0  0  0  0  0  # atno 17395 bound_to 11000

$$$$
