#       Name:                AV-unprocessed.smi:1240
#       Creating user name   scv26
#       Creation time:       Fri Mar 27 04:29:08 2020


#       File generated by GOLD software.
#

@<TRIPOS>MOLECULE
AV-unprocessed.smi:1240
    55    57     1
SMALL
NO_CHARGES


@<TRIPOS>ATOM
      1 ****        -0.9926   0.9630  -1.9382 O.2            1 S1                 0.0000
      2 ****        -1.4829   1.3705  -0.8853 C.2            1 S1                 0.0000
      3 ****        -1.5879   0.6114   0.2151 N.am           1 S1                 0.0000
      4 ****        -1.1686  -0.7832   0.3036 C.3            1 S1                 0.0000
      5 ****         0.3732  -0.9707   0.3955 C.3            1 S1                 0.0000
      6 ****         0.9980  -0.4087   1.7036 C.3            1 S1                 0.0000
      7 ****         2.4979  -0.6301   1.8174 C.3            1 S1                 0.0000
      8 ****         2.8951   0.3648   2.9011 C.3            1 S1                 0.0000
      9 ****         2.0093   1.4665   2.7470 O.3            1 S1                 0.0000
     10 ****         0.9402   1.1146   1.8751 C.3            1 S1                 0.0000
     11 ****         0.7683  -2.4008   0.2188 N.4            1 S1                 1.0000
     12 ****         0.0805  -3.3817   1.0969 C.3            1 S1                 0.0000
     13 ****         0.7099  -4.7738   0.9223 C.3            1 S1                 0.0000
     14 ****         0.6357  -5.1615  -0.4445 O.3            1 S1                 0.0000
     15 ****         1.3545  -4.2741  -1.2931 C.3            1 S1                 0.0000
     16 ****         0.7562  -2.8607  -1.1919 C.3            1 S1                 0.0000
     17 ****        -1.9558   2.6103  -0.6689 N.am           1 S1                 0.0000
     18 ****        -2.0474   3.7047  -1.5728 C.ar           1 S1                 0.0000
     19 ****        -2.2701   4.9856  -1.0259 C.ar           1 S1                 0.0000
     20 ****        -2.3835   6.0874  -1.8971 C.ar           1 S1                 0.0000
     21 ****        -2.2973   5.9829  -3.2398 N.ar           1 S1                 0.0000
     22 ****        -2.0952   4.7553  -3.7631 C.ar           1 S1                 0.0000
     23 ****        -1.9672   3.5891  -2.9820 C.ar           1 S1                 0.0000
     24 ****        -1.9968   1.0208   1.0427 H              1 S1                 0.0000
     25 ****        -1.6533  -1.2080   1.1828 H              1 S1                 0.0000
     26 ****        -1.5777  -1.3160  -0.5553 H              1 S1                 0.0000
     27 ****         0.8334  -0.4233  -0.4284 H              1 S1                 0.0000
     28 ****         0.5166  -0.8635   2.5705 H              1 S1                 0.0000
     29 ****         2.7655  -1.6548   2.0769 H              1 S1                 0.0000
     30 ****         2.9931  -0.3751   0.8792 H              1 S1                 0.0000
     31 ****         2.7431  -0.0682   3.8904 H              1 S1                 0.0000
     32 ****         3.9374   0.6748   2.8224 H              1 S1                 0.0000
     33 ****         1.1004   1.6205   0.9221 H              1 S1                 0.0000
     34 ****        -0.0117   1.4539   2.2839 H              1 S1                 0.0000
     35 ****         0.1530  -3.0788   2.1410 H              1 S1                 0.0000
     36 ****        -0.9798  -3.4350   0.8478 H              1 S1                 0.0000
     37 ****         1.7475  -4.7790   1.2603 H              1 S1                 0.0000
     38 ****         0.1744  -5.5064   1.5266 H              1 S1                 0.0000
     39 ****         2.4118  -4.2707  -1.0231 H              1 S1                 0.0000
     40 ****         1.2897  -4.6369  -2.3192 H              1 S1                 0.0000
     41 ****        -0.2630  -2.8651  -1.5788 H              1 S1                 0.0000
     42 ****         1.3335  -2.1766  -1.8148 H              1 S1                 0.0000
     43 ****        -2.2609   2.8081   0.2729 H              1 S1                 0.0000
     44 ****        -2.3500   5.1281   0.0419 H              1 S1                 0.0000
     45 ****        -2.5504   7.0791  -1.5037 H              1 S1                 0.0000
     46 ****        -2.0396   4.6982  -4.8402 H              1 S1                 0.0000
     47 ****        -1.8254   2.6429  -3.4798 H              1 S1                 0.0000
     48 ****         1.7412  -2.4304   0.4891 H              1 S1                 0.0000
     49 ****        -0.6497   0.0257  -2.0003 LP             1 S1                 0.0000
     50 ****        -0.9372   1.5693  -2.7316 LP             1 S1                 0.0000
     51 ****         2.5093   2.2419   2.3614 LP             1 S1                 0.0000
     52 ****         1.6381   1.7203   3.6402 LP             1 S1                 0.0000
     53 ****        -0.3240  -5.1697  -0.7256 LP             1 S1                 0.0000
     54 ****         1.0189  -6.0802  -0.5402 LP             1 S1                 0.0000
     55 ****        -2.3804   6.7879  -3.8273 LP             1 S1                 0.0000
@<TRIPOS>BOND
    1    1    2 2     
    2    2    3 am    
    3    2   17 am    
    4    3    4 1     
    5    3   24 1     
    6    4    5 1     
    7    4   25 1     
    8    4   26 1     
    9    5    6 1     
   10    5   11 1     
   11    5   27 1     
   12    6   10 1     
   13    6    7 1     
   14    6   28 1     
   15    7    8 1     
   16    7   29 1     
   17    7   30 1     
   18    8    9 1     
   19    8   31 1     
   20    8   32 1     
   21    9   10 1     
   22   10   33 1     
   23   10   34 1     
   24   11   16 1     
   25   11   12 1     
   26   11   48 1     
   27   12   13 1     
   28   12   35 1     
   29   12   36 1     
   30   13   14 1     
   31   13   37 1     
   32   13   38 1     
   33   14   15 1     
   34   15   16 1     
   35   15   39 1     
   36   15   40 1     
   37   16   41 1     
   38   16   42 1     
   39   17   18 1     
   40   17   43 1     
   41   18   23 ar    
   42   18   19 ar    
   43   19   20 ar    
   44   19   44 1     
   45   20   21 ar    
   46   20   45 1     
   47   21   22 ar    
   48   22   23 ar    
   49   22   46 1     
   50   23   47 1     
   51    1   49 1     
   52    1   50 1     
   53    9   51 1     
   54    9   52 1     
   55   14   53 1     
   56   14   54 1     
   57   21   55 1     
@<TRIPOS>SUBSTRUCTURE
      1 S1             1
@<TRIPOS>SET
LONE_PAIRS      STATIC     ATOMS    <user>   **** ""
7 49 50 51 52 53 54 55
DONOR_HYDROGENS      STATIC     ATOMS    <user>   **** ""
3 24 48 43
ATOM$BLUE        STATIC     ATOMS    COLORGROUP SYSTEM
7 49 50 51 52 53 54 55
ATOM$RED        STATIC     ATOMS    COLORGROUP SYSTEM
3 24 48 43
