AV-unprocessed.smi:203|AV-procd|sdf|1593|dock10
  -GOLD-   2262019493D 1   1.00000     0.00000
 Structure written by MMmdl.
 57 61  0  0  0  0  0  0  0  0  1 V2000
  153.2127  136.9219  156.5090 O   0  0  0  0  0  0  0  0  0  0  0  0
  152.6834  137.6986  157.3004 C   0  0  0  0  0  0  0  0  0  0  0  0
  152.3368  139.1381  156.9577 C   0  0  0  0  0  0  0  0  0  0  0  0
  151.4476  139.5600  158.1420 C   0  0  2  0  0  0  0  0  0  0  0  0
  151.4884  141.0662  158.5483 C   0  0  1  0  0  0  0  0  0  0  0  0
  152.8198  141.4788  159.2313 C   0  0  0  0  0  0  0  0  0  0  0  0
  152.8274  142.9646  159.6149 C   0  0  0  0  0  0  0  0  0  0  0  0
  152.5416  143.8243  158.3800 C   0  0  0  0  0  0  0  0  0  0  0  0
  151.2173  143.4005  157.7326 C   0  0  0  0  0  0  0  0  0  0  0  0
  151.2100  141.9719  157.4179 N   0  0  0  0  0  0  0  0  0  0  0  0
  150.1391  141.6787  156.6456 C   0  0  0  0  0  0  0  0  0  0  0  0
  150.3871  141.1958  155.4034 N   0  0  0  0  0  0  0  0  0  0  0  0
  149.3710  140.8887  154.5914 C   0  0  0  0  0  0  0  0  0  0  0  0
  148.0598  140.9930  154.8182 N   0  0  0  0  0  0  0  0  0  0  0  0
  147.8095  141.4890  156.0640 C   0  0  0  0  0  0  0  0  0  0  0  0
  148.7815  141.8578  157.0351 C   0  0  0  0  0  0  0  0  0  0  0  0
  148.1524  142.3300  158.1809 N   0  0  0  0  0  0  0  0  0  0  0  0
  146.8801  142.2516  157.9004 C   0  0  0  0  0  0  0  0  0  0  0  0
  146.5855  141.7634  156.6480 N   0  0  0  0  0  0  0  0  0  0  0  0
  145.2638  141.5952  156.0724 C   0  0  0  0  0  0  0  0  0  0  0  0
  144.4418  142.9015  156.0645 C   0  0  2  0  0  0  0  0  0  0  0  0
  143.1163  142.5604  155.7114 O   0  0  0  0  0  0  0  0  0  0  0  0
  144.9662  143.9764  155.0857 C   0  0  1  0  0  0  0  0  0  0  0  0
  145.4314  143.4390  153.7316 C   0  0  0  0  0  0  0  0  0  0  0  0
  145.3588  144.6596  152.8292 C   0  0  0  0  0  0  0  0  0  0  0  0
  144.3874  145.5941  153.5555 C   0  0  0  0  0  0  0  0  0  0  0  0
  143.9265  144.8533  154.6770 O   0  0  0  0  0  0  0  0  0  0  0  0
  151.7594  138.5437  159.2588 C   0  0  0  0  0  0  0  0  0  0  0  0
  152.3329  137.4135  158.5544 N   0  0  0  0  0  0  0  0  0  0  0  0
  153.2577  139.7140  156.8862 H   0  0  0  0  0  0  0  0  0  0  0  0
  151.8117  139.2076  156.0045 H   0  0  0  0  0  0  0  0  0  0  0  0
  150.4255  139.3209  157.8450 H   0  0  0  0  0  0  0  0  0  0  0  0
  150.6989  141.2228  159.2837 H   0  0  0  0  0  0  0  0  0  0  0  0
  152.9985  140.8947  160.1319 H   0  0  0  0  0  0  0  0  0  0  0  0
  153.6645  141.2893  158.5699 H   0  0  0  0  0  0  0  0  0  0  0  0
  152.0738  143.1534  160.3805 H   0  0  0  0  0  0  0  0  0  0  0  0
  153.7904  143.2365  160.0481 H   0  0  0  0  0  0  0  0  0  0  0  0
  152.5030  144.8785  158.6558 H   0  0  0  0  0  0  0  0  0  0  0  0
  153.3538  143.7184  157.6597 H   0  0  0  0  0  0  0  0  0  0  0  0
  150.3893  143.6252  158.4068 H   0  0  0  0  0  0  0  0  0  0  0  0
  151.0547  143.9848  156.8255 H   0  0  0  0  0  0  0  0  0  0  0  0
  149.6484  140.5062  153.6203 H   0  0  0  0  0  0  0  0  0  0  0  0
  146.1162  142.5586  158.5998 H   0  0  0  0  0  0  0  0  0  0  0  0
  145.3739  141.2093  155.0579 H   0  0  0  0  0  0  0  0  0  0  0  0
  144.7430  140.8244  156.6418 H   0  0  0  0  0  0  0  0  0  0  0  0
  144.4140  143.3183  157.0721 H   0  0  0  0  0  0  0  0  0  0  0  0
  142.9037  141.7303  156.1097 H   0  0  0  0  0  0  0  0  0  0  0  0
  145.7668  144.5567  155.5492 H   0  0  0  0  0  0  0  0  0  0  0  0
  146.4282  142.9987  153.7682 H   0  0  0  0  0  0  0  0  0  0  0  0
  144.7381  142.6767  153.3730 H   0  0  0  0  0  0  0  0  0  0  0  0
  146.3368  145.1324  152.7326 H   0  0  0  0  0  0  0  0  0  0  0  0
  145.0107  144.3976  151.8297 H   0  0  0  0  0  0  0  0  0  0  0  0
  144.9005  146.4928  153.9010 H   0  0  0  0  0  0  0  0  0  0  0  0
  143.5507  145.8989  152.9264 H   0  0  0  0  0  0  0  0  0  0  0  0
  152.4916  138.9017  159.9797 H   0  0  0  0  0  0  0  0  0  0  0  0
  150.8622  138.2531  159.8062 H   0  0  0  0  0  0  0  0  0  0  0  0
  152.4711  136.5131  158.9899 H   0  0  0  0  0  0  0  0  0  0  0  0
  1  2  2  0  0  0  0
  2 29  1  0  0  0  0
  2  3  1  0  0  0  0
  3  4  1  0  0  0  0
  3 30  1  0  0  0  0
  3 31  1  0  0  0  0
  4  5  1  0  0  0  0
  4 28  1  0  0  0  0
  4 32  1  0  0  0  0
  5 10  1  0  0  0  0
  5  6  1  0  0  0  0
  5 33  1  0  0  0  0
  6  7  1  0  0  0  0
  6 34  1  0  0  0  0
  6 35  1  0  0  0  0
  7  8  1  0  0  0  0
  7 36  1  0  0  0  0
  7 37  1  0  0  0  0
  8  9  1  0  0  0  0
  8 38  1  0  0  0  0
  8 39  1  0  0  0  0
  9 10  1  0  0  0  0
  9 40  1  0  0  0  0
  9 41  1  0  0  0  0
 10 11  1  0  0  0  0
 11 16  1  0  0  0  0
 11 12  2  0  0  0  0
 12 13  1  0  0  0  0
 13 14  2  0  0  0  0
 13 42  1  0  0  0  0
 14 15  1  0  0  0  0
 15 19  1  0  0  0  0
 15 16  2  0  0  0  0
 16 17  1  0  0  0  0
 17 18  2  0  0  0  0
 18 19  1  0  0  0  0
 18 43  1  0  0  0  0
 19 20  1  0  0  0  0
 20 21  1  0  0  0  0
 20 44  1  0  0  0  0
 20 45  1  0  0  0  0
 21 22  1  0  0  0  0
 21 23  1  0  0  0  0
 21 46  1  0  0  0  0
 22 47  1  0  0  0  0
 23 27  1  0  0  0  0
 23 24  1  0  0  0  0
 23 48  1  0  0  0  0
 24 25  1  0  0  0  0
 24 49  1  0  0  0  0
 24 50  1  0  0  0  0
 25 26  1  0  0  0  0
 25 51  1  0  0  0  0
 25 52  1  0  0  0  0
 26 27  1  0  0  0  0
 26 53  1  0  0  0  0
 26 54  1  0  0  0  0
 28 29  1  0  0  0  0
 28 55  1  0  0  0  0
 28 56  1  0  0  0  0
 29 57  1  0  0  0  0
M  END
> <s_m_source_file>
AV-unprocessed.smi

> <i_m_source_file_index>
203

> <i_lp_mmshare_version>
43012

> <i_f3d_flags>
0

> <s_epik_input>
Tz1DMVtDSDJdW0NASF0oW0NIMl1bTkhdMSlbQ0BASF0yW0NIMl1bQ0gyXVtDSDJdW0NIMl1OMmMobltjSF1uMyljKGMzNCluW2NIXW40W0NIMl1bQ0BIXShbT0hdKVtDQEBIXTVbQ0gyXVtDSDJdW0NIMl1PNQ==

> <s_epik_cmdline>
J2VwaWtfcHl0aG9uJywgJy1waCcsICc3LjAnLCAnLXRuJywgJzgnLCAnLW1hJywgJzIwMCcsICctbWV0YWxfYmluZGluZycsICctaW1hZScsICc8aW5maWxlLm1hZT4nLCAnLW9tYWUnLCAnPG91dGZpbGUubWFlPic=

> <r_lp_tautomer_probability>
1

> <r_epik_Ionization_Penalty>
0.00175146

> <r_epik_Ionization_Penalty_Charging>
0

> <r_epik_Ionization_Penalty_Neutral>
0.00175146

> <r_epik_State_Penalty>
0.00109045

> <r_epik_Charging_Adjusted_Penalty>
0.00109045

> <i_epik_Tot_Q>
0

> <i_epik_Tot_abs_Q>
0

> <r_epik_Metal_State_Penalty>
-0

> <b_epik_Metal_Only>
0

> <s_lp_Force_Field>
OPLS_2005

> <r_lp_Energy>
55.5443

> <b_lp_Chiralities_Consistent>
1

> <s_lp_Variant>
AV-unprocessed.smi:203-12

> <Gold.Version>
5.8.1

> <Gold.Id.Protein>
6NUR|6NUR_protein|mol2

> <Gold.PLP.Fitness>
49.3085

> <Gold.PLP.PLP>
-45.0979

> <Gold.PLP.part.hbond>
-1.9511

> <Gold.PLP.part.metal>
0.0000

> <Gold.PLP.part.buried>
-6.0364

> <Gold.PLP.part.nonpolar>
-38.4072

> <Gold.PLP.part.repulsive>
0.5564

> <Gold.PLP.ligand.clash>
0.0000

> <Gold.PLP.ligand.torsion>
0.7315

> <Gold.PLP.Chemscore.Hbond>
0.8030

> <Gold.PLP.Chemscore.CHOScore>
1.0000

> <Gold.PLP.Chemscore.Metal>
0.0000

> <Gold.Chemscore.Hbonds>
donor molecule, donor type, donor heavy atom, donor atom, acceptor molecule, acceptor atom, score
      P1  H  7989  7998       L1    12  0.03
      P1  H 10752 10765       L1     1  0.82
      L1  C    13    42       P1  7957  1.00

> <Gold.PLP.Chemscore.Internal.Correction>
0.2645

> <Gold.Rescore>
     Score         DG    S(hbond)    S(metal)    S(lipo)     H(rot)  DE(clash)    DE(int)     intcor
     12.76     -13.10       0.89        0.00      99.25       2.72       0.03       0.31       ----

> <Gold.Chemscore.Fitness>
12.7611

> <Gold.Chemscore.DG>
-13.0956

> <Gold.Chemscore.ZeroCoef>
-5.4800

> <Gold.Chemscore.Hbond>
0.8858

> <Gold.Chemscore.Metal>
0.0000

> <Gold.Chemscore.Lipo>
99.2526

> <Gold.Chemscore.Internal_Hbond>
0.0000

> <Gold.Chemscore.DEClash>
0.0291

> <Gold.Chemscore.DEInternal>
0.3053

> <Gold.Chemscore.Rot>
2.7171

> <Gold.Chemscore.Internal.Correction>
   9.000000E+99

> <Gold.Chemscore.Hbonds>
donor molecule, donor type, donor heavy atom, donor atom, acceptor molecule, acceptor atom, score
      P1  H 10752 10765       L1     1  0.81

> <Gold.Chemscore.Hbond.Weighted>
-2.9587

> <Gold.Chemscore.Metal.Weighted>
-0.0000

> <Gold.Chemscore.Lipo.Weighted>
-11.6126

> <Gold.Chemscore.Internal_Hbond.Weighted>
0.0000

> <Gold.Chemscore.DEClash.Weighted>
0.0291

> <Gold.Chemscore.DEInternal.Weighted>
0.3053

> <Gold.Chemscore.Rot.Weighted>
6.9557

> <Gold.Chemscore.Internal.Correction.Weighted>
   9.000000E+99

> <Gold.Protein.RotatedTorsions>
[ 6907 6896 6895 6894 ] final  -54.13 input  -60.11 | X-H torsion
[ 7974 7965 7964 7962 ] final  -49.37 input  175.53 | X-H torsion
[ 8008 7997 7996 7995 ] final   91.58 input   59.86 | X-H torsion
[ 10167 10162 10161 10158 ] final  -98.23 input  -65.29 | X-H torsion
[ 10718 10713 10712 10709 ] final  176.08 input   66.30 | X-H torsion
[ 10763 10752 10751 10750 ] final -123.85 input  -60.55 | X-H torsion
[ 11005 11000 10999 10996 ] final  132.80 input  -57.11 | X-H torsion

> <Gold.Protein.ActiveResidues>
 VAL166  LYS551  ARG553  GLY616  TRP617  ASP618  TYR619  PRO620  LYS621  CYS622 
 ASP623  PHE694  ASN695  SER759  ASP760  ASP761  ALA762  ILE779  LEU786  VAL792 
 PHE793  MET794  SER795  GLU796  ALA797  LYS798  CYS799  TRP800  GLU811  SER814 

> <Gold.Protein.RotatedAtoms>
  150.8365  134.7640  159.6896 H   0  0  0  0  0  0  0  0  0  0  0  0  # atno 6907 bound_to 6896
  152.4460  134.5489  159.9871 H   0  0  0  0  0  0  0  0  0  0  0  0  # atno 6908 bound_to 6896
  151.5639  133.3361  159.3012 H   0  0  0  0  0  0  0  0  0  0  0  0  # atno 6909 bound_to 6896
  145.9413  140.7659  142.9550 H   0  0  0  0  0  0  0  0  0  0  0  0  # atno 7974 bound_to 7965
  156.0254  140.3336  155.7083 H   0  0  0  0  0  0  0  0  0  0  0  0  # atno 8008 bound_to 7997
  155.5962  140.0651  157.2763 H   0  0  0  0  0  0  0  0  0  0  0  0  # atno 8009 bound_to 7997
  154.4332  140.1818  156.1114 H   0  0  0  0  0  0  0  0  0  0  0  0  # atno 8010 bound_to 7997
  140.2751  143.3318  152.0497 H   0  0  0  0  0  0  0  0  0  0  0  0  # atno 10167 bound_to 10162
  156.9255  130.9954  151.2997 H   0  0  0  0  0  0  0  0  0  0  0  0  # atno 10718 bound_to 10713
  154.8714  135.4084  154.3010 H   0  0  0  0  0  0  0  0  0  0  0  0  # atno 10763 bound_to 10752
  153.3869  135.7013  153.6529 H   0  0  0  0  0  0  0  0  0  0  0  0  # atno 10764 bound_to 10752
  153.5328  135.3664  155.2655 H   0  0  0  0  0  0  0  0  0  0  0  0  # atno 10765 bound_to 10752
  139.9812  134.9547  156.9634 H   0  0  0  0  0  0  0  0  0  0  0  0  # atno 11005 bound_to 11000
  144.6779  140.2285  143.7358 LP  0  0  0  0  0  0  0  0  0  0  0  0  # atno 17320 bound_to 7965
  145.8295  139.2080  143.1891 LP  0  0  0  0  0  0  0  0  0  0  0  0  # atno 17321 bound_to 7965
  139.4978  144.6630  151.6421 LP  0  0  0  0  0  0  0  0  0  0  0  0  # atno 17342 bound_to 10162
  140.5858  143.9867  150.6295 LP  0  0  0  0  0  0  0  0  0  0  0  0  # atno 17343 bound_to 10162
  157.5881  130.8424  149.8618 LP  0  0  0  0  0  0  0  0  0  0  0  0  # atno 17370 bound_to 10713
  156.0471  130.3725  150.1290 LP  0  0  0  0  0  0  0  0  0  0  0  0  # atno 17371 bound_to 10713
  140.5092  134.1019  155.7266 LP  0  0  0  0  0  0  0  0  0  0  0  0  # atno 17394 bound_to 11000
  141.1484  133.9013  157.2159 LP  0  0  0  0  0  0  0  0  0  0  0  0  # atno 17395 bound_to 11000

$$$$
