#       Name:                AV-unprocessed.smi:794
#       Creating user name   scv26
#       Creation time:       Fri Mar 27 01:19:06 2020


#       File generated by GOLD software.
#

@<TRIPOS>MOLECULE
AV-unprocessed.smi:794
    46    48     1
SMALL
NO_CHARGES


@<TRIPOS>ATOM
      1 ****        -5.7934  -1.2000   0.2782 C.3            1 S1                 0.0000
      2 ****        -4.7965  -0.0923   0.1259 C.2            1 S1                 0.0000
      3 ****        -3.4416  -0.3992  -0.0331 N.2            1 S1                 0.0000
      4 ****        -2.6858   0.6964  -0.1575 C.2            1 S1                 0.0000
      5 ****        -1.2780   0.6833  -0.3367 N.am           1 S1                 0.0000
      6 ****        -0.4601  -0.3801  -0.4239 C.2            1 S1                 0.0000
      7 ****        -0.8099  -1.5575  -0.3384 O.2            1 S1                 0.0000
      8 ****         0.8105   0.0034  -0.6131 N.am           1 S1                 0.0000
      9 ****         1.9547  -0.8950  -0.7765 C.3            1 S1                 0.0000
     10 ****         3.0468  -0.2923  -1.6951 C.3            1 S1                 0.0000
     11 ****         3.4247   1.1393  -1.2572 C.3            1 S1                 0.0000
     12 ****         4.1704   0.8983   0.0674 C.3            1 S1                 0.0000
     13 ****         4.1550  -0.6393   0.1984 C.3            1 S1                 0.0000
     14 ****         4.2894  -1.0624  -1.2597 C.3            1 S1                 0.0000
     15 ****         2.7438  -1.1814   0.5345 C.3            1 S1                 0.0000
     16 ****         2.1270  -0.6864   1.8623 C.3            1 S1                 0.0000
     17 ****         2.9523  -1.0440   2.9505 O.3            1 S1                 0.0000
     18 ****        -3.5982   2.1935  -0.0839 S.3            1 S1                 0.0000
     19 ****        -5.0583   1.2585   0.1233 C.2            1 S1                 0.0000
     20 ****        -6.3833   1.9300   0.2689 C.3            1 S1                 0.0000
     21 ****        -6.6216  -1.0824  -0.4210 H              1 S1                 0.0000
     22 ****        -6.2109  -1.2153   1.2852 H              1 S1                 0.0000
     23 ****        -5.3442  -2.1765   0.0926 H              1 S1                 0.0000
     24 ****        -0.8441   1.5908  -0.4196 H              1 S1                 0.0000
     25 ****         1.0046   0.9925  -0.6654 H              1 S1                 0.0000
     26 ****         1.6212  -1.8412  -1.2079 H              1 S1                 0.0000
     27 ****         2.8118  -0.3711  -2.7570 H              1 S1                 0.0000
     28 ****         4.0944   1.5947  -1.9878 H              1 S1                 0.0000
     29 ****         2.5712   1.8074  -1.1450 H              1 S1                 0.0000
     30 ****         5.1951   1.2648  -0.0067 H              1 S1                 0.0000
     31 ****         3.7068   1.4081   0.9107 H              1 S1                 0.0000
     32 ****         4.9360  -1.0271   0.8533 H              1 S1                 0.0000
     33 ****         4.2058  -2.1403  -1.4102 H              1 S1                 0.0000
     34 ****         5.2077  -0.7085  -1.7318 H              1 S1                 0.0000
     35 ****         2.8294  -2.2663   0.6221 H              1 S1                 0.0000
     36 ****         1.9703   0.3916   1.8691 H              1 S1                 0.0000
     37 ****         1.1514  -1.1482   2.0158 H              1 S1                 0.0000
     38 ****         2.5371  -0.7578   3.7497 H              1 S1                 0.0000
     39 ****        -6.9141   1.5546   1.1442 H              1 S1                 0.0000
     40 ****        -7.0059   1.7480  -0.6074 H              1 S1                 0.0000
     41 ****        -6.2699   3.0085   0.3833 H              1 S1                 0.0000
     42 ****        -3.0796  -1.3312  -0.0516 LP             1 S1                 0.0000
     43 ****        -1.7730  -1.7836  -0.1921 LP             1 S1                 0.0000
     44 ****        -0.1310  -2.2876  -0.4153 LP             1 S1                 0.0000
     45 ****         3.8441  -0.6015   2.8568 LP             1 S1                 0.0000
     46 ****         3.0730  -2.0365   2.9701 LP             1 S1                 0.0000
@<TRIPOS>BOND
    1    1    2 1     
    2    1   21 1     
    3    1   22 1     
    4    1   23 1     
    5    2   19 2     
    6    2    3 1     
    7    3    4 2     
    8    4    5 1     
    9    4   18 1     
   10    5    6 am    
   11    5   24 1     
   12    6    7 2     
   13    6    8 am    
   14    8    9 1     
   15    8   25 1     
   16    9   15 1     
   17    9   10 1     
   18    9   26 1     
   19   10   14 1     
   20   10   11 1     
   21   10   27 1     
   22   11   12 1     
   23   11   28 1     
   24   11   29 1     
   25   12   13 1     
   26   12   30 1     
   27   12   31 1     
   28   13   14 1     
   29   13   15 1     
   30   13   32 1     
   31   14   33 1     
   32   14   34 1     
   33   15   16 1     
   34   15   35 1     
   35   16   17 1     
   36   16   36 1     
   37   16   37 1     
   38   17   38 1     
   39   18   19 1     
   40   19   20 1     
   41   20   39 1     
   42   20   40 1     
   43   20   41 1     
   44    3   42 1     
   45    7   43 1     
   46    7   44 1     
   47   17   45 1     
   48   17   46 1     
@<TRIPOS>SUBSTRUCTURE
      1 S1             1
@<TRIPOS>SET
LONE_PAIRS      STATIC     ATOMS    <user>   **** ""
5 42 43 44 45 46
DONOR_HYDROGENS      STATIC     ATOMS    <user>   **** ""
3 24 25 38
ATOM$BLUE        STATIC     ATOMS    COLORGROUP SYSTEM
5 42 43 44 45 46
ATOM$RED        STATIC     ATOMS    COLORGROUP SYSTEM
3 24 25 38
