AV-unprocessed.smi:821|AV-procd|sdf|3839|dock2
  -GOLD-   22720 1283D 1   1.00000     0.00000
 Structure written by MMmdl.
 44 45  0  0  0  0  0  0  0  0  1 V2000
  147.2128  140.0666  154.9386 C   0  0  0  0  0  0  0  0  0  0  0  0
  147.6448  139.2170  153.7333 C   0  0  1  0  0  0  0  0  0  0  0  0
  148.8535  138.3183  154.0757 C   0  0  0  0  0  0  0  0  0  0  0  0
  150.1183  139.0196  154.3068 N   0  0  0  0  0  0  0  0  0  0  0  0
  150.1137  139.6794  155.6087 C   0  0  0  0  0  0  0  0  0  0  0  0
  151.4306  140.4252  155.8847 C   0  0  0  0  0  0  0  0  0  0  0  0
  152.5202  139.5138  155.7899 O   0  0  0  0  0  0  0  0  0  0  0  0
  152.5961  138.8837  154.5156 C   0  0  0  0  0  0  0  0  0  0  0  0
  151.2821  138.1384  154.2248 C   0  0  0  0  0  0  0  0  0  0  0  0
  146.5218  138.3843  153.3100 N   0  0  0  0  0  0  0  0  0  0  0  0
  146.1859  138.1151  152.0398 C   0  0  0  0  0  0  0  0  0  0  0  0
  146.7550  138.6124  151.0675 O   0  0  0  0  0  0  0  0  0  0  0  0
  145.0216  137.1346  151.8443 C   0  0  0  0  0  0  0  0  0  0  0  0
  145.4433  135.7269  151.9434 N   0  0  0  0  0  0  0  0  0  0  0  0
  146.2947  135.3879  153.0101 C   0  0  0  0  0  0  0  0  0  0  0  0
  146.7281  134.1338  153.1953 C   0  0  0  0  0  0  0  0  0  0  0  0
  146.2942  133.1177  152.2678 C   0  0  0  0  0  0  0  0  0  0  0  0
  145.4769  133.4136  151.2306 C   0  0  0  0  0  0  0  0  0  0  0  0
  144.9964  132.3481  150.2481 C   0  0  0  0  0  0  0  0  0  0  0  0
  145.5165  132.5597  149.0387 F   0  0  0  0  0  0  0  0  0  0  0  0
  145.3500  131.1217  150.6357 F   0  0  0  0  0  0  0  0  0  0  0  0
  143.6672  132.3729  150.1400 F   0  0  0  0  0  0  0  0  0  0  0  0
  145.0134  134.8016  151.0293 C   0  0  0  0  0  0  0  0  0  0  0  0
  144.2785  135.1219  150.0931 O   0  0  0  0  0  0  0  0  0  0  0  0
  148.0208  140.7210  155.2665 H   0  0  0  0  0  0  0  0  0  0  0  0
  146.9264  139.4406  155.7843 H   0  0  0  0  0  0  0  0  0  0  0  0
  146.3616  140.7011  154.6891 H   0  0  0  0  0  0  0  0  0  0  0  0
  147.9337  139.9000  152.9318 H   0  0  0  0  0  0  0  0  0  0  0  0
  148.6092  137.7764  154.9904 H   0  0  0  0  0  0  0  0  0  0  0  0
  148.9810  137.5489  153.3124 H   0  0  0  0  0  0  0  0  0  0  0  0
  149.2832  140.3842  155.6646 H   0  0  0  0  0  0  0  0  0  0  0  0
  149.9492  138.9416  156.3959 H   0  0  0  0  0  0  0  0  0  0  0  0
  151.5682  141.2443  155.1771 H   0  0  0  0  0  0  0  0  0  0  0  0
  151.4174  140.8614  156.8834 H   0  0  0  0  0  0  0  0  0  0  0  0
  152.7950  139.6299  153.7447 H   0  0  0  0  0  0  0  0  0  0  0  0
  153.4346  138.1869  154.5105 H   0  0  0  0  0  0  0  0  0  0  0  0
  151.1717  137.3105  154.9268 H   0  0  0  0  0  0  0  0  0  0  0  0
  151.3530  137.7009  153.2300 H   0  0  0  0  0  0  0  0  0  0  0  0
  145.9903  137.9364  154.0425 H   0  0  0  0  0  0  0  0  0  0  0  0
  144.2379  137.3363  152.5776 H   0  0  0  0  0  0  0  0  0  0  0  0
  144.5659  137.3404  150.8750 H   0  0  0  0  0  0  0  0  0  0  0  0
  146.5664  136.2040  153.6639 H   0  0  0  0  0  0  0  0  0  0  0  0
  147.3804  133.8891  154.0207 H   0  0  0  0  0  0  0  0  0  0  0  0
  146.6338  132.1045  152.4222 H   0  0  0  0  0  0  0  0  0  0  0  0
  1  2  1  0  0  0  0
  1 25  1  0  0  0  0
  1 26  1  0  0  0  0
  1 27  1  0  0  0  0
  2  3  1  0  0  0  0
  2 10  1  0  0  0  0
  2 28  1  0  0  0  0
  3  4  1  0  0  0  0
  3 29  1  0  0  0  0
  3 30  1  0  0  0  0
  4  9  1  0  0  0  0
  4  5  1  0  0  0  0
  5  6  1  0  0  0  0
  5 31  1  0  0  0  0
  5 32  1  0  0  0  0
  6  7  1  0  0  0  0
  6 33  1  0  0  0  0
  6 34  1  0  0  0  0
  7  8  1  0  0  0  0
  8  9  1  0  0  0  0
  8 35  1  0  0  0  0
  8 36  1  0  0  0  0
  9 37  1  0  0  0  0
  9 38  1  0  0  0  0
 10 11  1  0  0  0  0
 10 39  1  0  0  0  0
 11 12  2  0  0  0  0
 11 13  1  0  0  0  0
 13 14  1  0  0  0  0
 13 40  1  0  0  0  0
 13 41  1  0  0  0  0
 14 23  1  0  0  0  0
 14 15  1  0  0  0  0
 15 16  2  0  0  0  0
 15 42  1  0  0  0  0
 16 17  1  0  0  0  0
 16 43  1  0  0  0  0
 17 18  2  0  0  0  0
 17 44  1  0  0  0  0
 18 19  1  0  0  0  0
 18 23  1  0  0  0  0
 19 20  1  0  0  0  0
 19 21  1  0  0  0  0
 19 22  1  0  0  0  0
 23 24  2  0  0  0  0
M  END
> <s_m_source_file>
AV-unprocessed.smi

> <i_m_source_file_index>
821

> <i_lp_mmshare_version>
43012

> <i_f3d_flags>
0

> <s_epik_input>
W0NIMl0xW0NIMl1PW0NIMl1bQ0gyXU4xW0NIMl1bQ0BASF0oW0NIM10pW05IXUMoPU8pW0NIMl1uMltjSF1bY0hdW2NIXWMoQyhGKShGKUYpYzI9Tw==

> <s_epik_cmdline>
J2VwaWtfcHl0aG9uJywgJy1waCcsICc3LjAnLCAnLXRuJywgJzgnLCAnLW1hJywgJzIwMCcsICctbWV0YWxfYmluZGluZycsICctaW1hZScsICc8aW5maWxlLm1hZT4nLCAnLW9tYWUnLCAnPG91dGZpbGUubWFlPic=

> <r_lp_tautomer_probability>
1

> <r_epik_Ionization_Penalty>
0.237382

> <r_epik_Ionization_Penalty_Charging>
1.90699e-09

> <r_epik_Ionization_Penalty_Neutral>
0.237382

> <r_epik_State_Penalty>
0.228245

> <r_epik_Charging_Adjusted_Penalty>
0.228245

> <i_epik_Tot_Q>
0

> <i_epik_Tot_abs_Q>
0

> <r_epik_Metal_State_Penalty>
0.228219

> <b_epik_Metal_Only>
0

> <s_lp_Force_Field>
OPLS_2005

> <r_lp_Energy>
36.3574

> <b_lp_Chiralities_Consistent>
1

> <s_lp_Variant>
AV-unprocessed.smi:821-2

> <Gold.Version>
5.8.1

> <Gold.Id.Protein>
6NUR|6NUR_protein|mol2

> <Gold.PLP.Fitness>
45.7863

> <Gold.PLP.PLP>
-41.6350

> <Gold.PLP.part.hbond>
-2.0000

> <Gold.PLP.part.metal>
0.0000

> <Gold.PLP.part.buried>
-4.0107

> <Gold.PLP.part.nonpolar>
-36.6202

> <Gold.PLP.part.repulsive>
0.7742

> <Gold.PLP.ligand.clash>
0.1549

> <Gold.PLP.ligand.torsion>
1.1340

> <Gold.PLP.Chemscore.Hbond>
2.0000

> <Gold.PLP.Chemscore.CHOScore>
0.0000

> <Gold.PLP.Chemscore.Metal>
0.0000

> <Gold.Chemscore.Hbonds>
donor molecule, donor type, donor heavy atom, donor atom, acceptor molecule, acceptor atom, score
      P1  H  7954  7966       L1    12  1.00
      P1  H  7997  8009       L1     7  1.00

> <Gold.PLP.Chemscore.Internal.Correction>
0.5742

> <Gold.Rescore>
     Score         DG    S(hbond)    S(metal)    S(lipo)     H(rot)  DE(clash)    DE(int)     intcor
      8.73     -14.95       1.83        0.00      74.55       2.09       1.09       5.13       ----

> <Gold.Chemscore.Fitness>
8.7258

> <Gold.Chemscore.DG>
-14.9488

> <Gold.Chemscore.ZeroCoef>
-5.4800

> <Gold.Chemscore.Hbond>
1.8274

> <Gold.Chemscore.Metal>
0.0000

> <Gold.Chemscore.Lipo>
74.5456

> <Gold.Chemscore.Internal_Hbond>
0.0000

> <Gold.Chemscore.DEClash>
1.0931

> <Gold.Chemscore.DEInternal>
5.1299

> <Gold.Chemscore.Rot>
2.0924

> <Gold.Chemscore.Internal.Correction>
   9.000000E+99

> <Gold.Chemscore.Hbonds>
donor molecule, donor type, donor heavy atom, donor atom, acceptor molecule, acceptor atom, score
      P1  H  7954  7966       L1    12  0.92
      P1  H  7997  8009       L1     7  0.74

> <Gold.Chemscore.Hbond.Weighted>
-6.1036

> <Gold.Chemscore.Metal.Weighted>
-0.0000

> <Gold.Chemscore.Lipo.Weighted>
-8.7218

> <Gold.Chemscore.Internal_Hbond.Weighted>
0.0000

> <Gold.Chemscore.DEClash.Weighted>
1.0931

> <Gold.Chemscore.DEInternal.Weighted>
5.1299

> <Gold.Chemscore.Rot.Weighted>
5.3566

> <Gold.Chemscore.Internal.Correction.Weighted>
   9.000000E+99

> <Gold.Protein.RotatedTorsions>
[ 6907 6896 6895 6894 ] final   27.54 input  -60.11 | X-H torsion
[ 7974 7965 7964 7962 ] final   84.01 input  175.53 | X-H torsion
[ 8008 7997 7996 7995 ] final -169.91 input   59.86 | X-H torsion
[ 10167 10162 10161 10158 ] final  118.37 input  -65.29 | X-H torsion
[ 10718 10713 10712 10709 ] final   39.20 input   66.30 | X-H torsion
[ 10763 10752 10751 10750 ] final  -46.55 input  -60.55 | X-H torsion
[ 11005 11000 10999 10996 ] final    3.42 input  -57.11 | X-H torsion

> <Gold.Protein.ActiveResidues>
 VAL166  LYS551  ARG553  GLY616  TRP617  ASP618  TYR619  PRO620  LYS621  CYS622 
 ASP623  PHE694  ASN695  SER759  ASP760  ASP761  ALA762  ILE779  LEU786  VAL792 
 PHE793  MET794  SER795  GLU796  ALA797  LYS798  CYS799  TRP800  GLU811  SER814 

> <Gold.Protein.RotatedAtoms>
  152.0037  134.9914  160.0565 H   0  0  0  0  0  0  0  0  0  0  0  0  # atno 6907 bound_to 6896
  152.1495  133.4508  159.4814 H   0  0  0  0  0  0  0  0  0  0  0  0  # atno 6908 bound_to 6896
  150.6874  134.2125  159.4408 H   0  0  0  0  0  0  0  0  0  0  0  0  # atno 6909 bound_to 6896
  145.6044  139.2357  143.2228 H   0  0  0  0  0  0  0  0  0  0  0  0  # atno 7974 bound_to 7965
  155.9112  140.1058  157.1277 H   0  0  0  0  0  0  0  0  0  0  0  0  # atno 8008 bound_to 7997
  154.4040  140.1274  156.4625 H   0  0  0  0  0  0  0  0  0  0  0  0  # atno 8009 bound_to 7997
  155.7307  140.3468  155.5060 H   0  0  0  0  0  0  0  0  0  0  0  0  # atno 8010 bound_to 7997
  139.6116  144.7083  151.2831 H   0  0  0  0  0  0  0  0  0  0  0  0  # atno 10167 bound_to 10162
  157.3678  130.7685  149.7096 H   0  0  0  0  0  0  0  0  0  0  0  0  # atno 10718 bound_to 10713
  154.0469  135.6636  153.4796 H   0  0  0  0  0  0  0  0  0  0  0  0  # atno 10763 bound_to 10752
  153.0479  135.5103  154.7788 H   0  0  0  0  0  0  0  0  0  0  0  0  # atno 10764 bound_to 10752
  154.6782  135.3040  154.9615 H   0  0  0  0  0  0  0  0  0  0  0  0  # atno 10765 bound_to 10752
  140.5934  133.9903  155.8099 H   0  0  0  0  0  0  0  0  0  0  0  0  # atno 11005 bound_to 11000
  146.1552  140.6868  142.9303 LP  0  0  0  0  0  0  0  0  0  0  0  0  # atno 17320 bound_to 7965
  144.7296  140.4632  143.6947 LP  0  0  0  0  0  0  0  0  0  0  0  0  # atno 17321 bound_to 7965
  140.7323  143.6828  150.7987 LP  0  0  0  0  0  0  0  0  0  0  0  0  # atno 17342 bound_to 10162
  140.0423  143.5333  152.2712 LP  0  0  0  0  0  0  0  0  0  0  0  0  # atno 17343 bound_to 10162
  155.9749  130.4096  150.3885 LP  0  0  0  0  0  0  0  0  0  0  0  0  # atno 17370 bound_to 10713
  157.1971  131.0429  151.2670 LP  0  0  0  0  0  0  0  0  0  0  0  0  # atno 17371 bound_to 10713
  141.0920  133.9902  157.3221 LP  0  0  0  0  0  0  0  0  0  0  0  0  # atno 17394 bound_to 11000
  139.9264  135.0201  156.8249 LP  0  0  0  0  0  0  0  0  0  0  0  0  # atno 17395 bound_to 11000

$$$$
