AV-unprocessed.smi:240|AV-procd|sdf|1824|dock1
  -GOLD-   2262020423D 1   1.00000     0.00000
 Structure written by MMmdl.
 55 59  0  0  0  0  0  0  0  0  1 V2000
  149.4049  137.4199  154.3617 O   0  0  0  0  0  0  0  0  0  0  0  0
  148.5645  138.5393  154.5530 C   0  0  2  0  0  0  0  0  0  0  0  0
  147.4885  138.6240  153.4688 C   0  0  0  0  0  0  0  0  0  0  0  0
  147.0852  140.1039  153.4200 C   0  0  0  0  0  0  0  0  0  0  0  0
  148.2101  140.8872  154.1165 C   0  0  0  0  0  0  0  0  0  0  0  0
  149.3223  139.8649  154.4072 C   0  0  1  0  0  0  0  0  0  0  0  0
  150.3039  140.2257  155.5644 C   0  0  2  0  0  0  0  0  0  0  0  0
  151.6911  139.5446  155.4439 C   0  0  0  0  0  0  0  0  0  0  0  0
  152.5317  139.9434  156.5207 O   0  0  0  0  0  0  0  0  0  0  0  0
  152.0012  139.5533  157.7800 C   0  0  0  0  0  0  0  0  0  0  0  0
  150.6530  140.2543  157.9909 C   0  0  0  0  0  0  0  0  0  0  0  0
  149.7432  139.9452  156.8941 N   0  0  0  0  0  0  0  0  0  0  0  0
  148.5048  140.4232  157.1518 C   0  0  0  0  0  0  0  0  0  0  0  0
  147.4713  139.5563  157.0184 N   0  0  0  0  0  0  0  0  0  0  0  0
  146.2199  139.9697  157.2392 C   0  0  0  0  0  0  0  0  0  0  0  0
  145.7920  141.1824  157.5972 N   0  0  0  0  0  0  0  0  0  0  0  0
  146.8315  142.0535  157.7432 C   0  0  0  0  0  0  0  0  0  0  0  0
  148.2101  141.7588  157.5487 C   0  0  0  0  0  0  0  0  0  0  0  0
  148.9761  142.8908  157.7984 N   0  0  0  0  0  0  0  0  0  0  0  0
  148.1000  143.8050  158.1134 C   0  0  0  0  0  0  0  0  0  0  0  0
  146.7871  143.3912  158.0955 N   0  0  0  0  0  0  0  0  0  0  0  0
  145.6157  144.2009  158.3929 C   0  0  0  0  0  0  0  0  0  0  0  0
  145.1257  144.0537  159.8522 C   0  0  1  0  0  0  0  0  0  0  0  0
  145.3227  142.7138  160.2708 O   0  0  0  0  0  0  0  0  0  0  0  0
  145.8265  144.9788  160.8434 C   0  0  0  0  0  0  0  0  0  0  0  0
  144.7419  145.2550  161.8751 C   0  0  0  0  0  0  0  0  0  0  0  0
  143.5802  145.3820  161.0731 O   0  0  0  0  0  0  0  0  0  0  0  0
  143.6361  144.4062  160.0370 C   0  0  0  0  0  0  0  0  0  0  0  0
  149.0582  136.9006  153.6524 H   0  0  0  0  0  0  0  0  0  0  0  0
  148.0771  138.4655  155.5247 H   0  0  0  0  0  0  0  0  0  0  0  0
  147.9074  138.3375  152.5026 H   0  0  0  0  0  0  0  0  0  0  0  0
  146.6424  137.9653  153.6677 H   0  0  0  0  0  0  0  0  0  0  0  0
  146.9455  140.4340  152.3901 H   0  0  0  0  0  0  0  0  0  0  0  0
  146.1416  140.2624  153.9432 H   0  0  0  0  0  0  0  0  0  0  0  0
  148.5723  141.7102  153.4998 H   0  0  0  0  0  0  0  0  0  0  0  0
  147.8209  141.3241  155.0349 H   0  0  0  0  0  0  0  0  0  0  0  0
  149.8987  139.7698  153.4856 H   0  0  0  0  0  0  0  0  0  0  0  0
  150.4862  141.2991  155.5108 H   0  0  0  0  0  0  0  0  0  0  0  0
  151.6131  138.4575  155.4345 H   0  0  0  0  0  0  0  0  0  0  0  0
  152.1899  139.8366  154.5210 H   0  0  0  0  0  0  0  0  0  0  0  0
  151.8914  138.4686  157.8266 H   0  0  0  0  0  0  0  0  0  0  0  0
  152.7009  139.8389  158.5654 H   0  0  0  0  0  0  0  0  0  0  0  0
  150.2179  139.9366  158.9398 H   0  0  0  0  0  0  0  0  0  0  0  0
  150.8021  141.3335  158.0500 H   0  0  0  0  0  0  0  0  0  0  0  0
  145.4511  139.2227  157.1069 H   0  0  0  0  0  0  0  0  0  0  0  0
  148.3882  144.8161  158.3623 H   0  0  0  0  0  0  0  0  0  0  0  0
  145.8596  145.2432  158.1833 H   0  0  0  0  0  0  0  0  0  0  0  0
  144.8221  143.9272  157.6964 H   0  0  0  0  0  0  0  0  0  0  0  0
  144.4768  142.3209  160.4240 H   0  0  0  0  0  0  0  0  0  0  0  0
  146.7367  144.5587  161.2739 H   0  0  0  0  0  0  0  0  0  0  0  0
  146.0919  145.9191  160.3589 H   0  0  0  0  0  0  0  0  0  0  0  0
  144.6278  144.4152  162.5624 H   0  0  0  0  0  0  0  0  0  0  0  0
  144.9316  146.1575  162.4565 H   0  0  0  0  0  0  0  0  0  0  0  0
  143.1920  144.8226  159.1323 H   0  0  0  0  0  0  0  0  0  0  0  0
  143.0400  143.5374  160.3213 H   0  0  0  0  0  0  0  0  0  0  0  0
  1  2  1  0  0  0  0
  1 29  1  0  0  0  0
  2  6  1  0  0  0  0
  2  3  1  0  0  0  0
  2 30  1  0  0  0  0
  3  4  1  0  0  0  0
  3 31  1  0  0  0  0
  3 32  1  0  0  0  0
  4  5  1  0  0  0  0
  4 33  1  0  0  0  0
  4 34  1  0  0  0  0
  5  6  1  0  0  0  0
  5 35  1  0  0  0  0
  5 36  1  0  0  0  0
  6  7  1  0  0  0  0
  6 37  1  0  0  0  0
  7 12  1  0  0  0  0
  7  8  1  0  0  0  0
  7 38  1  0  0  0  0
  8  9  1  0  0  0  0
  8 39  1  0  0  0  0
  8 40  1  0  0  0  0
  9 10  1  0  0  0  0
 10 11  1  0  0  0  0
 10 41  1  0  0  0  0
 10 42  1  0  0  0  0
 11 12  1  0  0  0  0
 11 43  1  0  0  0  0
 11 44  1  0  0  0  0
 12 13  1  0  0  0  0
 13 18  1  0  0  0  0
 13 14  2  0  0  0  0
 14 15  1  0  0  0  0
 15 16  2  0  0  0  0
 15 45  1  0  0  0  0
 16 17  1  0  0  0  0
 17 21  1  0  0  0  0
 17 18  2  0  0  0  0
 18 19  1  0  0  0  0
 19 20  2  0  0  0  0
 20 21  1  0  0  0  0
 20 46  1  0  0  0  0
 21 22  1  0  0  0  0
 22 23  1  0  0  0  0
 22 47  1  0  0  0  0
 22 48  1  0  0  0  0
 23 28  1  0  0  0  0
 23 24  1  0  0  0  0
 23 25  1  0  0  0  0
 24 49  1  0  0  0  0
 25 26  1  0  0  0  0
 25 50  1  0  0  0  0
 25 51  1  0  0  0  0
 26 27  1  0  0  0  0
 26 52  1  0  0  0  0
 26 53  1  0  0  0  0
 27 28  1  0  0  0  0
 28 54  1  0  0  0  0
 28 55  1  0  0  0  0
M  END
> <s_m_source_file>
AV-unprocessed.smi

> <i_m_source_file_index>
240

> <i_lp_mmshare_version>
43012

> <i_f3d_flags>
0

> <s_epik_input>
W09IXVtDQEBIXTFbQ0gyXVtDSDJdW0NIMl1bQ0BIXTFbQ0BASF0yW0NIMl1PW0NIMl1bQ0gyXU4yYyhuW2NIXW4zKWMoYzM0KW5bY0hdbjRbQ0gyXVtDQEBdNShbT0hdKVtDSDJdW0NIMl1PW0NIMl01

> <s_epik_cmdline>
J2VwaWtfcHl0aG9uJywgJy1waCcsICc3LjAnLCAnLXRuJywgJzgnLCAnLW1hJywgJzIwMCcsICctbWV0YWxfYmluZGluZycsICctaW1hZScsICc8aW5maWxlLm1hZT4nLCAnLW9tYWUnLCAnPG91dGZpbGUubWFlPic=

> <r_lp_tautomer_probability>
1

> <r_epik_Ionization_Penalty>
0.000130618

> <r_epik_Ionization_Penalty_Charging>
0

> <r_epik_Ionization_Penalty_Neutral>
0.000130618

> <r_epik_State_Penalty>
-0

> <r_epik_Charging_Adjusted_Penalty>
0

> <i_epik_Tot_Q>
0

> <i_epik_Tot_abs_Q>
0

> <r_epik_Metal_State_Penalty>
-0

> <b_epik_Metal_Only>
0

> <s_lp_Force_Field>
OPLS_2005

> <r_lp_Energy>
60.7436

> <b_lp_Chiralities_Consistent>
1

> <s_lp_Variant>
AV-unprocessed.smi:240-1

> <Gold.Version>
5.8.1

> <Gold.Id.Protein>
6NUR|6NUR_protein|mol2

> <Gold.PLP.Fitness>
45.4262

> <Gold.PLP.PLP>
-38.8015

> <Gold.PLP.part.hbond>
-3.0119

> <Gold.PLP.part.metal>
0.0000

> <Gold.PLP.part.buried>
-1.5007

> <Gold.PLP.part.nonpolar>
-32.7285

> <Gold.PLP.part.repulsive>
0.2354

> <Gold.PLP.ligand.clash>
0.0000

> <Gold.PLP.ligand.torsion>
1.5313

> <Gold.PLP.Chemscore.Hbond>
3.0000

> <Gold.PLP.Chemscore.CHOScore>
0.1644

> <Gold.PLP.Chemscore.Metal>
0.0000

> <Gold.Chemscore.Hbonds>
donor molecule, donor type, donor heavy atom, donor atom, acceptor molecule, acceptor atom, score
      L1  H     1    29       P1  7948  1.00
      P1  H  7997  8009       L1     9  1.00
      L1  C    20    46       P1  8029  0.02

> <Gold.PLP.Chemscore.Internal.Correction>
0.1939

> <Gold.Rescore>
     Score         DG    S(hbond)    S(metal)    S(lipo)     H(rot)  DE(clash)    DE(int)     intcor
     12.33     -17.45       2.91        0.00      85.09       3.00       0.06       5.07       ----

> <Gold.Chemscore.Fitness>
12.3322

> <Gold.Chemscore.DG>
-17.4549

> <Gold.Chemscore.ZeroCoef>
-5.4800

> <Gold.Chemscore.Hbond>
2.9070

> <Gold.Chemscore.Metal>
0.0000

> <Gold.Chemscore.Lipo>
85.0895

> <Gold.Chemscore.Internal_Hbond>
0.0000

> <Gold.Chemscore.DEClash>
0.0573

> <Gold.Chemscore.DEInternal>
5.0653

> <Gold.Chemscore.Rot>
3.0039

> <Gold.Chemscore.Internal.Correction>
   9.000000E+99

> <Gold.Chemscore.Hbonds>
donor molecule, donor type, donor heavy atom, donor atom, acceptor molecule, acceptor atom, score
      L1  H     1    29       P1  7948  0.98
      P1  H  6934  6946       L1    24  0.01
      P1  H  7997  8009       L1     9  0.94

> <Gold.Chemscore.Hbond.Weighted>
-9.7093

> <Gold.Chemscore.Metal.Weighted>
-0.0000

> <Gold.Chemscore.Lipo.Weighted>
-9.9555

> <Gold.Chemscore.Internal_Hbond.Weighted>
0.0000

> <Gold.Chemscore.DEClash.Weighted>
0.0573

> <Gold.Chemscore.DEInternal.Weighted>
5.0653

> <Gold.Chemscore.Rot.Weighted>
7.6899

> <Gold.Chemscore.Internal.Correction.Weighted>
   9.000000E+99

> <Gold.Protein.RotatedTorsions>
[ 6907 6896 6895 6894 ] final   20.09 input  -60.11 | X-H torsion
[ 7974 7965 7964 7962 ] final   36.16 input  175.53 | X-H torsion
[ 8008 7997 7996 7995 ] final -154.02 input   59.86 | X-H torsion
[ 10167 10162 10161 10158 ] final  118.74 input  -65.29 | X-H torsion
[ 10718 10713 10712 10709 ] final  -57.35 input   66.30 | X-H torsion
[ 10763 10752 10751 10750 ] final   80.25 input  -60.55 | X-H torsion
[ 11005 11000 10999 10996 ] final -109.66 input  -57.11 | X-H torsion

> <Gold.Protein.ActiveResidues>
 VAL166  LYS551  ARG553  GLY616  TRP617  ASP618  TYR619  PRO620  LYS621  CYS622 
 ASP623  PHE694  ASN695  SER759  ASP760  ASP761  ALA762  ILE779  LEU786  VAL792 
 PHE793  MET794  SER795  GLU796  ALA797  LYS798  CYS799  TRP800  GLU811  SER814 

> <Gold.Protein.RotatedAtoms>
  151.8910  135.0416  160.0497 H   0  0  0  0  0  0  0  0  0  0  0  0  # atno 6907 bound_to 6896
  152.2436  133.5151  159.5293 H   0  0  0  0  0  0  0  0  0  0  0  0  # atno 6908 bound_to 6896
  150.7061  134.0972  159.3995 H   0  0  0  0  0  0  0  0  0  0  0  0  # atno 6909 bound_to 6896
  146.1232  139.6053  142.9276 H   0  0  0  0  0  0  0  0  0  0  0  0  # atno 7974 bound_to 7965
  155.6798  140.0743  157.2489 H   0  0  0  0  0  0  0  0  0  0  0  0  # atno 8008 bound_to 7997
  154.4107  140.1684  156.2022 H   0  0  0  0  0  0  0  0  0  0  0  0  # atno 8009 bound_to 7997
  155.9544  140.3375  155.6439 H   0  0  0  0  0  0  0  0  0  0  0  0  # atno 8010 bound_to 7997
  139.6092  144.7077  151.2884 H   0  0  0  0  0  0  0  0  0  0  0  0  # atno 10167 bound_to 10162
  156.1218  130.4165  150.0428 H   0  0  0  0  0  0  0  0  0  0  0  0  # atno 10718 bound_to 10713
  153.1018  135.4809  154.8880 H   0  0  0  0  0  0  0  0  0  0  0  0  # atno 10763 bound_to 10752
  154.7387  135.3077  154.8769 H   0  0  0  0  0  0  0  0  0  0  0  0  # atno 10764 bound_to 10752
  153.9383  135.6837  153.4798 H   0  0  0  0  0  0  0  0  0  0  0  0  # atno 10765 bound_to 10752
  141.0835  133.9179  157.2237 H   0  0  0  0  0  0  0  0  0  0  0  0  # atno 11005 bound_to 11000
  145.5422  141.0420  143.2324 LP  0  0  0  0  0  0  0  0  0  0  0  0  # atno 17320 bound_to 7965
  144.7617  139.6942  143.7232 LP  0  0  0  0  0  0  0  0  0  0  0  0  # atno 17321 bound_to 7965
  140.7306  143.6874  150.7951 LP  0  0  0  0  0  0  0  0  0  0  0  0  # atno 17342 bound_to 10162
  140.0465  143.5293  152.2694 LP  0  0  0  0  0  0  0  0  0  0  0  0  # atno 17343 bound_to 10162
  156.8365  130.9410  151.3634 LP  0  0  0  0  0  0  0  0  0  0  0  0  # atno 17370 bound_to 10713
  157.6401  130.8798  149.9432 LP  0  0  0  0  0  0  0  0  0  0  0  0  # atno 17371 bound_to 10713
  139.9651  135.0144  156.9364 LP  0  0  0  0  0  0  0  0  0  0  0  0  # atno 17394 bound_to 11000
  140.5416  134.0715  155.7343 LP  0  0  0  0  0  0  0  0  0  0  0  0  # atno 17395 bound_to 11000

$$$$
