AV-unprocessed.smi:33|AV-procd|sdf|211|dock1
  -GOLD-   2262015513D 1   1.00000     0.00000
 Structure written by MMmdl.
 67 72  0  0  0  0  0  0  0  0  1 V2000
  150.8150  140.4429  155.9807 O   0  0  0  0  0  0  0  0  0  0  0  0
  150.3870  141.4537  156.5416 C   0  0  0  0  0  0  0  0  0  0  0  0
  149.1552  141.9576  156.3316 O   0  0  0  0  0  0  0  0  0  0  0  0
  148.3001  141.3603  155.3705 C   0  0  0  0  0  0  0  0  0  0  0  0
  147.4471  140.2737  156.0454 C   0  0  2  0  0  0  0  0  0  0  0  0
  148.2558  139.5582  156.9681 O   0  0  0  0  0  0  0  0  0  0  0  0
  148.8731  138.4835  156.3267 C   0  0  1  0  0  0  0  0  0  0  0  0
  148.8073  137.3229  157.2614 N   0  0  0  0  0  0  0  0  0  0  0  0
  149.8472  136.5873  157.7882 C   0  0  0  0  0  0  0  0  0  0  0  0
  149.4945  135.6088  158.5780 N   0  0  0  0  0  0  0  0  0  0  0  0
  148.1070  135.6731  158.5916 C   0  0  0  0  0  0  0  0  0  0  0  0
  147.0876  134.9161  159.2285 C   0  0  0  0  0  0  0  0  0  0  0  0
  147.3512  133.8669  160.0417 N   0  0  0  0  0  0  0  0  0  0  0  0
  146.9750  134.0093  161.4559 C   0  0  0  0  0  0  0  0  0  0  0  0
  147.5618  133.3431  162.3111 O   0  0  0  0  0  0  0  0  0  0  0  0
  145.9155  134.9913  161.8693 C   0  0  0  0  0  0  0  0  0  0  0  0
  146.1719  136.3782  161.7984 C   0  0  0  0  0  0  0  0  0  0  0  0
  145.1882  137.3034  162.1981 C   0  0  0  0  0  0  0  0  0  0  0  0
  143.9497  136.8480  162.6887 C   0  0  0  0  0  0  0  0  0  0  0  0
  143.6983  135.4664  162.7889 C   0  0  0  0  0  0  0  0  0  0  0  0
  144.6810  134.5405  162.3890 C   0  0  0  0  0  0  0  0  0  0  0  0
  147.9862  132.6877  159.4348 C   0  0  0  0  0  0  0  0  0  0  0  0
  148.6489  132.8183  158.4037 O   0  0  0  0  0  0  0  0  0  0  0  0
  147.8810  131.3392  160.0895 C   0  0  0  0  0  0  0  0  0  0  0  0
  146.7242  131.0006  160.8253 C   0  0  0  0  0  0  0  0  0  0  0  0
  146.6238  129.7437  161.4527 C   0  0  0  0  0  0  0  0  0  0  0  0
  147.6869  128.8252  161.3644 C   0  0  0  0  0  0  0  0  0  0  0  0
  148.8545  129.1669  160.6561 C   0  0  0  0  0  0  0  0  0  0  0  0
  148.9555  130.4233  160.0278 C   0  0  0  0  0  0  0  0  0  0  0  0
  145.7953  135.2685  159.0028 N   0  0  0  0  0  0  0  0  0  0  0  0
  145.5197  136.3034  158.2032 C   0  0  0  0  0  0  0  0  0  0  0  0
  146.3659  137.1001  157.5454 N   0  0  0  0  0  0  0  0  0  0  0  0
  147.6645  136.7441  157.7682 C   0  0  0  0  0  0  0  0  0  0  0  0
  148.0846  138.1795  155.0403 C   0  0  2  0  0  0  0  0  0  0  0  0
  148.8674  138.3743  153.8797 O   0  0  0  0  0  0  0  0  0  0  0  0
  146.9472  139.1911  155.0877 C   0  0  1  0  0  0  0  0  0  0  0  0
  145.8621  138.6133  155.6056 F   0  0  0  0  0  0  0  0  0  0  0  0
  151.1805  142.2476  157.5237 C   0  0  0  0  0  0  0  0  0  0  0  0
  151.9919  141.5726  158.4653 C   0  0  0  0  0  0  0  0  0  0  0  0
  152.7507  142.2942  159.4071 C   0  0  0  0  0  0  0  0  0  0  0  0
  152.7063  143.7004  159.4197 C   0  0  0  0  0  0  0  0  0  0  0  0
  151.9030  144.3841  158.4884 C   0  0  0  0  0  0  0  0  0  0  0  0
  151.1447  143.6640  157.5447 C   0  0  0  0  0  0  0  0  0  0  0  0
  147.6686  142.1139  154.8984 H   0  0  0  0  0  0  0  0  0  0  0  0
  148.9125  140.9128  154.5865 H   0  0  0  0  0  0  0  0  0  0  0  0
  146.6219  140.7452  156.5809 H   0  0  0  0  0  0  0  0  0  0  0  0
  149.9335  138.6803  156.1635 H   0  0  0  0  0  0  0  0  0  0  0  0
  150.8824  136.7998  157.5645 H   0  0  0  0  0  0  0  0  0  0  0  0
  147.1187  136.7390  161.4234 H   0  0  0  0  0  0  0  0  0  0  0  0
  145.3854  138.3630  162.1296 H   0  0  0  0  0  0  0  0  0  0  0  0
  143.1956  137.5581  162.9947 H   0  0  0  0  0  0  0  0  0  0  0  0
  142.7521  135.1162  163.1738 H   0  0  0  0  0  0  0  0  0  0  0  0
  144.4786  133.4826  162.4754 H   0  0  0  0  0  0  0  0  0  0  0  0
  145.9018  131.6977  160.8990 H   0  0  0  0  0  0  0  0  0  0  0  0
  145.7309  129.4852  162.0023 H   0  0  0  0  0  0  0  0  0  0  0  0
  147.6094  127.8614  161.8458 H   0  0  0  0  0  0  0  0  0  0  0  0
  149.6739  128.4660  160.5954 H   0  0  0  0  0  0  0  0  0  0  0  0
  149.8584  130.6766  159.4910 H   0  0  0  0  0  0  0  0  0  0  0  0
  144.4709  136.5241  158.0707 H   0  0  0  0  0  0  0  0  0  0  0  0
  147.7131  137.1532  155.0349 H   0  0  0  0  0  0  0  0  0  0  0  0
  148.7057  137.6574  153.2853 H   0  0  0  0  0  0  0  0  0  0  0  0
  146.6563  139.5762  154.1092 H   0  0  0  0  0  0  0  0  0  0  0  0
  152.0421  140.4933  158.4754 H   0  0  0  0  0  0  0  0  0  0  0  0
  153.3668  141.7673  160.1206 H   0  0  0  0  0  0  0  0  0  0  0  0
  153.2872  144.2538  160.1427 H   0  0  0  0  0  0  0  0  0  0  0  0
  151.8675  145.4635  158.4980 H   0  0  0  0  0  0  0  0  0  0  0  0
  150.5374  144.2201  156.8454 H   0  0  0  0  0  0  0  0  0  0  0  0
  1  2  2  0  0  0  0
  2  3  1  0  0  0  0
  2 38  1  0  0  0  0
  3  4  1  0  0  0  0
  4  5  1  0  0  0  0
  4 44  1  0  0  0  0
  4 45  1  0  0  0  0
  5 36  1  0  0  0  0
  5  6  1  0  0  0  0
  5 46  1  0  0  0  0
  6  7  1  0  0  0  0
  7  8  1  0  0  0  0
  7 34  1  0  0  0  0
  7 47  1  0  0  0  0
  8 33  1  0  0  0  0
  8  9  1  0  0  0  0
  9 10  2  0  0  0  0
  9 48  1  0  0  0  0
 10 11  1  0  0  0  0
 11 33  2  0  0  0  0
 11 12  1  0  0  0  0
 12 13  1  0  0  0  0
 12 30  2  0  0  0  0
 13 14  1  0  0  0  0
 13 22  1  0  0  0  0
 14 15  2  0  0  0  0
 14 16  1  0  0  0  0
 16 21  1  0  0  0  0
 16 17  2  0  0  0  0
 17 18  1  0  0  0  0
 17 49  1  0  0  0  0
 18 19  2  0  0  0  0
 18 50  1  0  0  0  0
 19 20  1  0  0  0  0
 19 51  1  0  0  0  0
 20 21  2  0  0  0  0
 20 52  1  0  0  0  0
 21 53  1  0  0  0  0
 22 23  2  0  0  0  0
 22 24  1  0  0  0  0
 24 29  1  0  0  0  0
 24 25  2  0  0  0  0
 25 26  1  0  0  0  0
 25 54  1  0  0  0  0
 26 27  2  0  0  0  0
 26 55  1  0  0  0  0
 27 28  1  0  0  0  0
 27 56  1  0  0  0  0
 28 29  2  0  0  0  0
 28 57  1  0  0  0  0
 29 58  1  0  0  0  0
 30 31  1  0  0  0  0
 31 32  2  0  0  0  0
 31 59  1  0  0  0  0
 32 33  1  0  0  0  0
 34 35  1  0  0  0  0
 34 36  1  0  0  0  0
 34 60  1  0  0  0  0
 35 61  1  0  0  0  0
 36 37  1  0  0  0  0
 36 62  1  0  0  0  0
 38 43  1  0  0  0  0
 38 39  2  0  0  0  0
 39 40  1  0  0  0  0
 39 63  1  0  0  0  0
 40 41  2  0  0  0  0
 40 64  1  0  0  0  0
 41 42  1  0  0  0  0
 41 65  1  0  0  0  0
 42 43  2  0  0  0  0
 42 66  1  0  0  0  0
 43 67  1  0  0  0  0
M  END
> <s_m_source_file>
AV-unprocessed.smi

> <i_m_source_file_index>
33

> <i_lp_mmshare_version>
43012

> <i_f3d_flags>
0

> <s_epik_input>
W2NIXTFbY0hdW2NIXVtjSF1bY0hdYzFDKD1PKU9bQ0gyXVtDQEBIXTJPW0NASF0oW0NAQEhdKFtPSF0pW0NAQEhdMkYpbihbY0hdbjMpYyhjMzQpbltjSF1uYzROKEMoPU8pYzVbY0hdW2NIXVtjSF1bY0hdW2NIXTUpQyg9TyljNltjSF1bY0hdW2NIXVtjSF1bY0hdNg==

> <s_epik_cmdline>
J2VwaWtfcHl0aG9uJywgJy1waCcsICc3LjAnLCAnLXRuJywgJzgnLCAnLW1hJywgJzIwMCcsICctbWV0YWxfYmluZGluZycsICctaW1hZScsICc8aW5maWxlLm1hZT4nLCAnLW9tYWUnLCAnPG91dGZpbGUubWFlPic=

> <r_lp_tautomer_probability>
1

> <r_epik_Ionization_Penalty>
0.00067664

> <r_epik_Ionization_Penalty_Charging>
0

> <r_epik_Ionization_Penalty_Neutral>
0.00067664

> <r_epik_State_Penalty>
0.000428095

> <r_epik_Charging_Adjusted_Penalty>
0.000428095

> <i_epik_Tot_Q>
0

> <i_epik_Tot_abs_Q>
0

> <r_epik_Metal_State_Penalty>
-0

> <b_epik_Metal_Only>
0

> <s_epik_Chemistry_Notes>
This compound has an ester and may undergo hydrolysis at high or low pH. This compound contains an acetal/aminal-like group ( X-CH(R)-Y where X, Y are N, S, or O) that may be acid/base labile, releasing an aldehyde.

> <s_lp_Force_Field>
OPLS_2005

> <r_lp_Energy>
69.3236

> <b_lp_Chiralities_Consistent>
1

> <s_lp_Variant>
AV-unprocessed.smi:33-13

> <Gold.Version>
5.8.1

> <Gold.Id.Protein>
6NUR|6NUR_protein|mol2

> <Gold.PLP.Fitness>
56.0143

> <Gold.PLP.PLP>
-53.8905

> <Gold.PLP.part.hbond>
-2.9446

> <Gold.PLP.part.metal>
0.0000

> <Gold.PLP.part.buried>
-8.1931

> <Gold.PLP.part.nonpolar>
-45.6824

> <Gold.PLP.part.repulsive>
1.0137

> <Gold.PLP.ligand.clash>
0.0000

> <Gold.PLP.ligand.torsion>
4.5054

> <Gold.PLP.Chemscore.Hbond>
2.0000

> <Gold.PLP.Chemscore.CHOScore>
0.0000

> <Gold.PLP.Chemscore.Metal>
0.0000

> <Gold.Chemscore.Hbonds>
donor molecule, donor type, donor heavy atom, donor atom, acceptor molecule, acceptor atom, score
      L1  H    35    61       P1  7948  1.00
      P1  H  6896  6908       L1    10  1.00

> <Gold.PLP.Chemscore.Internal.Correction>
5.1346

> <Gold.Rescore>
     Score         DG    S(hbond)    S(metal)    S(lipo)     H(rot)  DE(clash)    DE(int)     intcor
     13.37     -23.69       2.53        0.00     138.61       2.52       0.61       9.70       ----

> <Gold.Chemscore.Fitness>
13.3721

> <Gold.Chemscore.DG>
-23.6871

> <Gold.Chemscore.ZeroCoef>
-5.4800

> <Gold.Chemscore.Hbond>
2.5310

> <Gold.Chemscore.Metal>
0.0000

> <Gold.Chemscore.Lipo>
138.6058

> <Gold.Chemscore.Internal_Hbond>
0.0000

> <Gold.Chemscore.DEClash>
0.6128

> <Gold.Chemscore.DEInternal>
9.7023

> <Gold.Chemscore.Rot>
2.5247

> <Gold.Chemscore.Internal.Correction>
   9.000000E+99

> <Gold.Chemscore.Hbonds>
donor molecule, donor type, donor heavy atom, donor atom, acceptor molecule, acceptor atom, score
      L1  H    35    61       P1  7948  0.95
      P1  H  6896  6908       L1    10  0.99

> <Gold.Chemscore.Hbond.Weighted>
-8.4535

> <Gold.Chemscore.Metal.Weighted>
-0.0000

> <Gold.Chemscore.Lipo.Weighted>
-16.2169

> <Gold.Chemscore.Internal_Hbond.Weighted>
0.0000

> <Gold.Chemscore.DEClash.Weighted>
0.6128

> <Gold.Chemscore.DEInternal.Weighted>
9.7023

> <Gold.Chemscore.Rot.Weighted>
6.4633

> <Gold.Chemscore.Internal.Correction.Weighted>
   9.000000E+99

> <Gold.Protein.RotatedTorsions>
[ 6907 6896 6895 6894 ] final  177.99 input  -60.11 | X-H torsion
[ 7974 7965 7964 7962 ] final  124.50 input  175.53 | X-H torsion
[ 8008 7997 7996 7995 ] final  179.76 input   59.86 | X-H torsion
[ 10167 10162 10161 10158 ] final  160.25 input  -65.29 | X-H torsion
[ 10718 10713 10712 10709 ] final  -40.10 input   66.30 | X-H torsion
[ 10763 10752 10751 10750 ] final  -37.57 input  -60.55 | X-H torsion
[ 11005 11000 10999 10996 ] final   -2.61 input  -57.11 | X-H torsion

> <Gold.Protein.ActiveResidues>
 VAL166  LYS551  ARG553  GLY616  TRP617  ASP618  TYR619  PRO620  LYS621  CYS622 
 ASP623  PHE694  ASN695  SER759  ASP760  ASP761  ALA762  ILE779  LEU786  VAL792 
 PHE793  MET794  SER795  GLU796  ALA797  LYS798  CYS799  TRP800  GLU811  SER814 

> <Gold.Protein.RotatedAtoms>
  151.6951  133.3311  159.3252 H   0  0  0  0  0  0  0  0  0  0  0  0  # atno 6907 bound_to 6896
  150.7761  134.6664  159.6377 H   0  0  0  0  0  0  0  0  0  0  0  0  # atno 6908 bound_to 6896
  152.3803  134.6603  160.0197 H   0  0  0  0  0  0  0  0  0  0  0  0  # atno 6909 bound_to 6896
  145.0837  139.3638  143.4896 H   0  0  0  0  0  0  0  0  0  0  0  0  # atno 7974 bound_to 7965
  156.0397  140.1300  157.0169 H   0  0  0  0  0  0  0  0  0  0  0  0  # atno 8008 bound_to 7997
  154.4385  140.1033  156.6289 H   0  0  0  0  0  0  0  0  0  0  0  0  # atno 8009 bound_to 7997
  155.5685  140.3466  155.4511 H   0  0  0  0  0  0  0  0  0  0  0  0  # atno 8010 bound_to 7997
  139.4838  144.4652  151.8651 H   0  0  0  0  0  0  0  0  0  0  0  0  # atno 10167 bound_to 10162
  156.2851  130.4221  149.8296 H   0  0  0  0  0  0  0  0  0  0  0  0  # atno 10718 bound_to 10713
  153.8985  135.6805  153.4756 H   0  0  0  0  0  0  0  0  0  0  0  0  # atno 10763 bound_to 10752
  153.1142  135.4769  154.9085 H   0  0  0  0  0  0  0  0  0  0  0  0  # atno 10764 bound_to 10752
  154.7587  135.3204  154.8374 H   0  0  0  0  0  0  0  0  0  0  0  0  # atno 10765 bound_to 10752
  140.6602  133.9326  155.8432 H   0  0  0  0  0  0  0  0  0  0  0  0  # atno 11005 bound_to 11000
  146.3531  140.0639  142.8627 LP  0  0  0  0  0  0  0  0  0  0  0  0  # atno 17320 bound_to 7965
  145.1148  140.9427  143.4635 LP  0  0  0  0  0  0  0  0  0  0  0  0  # atno 17321 bound_to 7965
  140.4117  144.2361  150.5889 LP  0  0  0  0  0  0  0  0  0  0  0  0  # atno 17342 bound_to 10162
  140.4960  143.2332  151.8749 LP  0  0  0  0  0  0  0  0  0  0  0  0  # atno 17343 bound_to 10162
  156.5729  130.8432  151.3361 LP  0  0  0  0  0  0  0  0  0  0  0  0  # atno 17370 bound_to 10713
  157.7326  130.9718  150.1937 LP  0  0  0  0  0  0  0  0  0  0  0  0  # atno 17371 bound_to 10713
  141.0471  134.0539  157.3831 LP  0  0  0  0  0  0  0  0  0  0  0  0  # atno 17394 bound_to 11000
  139.9015  135.0166  156.7292 LP  0  0  0  0  0  0  0  0  0  0  0  0  # atno 17395 bound_to 11000

$$$$
