AV-unprocessed.smi:290|AV-procd|sdf|2229|dock1
  -GOLD-   2262022 83D 1   1.00000     0.00000
 Structure written by MMmdl.
 59 62  0  0  0  0  0  0  0  0  2 V2000
  151.5118  141.4686  156.1007 C   0  0  0  0  0  0  0  0  0  0  0  0
  151.6835  139.9414  156.1802 C   0  0  2  0  0  0  0  0  0  0  0  0
  152.9948  139.5702  155.7570 O   0  0  0  0  0  0  0  0  0  0  0  0
  152.9172  138.6910  154.6457 C   0  0  0  0  0  0  0  0  0  0  0  0
  151.5875  137.9734  154.8341 C   0  0  0  0  0  0  0  0  0  0  0  0
  150.6870  139.0801  155.3626 C   0  0  2  0  0  0  0  0  0  0  0  0
  150.1812  139.8026  154.2507 O   0  0  0  0  0  0  0  0  0  0  0  0
  149.4895  138.5322  156.1757 C   0  0  0  0  0  0  0  0  0  0  0  0
  148.8303  137.4007  155.5423 N   0  0  0  0  0  0  0  0  0  0  0  0
  147.6343  137.4181  154.8612 C   0  0  0  0  0  0  0  0  0  0  0  0
  147.2451  136.2648  154.3913 N   0  0  0  0  0  0  0  0  0  0  0  0
  148.2503  135.3834  154.7728 C   0  0  0  0  0  0  0  0  0  0  0  0
  148.4656  133.9861  154.5961 C   0  0  0  0  0  0  0  0  0  0  0  0
  147.5831  133.1779  153.9507 N   0  0  0  0  0  0  0  0  0  0  0  0
  147.9821  132.6817  152.6354 C   0  0  0  0  0  0  0  0  0  0  0  0
  146.7103  132.6327  151.7823 C   0  0  0  0  0  0  0  0  0  0  0  0
  145.5962  132.5698  152.8325 C   0  0  2  0  0  0  0  0  0  0  0  0
  144.2341  132.9501  152.3601 N   0  3  2  0  0  0  0  0  0  0  0  0
  143.8055  132.1407  151.1948 C   0  0  0  0  0  0  0  0  0  0  0  0
  144.0039  134.4073  152.1614 C   0  0  0  0  0  0  0  0  0  0  0  0
  144.9191  134.9856  151.0706 C   0  0  0  0  0  0  0  0  0  0  0  0
  144.3641  134.7417  149.7951 O   0  0  0  0  0  0  0  0  0  0  0  0
  146.1445  133.4415  153.9708 C   0  0  1  0  0  0  0  0  0  0  0  0
  145.5024  133.1216  155.3328 C   0  0  0  0  0  0  0  0  0  0  0  0
  149.6099  133.4637  155.1123 N   0  0  0  0  0  0  0  0  0  0  0  0
  150.4805  134.2440  155.7587 C   0  0  0  0  0  0  0  0  0  0  0  0
  150.4055  135.5530  156.0020 N   0  0  0  0  0  0  0  0  0  0  0  0
  149.2623  136.0871  155.4857 C   0  0  0  0  0  0  0  0  0  0  0  0
  145.5521  131.5444  153.2055 H   0  0  0  0  0  0  0  0  0  0  0  0
  145.9899  134.4957  153.7450 H   0  0  0  0  0  0  0  0  0  0  0  0
  150.5149  141.7739  156.4176 H   0  0  0  0  0  0  0  0  0  0  0  0
  151.6719  141.8382  155.0877 H   0  0  0  0  0  0  0  0  0  0  0  0
  152.2308  141.9705  156.7480 H   0  0  0  0  0  0  0  0  0  0  0  0
  151.6292  139.6456  157.2280 H   0  0  0  0  0  0  0  0  0  0  0  0
  152.9144  139.2762  153.7251 H   0  0  0  0  0  0  0  0  0  0  0  0
  153.7659  138.0077  154.6147 H   0  0  0  0  0  0  0  0  0  0  0  0
  151.2199  137.5040  153.9206 H   0  0  0  0  0  0  0  0  0  0  0  0
  151.7083  137.1914  155.5852 H   0  0  0  0  0  0  0  0  0  0  0  0
  149.4566  140.3340  154.5427 H   0  0  0  0  0  0  0  0  0  0  0  0
  149.8138  138.2274  157.1716 H   0  0  0  0  0  0  0  0  0  0  0  0
  148.7471  139.3169  156.3262 H   0  0  0  0  0  0  0  0  0  0  0  0
  147.0514  138.3181  154.7295 H   0  0  0  0  0  0  0  0  0  0  0  0
  148.7431  133.3072  152.1661 H   0  0  0  0  0  0  0  0  0  0  0  0
  148.3968  131.6803  152.7550 H   0  0  0  0  0  0  0  0  0  0  0  0
  146.6533  133.5431  151.1861 H   0  0  0  0  0  0  0  0  0  0  0  0
  146.6985  131.7844  151.0974 H   0  0  0  0  0  0  0  0  0  0  0  0
  144.4381  132.3373  150.3284 H   0  0  0  0  0  0  0  0  0  0  0  0
  142.7747  132.3580  150.9172 H   0  0  0  0  0  0  0  0  0  0  0  0
  143.8608  131.0757  151.4216 H   0  0  0  0  0  0  0  0  0  0  0  0
  142.9719  134.6181  151.8842 H   0  0  0  0  0  0  0  0  0  0  0  0
  144.1693  134.9310  153.1042 H   0  0  0  0  0  0  0  0  0  0  0  0
  145.0193  136.0634  151.1999 H   0  0  0  0  0  0  0  0  0  0  0  0
  145.9236  134.5659  151.1187 H   0  0  0  0  0  0  0  0  0  0  0  0
  145.0209  134.9185  149.1384 H   0  0  0  0  0  0  0  0  0  0  0  0
  144.4266  133.2951  155.3052 H   0  0  0  0  0  0  0  0  0  0  0  0
  145.9102  133.7436  156.1293 H   0  0  0  0  0  0  0  0  0  0  0  0
  145.6641  132.0801  155.6129 H   0  0  0  0  0  0  0  0  0  0  0  0
  151.3627  133.7480  156.1365 H   0  0  0  0  0  0  0  0  0  0  0  0
  143.6186  132.6849  153.1162 H   0  0  0  0  0  0  0  0  0  0  0  0
  1  2  1  0  0  0  0
  1 31  1  0  0  0  0
  1 32  1  0  0  0  0
  1 33  1  0  0  0  0
  2  6  1  0  0  0  0
  2  3  1  0  0  0  0
  2 34  1  0  0  0  0
  3  4  1  0  0  0  0
  4  5  1  0  0  0  0
  4 35  1  0  0  0  0
  4 36  1  0  0  0  0
  5  6  1  0  0  0  0
  5 37  1  0  0  0  0
  5 38  1  0  0  0  0
  6  7  1  0  0  0  0
  6  8  1  0  0  0  0
  7 39  1  0  0  0  0
  8  9  1  0  0  0  0
  8 40  1  0  0  0  0
  8 41  1  0  0  0  0
  9 28  1  0  0  0  0
  9 10  1  0  0  0  0
 10 11  2  0  0  0  0
 10 42  1  0  0  0  0
 11 12  1  0  0  0  0
 12 28  2  0  0  0  0
 12 13  1  0  0  0  0
 13 14  1  0  0  0  0
 13 25  2  0  0  0  0
 14 23  1  0  0  0  0
 14 15  1  0  0  0  0
 15 16  1  0  0  0  0
 15 43  1  0  0  0  0
 15 44  1  0  0  0  0
 16 17  1  0  0  0  0
 16 45  1  0  0  0  0
 16 46  1  0  0  0  0
 17 29  1  0  0  0  0
 17 18  1  0  0  0  0
 17 23  1  0  0  0  0
 18 19  1  0  0  0  0
 18 20  1  0  0  0  0
 18 59  1  0  0  0  0
 19 47  1  0  0  0  0
 19 48  1  0  0  0  0
 19 49  1  0  0  0  0
 20 21  1  0  0  0  0
 20 50  1  0  0  0  0
 20 51  1  0  0  0  0
 21 22  1  0  0  0  0
 21 52  1  0  0  0  0
 21 53  1  0  0  0  0
 22 54  1  0  0  0  0
 23 30  1  0  0  0  0
 23 24  1  0  0  0  0
 24 55  1  0  0  0  0
 24 56  1  0  0  0  0
 24 57  1  0  0  0  0
 25 26  1  0  0  0  0
 26 27  2  0  0  0  0
 26 58  1  0  0  0  0
 27 28  1  0  0  0  0
M  CHG  1  18   1
M  END
> <s_m_source_file>
AV-unprocessed.smi

> <i_m_source_file_index>
290

> <i_lp_mmshare_version>
43012

> <i_f3d_flags>
0

> <s_epik_input>
W0NIMl0xW0NIMl1PW0NAQEhdKFtDSDNdKVtDQEBdMShbT0hdKVtDSDJdbihbY0hdbjIpYyhjMjMpbltjSF1uYzNONFtDSDJdW0NIMl1bQ0BIXShbQ0BIXTRbQ0gzXSlOKFtDSDNdKVtDSDJdW0NIMl1bT0hd

> <s_epik_cmdline>
J2VwaWtfcHl0aG9uJywgJy1waCcsICc3LjAnLCAnLXRuJywgJzgnLCAnLW1hJywgJzIwMCcsICctbWV0YWxfYmluZGluZycsICctaW1hZScsICc8aW5maWxlLm1hZT4nLCAnLW9tYWUnLCAnPG91dGZpbGUubWFlPic=

> <r_lp_tautomer_probability>
1

> <r_epik_Ionization_Penalty>
0.0036983

> <r_epik_Ionization_Penalty_Charging>
0.0032725

> <r_epik_Ionization_Penalty_Neutral>
0.000425798

> <r_epik_State_Penalty>
-0

> <r_epik_Charging_Adjusted_Penalty>
0.0032725

> <i_epik_Tot_Q>
1

> <i_epik_Tot_abs_Q>
1

> <r_epik_Metal_State_Penalty>
-0

> <b_epik_Metal_Only>
0

> <s_lp_Force_Field>
OPLS_2005

> <r_lp_Energy>
60.087

> <b_lp_Chiralities_Consistent>
1

> <s_lp_Variant>
AV-unprocessed.smi:290-15

> <Gold.Version>
5.8.1

> <Gold.Id.Protein>
6NUR|6NUR_protein|mol2

> <Gold.PLP.Fitness>
48.2086

> <Gold.PLP.PLP>
-34.9031

> <Gold.PLP.part.hbond>
-4.4714

> <Gold.PLP.part.metal>
0.0000

> <Gold.PLP.part.buried>
-5.3509

> <Gold.PLP.part.nonpolar>
-27.5136

> <Gold.PLP.part.repulsive>
0.3535

> <Gold.PLP.ligand.clash>
0.0000

> <Gold.PLP.ligand.torsion>
1.1629

> <Gold.PLP.Chemscore.Hbond>
4.9825

> <Gold.PLP.Chemscore.CHOScore>
0.0000

> <Gold.PLP.Chemscore.Metal>
0.0000

> <Gold.Chemscore.Hbonds>
donor molecule, donor type, donor heavy atom, donor atom, acceptor molecule, acceptor atom, score
      L1  H    18    59       P1 10957  1.59
      L1  H    22    54       P1  7921  1.00
      P1  H  7989  7998       L1     7  1.00
      P1  H  7997  8008       L1     3  1.00

> <Gold.PLP.Chemscore.Internal.Correction>
0.6838

> <Gold.Rescore>
     Score         DG    S(hbond)    S(metal)    S(lipo)     H(rot)  DE(clash)    DE(int)     intcor
     10.86     -16.51       3.36        0.00      78.39       3.67       1.56       4.09       ----

> <Gold.Chemscore.Fitness>
10.8562

> <Gold.Chemscore.DG>
-16.5055

> <Gold.Chemscore.ZeroCoef>
-5.4800

> <Gold.Chemscore.Hbond>
3.3648

> <Gold.Chemscore.Metal>
0.0000

> <Gold.Chemscore.Lipo>
78.3879

> <Gold.Chemscore.Internal_Hbond>
0.0000

> <Gold.Chemscore.DEClash>
1.5640

> <Gold.Chemscore.DEInternal>
4.0853

> <Gold.Chemscore.Rot>
3.6658

> <Gold.Chemscore.Internal.Correction>
   9.000000E+99

> <Gold.Chemscore.Hbonds>
donor molecule, donor type, donor heavy atom, donor atom, acceptor molecule, acceptor atom, score
      L1  H    18    59       P1 10957  0.20
      L1  H    22    54       P1  7921  1.00
      P1  H  7989  7998       L1     7  0.56
      P1  H  7997  8008       L1     3  0.75

> <Gold.Chemscore.Hbond.Weighted>
-11.2385

> <Gold.Chemscore.Metal.Weighted>
-0.0000

> <Gold.Chemscore.Lipo.Weighted>
-9.1714

> <Gold.Chemscore.Internal_Hbond.Weighted>
0.0000

> <Gold.Chemscore.DEClash.Weighted>
1.5640

> <Gold.Chemscore.DEInternal.Weighted>
4.0853

> <Gold.Chemscore.Rot.Weighted>
9.3844

> <Gold.Chemscore.Internal.Correction.Weighted>
   9.000000E+99

> <Gold.Protein.RotatedTorsions>
[ 6907 6896 6895 6894 ] final  123.48 input  -60.11 | X-H torsion
[ 7974 7965 7964 7962 ] final   37.38 input  175.53 | X-H torsion
[ 8008 7997 7996 7995 ] final  -14.31 input   59.86 | X-H torsion
[ 10167 10162 10161 10158 ] final   52.36 input  -65.29 | X-H torsion
[ 10718 10713 10712 10709 ] final  -30.68 input   66.30 | X-H torsion
[ 10763 10752 10751 10750 ] final  174.16 input  -60.55 | X-H torsion
[ 11005 11000 10999 10996 ] final  177.87 input  -57.11 | X-H torsion

> <Gold.Protein.ActiveResidues>
 VAL166  LYS551  ARG553  GLY616  TRP617  ASP618  TYR619  PRO620  LYS621  CYS622 
 ASP623  PHE694  ASN695  SER759  ASP760  ASP761  ALA762  ILE779  LEU786  VAL792 
 PHE793  MET794  SER795  GLU796  ALA797  LYS798  CYS799  TRP800  GLU811  SER814 

> <Gold.Protein.RotatedAtoms>
  152.4158  133.7036  159.6437 H   0  0  0  0  0  0  0  0  0  0  0  0  # atno 6907 bound_to 6896
  150.8036  133.8542  159.3222 H   0  0  0  0  0  0  0  0  0  0  0  0  # atno 6908 bound_to 6896
  151.6272  135.1028  160.0165 H   0  0  0  0  0  0  0  0  0  0  0  0  # atno 6909 bound_to 6896
  146.1142  139.5901  142.9332 H   0  0  0  0  0  0  0  0  0  0  0  0  # atno 7974 bound_to 7965
  154.5220  140.2226  155.8958 H   0  0  0  0  0  0  0  0  0  0  0  0  # atno 8008 bound_to 7997
  156.1673  140.3129  155.8875 H   0  0  0  0  0  0  0  0  0  0  0  0  # atno 8009 bound_to 7997
  155.3631  140.0462  157.3037 H   0  0  0  0  0  0  0  0  0  0  0  0  # atno 8010 bound_to 7997
  140.2522  144.3466  150.6344 H   0  0  0  0  0  0  0  0  0  0  0  0  # atno 10167 bound_to 10162
  156.3967  130.4383  149.7353 H   0  0  0  0  0  0  0  0  0  0  0  0  # atno 10718 bound_to 10713
  154.4501  135.2764  155.1787 H   0  0  0  0  0  0  0  0  0  0  0  0  # atno 10763 bound_to 10752
  154.3617  135.6128  153.5698 H   0  0  0  0  0  0  0  0  0  0  0  0  # atno 10764 bound_to 10752
  152.9846  135.5836  154.4844 H   0  0  0  0  0  0  0  0  0  0  0  0  # atno 10765 bound_to 10752
  140.3888  134.6881  157.4495 H   0  0  0  0  0  0  0  0  0  0  0  0  # atno 11005 bound_to 11000
  145.5601  141.0405  143.2231 LP  0  0  0  0  0  0  0  0  0  0  0  0  # atno 17320 bound_to 7965
  144.7538  139.7126  143.7262 LP  0  0  0  0  0  0  0  0  0  0  0  0  # atno 17321 bound_to 7965
  140.6032  143.2167  151.7032 LP  0  0  0  0  0  0  0  0  0  0  0  0  # atno 17342 bound_to 10162
  139.5043  144.3760  152.0423 LP  0  0  0  0  0  0  0  0  0  0  0  0  # atno 17343 bound_to 10162
  156.4385  130.7850  151.2871 LP  0  0  0  0  0  0  0  0  0  0  0  0  # atno 17370 bound_to 10713
  157.7502  131.0132  150.3414 LP  0  0  0  0  0  0  0  0  0  0  0  0  # atno 17371 bound_to 10713
  140.0422  134.6251  155.8966 LP  0  0  0  0  0  0  0  0  0  0  0  0  # atno 17394 bound_to 11000
  141.1898  133.6566  156.5383 LP  0  0  0  0  0  0  0  0  0  0  0  0  # atno 17395 bound_to 11000

$$$$
