AV-unprocessed.smi:2490|AV-procd|sdf|9807|dock9
  -GOLD-   2272013443D 1   1.00000     0.00000
 Structure written by MMmdl.
 33 34  0  0  0  0  0  0  0  0  1 V2000
  146.9606  139.0427  152.3452 C   0  0  0  0  0  0  0  0  0  0  0  0
  148.1606  138.7975  153.1299 N   0  0  0  0  0  0  0  0  0  0  0  0
  148.6393  139.6332  154.0635 C   0  0  0  0  0  0  0  0  0  0  0  0
  148.0927  140.6995  154.3495 O   0  0  0  0  0  0  0  0  0  0  0  0
  149.9133  139.1832  154.7924 C   0  0  2  0  0  0  0  0  0  0  0  0
  150.3714  140.1915  155.8704 C   0  0  0  0  0  0  0  0  0  0  0  0
  151.6313  139.7650  156.4657 N   0  0  0  0  0  0  0  0  0  0  0  0
  152.0218  140.4100  157.6239 C   0  0  0  0  0  0  0  0  0  0  0  0
  151.2975  141.4639  158.0196 N   0  0  0  0  0  0  0  0  0  0  0  0
  151.6907  142.0845  159.1527 C   0  0  0  0  0  0  0  0  0  0  0  0
  152.8119  141.6453  159.8864 C   0  0  0  0  0  0  0  0  0  0  0  0
  153.2512  142.3418  161.1564 C   0  0  0  0  0  0  0  0  0  0  0  0
  153.4967  140.5246  159.3717 C   0  0  0  0  0  0  0  0  0  0  0  0
  153.0978  139.9096  158.2375 N   0  0  0  0  0  0  0  0  0  0  0  0
  152.6661  139.5248  155.4699 C   0  0  0  0  0  0  0  0  0  0  0  0
  152.1607  138.5313  154.4116 C   0  0  0  0  0  0  0  0  0  0  0  0
  150.9577  139.0245  153.8309 O   0  0  0  0  0  0  0  0  0  0  0  0
  146.7819  138.2064  151.6693 H   0  0  0  0  0  0  0  0  0  0  0  0
  147.0669  139.9483  151.7467 H   0  0  0  0  0  0  0  0  0  0  0  0
  146.0885  139.1513  152.9913 H   0  0  0  0  0  0  0  0  0  0  0  0
  148.6649  137.9408  152.9521 H   0  0  0  0  0  0  0  0  0  0  0  0
  149.7032  138.2178  155.2564 H   0  0  0  0  0  0  0  0  0  0  0  0
  150.4981  141.1838  155.4346 H   0  0  0  0  0  0  0  0  0  0  0  0
  149.6154  140.2771  156.6525 H   0  0  0  0  0  0  0  0  0  0  0  0
  151.1075  142.9351  159.4736 H   0  0  0  0  0  0  0  0  0  0  0  0
  154.1546  141.8861  161.5629 H   0  0  0  0  0  0  0  0  0  0  0  0
  152.4671  142.2802  161.9113 H   0  0  0  0  0  0  0  0  0  0  0  0
  153.4581  143.3937  160.9585 H   0  0  0  0  0  0  0  0  0  0  0  0
  154.3661  140.1185  159.8679 H   0  0  0  0  0  0  0  0  0  0  0  0
  152.9415  140.4693  154.9986 H   0  0  0  0  0  0  0  0  0  0  0  0
  153.5615  139.1330  155.9541 H   0  0  0  0  0  0  0  0  0  0  0  0
  152.9073  138.4045  153.6277 H   0  0  0  0  0  0  0  0  0  0  0  0
  151.9886  137.5477  154.8515 H   0  0  0  0  0  0  0  0  0  0  0  0
  1  2  1  0  0  0  0
  1 18  1  0  0  0  0
  1 19  1  0  0  0  0
  1 20  1  0  0  0  0
  2  3  1  0  0  0  0
  2 21  1  0  0  0  0
  3  4  2  0  0  0  0
  3  5  1  0  0  0  0
  5 17  1  0  0  0  0
  5  6  1  0  0  0  0
  5 22  1  0  0  0  0
  6  7  1  0  0  0  0
  6 23  1  0  0  0  0
  6 24  1  0  0  0  0
  7  8  1  0  0  0  0
  7 15  1  0  0  0  0
  8 14  1  0  0  0  0
  8  9  2  0  0  0  0
  9 10  1  0  0  0  0
 10 11  2  0  0  0  0
 10 25  1  0  0  0  0
 11 12  1  0  0  0  0
 11 13  1  0  0  0  0
 12 26  1  0  0  0  0
 12 27  1  0  0  0  0
 12 28  1  0  0  0  0
 13 14  2  0  0  0  0
 13 29  1  0  0  0  0
 15 16  1  0  0  0  0
 15 30  1  0  0  0  0
 15 31  1  0  0  0  0
 16 17  1  0  0  0  0
 16 32  1  0  0  0  0
 16 33  1  0  0  0  0
M  END
> <s_m_source_file>
AV-unprocessed.smi

> <i_m_source_file_index>
2490

> <i_lp_mmshare_version>
43012

> <i_f3d_flags>
0

> <s_epik_input>
W0NIM11bTkhdQyg9TylbQ0BASF0xW0NIMl1OKFtDSDJdW0NIMl1PMSljMm5bY0hdYyhbQ0gzXSlbY0hdbjI=

> <s_epik_cmdline>
J2VwaWtfcHl0aG9uJywgJy1waCcsICc3LjAnLCAnLXRuJywgJzgnLCAnLW1hJywgJzIwMCcsICctbWV0YWxfYmluZGluZycsICctaW1hZScsICc8aW5maWxlLm1hZT4nLCAnLW9tYWUnLCAnPG91dGZpbGUubWFlPic=

> <r_lp_tautomer_probability>
1

> <r_epik_Ionization_Penalty>
8.72552e-06

> <r_epik_Ionization_Penalty_Charging>
0

> <r_epik_Ionization_Penalty_Neutral>
8.72552e-06

> <r_epik_State_Penalty>
-0

> <r_epik_Charging_Adjusted_Penalty>
0

> <i_epik_Tot_Q>
0

> <i_epik_Tot_abs_Q>
0

> <r_epik_Metal_State_Penalty>
-0

> <b_epik_Metal_Only>
0

> <s_lp_Force_Field>
OPLS_2005

> <r_lp_Energy>
12.5382

> <b_lp_Chiralities_Consistent>
1

> <s_lp_Variant>
AV-unprocessed.smi:2490-1

> <Gold.Version>
5.8.1

> <Gold.Id.Protein>
6NUR|6NUR_protein|mol2

> <Gold.PLP.Fitness>
38.4388

> <Gold.PLP.PLP>
-29.9163

> <Gold.PLP.part.hbond>
-4.0000

> <Gold.PLP.part.metal>
0.0000

> <Gold.PLP.part.buried>
1.2962

> <Gold.PLP.part.nonpolar>
-26.7627

> <Gold.PLP.part.repulsive>
0.4157

> <Gold.PLP.ligand.clash>
0.0000

> <Gold.PLP.ligand.torsion>
0.1459

> <Gold.PLP.Chemscore.Hbond>
2.8426

> <Gold.PLP.Chemscore.CHOScore>
0.0000

> <Gold.PLP.Chemscore.Metal>
0.0000

> <Gold.Chemscore.Hbonds>
donor molecule, donor type, donor heavy atom, donor atom, acceptor molecule, acceptor atom, score
      L1  H     2    21       P1  7948  1.00
      P1  H  7989  7998       L1    17  0.79
      P1  H  7997  8010       L1    14  1.00

> <Gold.PLP.Chemscore.Internal.Correction>
0.2866

> <Gold.Rescore>
     Score         DG    S(hbond)    S(metal)    S(lipo)     H(rot)  DE(clash)    DE(int)     intcor
     15.21     -16.04       1.63        0.00      72.30       1.31       0.43       0.40       ----

> <Gold.Chemscore.Fitness>
15.2133

> <Gold.Chemscore.DG>
-16.0400

> <Gold.Chemscore.ZeroCoef>
-5.4800

> <Gold.Chemscore.Hbond>
1.6323

> <Gold.Chemscore.Metal>
0.0000

> <Gold.Chemscore.Lipo>
72.2984

> <Gold.Chemscore.Internal_Hbond>
0.0000

> <Gold.Chemscore.DEClash>
0.4257

> <Gold.Chemscore.DEInternal>
0.4011

> <Gold.Chemscore.Rot>
1.3089

> <Gold.Chemscore.Internal.Correction>
   9.000000E+99

> <Gold.Chemscore.Hbonds>
donor molecule, donor type, donor heavy atom, donor atom, acceptor molecule, acceptor atom, score
      L1  H     2    21       P1  7948  0.89
      P1  H  7989  7998       L1    17  0.06
      P1  H  7997  8010       L1    14  0.26

> <Gold.Chemscore.Hbond.Weighted>
-5.4520

> <Gold.Chemscore.Metal.Weighted>
-0.0000

> <Gold.Chemscore.Lipo.Weighted>
-8.4589

> <Gold.Chemscore.Internal_Hbond.Weighted>
0.0000

> <Gold.Chemscore.DEClash.Weighted>
0.4257

> <Gold.Chemscore.DEInternal.Weighted>
0.4011

> <Gold.Chemscore.Rot.Weighted>
3.3509

> <Gold.Chemscore.Internal.Correction.Weighted>
   9.000000E+99

> <Gold.Protein.RotatedTorsions>
[ 6907 6896 6895 6894 ] final    9.64 input  -60.11 | X-H torsion
[ 7974 7965 7964 7962 ] final    7.85 input  175.53 | X-H torsion
[ 8008 7997 7996 7995 ] final   48.46 input   59.86 | X-H torsion
[ 10167 10162 10161 10158 ] final  -88.68 input  -65.29 | X-H torsion
[ 10718 10713 10712 10709 ] final  -34.45 input   66.30 | X-H torsion
[ 10763 10752 10751 10750 ] final  116.75 input  -60.55 | X-H torsion
[ 11005 11000 10999 10996 ] final   27.22 input  -57.11 | X-H torsion

> <Gold.Protein.ActiveResidues>
 VAL166  LYS551  ARG553  GLY616  TRP617  ASP618  TYR619  PRO620  LYS621  CYS622 
 ASP623  PHE694  ASN695  SER759  ASP760  ASP761  ALA762  ILE779  LEU786  VAL792 
 PHE793  MET794  SER795  GLU796  ALA797  LYS798  CYS799  TRP800  GLU811  SER814 

> <Gold.Protein.RotatedAtoms>
  151.7254  135.0885  160.0290 H   0  0  0  0  0  0  0  0  0  0  0  0  # atno 6907 bound_to 6896
  152.3575  133.6251  159.5998 H   0  0  0  0  0  0  0  0  0  0  0  0  # atno 6908 bound_to 6896
  150.7581  133.9393  159.3492 H   0  0  0  0  0  0  0  0  0  0  0  0  # atno 6909 bound_to 6896
  146.2422  140.0021  142.8415 H   0  0  0  0  0  0  0  0  0  0  0  0  # atno 7974 bound_to 7965
  155.3859  140.3431  155.4249 H   0  0  0  0  0  0  0  0  0  0  0  0  # atno 8008 bound_to 7997
  156.1584  140.1593  156.8686 H   0  0  0  0  0  0  0  0  0  0  0  0  # atno 8009 bound_to 7997
  154.5116  140.0788  156.7983 H   0  0  0  0  0  0  0  0  0  0  0  0  # atno 8010 bound_to 7997
  140.3723  143.2788  151.9486 H   0  0  0  0  0  0  0  0  0  0  0  0  # atno 10167 bound_to 10162
  156.3504  130.4307  149.7709 H   0  0  0  0  0  0  0  0  0  0  0  0  # atno 10718 bound_to 10713
  153.5419  135.3557  155.2722 H   0  0  0  0  0  0  0  0  0  0  0  0  # atno 10763 bound_to 10752
  154.8716  135.4093  154.3034 H   0  0  0  0  0  0  0  0  0  0  0  0  # atno 10764 bound_to 10752
  153.3743  135.7065  153.6682 H   0  0  0  0  0  0  0  0  0  0  0  0  # atno 10765 bound_to 10752
  140.3287  134.2462  155.7705 H   0  0  0  0  0  0  0  0  0  0  0  0  # atno 11005 bound_to 11000
  145.1405  140.9569  143.4491 LP  0  0  0  0  0  0  0  0  0  0  0  0  # atno 17320 bound_to 7965
  145.0300  139.3349  143.6029 LP  0  0  0  0  0  0  0  0  0  0  0  0  # atno 17321 bound_to 7965
  139.4802  144.5896  151.7795 LP  0  0  0  0  0  0  0  0  0  0  0  0  # atno 17342 bound_to 10162
  140.5021  144.1153  150.5973 LP  0  0  0  0  0  0  0  0  0  0  0  0  # atno 17343 bound_to 10162
  156.4911  130.8085  151.3095 LP  0  0  0  0  0  0  0  0  0  0  0  0  # atno 17370 bound_to 10713
  157.7460  130.9975  150.2818 LP  0  0  0  0  0  0  0  0  0  0  0  0  # atno 17371 bound_to 10713
  141.2069  133.7821  157.0151 LP  0  0  0  0  0  0  0  0  0  0  0  0  # atno 17394 bound_to 11000
  140.0879  134.9609  157.1730 LP  0  0  0  0  0  0  0  0  0  0  0  0  # atno 17395 bound_to 11000

$$$$
