AV-unprocessed.smi:3332|AV-procd|sdf|12830|dock9
  -GOLD-   2272019213D 1   1.00000     0.00000
 Structure written by MMmdl.
 41 42  0  0  0  0  0  0  0  0  1 V2000
  152.6749  143.5697  162.2111 C   0  0  0  0  0  0  0  0  0  0  0  0
  152.1374  144.2608  160.9535 C   0  0  0  0  0  0  0  0  0  0  0  0
  151.9821  143.3105  159.8031 C   0  0  0  0  0  0  0  0  0  0  0  0
  151.8373  141.9445  160.0598 N   0  0  0  0  0  0  0  0  0  0  0  0
  151.7086  141.2193  158.9465 C   0  0  0  0  0  0  0  0  0  0  0  0
  151.6042  139.7270  158.9428 C   0  0  0  0  0  0  0  0  0  0  0  0
  152.8219  139.0150  158.3226 C   0  0  0  0  0  0  0  0  0  0  0  0
  153.5933  138.2792  159.3228 N   0  0  0  0  0  0  0  0  0  0  0  0
  154.8855  138.4896  159.6197 C   0  0  0  0  0  0  0  0  0  0  0  0
  155.6073  139.2648  158.9915 O   0  0  0  0  0  0  0  0  0  0  0  0
  155.4325  137.7184  160.8273 C   0  0  0  0  0  0  0  0  0  0  0  0
  154.3530  137.0037  161.6731 C   0  0  1  0  0  0  0  0  0  0  0  0
  154.9103  136.1488  162.7867 C   0  0  0  0  0  0  0  0  0  0  0  0
  154.3937  136.4485  163.9757 C   0  0  0  0  0  0  0  0  0  0  0  0
  153.3907  137.5655  163.9018 C   0  0  0  0  0  0  0  0  0  0  0  0
  153.4140  137.9893  162.4156 C   0  0  0  0  0  0  0  0  0  0  0  0
  151.7741  142.1878  157.4817 S   0  0  0  0  0  0  0  0  0  0  0  0
  151.9685  143.6186  158.4626 C   0  0  0  0  0  0  0  0  0  0  0  0
  152.1052  144.9646  157.8327 C   0  0  0  0  0  0  0  0  0  0  0  0
  152.7756  144.2803  163.0315 H   0  0  0  0  0  0  0  0  0  0  0  0
  153.6558  143.1290  162.0301 H   0  0  0  0  0  0  0  0  0  0  0  0
  152.0043  142.7746  162.5386 H   0  0  0  0  0  0  0  0  0  0  0  0
  151.1835  144.7347  161.1857 H   0  0  0  0  0  0  0  0  0  0  0  0
  152.8093  145.0738  160.6753 H   0  0  0  0  0  0  0  0  0  0  0  0
  151.4732  139.3911  159.9723 H   0  0  0  0  0  0  0  0  0  0  0  0
  150.6966  139.4412  158.4110 H   0  0  0  0  0  0  0  0  0  0  0  0
  152.4909  138.3189  157.5517 H   0  0  0  0  0  0  0  0  0  0  0  0
  153.4488  139.7502  157.8156 H   0  0  0  0  0  0  0  0  0  0  0  0
  153.0843  137.6145  159.8871 H   0  0  0  0  0  0  0  0  0  0  0  0
  156.1559  136.9824  160.4717 H   0  0  0  0  0  0  0  0  0  0  0  0
  155.9859  138.4180  161.4545 H   0  0  0  0  0  0  0  0  0  0  0  0
  153.7554  136.3543  161.0314 H   0  0  0  0  0  0  0  0  0  0  0  0
  155.6348  135.3679  162.6085 H   0  0  0  0  0  0  0  0  0  0  0  0
  154.6394  135.9531  164.9035 H   0  0  0  0  0  0  0  0  0  0  0  0
  152.4076  137.2024  164.2030 H   0  0  0  0  0  0  0  0  0  0  0  0
  153.6790  138.3838  164.5624 H   0  0  0  0  0  0  0  0  0  0  0  0
  153.7792  139.0140  162.3336 H   0  0  0  0  0  0  0  0  0  0  0  0
  152.4118  137.9754  161.9858 H   0  0  0  0  0  0  0  0  0  0  0  0
  151.3513  145.6504  158.2197 H   0  0  0  0  0  0  0  0  0  0  0  0
  151.9851  144.9092  156.7505 H   0  0  0  0  0  0  0  0  0  0  0  0
  153.0880  145.3888  158.0406 H   0  0  0  0  0  0  0  0  0  0  0  0
  1  2  1  0  0  0  0
  1 20  1  0  0  0  0
  1 21  1  0  0  0  0
  1 22  1  0  0  0  0
  2  3  1  0  0  0  0
  2 23  1  0  0  0  0
  2 24  1  0  0  0  0
  3 18  2  0  0  0  0
  3  4  1  0  0  0  0
  4  5  2  0  0  0  0
  5  6  1  0  0  0  0
  5 17  1  0  0  0  0
  6  7  1  0  0  0  0
  6 25  1  0  0  0  0
  6 26  1  0  0  0  0
  7  8  1  0  0  0  0
  7 27  1  0  0  0  0
  7 28  1  0  0  0  0
  8  9  1  0  0  0  0
  8 29  1  0  0  0  0
  9 10  2  0  0  0  0
  9 11  1  0  0  0  0
 11 12  1  0  0  0  0
 11 30  1  0  0  0  0
 11 31  1  0  0  0  0
 12 16  1  0  0  0  0
 12 13  1  0  0  0  0
 12 32  1  0  0  0  0
 13 14  2  0  0  0  0
 13 33  1  0  0  0  0
 14 15  1  0  0  0  0
 14 34  1  0  0  0  0
 15 16  1  0  0  0  0
 15 35  1  0  0  0  0
 15 36  1  0  0  0  0
 16 37  1  0  0  0  0
 16 38  1  0  0  0  0
 17 18  1  0  0  0  0
 18 19  1  0  0  0  0
 19 39  1  0  0  0  0
 19 40  1  0  0  0  0
 19 41  1  0  0  0  0
M  END
> <s_m_source_file>
AV-unprocessed.smi

> <i_m_source_file_index>
3332

> <i_lp_mmshare_version>
43012

> <i_f3d_flags>
0

> <s_epik_input>
W0NIM11bQ0gyXWMxbmMoc2MxW0NIM10pW0NIMl1bQ0gyXVtOSF1DKD1PKVtDSDJdW0NAQEhdMltDSF09W0NIXVtDSDJdW0NIMl0y

> <s_epik_cmdline>
J2VwaWtfcHl0aG9uJywgJy1waCcsICc3LjAnLCAnLXRuJywgJzgnLCAnLW1hJywgJzIwMCcsICctbWV0YWxfYmluZGluZycsICctaW1hZScsICc8aW5maWxlLm1hZT4nLCAnLW9tYWUnLCAnPG91dGZpbGUubWFlPic=

> <r_epik_Ionization_Penalty>
0.00221844

> <r_epik_Ionization_Penalty_Charging>
0

> <r_epik_Ionization_Penalty_Neutral>
0.00221844

> <r_epik_State_Penalty>
0.00152607

> <r_epik_Charging_Adjusted_Penalty>
0.00152607

> <i_epik_Tot_Q>
0

> <i_epik_Tot_abs_Q>
0

> <r_epik_Metal_State_Penalty>
-0

> <b_epik_Metal_Only>
0

> <s_lp_Force_Field>
OPLS_2005

> <r_lp_Energy>
6.79719

> <b_lp_Chiralities_Consistent>
1

> <s_lp_Variant>
AV-unprocessed.smi:3332-2

> <Gold.Version>
5.8.1

> <Gold.Id.Protein>
6NUR|6NUR_protein|mol2

> <Gold.PLP.Fitness>
42.9154

> <Gold.PLP.PLP>
-41.6007

> <Gold.PLP.part.hbond>
-1.5133

> <Gold.PLP.part.metal>
0.0000

> <Gold.PLP.part.buried>
-5.0897

> <Gold.PLP.part.nonpolar>
-33.3024

> <Gold.PLP.part.repulsive>
0.1049

> <Gold.PLP.ligand.clash>
0.0000

> <Gold.PLP.ligand.torsion>
0.8595

> <Gold.PLP.Chemscore.Hbond>
1.0000

> <Gold.PLP.Chemscore.CHOScore>
0.0000

> <Gold.PLP.Chemscore.Metal>
0.0000

> <Gold.Chemscore.Hbonds>
donor molecule, donor type, donor heavy atom, donor atom, acceptor molecule, acceptor atom, score
      P1  H  7997  8009       L1    10  1.00

> <Gold.PLP.Chemscore.Internal.Correction>
0.0336

> <Gold.Rescore>
     Score         DG    S(hbond)    S(metal)    S(lipo)     H(rot)  DE(clash)    DE(int)     intcor
     18.89     -19.51       1.00        0.00     124.40       1.51       0.01       0.60       ----

> <Gold.Chemscore.Fitness>
18.8931

> <Gold.Chemscore.DG>
-19.5083

> <Gold.Chemscore.ZeroCoef>
-5.4800

> <Gold.Chemscore.Hbond>
1.0000

> <Gold.Chemscore.Metal>
0.0000

> <Gold.Chemscore.Lipo>
124.3985

> <Gold.Chemscore.Internal_Hbond>
0.0000

> <Gold.Chemscore.DEClash>
0.0137

> <Gold.Chemscore.DEInternal>
0.6014

> <Gold.Chemscore.Rot>
1.5103

> <Gold.Chemscore.Internal.Correction>
   9.000000E+99

> <Gold.Chemscore.Hbonds>
donor molecule, donor type, donor heavy atom, donor atom, acceptor molecule, acceptor atom, score
      P1  H  7997  8009       L1    10  1.00

> <Gold.Chemscore.Hbond.Weighted>
-3.3400

> <Gold.Chemscore.Metal.Weighted>
-0.0000

> <Gold.Chemscore.Lipo.Weighted>
-14.5546

> <Gold.Chemscore.Internal_Hbond.Weighted>
0.0000

> <Gold.Chemscore.DEClash.Weighted>
0.0137

> <Gold.Chemscore.DEInternal.Weighted>
0.6014

> <Gold.Chemscore.Rot.Weighted>
3.8664

> <Gold.Chemscore.Internal.Correction.Weighted>
   9.000000E+99

> <Gold.Protein.RotatedTorsions>
[ 6907 6896 6895 6894 ] final   61.53 input  -60.11 | X-H torsion
[ 7974 7965 7964 7962 ] final -141.65 input  175.53 | X-H torsion
[ 8008 7997 7996 7995 ] final   99.71 input   59.86 | X-H torsion
[ 10167 10162 10161 10158 ] final -108.99 input  -65.29 | X-H torsion
[ 10718 10713 10712 10709 ] final  -62.36 input   66.30 | X-H torsion
[ 10763 10752 10751 10750 ] final  143.94 input  -60.55 | X-H torsion
[ 11005 11000 10999 10996 ] final  -58.00 input  -57.11 | X-H torsion

> <Gold.Protein.ActiveResidues>
 VAL166  LYS551  ARG553  GLY616  TRP617  ASP618  TYR619  PRO620  LYS621  CYS622 
 ASP623  PHE694  ASN695  SER759  ASP760  ASP761  ALA762  ILE779  LEU786  VAL792 
 PHE793  MET794  SER795  GLU796  ALA797  LYS798  CYS799  TRP800  GLU811  SER814 

> <Gold.Protein.RotatedAtoms>
  152.4096  134.6147  160.0034 H   0  0  0  0  0  0  0  0  0  0  0  0  # atno 6907 bound_to 6896
  151.6328  133.3325  159.3120 H   0  0  0  0  0  0  0  0  0  0  0  0  # atno 6908 bound_to 6896
  150.7988  134.7108  159.6647 H   0  0  0  0  0  0  0  0  0  0  0  0  # atno 6909 bound_to 6896
  144.8503  140.6053  143.5395 H   0  0  0  0  0  0  0  0  0  0  0  0  # atno 7974 bound_to 7965
  156.1132  140.3224  155.8102 H   0  0  0  0  0  0  0  0  0  0  0  0  # atno 8008 bound_to 7997
  155.4636  140.0541  157.3005 H   0  0  0  0  0  0  0  0  0  0  0  0  # atno 8009 bound_to 7997
  154.4774  140.2038  155.9858 H   0  0  0  0  0  0  0  0  0  0  0  0  # atno 8010 bound_to 7997
  140.1602  143.4127  152.1431 H   0  0  0  0  0  0  0  0  0  0  0  0  # atno 10167 bound_to 10162
  156.0860  130.4208  150.1125 H   0  0  0  0  0  0  0  0  0  0  0  0  # atno 10718 bound_to 10713
  153.9806  135.2941  155.3420 H   0  0  0  0  0  0  0  0  0  0  0  0  # atno 10763 bound_to 10752
  154.7271  135.5084  153.8906 H   0  0  0  0  0  0  0  0  0  0  0  0  # atno 10764 bound_to 10752
  153.0856  135.6692  154.0070 H   0  0  0  0  0  0  0  0  0  0  0  0  # atno 10765 bound_to 10752
  141.1189  133.6611  156.4854 H   0  0  0  0  0  0  0  0  0  0  0  0  # atno 11005 bound_to 11000
  145.4514  139.1523  143.3916 LP  0  0  0  0  0  0  0  0  0  0  0  0  # atno 17320 bound_to 7965
  146.2779  140.4640  142.8788 LP  0  0  0  0  0  0  0  0  0  0  0  0  # atno 17321 bound_to 7965
  139.5385  144.7233  151.4813 LP  0  0  0  0  0  0  0  0  0  0  0  0  # atno 17342 bound_to 10162
  140.6648  143.8422  150.6929 LP  0  0  0  0  0  0  0  0  0  0  0  0  # atno 17343 bound_to 10162
  156.9145  130.9663  151.3558 LP  0  0  0  0  0  0  0  0  0  0  0  0  # atno 17370 bound_to 10713
  157.5994  130.8501  149.8779 LP  0  0  0  0  0  0  0  0  0  0  0  0  # atno 17371 bound_to 10713
  140.4566  134.6879  157.5065 LP  0  0  0  0  0  0  0  0  0  0  0  0  # atno 17394 bound_to 11000
  140.0130  134.6661  155.9351 LP  0  0  0  0  0  0  0  0  0  0  0  0  # atno 17395 bound_to 11000

$$$$
