AV-unprocessed.smi:1672|AV-procd|sdf|6707|dock3
  -GOLD-   22720 7453D 1   1.00000     0.00000
 Structure written by MMmdl.
 49 51  0  0  0  0  0  0  0  0  3 V2000
  145.0459  132.4407  152.2606 C   0  0  0  0  0  0  0  0  0  0  0  0
  146.3461  133.1610  151.8627 C   0  0  2  0  0  0  0  0  0  0  0  0
  147.1049  133.7329  153.0739 C   0  0  0  0  0  0  0  0  0  0  0  0
  146.4259  134.9899  153.6474 C   0  0  0  0  0  0  0  0  0  0  0  0
  146.2477  136.0301  152.6021 N   0  3  2  0  0  0  0  0  0  0  0  0
  145.7260  137.3060  153.1571 C   0  0  0  0  0  0  0  0  0  0  0  0
  146.8061  138.1059  153.9120 C   0  0  2  0  0  0  0  0  0  0  0  0
  146.2633  138.5561  155.1381 O   0  0  0  0  0  0  0  0  0  0  0  0
  147.3042  139.3132  153.0926 C   0  0  0  0  0  0  0  0  0  0  0  0
  148.0765  140.2725  153.8996 N   0  0  0  0  0  0  0  0  0  0  0  0
  147.7942  141.5668  154.2283 C   0  0  0  0  0  0  0  0  0  0  0  0
  146.5827  142.3475  153.8385 C   0  0  0  0  0  0  0  0  0  0  0  0
  145.3989  141.8037  154.3780 O   0  0  0  0  0  0  0  0  0  0  0  0
  148.8224  142.0231  154.9969 N   0  3  0  0  0  0  0  0  0  0  0  0
  149.7732  141.0156  155.1614 C   0  0  0  0  0  0  0  0  0  0  0  0
  150.9800  141.0083  155.8540 C   0  0  0  0  0  0  0  0  0  0  0  0
  151.7190  139.8076  155.8255 C   0  0  0  0  0  0  0  0  0  0  0  0
  151.2520  138.6754  155.1272 C   0  0  0  0  0  0  0  0  0  0  0  0
  150.0268  138.6949  154.4286 C   0  0  0  0  0  0  0  0  0  0  0  0
  149.3007  139.8859  154.4615 C   0  0  0  0  0  0  0  0  0  0  0  0
  145.4535  135.5201  151.4529 C   0  0  0  0  0  0  0  0  0  0  0  0
  146.1155  134.2785  150.8290 C   0  0  0  0  0  0  0  0  0  0  0  0
  144.3360  133.1095  152.7463 H   0  0  0  0  0  0  0  0  0  0  0  0
  145.2498  131.6209  152.9502 H   0  0  0  0  0  0  0  0  0  0  0  0
  144.5521  132.0157  151.3864 H   0  0  0  0  0  0  0  0  0  0  0  0
  146.9850  132.4086  151.3981 H   0  0  0  0  0  0  0  0  0  0  0  0
  147.2046  132.9737  153.8504 H   0  0  0  0  0  0  0  0  0  0  0  0
  148.1212  133.9882  152.7702 H   0  0  0  0  0  0  0  0  0  0  0  0
  145.4591  134.7402  154.0862 H   0  0  0  0  0  0  0  0  0  0  0  0
  147.0438  135.3849  154.4549 H   0  0  0  0  0  0  0  0  0  0  0  0
  145.3017  137.9012  152.3470 H   0  0  0  0  0  0  0  0  0  0  0  0
  144.9033  137.1047  153.8454 H   0  0  0  0  0  0  0  0  0  0  0  0
  147.6591  137.4678  154.1387 H   0  0  0  0  0  0  0  0  0  0  0  0
  145.3393  138.7163  155.0203 H   0  0  0  0  0  0  0  0  0  0  0  0
  147.9595  138.9706  152.2909 H   0  0  0  0  0  0  0  0  0  0  0  0
  146.4789  139.8312  152.6037 H   0  0  0  0  0  0  0  0  0  0  0  0
  146.6885  143.3763  154.1839 H   0  0  0  0  0  0  0  0  0  0  0  0
  146.4998  142.3817  152.7522 H   0  0  0  0  0  0  0  0  0  0  0  0
  144.8387  141.5322  153.6669 H   0  0  0  0  0  0  0  0  0  0  0  0
  151.3398  141.8748  156.3893 H   0  0  0  0  0  0  0  0  0  0  0  0
  152.6624  139.7538  156.3497 H   0  0  0  0  0  0  0  0  0  0  0  0
  151.8463  137.7730  155.1276 H   0  0  0  0  0  0  0  0  0  0  0  0
  149.6837  137.8204  153.8968 H   0  0  0  0  0  0  0  0  0  0  0  0
  144.4400  135.2861  151.7816 H   0  0  0  0  0  0  0  0  0  0  0  0
  145.3600  136.2882  150.6862 H   0  0  0  0  0  0  0  0  0  0  0  0
  147.0740  134.5690  150.3965 H   0  0  0  0  0  0  0  0  0  0  0  0
  145.5114  133.9078  150.0002 H   0  0  0  0  0  0  0  0  0  0  0  0
  147.1736  136.2338  152.2524 H   0  0  0  0  0  0  0  0  0  0  0  0
  148.8653  142.9573  155.3839 H   0  0  0  0  0  0  0  0  0  0  0  0
  1  2  1  0  0  0  0
  1 23  1  0  0  0  0
  1 24  1  0  0  0  0
  1 25  1  0  0  0  0
  2 22  1  0  0  0  0
  2  3  1  0  0  0  0
  2 26  1  0  0  0  0
  3  4  1  0  0  0  0
  3 27  1  0  0  0  0
  3 28  1  0  0  0  0
  4  5  1  0  0  0  0
  4 29  1  0  0  0  0
  4 30  1  0  0  0  0
  5  6  1  0  0  0  0
  5 21  1  0  0  0  0
  5 48  1  0  0  0  0
  6  7  1  0  0  0  0
  6 31  1  0  0  0  0
  6 32  1  0  0  0  0
  7  8  1  0  0  0  0
  7  9  1  0  0  0  0
  7 33  1  0  0  0  0
  8 34  1  0  0  0  0
  9 10  1  0  0  0  0
  9 35  1  0  0  0  0
  9 36  1  0  0  0  0
 10 20  1  0  0  0  0
 10 11  1  0  0  0  0
 11 12  1  0  0  0  0
 11 14  2  0  0  0  0
 12 13  1  0  0  0  0
 12 37  1  0  0  0  0
 12 38  1  0  0  0  0
 13 39  1  0  0  0  0
 14 15  1  0  0  0  0
 14 49  1  0  0  0  0
 15 20  2  0  0  0  0
 15 16  1  0  0  0  0
 16 17  2  0  0  0  0
 16 40  1  0  0  0  0
 17 18  1  0  0  0  0
 17 41  1  0  0  0  0
 18 19  2  0  0  0  0
 18 42  1  0  0  0  0
 19 20  1  0  0  0  0
 19 43  1  0  0  0  0
 21 22  1  0  0  0  0
 21 44  1  0  0  0  0
 21 45  1  0  0  0  0
 22 46  1  0  0  0  0
 22 47  1  0  0  0  0
M  CHG  1   5   1
M  CHG  1  14   1
M  END
> <s_m_source_file>
AV-unprocessed.smi

> <i_m_source_file_index>
1672

> <i_lp_mmshare_version>
43012

> <i_f3d_flags>
0

> <s_epik_input>
W0NIM11bQ0hdMVtDSDJdW0NIMl1OKFtDSDJdW0NIMl0xKVtDSDJdW0NASF0oW09IXSlbQ0gyXW4oYyhuMilbQ0gyXVtPSF0pYyhjMjMpW2NIXVtjSF1bY0hdW2NIXTM=

> <s_epik_cmdline>
J2VwaWtfcHl0aG9uJywgJy1waCcsICc3LjAnLCAnLXRuJywgJzgnLCAnLW1hJywgJzIwMCcsICctbWV0YWxfYmluZGluZycsICctaW1hZScsICc8aW5maWxlLm1hZT4nLCAnLW9tYWUnLCAnPG91dGZpbGUubWFlPic=

> <r_epik_Ionization_Penalty>
1.51642

> <r_epik_Ionization_Penalty_Charging>
1.51557

> <r_epik_Ionization_Penalty_Neutral>
0.000856474

> <r_epik_State_Penalty>
1.6048

> <r_epik_Charging_Adjusted_Penalty>
3.12037

> <i_epik_Tot_Q>
2

> <i_epik_Tot_abs_Q>
2

> <r_epik_Metal_State_Penalty>
5.65673

> <b_epik_Metal_Only>
0

> <s_lp_Force_Field>
OPLS_2005

> <r_lp_Energy>
31.2365

> <b_lp_Chiralities_Consistent>
1

> <s_lp_Variant>
AV-unprocessed.smi:1672-7

> <Gold.Version>
5.8.1

> <Gold.Id.Protein>
6NUR|6NUR_protein|mol2

> <Gold.PLP.Fitness>
55.5492

> <Gold.PLP.PLP>
-42.3090

> <Gold.PLP.part.hbond>
-3.0000

> <Gold.PLP.part.metal>
0.0000

> <Gold.PLP.part.buried>
-1.6900

> <Gold.PLP.part.nonpolar>
-35.8371

> <Gold.PLP.part.repulsive>
0.1949

> <Gold.PLP.ligand.clash>
0.0000

> <Gold.PLP.ligand.torsion>
0.9711

> <Gold.PLP.Chemscore.Hbond>
5.0000

> <Gold.PLP.Chemscore.CHOScore>
0.0000

> <Gold.PLP.Chemscore.Metal>
0.0000

> <Gold.Chemscore.Hbonds>
donor molecule, donor type, donor heavy atom, donor atom, acceptor molecule, acceptor atom, score
      L1  H     5    48       P1  7948  2.00
      L1  H    13    39       P1 10175  0.80
      L1  H    14    49       P1  8028  2.00

> <Gold.PLP.Chemscore.Internal.Correction>
0.1825

> <Gold.Rescore>
     Score         DG    S(hbond)    S(metal)    S(lipo)     H(rot)  DE(clash)    DE(int)     intcor
     17.35     -18.54       2.89        0.00      93.83       2.96       0.15       1.04       ----

> <Gold.Chemscore.Fitness>
17.3526

> <Gold.Chemscore.DG>
-18.5434

> <Gold.Chemscore.ZeroCoef>
-5.4800

> <Gold.Chemscore.Hbond>
2.8896

> <Gold.Chemscore.Metal>
0.0000

> <Gold.Chemscore.Lipo>
93.8312

> <Gold.Chemscore.Internal_Hbond>
0.0000

> <Gold.Chemscore.DEClash>
0.1542

> <Gold.Chemscore.DEInternal>
1.0367

> <Gold.Chemscore.Rot>
2.9555

> <Gold.Chemscore.Internal.Correction>
   9.000000E+99

> <Gold.Chemscore.Hbonds>
donor molecule, donor type, donor heavy atom, donor atom, acceptor molecule, acceptor atom, score
      L1  H     5    48       P1  7948  1.00
      L1  H    13    39       P1 10175  0.12
      L1  H    14    49       P1  8028  1.00

> <Gold.Chemscore.Hbond.Weighted>
-9.6512

> <Gold.Chemscore.Metal.Weighted>
-0.0000

> <Gold.Chemscore.Lipo.Weighted>
-10.9783

> <Gold.Chemscore.Internal_Hbond.Weighted>
0.0000

> <Gold.Chemscore.DEClash.Weighted>
0.1542

> <Gold.Chemscore.DEInternal.Weighted>
1.0367

> <Gold.Chemscore.Rot.Weighted>
7.5660

> <Gold.Chemscore.Internal.Correction.Weighted>
   9.000000E+99

> <Gold.Protein.RotatedTorsions>
[ 6907 6896 6895 6894 ] final  -73.10 input  -60.11 | X-H torsion
[ 7974 7965 7964 7962 ] final  133.32 input  175.53 | X-H torsion
[ 8008 7997 7996 7995 ] final  -69.85 input   59.86 | X-H torsion
[ 10167 10162 10161 10158 ] final  -44.39 input  -65.29 | X-H torsion
[ 10718 10713 10712 10709 ] final  -84.62 input   66.30 | X-H torsion
[ 10763 10752 10751 10750 ] final   33.47 input  -60.55 | X-H torsion
[ 11005 11000 10999 10996 ] final -157.11 input  -57.11 | X-H torsion

> <Gold.Protein.ActiveResidues>
 VAL166  LYS551  ARG553  GLY616  TRP617  ASP618  TYR619  PRO620  LYS621  CYS622 
 ASP623  PHE694  ASN695  SER759  ASP760  ASP761  ALA762  ILE779  LEU786  VAL792 
 PHE793  MET794  SER795  GLU796  ALA797  LYS798  CYS799  TRP800  GLU811  SER814 

> <Gold.Protein.RotatedAtoms>
  150.7143  134.5066  159.5586 H   0  0  0  0  0  0  0  0  0  0  0  0  # atno 6907 bound_to 6896
  152.2652  134.7989  160.0433 H   0  0  0  0  0  0  0  0  0  0  0  0  # atno 6908 bound_to 6896
  151.8688  133.3436  159.3765 H   0  0  0  0  0  0  0  0  0  0  0  0  # atno 6909 bound_to 6896
  144.9878  139.4438  143.5354 H   0  0  0  0  0  0  0  0  0  0  0  0  # atno 7974 bound_to 7965
  154.4969  140.0845  156.7715 H   0  0  0  0  0  0  0  0  0  0  0  0  # atno 8008 bound_to 7997
  155.4096  140.3441  155.4244 H   0  0  0  0  0  0  0  0  0  0  0  0  # atno 8009 bound_to 7997
  156.1405  140.1528  156.8916 H   0  0  0  0  0  0  0  0  0  0  0  0  # atno 8010 bound_to 7997
  140.6898  143.2932  151.3489 H   0  0  0  0  0  0  0  0  0  0  0  0  # atno 10167 bound_to 10162
  156.0004  130.4704  150.4437 H   0  0  0  0  0  0  0  0  0  0  0  0  # atno 10718 bound_to 10713
  153.0210  135.6386  154.1516 H   0  0  0  0  0  0  0  0  0  0  0  0  # atno 10763 bound_to 10752
  154.1251  135.2844  155.3200 H   0  0  0  0  0  0  0  0  0  0  0  0  # atno 10764 bound_to 10752
  154.6235  135.5517  153.7664 H   0  0  0  0  0  0  0  0  0  0  0  0  # atno 10765 bound_to 10752
  140.6682  134.4276  157.5232 H   0  0  0  0  0  0  0  0  0  0  0  0  # atno 11005 bound_to 11000
  146.3424  139.9190  142.8769 LP  0  0  0  0  0  0  0  0  0  0  0  0  # atno 17320 bound_to 7965
  145.2329  140.9980  143.3980 LP  0  0  0  0  0  0  0  0  0  0  0  0  # atno 17321 bound_to 7965
  139.6290  144.0757  152.2460 LP  0  0  0  0  0  0  0  0  0  0  0  0  # atno 17342 bound_to 10162
  140.0226  144.6142  150.7554 LP  0  0  0  0  0  0  0  0  0  0  0  0  # atno 17343 bound_to 10162
  157.2476  131.0539  151.2399 LP  0  0  0  0  0  0  0  0  0  0  0  0  # atno 17370 bound_to 10713
  157.3559  130.7106  149.6470 LP  0  0  0  0  0  0  0  0  0  0  0  0  # atno 17371 bound_to 10713
  139.8990  134.8600  156.1977 LP  0  0  0  0  0  0  0  0  0  0  0  0  # atno 17394 bound_to 11000
  141.0413  133.6936  156.1602 LP  0  0  0  0  0  0  0  0  0  0  0  0  # atno 17395 bound_to 11000

$$$$
