AV-unprocessed.smi:2378|AV-procd|sdf|9449|dock1
  -GOLD-   2272013 83D 1   1.00000     0.00000
 Structure written by MMmdl.
 40 41  0  0  0  0  0  0  0  0  1 V2000
  145.8933  131.7979  149.2489 C   0  0  0  0  0  0  0  0  0  0  0  0
  145.3856  132.6994  150.3547 C   0  0  0  0  0  0  0  0  0  0  0  0
  144.2013  132.3936  151.0520 C   0  0  0  0  0  0  0  0  0  0  0  0
  143.7830  133.2734  152.0673 C   0  0  0  0  0  0  0  0  0  0  0  0
  144.4608  134.3913  152.4024 N   0  0  0  0  0  0  0  0  0  0  0  0
  145.6036  134.6962  151.7384 C   0  0  0  0  0  0  0  0  0  0  0  0
  146.3950  135.8432  152.0145 N   0  0  0  0  0  0  0  0  0  0  0  0
  145.9819  137.0793  152.3461 C   0  0  0  0  0  0  0  0  0  0  0  0
  144.8073  137.4359  152.4467 O   0  0  0  0  0  0  0  0  0  0  0  0
  147.0230  137.8983  152.5551 N   0  0  0  0  0  0  0  0  0  0  0  0
  146.9219  139.3050  152.9265 C   0  0  0  0  0  0  0  0  0  0  0  0
  147.4457  139.5515  154.3517 C   0  0  0  0  0  0  0  0  0  0  0  0
  148.9552  139.8366  154.3932 C   0  0  2  0  0  0  0  0  0  0  0  0
  149.7877  138.5404  154.3475 C   0  0  0  0  0  0  0  0  0  0  0  0
  151.2832  138.8558  154.4649 C   0  0  0  0  0  0  0  0  0  0  0  0
  151.5343  139.7198  155.7051 C   0  0  0  0  0  0  0  0  0  0  0  0
  150.6135  140.9502  155.6935 C   0  0  0  0  0  0  0  0  0  0  0  0
  149.2535  140.5372  155.5998 O   0  0  0  0  0  0  0  0  0  0  0  0
  146.0943  133.8662  150.7051 C   0  0  0  0  0  0  0  0  0  0  0  0
  145.2681  130.9110  149.1417 H   0  0  0  0  0  0  0  0  0  0  0  0
  146.9118  131.4731  149.4632 H   0  0  0  0  0  0  0  0  0  0  0  0
  145.8949  132.3318  148.2983 H   0  0  0  0  0  0  0  0  0  0  0  0
  143.6254  131.5099  150.8190 H   0  0  0  0  0  0  0  0  0  0  0  0
  142.8804  133.0746  152.6259 H   0  0  0  0  0  0  0  0  0  0  0  0
  147.3929  135.7045  151.9594 H   0  0  0  0  0  0  0  0  0  0  0  0
  147.9541  137.5227  152.4503 H   0  0  0  0  0  0  0  0  0  0  0  0
  147.4605  139.9250  152.2078 H   0  0  0  0  0  0  0  0  0  0  0  0
  145.8727  139.5935  152.8588 H   0  0  0  0  0  0  0  0  0  0  0  0
  146.9035  140.3821  154.8056 H   0  0  0  0  0  0  0  0  0  0  0  0
  147.2340  138.6749  154.9656 H   0  0  0  0  0  0  0  0  0  0  0  0
  149.2170  140.4641  153.5393 H   0  0  0  0  0  0  0  0  0  0  0  0
  149.4893  137.8823  155.1647 H   0  0  0  0  0  0  0  0  0  0  0  0
  149.5937  137.9971  153.4221 H   0  0  0  0  0  0  0  0  0  0  0  0
  151.8645  137.9348  154.5179 H   0  0  0  0  0  0  0  0  0  0  0  0
  151.6169  139.3877  153.5732 H   0  0  0  0  0  0  0  0  0  0  0  0
  151.3457  139.1335  156.6051 H   0  0  0  0  0  0  0  0  0  0  0  0
  152.5791  140.0291  155.7452 H   0  0  0  0  0  0  0  0  0  0  0  0
  150.7449  141.5251  156.6104 H   0  0  0  0  0  0  0  0  0  0  0  0
  150.8607  141.6141  154.8637 H   0  0  0  0  0  0  0  0  0  0  0  0
  147.0062  134.1200  150.1837 H   0  0  0  0  0  0  0  0  0  0  0  0
  1  2  1  0  0  0  0
  1 20  1  0  0  0  0
  1 21  1  0  0  0  0
  1 22  1  0  0  0  0
  2 19  1  0  0  0  0
  2  3  2  0  0  0  0
  3  4  1  0  0  0  0
  3 23  1  0  0  0  0
  4  5  2  0  0  0  0
  4 24  1  0  0  0  0
  5  6  1  0  0  0  0
  6  7  1  0  0  0  0
  6 19  2  0  0  0  0
  7  8  1  0  0  0  0
  7 25  1  0  0  0  0
  8  9  2  0  0  0  0
  8 10  1  0  0  0  0
 10 11  1  0  0  0  0
 10 26  1  0  0  0  0
 11 12  1  0  0  0  0
 11 27  1  0  0  0  0
 11 28  1  0  0  0  0
 12 13  1  0  0  0  0
 12 29  1  0  0  0  0
 12 30  1  0  0  0  0
 13 18  1  0  0  0  0
 13 14  1  0  0  0  0
 13 31  1  0  0  0  0
 14 15  1  0  0  0  0
 14 32  1  0  0  0  0
 14 33  1  0  0  0  0
 15 16  1  0  0  0  0
 15 34  1  0  0  0  0
 15 35  1  0  0  0  0
 16 17  1  0  0  0  0
 16 36  1  0  0  0  0
 16 37  1  0  0  0  0
 17 18  1  0  0  0  0
 17 38  1  0  0  0  0
 17 39  1  0  0  0  0
 19 40  1  0  0  0  0
M  END
> <s_m_source_file>
AV-unprocessed.smi

> <i_m_source_file_index>
2378

> <i_lp_mmshare_version>
43012

> <i_f3d_flags>
0

> <s_epik_input>
W0NIM11jMVtjSF1bY0hdbmMoW2NIXTEpW05IXUMoPU8pW05IXVtDSDJdW0NIMl1bQ0BASF0yW0NIMl1bQ0gyXVtDSDJdW0NIMl1PMg==

> <s_epik_cmdline>
J2VwaWtfcHl0aG9uJywgJy1waCcsICc3LjAnLCAnLXRuJywgJzgnLCAnLW1hJywgJzIwMCcsICctbWV0YWxfYmluZGluZycsICctaW1hZScsICc8aW5maWxlLm1hZT4nLCAnLW9tYWUnLCAnPG91dGZpbGUubWFlPic=

> <r_lp_tautomer_probability>
1

> <r_epik_Ionization_Penalty>
8.60919e-05

> <r_epik_Ionization_Penalty_Charging>
0

> <r_epik_Ionization_Penalty_Neutral>
8.60919e-05

> <r_epik_State_Penalty>
-0

> <r_epik_Charging_Adjusted_Penalty>
0

> <i_epik_Tot_Q>
0

> <i_epik_Tot_abs_Q>
0

> <r_epik_Metal_State_Penalty>
-0

> <b_epik_Metal_Only>
0

> <s_lp_Force_Field>
OPLS_2005

> <r_lp_Energy>
11.3516

> <b_lp_Chiralities_Consistent>
1

> <s_lp_Variant>
AV-unprocessed.smi:2378-1

> <Gold.Version>
5.8.1

> <Gold.Id.Protein>
6NUR|6NUR_protein|mol2

> <Gold.PLP.Fitness>
41.8691

> <Gold.PLP.PLP>
-34.5334

> <Gold.PLP.part.hbond>
-2.0000

> <Gold.PLP.part.metal>
0.0000

> <Gold.PLP.part.buried>
-4.1328

> <Gold.PLP.part.nonpolar>
-30.8030

> <Gold.PLP.part.repulsive>
1.2144

> <Gold.PLP.ligand.clash>
0.0000

> <Gold.PLP.ligand.torsion>
0.6933

> <Gold.PLP.Chemscore.Hbond>
1.9600

> <Gold.PLP.Chemscore.CHOScore>
0.9440

> <Gold.PLP.Chemscore.Metal>
0.0000

> <Gold.Chemscore.Hbonds>
donor molecule, donor type, donor heavy atom, donor atom, acceptor molecule, acceptor atom, score
      L1  H     7    25       P1  7948  1.00
      L1  H    10    26       P1  7948  0.96
      L1  C     4    24       P1 10957  0.96

> <Gold.PLP.Chemscore.Internal.Correction>
0.0105

> <Gold.Rescore>
     Score         DG    S(hbond)    S(metal)    S(lipo)     H(rot)  DE(clash)    DE(int)     intcor
     17.20     -18.70       1.93        0.00      88.92       1.42       0.11       1.39       ----

> <Gold.Chemscore.Fitness>
17.1964

> <Gold.Chemscore.DG>
-18.6959

> <Gold.Chemscore.ZeroCoef>
-5.4800

> <Gold.Chemscore.Hbond>
1.9339

> <Gold.Chemscore.Metal>
0.0000

> <Gold.Chemscore.Lipo>
88.9246

> <Gold.Chemscore.Internal_Hbond>
0.0000

> <Gold.Chemscore.DEClash>
0.1071

> <Gold.Chemscore.DEInternal>
1.3925

> <Gold.Chemscore.Rot>
1.4248

> <Gold.Chemscore.Internal.Correction>
   9.000000E+99

> <Gold.Chemscore.Hbonds>
donor molecule, donor type, donor heavy atom, donor atom, acceptor molecule, acceptor atom, score
      L1  H     7    25       P1  7948  0.97
      L1  H    10    26       P1  7948  0.92

> <Gold.Chemscore.Hbond.Weighted>
-6.4594

> <Gold.Chemscore.Metal.Weighted>
-0.0000

> <Gold.Chemscore.Lipo.Weighted>
-10.4042

> <Gold.Chemscore.Internal_Hbond.Weighted>
0.0000

> <Gold.Chemscore.DEClash.Weighted>
0.1071

> <Gold.Chemscore.DEInternal.Weighted>
1.3925

> <Gold.Chemscore.Rot.Weighted>
3.6476

> <Gold.Chemscore.Internal.Correction.Weighted>
   9.000000E+99

> <Gold.Protein.RotatedTorsions>
[ 6907 6896 6895 6894 ] final -128.12 input  -60.11 | X-H torsion
[ 7974 7965 7964 7962 ] final  142.15 input  175.53 | X-H torsion
[ 8008 7997 7996 7995 ] final  -10.40 input   59.86 | X-H torsion
[ 10167 10162 10161 10158 ] final   31.78 input  -65.29 | X-H torsion
[ 10718 10713 10712 10709 ] final  -43.39 input   66.30 | X-H torsion
[ 10763 10752 10751 10750 ] final  166.67 input  -60.55 | X-H torsion
[ 11005 11000 10999 10996 ] final   55.08 input  -57.11 | X-H torsion

> <Gold.Protein.ActiveResidues>
 VAL166  LYS551  ARG553  GLY616  TRP617  ASP618  TYR619  PRO620  LYS621  CYS622 
 ASP623  PHE694  ASN695  SER759  ASP760  ASP761  ALA762  ILE779  LEU786  VAL792 
 PHE793  MET794  SER795  GLU796  ALA797  LYS798  CYS799  TRP800  GLU811  SER814 

> <Gold.Protein.RotatedAtoms>
  150.9145  133.6956  159.2846 H   0  0  0  0  0  0  0  0  0  0  0  0  # atno 6907 bound_to 6896
  151.4432  135.1021  159.9686 H   0  0  0  0  0  0  0  0  0  0  0  0  # atno 6908 bound_to 6896
  152.4947  133.8548  159.7275 H   0  0  0  0  0  0  0  0  0  0  0  0  # atno 6909 bound_to 6896
  144.9033  139.5393  143.5743 H   0  0  0  0  0  0  0  0  0  0  0  0  # atno 7974 bound_to 7965
  154.5558  140.2330  155.8412 H   0  0  0  0  0  0  0  0  0  0  0  0  # atno 8008 bound_to 7997
  156.1987  140.3058  155.9441 H   0  0  0  0  0  0  0  0  0  0  0  0  # atno 8009 bound_to 7997
  155.2982  140.0430  157.3018 H   0  0  0  0  0  0  0  0  0  0  0  0  # atno 8010 bound_to 7997
  140.4558  144.0980  150.6201 H   0  0  0  0  0  0  0  0  0  0  0  0  # atno 10167 bound_to 10162
  156.2495  130.4187  149.8666 H   0  0  0  0  0  0  0  0  0  0  0  0  # atno 10718 bound_to 10713
  154.3424  135.2754  155.2415 H   0  0  0  0  0  0  0  0  0  0  0  0  # atno 10763 bound_to 10752
  154.4680  135.5890  153.6305 H   0  0  0  0  0  0  0  0  0  0  0  0  # atno 10764 bound_to 10752
  152.9856  135.6081  154.3627 H   0  0  0  0  0  0  0  0  0  0  0  0  # atno 10765 bound_to 10752
  140.0635  134.5568  155.9125 H   0  0  0  0  0  0  0  0  0  0  0  0  # atno 11005 bound_to 11000
  146.3120  139.7780  142.9012 LP  0  0  0  0  0  0  0  0  0  0  0  0  # atno 17320 bound_to 7965
  145.3579  141.0320  143.3301 LP  0  0  0  0  0  0  0  0  0  0  0  0  # atno 17321 bound_to 7965
  140.4152  143.2637  151.9783 LP  0  0  0  0  0  0  0  0  0  0  0  0  # atno 17342 bound_to 10162
  139.4801  144.5880  151.7821 LP  0  0  0  0  0  0  0  0  0  0  0  0  # atno 17343 bound_to 10162
  156.6220  130.8630  151.3477 LP  0  0  0  0  0  0  0  0  0  0  0  0  # atno 17370 bound_to 10713
  157.7208  130.9556  150.1433 LP  0  0  0  0  0  0  0  0  0  0  0  0  # atno 17371 bound_to 10713
  141.1983  133.6601  156.5786 LP  0  0  0  0  0  0  0  0  0  0  0  0  # atno 17394 bound_to 11000
  140.3733  134.7586  157.4613 LP  0  0  0  0  0  0  0  0  0  0  0  0  # atno 17395 bound_to 11000

$$$$
