#       Name:                AV-unprocessed.smi:83
#       Creating user name   scv26
#       Creation time:       Thu Mar 26 17:19:50 2020


#       File generated by GOLD software.
#

@<TRIPOS>MOLECULE
AV-unprocessed.smi:83
    65    68     1
SMALL
NO_CHARGES


@<TRIPOS>ATOM
      1 ****        -0.4172  -2.6217  -2.0918 C.3            1 S1                 0.0000
      2 ****        -1.6722  -3.0248  -1.3153 C.2            1 S1                 0.0000
      3 ****        -1.6146  -3.9839  -0.5464 O.2            1 S1                 0.0000
      4 ****        -2.8021  -2.3132  -1.5020 N.am           1 S1                 0.0000
      5 ****        -4.0639  -2.5973  -0.8237 C.3            1 S1                 0.0000
      6 ****        -5.0681  -1.5881  -1.3891 C.3            1 S1                 0.0000
      7 ****        -4.2074  -0.4135  -1.8536 C.3            1 S1                 0.0000
      8 ****        -3.9690   0.5687  -0.6803 C.3            1 S1                 0.0000
      9 ****        -3.1784   1.7487  -1.0350 N.pl3          1 S1                 0.0000
     10 ****        -3.8473   2.7850  -1.8194 C.3            1 S1                 0.0000
     11 ****        -1.8120   1.7200  -1.0128 C.ar           1 S1                 0.0000
     12 ****        -1.1403   2.5315  -1.8755 N.ar           1 S1                 0.0000
     13 ****         0.1932   2.5226  -1.9362 C.ar           1 S1                 0.0000
     14 ****         1.0528   1.7870  -1.2333 N.ar           1 S1                 0.0000
     15 ****         0.3998   0.9783  -0.3528 C.ar           1 S1                 0.0000
     16 ****        -1.0120   0.8848  -0.1689 C.ar           1 S1                 0.0000
     17 ****        -1.2761  -0.0437   0.8344 N.2            1 S1                 0.0000
     18 ****        -0.1050  -0.4825   1.2021 C.2            1 S1                 0.0000
     19 ****         0.9577   0.0786   0.5369 N.pl3          1 S1                 0.0000
     20 ****         2.3644  -0.2176   0.7377 C.3            1 S1                 0.0000
     21 ****         3.0663   0.8413   1.6094 C.3            1 S1                 0.0000
     22 ****         2.4512   0.9294   2.8819 O.3            1 S1                 0.0000
     23 ****         4.5807   0.5900   1.7583 C.3            1 S1                 0.0000
     24 ****         5.3290   1.5608   2.6881 C.3            1 S1                 0.0000
     25 ****         5.8698   0.6602   3.7829 C.3            1 S1                 0.0000
     26 ****         5.9904  -0.6809   3.0717 C.3            1 S1                 0.0000
     27 ****         4.8270  -0.7211   2.2617 O.3            1 S1                 0.0000
     28 ****        -2.9440  -1.1334  -2.3516 C.3            1 S1                 0.0000
     29 ****        -0.6261  -2.5543  -3.1598 H              1 S1                 0.0000
     30 ****         0.3755  -3.3571  -1.9506 H              1 S1                 0.0000
     31 ****        -0.0452  -1.6573  -1.7467 H              1 S1                 0.0000
     32 ****        -4.3921  -3.6245  -0.9893 H              1 S1                 0.0000
     33 ****        -3.9346  -2.4502   0.2498 H              1 S1                 0.0000
     34 ****        -5.5754  -2.0269  -2.2492 H              1 S1                 0.0000
     35 ****        -5.8354  -1.3062  -0.6672 H              1 S1                 0.0000
     36 ****        -4.6950   0.1187  -2.6712 H              1 S1                 0.0000
     37 ****        -4.9399   0.9319  -0.3418 H              1 S1                 0.0000
     38 ****        -3.5732   0.0479   0.1848 H              1 S1                 0.0000
     39 ****        -3.4907   3.7765  -1.5378 H              1 S1                 0.0000
     40 ****        -4.9251   2.7647  -1.6561 H              1 S1                 0.0000
     41 ****        -3.6673   2.6386  -2.8850 H              1 S1                 0.0000
     42 ****         0.6332   3.1979  -2.6550 H              1 S1                 0.0000
     43 ****         0.0163  -1.2288   1.9737 H              1 S1                 0.0000
     44 ****         2.4489  -1.2065   1.1901 H              1 S1                 0.0000
     45 ****         2.8428  -0.2804  -0.2403 H              1 S1                 0.0000
     46 ****         2.9376   1.8160   1.1369 H              1 S1                 0.0000
     47 ****         2.8814   1.6105   3.3759 H              1 S1                 0.0000
     48 ****         5.0397   0.6420   0.7695 H              1 S1                 0.0000
     49 ****         6.1540   2.0262   2.1472 H              1 S1                 0.0000
     50 ****         4.7046   2.3623   3.0837 H              1 S1                 0.0000
     51 ****         6.8145   1.0105   4.1993 H              1 S1                 0.0000
     52 ****         5.1450   0.5839   4.5945 H              1 S1                 0.0000
     53 ****         6.8785  -0.7079   2.4381 H              1 S1                 0.0000
     54 ****         6.0303  -1.5244   3.7611 H              1 S1                 0.0000
     55 ****        -2.0631  -0.4964  -2.3574 H              1 S1                 0.0000
     56 ****        -3.0927  -1.4740  -3.3771 H              1 S1                 0.0000
     57 ****        -0.7569  -4.4862  -0.4369 LP             1 S1                 0.0000
     58 ****        -2.4255  -4.2609  -0.0310 LP             1 S1                 0.0000
     59 ****        -1.6551   3.1451  -2.4742 LP             1 S1                 0.0000
     60 ****         2.0466   1.8236  -1.3381 LP             1 S1                 0.0000
     61 ****        -2.1689  -0.3147   1.1943 LP             1 S1                 0.0000
     62 ****         2.5413   0.0565   3.3615 LP             1 S1                 0.0000
     63 ****         1.4823   1.1518   2.7737 LP             1 S1                 0.0000
     64 ****         4.9678  -1.3538   1.5003 LP             1 S1                 0.0000
     65 ****         4.0462  -1.0250   2.8077 LP             1 S1                 0.0000
@<TRIPOS>BOND
    1    1    2 1     
    2    1   29 1     
    3    1   30 1     
    4    1   31 1     
    5    2    3 2     
    6    2    4 am    
    7    4   28 1     
    8    4    5 1     
    9    5    6 1     
   10    5   32 1     
   11    5   33 1     
   12    6    7 1     
   13    6   34 1     
   14    6   35 1     
   15    7    8 1     
   16    7   28 1     
   17    7   36 1     
   18    8    9 1     
   19    8   37 1     
   20    8   38 1     
   21    9   10 1     
   22    9   11 1     
   23   10   39 1     
   24   10   40 1     
   25   10   41 1     
   26   11   16 ar    
   27   11   12 ar    
   28   12   13 ar    
   29   13   14 ar    
   30   13   42 1     
   31   14   15 ar    
   32   15   19 1     
   33   15   16 ar    
   34   16   17 1     
   35   17   18 2     
   36   18   19 1     
   37   18   43 1     
   38   19   20 1     
   39   20   21 1     
   40   20   44 1     
   41   20   45 1     
   42   21   22 1     
   43   21   23 1     
   44   21   46 1     
   45   22   47 1     
   46   23   27 1     
   47   23   24 1     
   48   23   48 1     
   49   24   25 1     
   50   24   49 1     
   51   24   50 1     
   52   25   26 1     
   53   25   51 1     
   54   25   52 1     
   55   26   27 1     
   56   26   53 1     
   57   26   54 1     
   58   28   55 1     
   59   28   56 1     
   60    3   57 1     
   61    3   58 1     
   62   12   59 1     
   63   14   60 1     
   64   17   61 1     
   65   22   62 1     
   66   22   63 1     
   67   27   64 1     
   68   27   65 1     
@<TRIPOS>SUBSTRUCTURE
      1 S1             1
@<TRIPOS>SET
LONE_PAIRS      STATIC     ATOMS    <user>   **** ""
9 57 58 59 60 61 62 63 64 65
DONOR_HYDROGENS      STATIC     ATOMS    <user>   **** ""
1 47
ATOM$BLUE        STATIC     ATOMS    COLORGROUP SYSTEM
9 57 58 59 60 61 62 63 64 65
ATOM$RED        STATIC     ATOMS    COLORGROUP SYSTEM
1 47
