AV-unprocessed.smi:1684|AV-procd|sdf|6754|dock7
  -GOLD-   22720 7513D 1   1.00000     0.00000
 Structure written by MMmdl.
 42 43  0  0  0  0  0  0  0  0  1 V2000
  145.1638  135.6710  151.1125 C   0  0  0  0  0  0  0  0  0  0  0  0
  143.9466  135.4851  152.0038 C   0  0  0  0  0  0  0  0  0  0  0  0
  143.2119  134.2828  151.9265 C   0  0  0  0  0  0  0  0  0  0  0  0
  142.0858  134.1129  152.7499 C   0  0  0  0  0  0  0  0  0  0  0  0
  141.7393  135.1601  153.6207 C   0  0  0  0  0  0  0  0  0  0  0  0
  142.4359  136.3119  153.7014 N   0  0  0  0  0  0  0  0  0  0  0  0
  143.5261  136.4920  152.9140 C   0  0  0  0  0  0  0  0  0  0  0  0
  144.3123  137.6780  152.9498 N   0  0  0  0  0  0  0  0  0  0  0  0
  145.5931  137.8226  153.3325 C   0  0  0  0  0  0  0  0  0  0  0  0
  146.3179  136.9186  153.7497 O   0  0  0  0  0  0  0  0  0  0  0  0
  145.9898  139.0984  153.2114 N   0  0  0  0  0  0  0  0  0  0  0  0
  147.3017  139.6264  153.5830 C   0  0  1  0  0  0  0  0  0  0  0  0
  147.3172  141.1459  153.3683 C   0  0  0  0  0  0  0  0  0  0  0  0
  147.6223  139.2614  155.0477 C   0  0  0  0  0  0  0  0  0  0  0  0
  149.0382  139.3078  155.4171 N   0  0  0  0  0  0  0  0  0  0  0  0
  149.9025  138.6594  154.4329 C   0  0  0  0  0  0  0  0  0  0  0  0
  151.3857  138.7368  154.8348 C   0  0  0  0  0  0  0  0  0  0  0  0
  151.7608  140.0973  155.0247 O   0  0  0  0  0  0  0  0  0  0  0  0
  150.9698  140.7520  156.0110 C   0  0  0  0  0  0  0  0  0  0  0  0
  149.4860  140.6823  155.6107 C   0  0  0  0  0  0  0  0  0  0  0  0
  145.3321  134.7971  150.4826 H   0  0  0  0  0  0  0  0  0  0  0  0
  146.0587  135.8269  151.7157 H   0  0  0  0  0  0  0  0  0  0  0  0
  145.0299  136.5340  150.4597 H   0  0  0  0  0  0  0  0  0  0  0  0
  143.5057  133.4979  151.2449 H   0  0  0  0  0  0  0  0  0  0  0  0
  141.5029  133.2044  152.7148 H   0  0  0  0  0  0  0  0  0  0  0  0
  140.8811  135.0713  154.2702 H   0  0  0  0  0  0  0  0  0  0  0  0
  143.8402  138.5171  152.6480 H   0  0  0  0  0  0  0  0  0  0  0  0
  145.3203  139.7680  152.8619 H   0  0  0  0  0  0  0  0  0  0  0  0
  148.0774  139.2108  152.9393 H   0  0  0  0  0  0  0  0  0  0  0  0
  148.2926  141.5657  153.6149 H   0  0  0  0  0  0  0  0  0  0  0  0
  146.5734  141.6447  153.9904 H   0  0  0  0  0  0  0  0  0  0  0  0
  147.1049  141.3972  152.3284 H   0  0  0  0  0  0  0  0  0  0  0  0
  147.0514  139.9096  155.7145 H   0  0  0  0  0  0  0  0  0  0  0  0
  147.2488  138.2520  155.2268 H   0  0  0  0  0  0  0  0  0  0  0  0
  149.6299  137.6110  154.3195 H   0  0  0  0  0  0  0  0  0  0  0  0
  149.7677  139.1265  153.4561 H   0  0  0  0  0  0  0  0  0  0  0  0
  151.5667  138.1706  155.7496 H   0  0  0  0  0  0  0  0  0  0  0  0
  152.0125  138.2990  154.0575 H   0  0  0  0  0  0  0  0  0  0  0  0
  151.1299  140.2859  156.9846 H   0  0  0  0  0  0  0  0  0  0  0  0
  151.2911  141.7903  156.0951 H   0  0  0  0  0  0  0  0  0  0  0  0
  149.3326  141.2544  154.6942 H   0  0  0  0  0  0  0  0  0  0  0  0
  148.8832  141.1630  156.3821 H   0  0  0  0  0  0  0  0  0  0  0  0
  1  2  1  0  0  0  0
  1 21  1  0  0  0  0
  1 22  1  0  0  0  0
  1 23  1  0  0  0  0
  2  7  1  0  0  0  0
  2  3  2  0  0  0  0
  3  4  1  0  0  0  0
  3 24  1  0  0  0  0
  4  5  2  0  0  0  0
  4 25  1  0  0  0  0
  5  6  1  0  0  0  0
  5 26  1  0  0  0  0
  6  7  2  0  0  0  0
  7  8  1  0  0  0  0
  8  9  1  0  0  0  0
  8 27  1  0  0  0  0
  9 10  2  0  0  0  0
  9 11  1  0  0  0  0
 11 12  1  0  0  0  0
 11 28  1  0  0  0  0
 12 13  1  0  0  0  0
 12 14  1  0  0  0  0
 12 29  1  0  0  0  0
 13 30  1  0  0  0  0
 13 31  1  0  0  0  0
 13 32  1  0  0  0  0
 14 15  1  0  0  0  0
 14 33  1  0  0  0  0
 14 34  1  0  0  0  0
 15 20  1  0  0  0  0
 15 16  1  0  0  0  0
 16 17  1  0  0  0  0
 16 35  1  0  0  0  0
 16 36  1  0  0  0  0
 17 18  1  0  0  0  0
 17 37  1  0  0  0  0
 17 38  1  0  0  0  0
 18 19  1  0  0  0  0
 19 20  1  0  0  0  0
 19 39  1  0  0  0  0
 19 40  1  0  0  0  0
 20 41  1  0  0  0  0
 20 42  1  0  0  0  0
M  END
> <s_m_source_file>
AV-unprocessed.smi

> <i_m_source_file_index>
1684

> <i_lp_mmshare_version>
43012

> <i_f3d_flags>
0

> <s_epik_input>
W0NIM11jMVtjSF1bY0hdW2NIXW5jMVtOSF1DKD1PKVtOSF1bQ0BIXShbQ0gzXSlbQ0gyXU4yW0NIMl1bQ0gyXU9bQ0gyXVtDSDJdMg==

> <s_epik_cmdline>
J2VwaWtfcHl0aG9uJywgJy1waCcsICc3LjAnLCAnLXRuJywgJzgnLCAnLW1hJywgJzIwMCcsICctbWV0YWxfYmluZGluZycsICctaW1hZScsICc8aW5maWxlLm1hZT4nLCAnLW9tYWUnLCAnPG91dGZpbGUubWFlPic=

> <r_epik_Ionization_Penalty>
0.26605

> <r_epik_Ionization_Penalty_Charging>
0

> <r_epik_Ionization_Penalty_Neutral>
0.26605

> <r_epik_State_Penalty>
0.257924

> <r_epik_Charging_Adjusted_Penalty>
0.257924

> <i_epik_Tot_Q>
0

> <i_epik_Tot_abs_Q>
0

> <r_epik_Metal_State_Penalty>
0.257922

> <b_epik_Metal_Only>
0

> <s_lp_Force_Field>
OPLS_2005

> <r_lp_Energy>
28.5554

> <b_lp_Chiralities_Consistent>
1

> <s_lp_Variant>
AV-unprocessed.smi:1684-2

> <Gold.Version>
5.8.1

> <Gold.Id.Protein>
6NUR|6NUR_protein|mol2

> <Gold.PLP.Fitness>
43.4028

> <Gold.PLP.PLP>
-33.5188

> <Gold.PLP.part.hbond>
-2.9991

> <Gold.PLP.part.metal>
0.0000

> <Gold.PLP.part.buried>
-5.1764

> <Gold.PLP.part.nonpolar>
-27.3107

> <Gold.PLP.part.repulsive>
0.2963

> <Gold.PLP.ligand.clash>
0.0000

> <Gold.PLP.ligand.torsion>
0.9377

> <Gold.PLP.Chemscore.Hbond>
2.9440

> <Gold.PLP.Chemscore.CHOScore>
0.9597

> <Gold.PLP.Chemscore.Metal>
0.0000

> <Gold.Chemscore.Hbonds>
donor molecule, donor type, donor heavy atom, donor atom, acceptor molecule, acceptor atom, score
      L1  H     8    27       P1 10175  1.00
      L1  H    11    28       P1 10175  1.00
      P1  H  7989  7998       L1    18  0.94
      L1  C     5    26       P1 11000  0.79

> <Gold.PLP.Chemscore.Internal.Correction>
0.0483

> <Gold.Rescore>
     Score         DG    S(hbond)    S(metal)    S(lipo)     H(rot)  DE(clash)    DE(int)     intcor
     17.05     -19.08       2.59        0.00      74.09       1.46       0.11       1.92       ----

> <Gold.Chemscore.Fitness>
17.0538

> <Gold.Chemscore.DG>
-19.0813

> <Gold.Chemscore.ZeroCoef>
-5.4800

> <Gold.Chemscore.Hbond>
2.5946

> <Gold.Chemscore.Metal>
0.0000

> <Gold.Chemscore.Lipo>
74.0867

> <Gold.Chemscore.Internal_Hbond>
0.0000

> <Gold.Chemscore.DEClash>
0.1079

> <Gold.Chemscore.DEInternal>
1.9196

> <Gold.Chemscore.Rot>
1.4581

> <Gold.Chemscore.Internal.Correction>
   9.000000E+99

> <Gold.Chemscore.Hbonds>
donor molecule, donor type, donor heavy atom, donor atom, acceptor molecule, acceptor atom, score
      L1  H     8    27       P1 10175  0.97
      L1  H    11    28       P1 10175  0.99
      P1  H  7989  7998       L1    18  0.49

> <Gold.Chemscore.Hbond.Weighted>
-8.6659

> <Gold.Chemscore.Metal.Weighted>
-0.0000

> <Gold.Chemscore.Lipo.Weighted>
-8.6681

> <Gold.Chemscore.Internal_Hbond.Weighted>
0.0000

> <Gold.Chemscore.DEClash.Weighted>
0.1079

> <Gold.Chemscore.DEInternal.Weighted>
1.9196

> <Gold.Chemscore.Rot.Weighted>
3.7327

> <Gold.Chemscore.Internal.Correction.Weighted>
   9.000000E+99

> <Gold.Protein.RotatedTorsions>
[ 6907 6896 6895 6894 ] final -103.03 input  -60.11 | X-H torsion
[ 7974 7965 7964 7962 ] final  128.66 input  175.53 | X-H torsion
[ 8008 7997 7996 7995 ] final  -90.30 input   59.86 | X-H torsion
[ 10167 10162 10161 10158 ] final   -0.35 input  -65.29 | X-H torsion
[ 10718 10713 10712 10709 ] final  -89.24 input   66.30 | X-H torsion
[ 10763 10752 10751 10750 ] final  162.11 input  -60.55 | X-H torsion
[ 11005 11000 10999 10996 ] final  -92.42 input  -57.11 | X-H torsion

> <Gold.Protein.ActiveResidues>
 VAL166  LYS551  ARG553  GLY616  TRP617  ASP618  TYR619  PRO620  LYS621  CYS622 
 ASP623  PHE694  ASN695  SER759  ASP760  ASP761  ALA762  ILE779  LEU786  VAL792 
 PHE793  MET794  SER795  GLU796  ALA797  LYS798  CYS799  TRP800  GLU811  SER814 

> <Gold.Protein.RotatedAtoms>
  150.7222  134.0491  159.3791 H   0  0  0  0  0  0  0  0  0  0  0  0  # atno 6907 bound_to 6896
  151.8467  135.0569  160.0463 H   0  0  0  0  0  0  0  0  0  0  0  0  # atno 6908 bound_to 6896
  152.2821  133.5444  159.5541 H   0  0  0  0  0  0  0  0  0  0  0  0  # atno 6909 bound_to 6896
  145.0371  139.3995  143.5120 H   0  0  0  0  0  0  0  0  0  0  0  0  # atno 7974 bound_to 7965
  154.6970  140.0532  157.0420 H   0  0  0  0  0  0  0  0  0  0  0  0  # atno 8008 bound_to 7997
  155.0738  140.3202  155.4603 H   0  0  0  0  0  0  0  0  0  0  0  0  # atno 8009 bound_to 7997
  156.2747  140.2077  156.5865 H   0  0  0  0  0  0  0  0  0  0  0  0  # atno 8010 bound_to 7997
  140.6764  143.6904  150.8032 H   0  0  0  0  0  0  0  0  0  0  0  0  # atno 10167 bound_to 10162
  155.9984  130.4865  150.5141 H   0  0  0  0  0  0  0  0  0  0  0  0  # atno 10718 bound_to 10713
  154.2734  135.2765  155.2728 H   0  0  0  0  0  0  0  0  0  0  0  0  # atno 10763 bound_to 10752
  154.5282  135.5737  153.6740 H   0  0  0  0  0  0  0  0  0  0  0  0  # atno 10764 bound_to 10752
  152.9941  135.6221  154.2889 H   0  0  0  0  0  0  0  0  0  0  0  0  # atno 10765 bound_to 10752
  141.1522  133.7820  157.0017 H   0  0  0  0  0  0  0  0  0  0  0  0  # atno 11005 bound_to 11000
  146.3505  139.9952  142.8681 LP  0  0  0  0  0  0  0  0  0  0  0  0  # atno 17320 bound_to 7965
  145.1695  140.9714  143.4330 LP  0  0  0  0  0  0  0  0  0  0  0  0  # atno 17321 bound_to 7965
  140.0598  143.5166  152.2633 LP  0  0  0  0  0  0  0  0  0  0  0  0  # atno 17342 bound_to 10162
  139.6058  144.7596  151.3065 LP  0  0  0  0  0  0  0  0  0  0  0  0  # atno 17343 bound_to 10162
  157.3111  131.0664  151.2000 LP  0  0  0  0  0  0  0  0  0  0  0  0  # atno 17370 bound_to 10713
  157.2946  130.6813  149.6132 LP  0  0  0  0  0  0  0  0  0  0  0  0  # atno 17371 bound_to 10713
  140.0935  134.9578  157.1813 LP  0  0  0  0  0  0  0  0  0  0  0  0  # atno 17394 bound_to 11000
  140.3413  134.2700  155.7211 LP  0  0  0  0  0  0  0  0  0  0  0  0  # atno 17395 bound_to 11000

$$$$
