AV-unprocessed.smi:1430|AV-procd|sdf|5822|dock3
  -GOLD-   22720 5473D 1   1.00000     0.00000
 Structure written by MMmdl.
 46 47  0  0  0  0  0  0  0  0  1 V2000
  149.5977  130.2431  154.2646 C   0  0  0  0  0  0  0  0  0  0  0  0
  150.3032  130.9039  155.3096 O   0  0  0  0  0  0  0  0  0  0  0  0
  150.3521  132.2828  155.2969 C   0  0  0  0  0  0  0  0  0  0  0  0
  151.1442  132.9381  156.2600 C   0  0  0  0  0  0  0  0  0  0  0  0
  151.1936  134.3448  156.2537 C   0  0  0  0  0  0  0  0  0  0  0  0
  150.4470  135.0563  155.2931 C   0  0  0  0  0  0  0  0  0  0  0  0
  150.5301  136.4753  155.3071 N   0  0  0  0  0  0  0  0  0  0  0  0
  151.4005  137.2616  155.9639 C   0  0  0  0  0  0  0  0  0  0  0  0
  152.3147  136.8672  156.6870 O   0  0  0  0  0  0  0  0  0  0  0  0
  151.1599  138.5572  155.7188 N   0  0  0  0  0  0  0  0  0  0  0  0
  151.9294  139.6702  156.2612 C   0  0  0  0  0  0  0  0  0  0  0  0
  151.0103  140.8312  156.6845 C   0  0  0  0  0  0  0  0  0  0  0  0
  151.6619  141.8822  157.4646 N   0  0  0  0  0  0  0  0  0  0  0  0
  150.8285  143.0733  157.6108 C   0  0  0  0  0  0  0  0  0  0  0  0
  151.5168  144.1602  158.4592 C   0  0  1  0  0  0  0  0  0  0  0  0
  150.6113  145.3746  158.6893 C   0  0  0  0  0  0  0  0  0  0  0  0
  151.8642  143.6137  159.7285 O   0  0  0  0  0  0  0  0  0  0  0  0
  152.7201  142.4783  159.6361 C   0  0  1  0  0  0  0  0  0  0  0  0
  153.0343  141.9938  161.0555 C   0  0  0  0  0  0  0  0  0  0  0  0
  152.0244  141.3946  158.7906 C   0  0  0  0  0  0  0  0  0  0  0  0
  149.6919  134.3056  154.3587 C   0  0  0  0  0  0  0  0  0  0  0  0
  149.6411  132.9562  154.3593 N   0  0  0  0  0  0  0  0  0  0  0  0
  149.6504  129.1657  154.4197 H   0  0  0  0  0  0  0  0  0  0  0  0
  150.0361  130.4584  153.2892 H   0  0  0  0  0  0  0  0  0  0  0  0
  148.5437  130.5245  154.2537 H   0  0  0  0  0  0  0  0  0  0  0  0
  151.7037  132.3720  156.9901 H   0  0  0  0  0  0  0  0  0  0  0  0
  151.7957  134.8684  156.9822 H   0  0  0  0  0  0  0  0  0  0  0  0
  149.8805  136.9501  154.6976 H   0  0  0  0  0  0  0  0  0  0  0  0
  150.3897  138.7917  155.1098 H   0  0  0  0  0  0  0  0  0  0  0  0
  152.5352  139.3346  157.1046 H   0  0  0  0  0  0  0  0  0  0  0  0
  152.6240  139.9886  155.4846 H   0  0  0  0  0  0  0  0  0  0  0  0
  150.5409  141.2662  155.8008 H   0  0  0  0  0  0  0  0  0  0  0  0
  150.1969  140.4123  157.2788 H   0  0  0  0  0  0  0  0  0  0  0  0
  150.5960  143.4934  156.6329 H   0  0  0  0  0  0  0  0  0  0  0  0
  149.8764  142.8023  158.0700 H   0  0  0  0  0  0  0  0  0  0  0  0
  152.4270  144.4927  157.9573 H   0  0  0  0  0  0  0  0  0  0  0  0
  150.3275  145.8368  157.7435 H   0  0  0  0  0  0  0  0  0  0  0  0
  151.1179  146.1307  159.2897 H   0  0  0  0  0  0  0  0  0  0  0  0
  149.6970  145.0915  159.2118 H   0  0  0  0  0  0  0  0  0  0  0  0
  153.6525  142.7764  159.1533 H   0  0  0  0  0  0  0  0  0  0  0  0
  153.6979  141.1290  161.0367 H   0  0  0  0  0  0  0  0  0  0  0  0
  152.1252  141.7068  161.5851 H   0  0  0  0  0  0  0  0  0  0  0  0
  153.5247  142.7767  161.6346 H   0  0  0  0  0  0  0  0  0  0  0  0
  151.1308  141.0465  159.3114 H   0  0  0  0  0  0  0  0  0  0  0  0
  152.6855  140.5321  158.6972 H   0  0  0  0  0  0  0  0  0  0  0  0
  149.1228  134.7735  153.5712 H   0  0  0  0  0  0  0  0  0  0  0  0
  1  2  1  0  0  0  0
  1 23  1  0  0  0  0
  1 24  1  0  0  0  0
  1 25  1  0  0  0  0
  2  3  1  0  0  0  0
  3 22  1  0  0  0  0
  3  4  2  0  0  0  0
  4  5  1  0  0  0  0
  4 26  1  0  0  0  0
  5  6  2  0  0  0  0
  5 27  1  0  0  0  0
  6  7  1  0  0  0  0
  6 21  1  0  0  0  0
  7  8  1  0  0  0  0
  7 28  1  0  0  0  0
  8  9  2  0  0  0  0
  8 10  1  0  0  0  0
 10 11  1  0  0  0  0
 10 29  1  0  0  0  0
 11 12  1  0  0  0  0
 11 30  1  0  0  0  0
 11 31  1  0  0  0  0
 12 13  1  0  0  0  0
 12 32  1  0  0  0  0
 12 33  1  0  0  0  0
 13 20  1  0  0  0  0
 13 14  1  0  0  0  0
 14 15  1  0  0  0  0
 14 34  1  0  0  0  0
 14 35  1  0  0  0  0
 15 16  1  0  0  0  0
 15 17  1  0  0  0  0
 15 36  1  0  0  0  0
 16 37  1  0  0  0  0
 16 38  1  0  0  0  0
 16 39  1  0  0  0  0
 17 18  1  0  0  0  0
 18 19  1  0  0  0  0
 18 20  1  0  0  0  0
 18 40  1  0  0  0  0
 19 41  1  0  0  0  0
 19 42  1  0  0  0  0
 19 43  1  0  0  0  0
 20 44  1  0  0  0  0
 20 45  1  0  0  0  0
 21 22  2  0  0  0  0
 21 46  1  0  0  0  0
M  END
> <s_m_source_file>
AV-unprocessed.smi

> <i_m_source_file_index>
1430

> <i_lp_mmshare_version>
43012

> <i_f3d_flags>
0

> <s_epik_input>
W0NIM11PYzFbY0hdW2NIXWMoW2NIXW4xKVtOSF1DKD1PKVtOSF1bQ0gyXVtDSDJdTjJbQ0gyXVtDQEBIXShbQ0gzXSlPW0NAQEhdKFtDSDNdKVtDSDJdMg==

> <s_epik_cmdline>
J2VwaWtfcHl0aG9uJywgJy1waCcsICc3LjAnLCAnLXRuJywgJzgnLCAnLW1hJywgJzIwMCcsICctbWV0YWxfYmluZGluZycsICctaW1hZScsICc8aW5maWxlLm1hZT4nLCAnLW9tYWUnLCAnPG91dGZpbGUubWFlPic=

> <r_lp_tautomer_probability>
1

> <r_epik_Ionization_Penalty>
0.266083

> <r_epik_Ionization_Penalty_Charging>
0

> <r_epik_Ionization_Penalty_Neutral>
0.266083

> <r_epik_State_Penalty>
0.257924

> <r_epik_Charging_Adjusted_Penalty>
0.257924

> <i_epik_Tot_Q>
0

> <i_epik_Tot_abs_Q>
0

> <r_epik_Metal_State_Penalty>
0.257922

> <b_epik_Metal_Only>
0

> <s_lp_Force_Field>
OPLS_2005

> <r_lp_Energy>
23.3408

> <b_lp_Chiralities_Consistent>
1

> <s_lp_Variant>
AV-unprocessed.smi:1430-1

> <Gold.Version>
5.8.1

> <Gold.Id.Protein>
6NUR|6NUR_protein|mol2

> <Gold.PLP.Fitness>
44.3510

> <Gold.PLP.PLP>
-38.8913

> <Gold.PLP.part.hbond>
-1.0000

> <Gold.PLP.part.metal>
0.0000

> <Gold.PLP.part.buried>
-4.5433

> <Gold.PLP.part.nonpolar>
-34.0543

> <Gold.PLP.part.repulsive>
0.2371

> <Gold.PLP.ligand.clash>
0.0000

> <Gold.PLP.ligand.torsion>
0.2880

> <Gold.PLP.Chemscore.Hbond>
1.0000

> <Gold.PLP.Chemscore.CHOScore>
1.0000

> <Gold.PLP.Chemscore.Metal>
0.0000

> <Gold.Chemscore.Hbonds>
donor molecule, donor type, donor heavy atom, donor atom, acceptor molecule, acceptor atom, score
      P1  H 10752 10764       L1     9  0.34
      L1  C    21    46       P1  7948  0.87

> <Gold.PLP.Chemscore.Internal.Correction>
0.0358

> <Gold.Rescore>
     Score         DG    S(hbond)    S(metal)    S(lipo)     H(rot)  DE(clash)    DE(int)     intcor
     13.85     -15.56       0.97        0.00      96.00       1.71       0.00       1.71       ----

> <Gold.Chemscore.Fitness>
13.8471

> <Gold.Chemscore.DG>
-15.5604

> <Gold.Chemscore.ZeroCoef>
-5.4800

> <Gold.Chemscore.Hbond>
0.9665

> <Gold.Chemscore.Metal>
0.0000

> <Gold.Chemscore.Lipo>
95.9978

> <Gold.Chemscore.Internal_Hbond>
0.0000

> <Gold.Chemscore.DEClash>
0.0021

> <Gold.Chemscore.DEInternal>
1.7112

> <Gold.Chemscore.Rot>
1.7107

> <Gold.Chemscore.Internal.Correction>
   9.000000E+99

> <Gold.Chemscore.Hbonds>
donor molecule, donor type, donor heavy atom, donor atom, acceptor molecule, acceptor atom, score
      P1  H 10752 10764       L1     9  0.07

> <Gold.Chemscore.Hbond.Weighted>
-3.2281

> <Gold.Chemscore.Metal.Weighted>
-0.0000

> <Gold.Chemscore.Lipo.Weighted>
-11.2317

> <Gold.Chemscore.Internal_Hbond.Weighted>
0.0000

> <Gold.Chemscore.DEClash.Weighted>
0.0021

> <Gold.Chemscore.DEInternal.Weighted>
1.7112

> <Gold.Chemscore.Rot.Weighted>
4.3794

> <Gold.Chemscore.Internal.Correction.Weighted>
   9.000000E+99

> <Gold.Protein.RotatedTorsions>
[ 6907 6896 6895 6894 ] final  131.63 input  -60.11 | X-H torsion
[ 7974 7965 7964 7962 ] final -131.36 input  175.53 | X-H torsion
[ 8008 7997 7996 7995 ] final   54.85 input   59.86 | X-H torsion
[ 10167 10162 10161 10158 ] final  139.44 input  -65.29 | X-H torsion
[ 10718 10713 10712 10709 ] final   97.12 input   66.30 | X-H torsion
[ 10763 10752 10751 10750 ] final  -14.22 input  -60.55 | X-H torsion
[ 11005 11000 10999 10996 ] final    0.24 input  -57.11 | X-H torsion

> <Gold.Protein.ActiveResidues>
 VAL166  LYS551  ARG553  GLY616  TRP617  ASP618  TYR619  PRO620  LYS621  CYS622 
 ASP623  PHE694  ASN695  SER759  ASP760  ASP761  ALA762  ILE779  LEU786  VAL792 
 PHE793  MET794  SER795  GLU796  ALA797  LYS798  CYS799  TRP800  GLU811  SER814 

> <Gold.Protein.RotatedAtoms>
  152.3407  133.6063  159.5873 H   0  0  0  0  0  0  0  0  0  0  0  0  # atno 6907 bound_to 6896
  150.7477  133.9727  159.3560 H   0  0  0  0  0  0  0  0  0  0  0  0  # atno 6908 bound_to 6896
  151.7591  135.0815  160.0394 H   0  0  0  0  0  0  0  0  0  0  0  0  # atno 6909 bound_to 6896
  144.9387  140.7213  143.4860 H   0  0  0  0  0  0  0  0  0  0  0  0  # atno 7974 bound_to 7965
  155.4914  140.3471  155.4355 H   0  0  0  0  0  0  0  0  0  0  0  0  # atno 8008 bound_to 7997
  156.0974  140.1426  156.9541 H   0  0  0  0  0  0  0  0  0  0  0  0  # atno 8009 bound_to 7997
  154.4672  140.0913  156.7029 H   0  0  0  0  0  0  0  0  0  0  0  0  # atno 8010 bound_to 7997
  139.5079  144.6294  151.5855 H   0  0  0  0  0  0  0  0  0  0  0  0  # atno 10167 bound_to 10162
  157.6917  131.0599  150.4595 H   0  0  0  0  0  0  0  0  0  0  0  0  # atno 10718 bound_to 10713
  153.5250  135.7015  153.5712 H   0  0  0  0  0  0  0  0  0  0  0  0  # atno 10763 bound_to 10752
  153.3744  135.3936  155.1812 H   0  0  0  0  0  0  0  0  0  0  0  0  # atno 10764 bound_to 10752
  154.8691  135.3820  154.4742 H   0  0  0  0  0  0  0  0  0  0  0  0  # atno 10765 bound_to 10752
  140.6287  133.9594  155.8263 H   0  0  0  0  0  0  0  0  0  0  0  0  # atno 11005 bound_to 11000
  145.3026  139.1845  143.4681 LP  0  0  0  0  0  0  0  0  0  0  0  0  # atno 17320 bound_to 7965
  146.3277  140.3019  142.8621 LP  0  0  0  0  0  0  0  0  0  0  0  0  # atno 17321 bound_to 7965
  140.6022  143.9589  150.6394 LP  0  0  0  0  0  0  0  0  0  0  0  0  # atno 17342 bound_to 10162
  140.2804  143.3393  152.1156 LP  0  0  0  0  0  0  0  0  0  0  0  0  # atno 17343 bound_to 10162
  156.4940  130.4102  149.6390 LP  0  0  0  0  0  0  0  0  0  0  0  0  # atno 17370 bound_to 10713
  156.3390  130.7372  151.2314 LP  0  0  0  0  0  0  0  0  0  0  0  0  # atno 17371 bound_to 10713
  141.0690  134.0233  157.3552 LP  0  0  0  0  0  0  0  0  0  0  0  0  # atno 17394 bound_to 11000
  139.9124  135.0192  156.7747 LP  0  0  0  0  0  0  0  0  0  0  0  0  # atno 17395 bound_to 11000

$$$$
