AV-unprocessed.smi:601|AV-procd|sdf|3034|dock3
  -GOLD-   2262023553D 1   1.00000     0.00000
 Structure written by MMmdl.
 49 50  0  0  0  0  0  0  0  0  2 V2000
  151.1435  130.1289  155.2669 C   0  0  0  0  0  0  0  0  0  0  0  0
  149.9545  130.1498  154.2969 C   0  0  0  0  0  0  0  0  0  0  0  0
  149.0366  131.3704  154.4703 C   0  0  0  0  0  0  0  0  0  0  0  0
  149.7402  132.7144  154.2001 C   0  0  0  0  0  0  0  0  0  0  0  0
  148.8815  133.8635  154.5263 N   0  0  0  0  0  0  0  0  0  0  0  0
  147.7197  134.0826  153.8535 C   0  0  0  0  0  0  0  0  0  0  0  0
  146.9661  135.0125  154.1484 O   0  0  0  0  0  0  0  0  0  0  0  0
  147.3192  133.1328  152.7025 C   0  0  1  0  0  0  0  0  0  0  0  0
  146.0179  132.3379  152.9002 C   0  0  0  0  0  0  0  0  0  0  0  0
  145.4530  132.1997  151.4912 C   0  0  0  0  0  0  0  0  0  0  0  0
  146.4086  133.0139  150.6185 C   0  0  0  0  0  0  0  0  0  0  0  0
  147.0425  133.8896  151.5341 O   0  0  0  0  0  0  0  0  0  0  0  0
  149.2976  134.6788  155.5960 C   0  0  0  0  0  0  0  0  0  0  0  0
  149.8126  135.9234  155.4087 C   0  0  0  0  0  0  0  0  0  0  0  0
  149.9630  136.4482  154.1328 N   0  0  0  0  0  0  0  0  0  0  0  0
  150.2066  136.7053  156.5280 N   0  0  0  0  0  0  0  0  0  0  0  0
  150.7489  138.0636  156.2943 C   0  0  0  0  0  0  0  0  0  0  0  0
  152.2804  138.0778  156.1028 C   0  0  0  0  0  0  0  0  0  0  0  0
  152.7452  138.6526  154.7581 C   0  0  0  0  0  0  0  0  0  0  0  0
  150.0818  136.2149  157.8007 C   0  0  0  0  0  0  0  0  0  0  0  0
  150.4385  136.9082  158.7542 O   0  0  0  0  0  0  0  0  0  0  0  0
  149.5686  134.9647  157.9824 N   0  5  0  0  0  0  0  0  0  0  0  0
  149.1678  134.1614  156.9625 C   0  0  0  0  0  0  0  0  0  0  0  0
  148.7095  133.0351  157.1560 O   0  0  0  0  0  0  0  0  0  0  0  0
  151.7963  129.2811  155.0588 H   0  0  0  0  0  0  0  0  0  0  0  0
  150.8160  130.0424  156.3027 H   0  0  0  0  0  0  0  0  0  0  0  0
  151.7408  131.0369  155.1772 H   0  0  0  0  0  0  0  0  0  0  0  0
  150.3419  130.1470  153.2775 H   0  0  0  0  0  0  0  0  0  0  0  0
  149.3750  129.2321  154.4022 H   0  0  0  0  0  0  0  0  0  0  0  0
  148.1705  131.2656  153.8168 H   0  0  0  0  0  0  0  0  0  0  0  0
  148.6488  131.3666  155.4895 H   0  0  0  0  0  0  0  0  0  0  0  0
  150.6748  132.7716  154.7608 H   0  0  0  0  0  0  0  0  0  0  0  0
  150.0325  132.7678  153.1509 H   0  0  0  0  0  0  0  0  0  0  0  0
  148.1278  132.4313  152.4922 H   0  0  0  0  0  0  0  0  0  0  0  0
  146.2071  131.3680  153.3609 H   0  0  0  0  0  0  0  0  0  0  0  0
  145.2939  132.8650  153.5225 H   0  0  0  0  0  0  0  0  0  0  0  0
  145.4030  131.1608  151.1640 H   0  0  0  0  0  0  0  0  0  0  0  0
  144.4450  132.6139  151.4487 H   0  0  0  0  0  0  0  0  0  0  0  0
  147.1594  132.3701  150.1570 H   0  0  0  0  0  0  0  0  0  0  0  0
  145.8952  133.5628  149.8289 H   0  0  0  0  0  0  0  0  0  0  0  0
  149.6969  135.9265  153.3101 H   0  0  0  0  0  0  0  0  0  0  0  0
  150.4757  137.3036  153.9733 H   0  0  0  0  0  0  0  0  0  0  0  0
  150.2691  138.5058  155.4209 H   0  0  0  0  0  0  0  0  0  0  0  0
  150.4845  138.7527  157.0975 H   0  0  0  0  0  0  0  0  0  0  0  0
  152.7550  138.6343  156.9109 H   0  0  0  0  0  0  0  0  0  0  0  0
  152.6488  137.0554  156.1893 H   0  0  0  0  0  0  0  0  0  0  0  0
  153.8274  138.5724  154.6563 H   0  0  0  0  0  0  0  0  0  0  0  0
  152.4847  139.7069  154.6632 H   0  0  0  0  0  0  0  0  0  0  0  0
  152.2915  138.1173  153.9237 H   0  0  0  0  0  0  0  0  0  0  0  0
  1  2  1  0  0  0  0
  1 25  1  0  0  0  0
  1 26  1  0  0  0  0
  1 27  1  0  0  0  0
  2  3  1  0  0  0  0
  2 28  1  0  0  0  0
  2 29  1  0  0  0  0
  3  4  1  0  0  0  0
  3 30  1  0  0  0  0
  3 31  1  0  0  0  0
  4  5  1  0  0  0  0
  4 32  1  0  0  0  0
  4 33  1  0  0  0  0
  5  6  1  0  0  0  0
  5 13  1  0  0  0  0
  6  7  2  0  0  0  0
  6  8  1  0  0  0  0
  8 12  1  0  0  0  0
  8  9  1  0  0  0  0
  8 34  1  0  0  0  0
  9 10  1  0  0  0  0
  9 35  1  0  0  0  0
  9 36  1  0  0  0  0
 10 11  1  0  0  0  0
 10 37  1  0  0  0  0
 10 38  1  0  0  0  0
 11 12  1  0  0  0  0
 11 39  1  0  0  0  0
 11 40  1  0  0  0  0
 13 23  1  0  0  0  0
 13 14  2  0  0  0  0
 14 15  1  0  0  0  0
 14 16  1  0  0  0  0
 15 41  1  0  0  0  0
 15 42  1  0  0  0  0
 16 17  1  0  0  0  0
 16 20  1  0  0  0  0
 17 18  1  0  0  0  0
 17 43  1  0  0  0  0
 17 44  1  0  0  0  0
 18 19  1  0  0  0  0
 18 45  1  0  0  0  0
 18 46  1  0  0  0  0
 19 47  1  0  0  0  0
 19 48  1  0  0  0  0
 19 49  1  0  0  0  0
 20 21  2  0  0  0  0
 20 22  1  0  0  0  0
 22 23  1  0  0  0  0
 23 24  2  0  0  0  0
M  CHG  1  22  -1
M  END
> <s_m_source_file>
AV-unprocessed.smi

> <i_m_source_file_index>
601

> <i_lp_mmshare_version>
43012

> <i_f3d_flags>
0

> <s_epik_input>
TzFbQ0gyXVtDSDJdW0NIMl1bQ0BIXTFDKD1PKU4oW0NIMl1bQ0gyXVtDSDJdW0NIM10pYzJjKFtOSDJdKW4oW0NIMl1bQ0gyXVtDSDNdKWMoPU8pW25IXWMyPU8=

> <s_epik_cmdline>
J2VwaWtfcHl0aG9uJywgJy1waCcsICc3LjAnLCAnLXRuJywgJzgnLCAnLW1hJywgJzIwMCcsICctbWV0YWxfYmluZGluZycsICctaW1hZScsICc8aW5maWxlLm1hZT4nLCAnLW9tYWUnLCAnPG91dGZpbGUubWFlPic=

> <r_lp_tautomer_probability>
1

> <r_epik_Ionization_Penalty>
5.90608

> <r_epik_Ionization_Penalty_Charging>
4.55687e-07

> <r_epik_Ionization_Penalty_Neutral>
5.90608

> <r_epik_State_Penalty>
5.90604

> <r_epik_Charging_Adjusted_Penalty>
5.90604

> <i_epik_Tot_Q>
-1

> <i_epik_Tot_abs_Q>
1

> <r_epik_Metal_State_Penalty>
1.84043

> <b_epik_Metal_Only>
1

> <s_lp_Force_Field>
OPLS_2005

> <r_lp_Energy>
54.0415

> <b_lp_Chiralities_Consistent>
1

> <s_lp_Variant>
AV-unprocessed.smi:601-4

> <Gold.Version>
5.8.1

> <Gold.Id.Protein>
6NUR|6NUR_protein|mol2

> <Gold.PLP.Fitness>
37.3849

> <Gold.PLP.PLP>
-31.1561

> <Gold.PLP.part.hbond>
-3.3048

> <Gold.PLP.part.metal>
0.0000

> <Gold.PLP.part.buried>
-3.3068

> <Gold.PLP.part.nonpolar>
-25.2534

> <Gold.PLP.part.repulsive>
0.7738

> <Gold.PLP.ligand.clash>
0.0000

> <Gold.PLP.ligand.torsion>
2.2249

> <Gold.PLP.Chemscore.Hbond>
2.8406

> <Gold.PLP.Chemscore.CHOScore>
0.0000

> <Gold.PLP.Chemscore.Metal>
0.0000

> <Gold.Chemscore.Hbonds>
donor molecule, donor type, donor heavy atom, donor atom, acceptor molecule, acceptor atom, score
      L1  H    15    41       P1  7948  0.54
      P1  H  6896  6909       L1    22  2.00

> <Gold.PLP.Chemscore.Internal.Correction>
2.1568

> <Gold.Rescore>
     Score         DG    S(hbond)    S(metal)    S(lipo)     H(rot)  DE(clash)    DE(int)     intcor
     10.13     -13.02       1.44        0.00      65.34       1.92       0.05       2.85       ----

> <Gold.Chemscore.Fitness>
10.1277

> <Gold.Chemscore.DG>
-13.0237

> <Gold.Chemscore.ZeroCoef>
-5.4800

> <Gold.Chemscore.Hbond>
1.4416

> <Gold.Chemscore.Metal>
0.0000

> <Gold.Chemscore.Lipo>
65.3357

> <Gold.Chemscore.Internal_Hbond>
0.0000

> <Gold.Chemscore.DEClash>
0.0492

> <Gold.Chemscore.DEInternal>
2.8468

> <Gold.Chemscore.Rot>
1.9201

> <Gold.Chemscore.Internal.Correction>
   9.000000E+99

> <Gold.Chemscore.Hbonds>
donor molecule, donor type, donor heavy atom, donor atom, acceptor molecule, acceptor atom, score
      L1  H    15    41       P1  7948  0.05
      P1  H  6896  6909       L1    22  0.45

> <Gold.Chemscore.Hbond.Weighted>
-4.8148

> <Gold.Chemscore.Metal.Weighted>
-0.0000

> <Gold.Chemscore.Lipo.Weighted>
-7.6443

> <Gold.Chemscore.Internal_Hbond.Weighted>
0.0000

> <Gold.Chemscore.DEClash.Weighted>
0.0492

> <Gold.Chemscore.DEInternal.Weighted>
2.8468

> <Gold.Chemscore.Rot.Weighted>
4.9154

> <Gold.Chemscore.Internal.Correction.Weighted>
   9.000000E+99

> <Gold.Protein.RotatedTorsions>
[ 6907 6896 6895 6894 ] final   22.00 input  -60.11 | X-H torsion
[ 7974 7965 7964 7962 ] final  -97.61 input  175.53 | X-H torsion
[ 8008 7997 7996 7995 ] final   48.26 input   59.86 | X-H torsion
[ 10167 10162 10161 10158 ] final  125.43 input  -65.29 | X-H torsion
[ 10718 10713 10712 10709 ] final  -11.39 input   66.30 | X-H torsion
[ 10763 10752 10751 10750 ] final   98.56 input  -60.55 | X-H torsion
[ 11005 11000 10999 10996 ] final -166.00 input  -57.11 | X-H torsion

> <Gold.Protein.ActiveResidues>
 VAL166  LYS551  ARG553  GLY616  TRP617  ASP618  TYR619  PRO620  LYS621  CYS622 
 ASP623  PHE694  ASN695  SER759  ASP760  ASP761  ALA762  ILE779  LEU786  VAL792 
 PHE793  MET794  SER795  GLU796  ALA797  LYS798  CYS799  TRP800  GLU811  SER814 

> <Gold.Protein.RotatedAtoms>
  151.9205  135.0300  160.0521 H   0  0  0  0  0  0  0  0  0  0  0  0  # atno 6907 bound_to 6896
  152.2204  133.4974  159.5167 H   0  0  0  0  0  0  0  0  0  0  0  0  # atno 6908 bound_to 6896
  150.6998  134.1267  159.4097 H   0  0  0  0  0  0  0  0  0  0  0  0  # atno 6909 bound_to 6896
  145.3314  140.9442  143.2659 H   0  0  0  0  0  0  0  0  0  0  0  0  # atno 7974 bound_to 7965
  155.3827  140.3429  155.4247 H   0  0  0  0  0  0  0  0  0  0  0  0  # atno 8008 bound_to 7997
  156.1601  140.1598  156.8659 H   0  0  0  0  0  0  0  0  0  0  0  0  # atno 8009 bound_to 7997
  154.5132  140.0785  156.8012 H   0  0  0  0  0  0  0  0  0  0  0  0  # atno 8010 bound_to 7997
  139.5686  144.6926  151.3841 H   0  0  0  0  0  0  0  0  0  0  0  0  # atno 10167 bound_to 10162
  156.6597  130.4978  149.6034 H   0  0  0  0  0  0  0  0  0  0  0  0  # atno 10718 bound_to 10713
  153.2906  135.4144  155.1163 H   0  0  0  0  0  0  0  0  0  0  0  0  # atno 10763 bound_to 10752
  154.8519  135.3517  154.5986 H   0  0  0  0  0  0  0  0  0  0  0  0  # atno 10764 bound_to 10752
  153.6409  135.7057  153.5300 H   0  0  0  0  0  0  0  0  0  0  0  0  # atno 10765 bound_to 10752
  140.5694  134.5253  157.5159 H   0  0  0  0  0  0  0  0  0  0  0  0  # atno 11005 bound_to 11000
  144.8861  139.4837  143.6700 LP  0  0  0  0  0  0  0  0  0  0  0  0  # atno 17320 bound_to 7965
  146.3044  139.7531  142.9067 LP  0  0  0  0  0  0  0  0  0  0  0  0  # atno 17321 bound_to 7965
  140.6970  143.7724  150.7343 LP  0  0  0  0  0  0  0  0  0  0  0  0  # atno 17342 bound_to 10162
  140.1223  143.4600  152.2305 LP  0  0  0  0  0  0  0  0  0  0  0  0  # atno 17343 bound_to 10162
  156.2021  130.6626  151.1178 LP  0  0  0  0  0  0  0  0  0  0  0  0  # atno 17370 bound_to 10713
  157.7114  131.0732  150.6488 LP  0  0  0  0  0  0  0  0  0  0  0  0  # atno 17371 bound_to 10713
  139.9369  134.7859  156.0780 LP  0  0  0  0  0  0  0  0  0  0  0  0  # atno 17394 bound_to 11000
  141.1065  133.6658  156.2877 LP  0  0  0  0  0  0  0  0  0  0  0  0  # atno 17395 bound_to 11000

$$$$
