AV-unprocessed.smi:3110|AV-procd|sdf|11831|dock3
  -GOLD-   2272017203D 1   1.00000     0.00000
 Structure written by MMmdl.
 33 34  0  0  0  0  0  0  0  0  1 V2000
  154.3290  140.1576  159.1890 O   0  0  0  0  0  0  0  0  0  0  0  0
  153.2943  140.7188  159.5495 C   0  0  0  0  0  0  0  0  0  0  0  0
  153.3573  142.0587  160.2900 C   0  0  0  0  0  0  0  0  0  0  0  0
  152.1441  142.9692  160.0081 C   0  0  1  0  0  0  0  0  0  0  0  0
  152.1160  144.1767  160.9091 C   0  0  0  0  0  0  0  0  0  0  0  0
  151.9750  145.3175  160.2378 C   0  0  0  0  0  0  0  0  0  0  0  0
  151.8816  145.1033  158.7527 C   0  0  0  0  0  0  0  0  0  0  0  0
  152.1194  143.5865  158.5837 C   0  0  0  0  0  0  0  0  0  0  0  0
  152.0698  140.2166  159.3288 N   0  0  0  0  0  0  0  0  0  0  0  0
  151.7927  138.9548  158.6533 C   0  0  0  0  0  0  0  0  0  0  0  0
  152.7156  138.7483  157.4407 C   0  0  0  0  0  0  0  0  0  0  0  0
  151.9633  138.7032  156.2036 N   0  0  0  0  0  0  0  0  0  0  0  0
  151.8742  137.6408  155.3139 C   0  0  0  0  0  0  0  0  0  0  0  0
  151.0504  138.0537  154.2911 C   0  0  0  0  0  0  0  0  0  0  0  0
  150.6229  139.3577  154.5302 N   0  0  0  0  0  0  0  0  0  0  0  0
  151.2049  139.6757  155.6795 C   0  0  0  0  0  0  0  0  0  0  0  0
  153.4176  141.8468  161.3581 H   0  0  0  0  0  0  0  0  0  0  0  0
  154.2786  142.5816  160.0274 H   0  0  0  0  0  0  0  0  0  0  0  0
  151.2184  142.4202  160.1877 H   0  0  0  0  0  0  0  0  0  0  0  0
  152.1882  144.0939  161.9836 H   0  0  0  0  0  0  0  0  0  0  0  0
  151.9160  146.2996  160.6836 H   0  0  0  0  0  0  0  0  0  0  0  0
  150.8938  145.3992  158.3982 H   0  0  0  0  0  0  0  0  0  0  0  0
  152.6332  145.6937  158.2280 H   0  0  0  0  0  0  0  0  0  0  0  0
  153.0720  143.4280  158.0761 H   0  0  0  0  0  0  0  0  0  0  0  0
  151.3488  143.1268  157.9639 H   0  0  0  0  0  0  0  0  0  0  0  0
  151.2736  140.7441  159.6567 H   0  0  0  0  0  0  0  0  0  0  0  0
  151.9379  138.1477  159.3722 H   0  0  0  0  0  0  0  0  0  0  0  0
  150.7448  138.9162  158.3503 H   0  0  0  0  0  0  0  0  0  0  0  0
  153.4478  139.5538  157.3680 H   0  0  0  0  0  0  0  0  0  0  0  0
  153.2761  137.8179  157.5416 H   0  0  0  0  0  0  0  0  0  0  0  0
  152.3887  136.7053  155.4775 H   0  0  0  0  0  0  0  0  0  0  0  0
  150.7339  137.5166  153.4089 H   0  0  0  0  0  0  0  0  0  0  0  0
  151.0736  140.6374  156.1537 H   0  0  0  0  0  0  0  0  0  0  0  0
  1  2  2  0  0  0  0
  2  3  1  0  0  0  0
  2  9  1  0  0  0  0
  3  4  1  0  0  0  0
  3 17  1  0  0  0  0
  3 18  1  0  0  0  0
  4  8  1  0  0  0  0
  4  5  1  0  0  0  0
  4 19  1  0  0  0  0
  5  6  2  0  0  0  0
  5 20  1  0  0  0  0
  6  7  1  0  0  0  0
  6 21  1  0  0  0  0
  7  8  1  0  0  0  0
  7 22  1  0  0  0  0
  7 23  1  0  0  0  0
  8 24  1  0  0  0  0
  8 25  1  0  0  0  0
  9 10  1  0  0  0  0
  9 26  1  0  0  0  0
 10 11  1  0  0  0  0
 10 27  1  0  0  0  0
 10 28  1  0  0  0  0
 11 12  1  0  0  0  0
 11 29  1  0  0  0  0
 11 30  1  0  0  0  0
 12 16  1  0  0  0  0
 12 13  1  0  0  0  0
 13 14  2  0  0  0  0
 13 31  1  0  0  0  0
 14 15  1  0  0  0  0
 14 32  1  0  0  0  0
 15 16  2  0  0  0  0
 16 33  1  0  0  0  0
M  END
> <s_m_source_file>
AV-unprocessed.smi

> <i_m_source_file_index>
3110

> <i_lp_mmshare_version>
43012

> <i_f3d_flags>
0

> <s_epik_input>
W0NIMl0xW0NIMl1bQ0hdPVtDSF1bQ0BIXTFbQ0gyXUMoPU8pW05IXVtDSDJdW0NIMl1uMltjSF1bY0hdbltjSF0y

> <s_epik_cmdline>
J2VwaWtfcHl0aG9uJywgJy1waCcsICc3LjAnLCAnLXRuJywgJzgnLCAnLW1hJywgJzIwMCcsICctbWV0YWxfYmluZGluZycsICctaW1hZScsICc8aW5maWxlLm1hZT4nLCAnLW9tYWUnLCAnPG91dGZpbGUubWFlPic=

> <r_lp_tautomer_probability>
1

> <r_epik_Ionization_Penalty>
0.593629

> <r_epik_Ionization_Penalty_Charging>
0.593629

> <r_epik_Ionization_Penalty_Neutral>
1.57355e-08

> <r_epik_State_Penalty>
0.607413

> <r_epik_Charging_Adjusted_Penalty>
1.20104

> <i_epik_Tot_Q>
0

> <i_epik_Tot_abs_Q>
0

> <r_epik_Metal_State_Penalty>
0.299385

> <b_epik_Metal_Only>
0

> <s_lp_Force_Field>
OPLS_2005

> <r_lp_Energy>
16.9466

> <b_lp_Chiralities_Consistent>
1

> <s_lp_Variant>
AV-unprocessed.smi:3110-4

> <Gold.Version>
5.8.1

> <Gold.Id.Protein>
6NUR|6NUR_protein|mol2

> <Gold.PLP.Fitness>
48.1633

> <Gold.PLP.PLP>
-41.2698

> <Gold.PLP.part.hbond>
-2.0000

> <Gold.PLP.part.metal>
0.0000

> <Gold.PLP.part.buried>
-3.5794

> <Gold.PLP.part.nonpolar>
-35.0502

> <Gold.PLP.part.repulsive>
0.2778

> <Gold.PLP.ligand.clash>
0.0000

> <Gold.PLP.ligand.torsion>
0.9401

> <Gold.PLP.Chemscore.Hbond>
1.8280

> <Gold.PLP.Chemscore.CHOScore>
1.0835

> <Gold.PLP.Chemscore.Metal>
0.0000

> <Gold.Chemscore.Hbonds>
donor molecule, donor type, donor heavy atom, donor atom, acceptor molecule, acceptor atom, score
      P1  H  7989  7998       L1    15  0.56
      P1  H  7997  8008       L1     1  0.96
      L1  C    14    32       P1  7948  0.35
      L1  C    14    32       P1  7949  0.78

> <Gold.PLP.Chemscore.Internal.Correction>
0.0393

> <Gold.Rescore>
     Score         DG    S(hbond)    S(metal)    S(lipo)     H(rot)  DE(clash)    DE(int)     intcor
     12.62     -14.85       0.95        0.00      97.10       2.01       0.03       2.21       ----

> <Gold.Chemscore.Fitness>
12.6154

> <Gold.Chemscore.DG>
-14.8514

> <Gold.Chemscore.ZeroCoef>
-5.4800

> <Gold.Chemscore.Hbond>
0.9456

> <Gold.Chemscore.Metal>
0.0000

> <Gold.Chemscore.Lipo>
97.1007

> <Gold.Chemscore.Internal_Hbond>
0.0000

> <Gold.Chemscore.DEClash>
0.0308

> <Gold.Chemscore.DEInternal>
2.2052

> <Gold.Chemscore.Rot>
2.0108

> <Gold.Chemscore.Internal.Correction>
   9.000000E+99

> <Gold.Chemscore.Hbonds>
donor molecule, donor type, donor heavy atom, donor atom, acceptor molecule, acceptor atom, score
      P1  H  7989  7998       L1    15  0.04
      P1  H  7997  8008       L1     1  0.88

> <Gold.Chemscore.Hbond.Weighted>
-3.1584

> <Gold.Chemscore.Metal.Weighted>
-0.0000

> <Gold.Chemscore.Lipo.Weighted>
-11.3608

> <Gold.Chemscore.Internal_Hbond.Weighted>
0.0000

> <Gold.Chemscore.DEClash.Weighted>
0.0308

> <Gold.Chemscore.DEInternal.Weighted>
2.2052

> <Gold.Chemscore.Rot.Weighted>
5.1477

> <Gold.Chemscore.Internal.Correction.Weighted>
   9.000000E+99

> <Gold.Protein.RotatedTorsions>
[ 6907 6896 6895 6894 ] final   83.28 input  -60.11 | X-H torsion
[ 7974 7965 7964 7962 ] final  -67.91 input  175.53 | X-H torsion
[ 8008 7997 7996 7995 ] final -111.94 input   59.86 | X-H torsion
[ 10167 10162 10161 10158 ] final   25.16 input  -65.29 | X-H torsion
[ 10718 10713 10712 10709 ] final  -73.01 input   66.30 | X-H torsion
[ 10763 10752 10751 10750 ] final -122.60 input  -60.55 | X-H torsion
[ 11005 11000 10999 10996 ] final -132.36 input  -57.11 | X-H torsion

> <Gold.Protein.ActiveResidues>
 VAL166  LYS551  ARG553  GLY616  TRP617  ASP618  TYR619  PRO620  LYS621  CYS622 
 ASP623  PHE694  ASN695  SER759  ASP760  ASP761  ALA762  ILE779  LEU786  VAL792 
 PHE793  MET794  SER795  GLU796  ALA797  LYS798  CYS799  TRP800  GLU811  SER814 

> <Gold.Protein.RotatedAtoms>
  152.5323  134.2919  159.9046 H   0  0  0  0  0  0  0  0  0  0  0  0  # atno 6907 bound_to 6896
  151.2871  133.4176  159.2638 H   0  0  0  0  0  0  0  0  0  0  0  0  # atno 6908 bound_to 6896
  151.0233  134.9501  159.8128 H   0  0  0  0  0  0  0  0  0  0  0  0  # atno 6909 bound_to 6896
  145.7232  140.9029  143.0619 H   0  0  0  0  0  0  0  0  0  0  0  0  # atno 7974 bound_to 7965
  154.9976  140.0394  157.2346 H   0  0  0  0  0  0  0  0  0  0  0  0  # atno 8008 bound_to 7997
  154.7572  140.2778  155.6221 H   0  0  0  0  0  0  0  0  0  0  0  0  # atno 8009 bound_to 7997
  156.2897  140.2635  156.2341 H   0  0  0  0  0  0  0  0  0  0  0  0  # atno 8010 bound_to 7997
  140.5129  144.0131  150.6380 H   0  0  0  0  0  0  0  0  0  0  0  0  # atno 10167 bound_to 10162
  156.0297  130.4384  150.2678 H   0  0  0  0  0  0  0  0  0  0  0  0  # atno 10718 bound_to 10713
  154.8692  135.4127  154.2809 H   0  0  0  0  0  0  0  0  0  0  0  0  # atno 10763 bound_to 10752
  153.3702  135.7007  153.6650 H   0  0  0  0  0  0  0  0  0  0  0  0  # atno 10764 bound_to 10752
  153.5515  135.3628  155.2733 H   0  0  0  0  0  0  0  0  0  0  0  0  # atno 10765 bound_to 10752
  140.9177  134.1485  157.4339 H   0  0  0  0  0  0  0  0  0  0  0  0  # atno 11005 bound_to 11000
  144.6911  139.9230  143.7468 LP  0  0  0  0  0  0  0  0  0  0  0  0  # atno 17320 bound_to 7965
  146.0606  139.3600  143.0583 LP  0  0  0  0  0  0  0  0  0  0  0  0  # atno 17321 bound_to 7965
  140.3459  143.2992  152.0539 LP  0  0  0  0  0  0  0  0  0  0  0  0  # atno 17342 bound_to 10162
  139.4901  144.6409  151.6878 LP  0  0  0  0  0  0  0  0  0  0  0  0  # atno 17343 bound_to 10162
  157.0781  131.0135  151.3166 LP  0  0  0  0  0  0  0  0  0  0  0  0  # atno 17370 bound_to 10713
  157.4948  130.7844  149.7544 LP  0  0  0  0  0  0  0  0  0  0  0  0  # atno 17371 bound_to 10713
  139.8769  134.9959  156.5770 LP  0  0  0  0  0  0  0  0  0  0  0  0  # atno 17394 bound_to 11000
  140.8029  133.8491  155.8742 LP  0  0  0  0  0  0  0  0  0  0  0  0  # atno 17395 bound_to 11000

$$$$
