AV-unprocessed.smi:3112|AV-procd|sdf|11849|dock6
  -GOLD-   2272017233D 1   1.00000     0.00000
 Structure written by MMmdl.
 36 36  0  0  0  0  0  0  0  0  1 V2000
  146.9592  139.1933  152.8642 C   0  0  0  0  0  0  0  0  0  0  0  0
  147.1571  140.0197  154.1419 C   0  0  0  0  0  0  0  0  0  0  0  0
  148.6192  140.4540  154.3663 C   0  0  1  0  0  0  0  0  0  0  0  0
  149.1443  141.0776  153.2111 O   0  0  0  0  0  0  0  0  0  0  0  0
  148.8241  141.3797  155.5803 C   0  0  0  0  0  0  0  0  0  0  0  0
  150.1162  142.0656  155.5383 N   0  0  0  0  0  0  0  0  0  0  0  0
  151.2016  141.4824  156.3403 C   0  0  2  0  0  0  0  0  0  0  0  0
  151.4204  140.0368  155.8634 C   0  0  0  0  0  0  0  0  0  0  0  0
  150.9840  141.5399  157.8843 C   0  0  1  0  0  0  0  0  0  0  0  0
  151.3782  140.2489  158.6316 C   0  0  0  0  0  0  0  0  0  0  0  0
  151.5107  142.7532  158.5075 N   0  0  0  0  0  0  0  0  0  0  0  0
  151.3512  144.0587  158.0877 C   0  0  0  0  0  0  0  0  0  0  0  0
  152.0447  144.8582  158.9501 C   0  0  0  0  0  0  0  0  0  0  0  0
  152.6130  143.9407  159.8762 C   0  0  0  0  0  0  0  0  0  0  0  0
  152.2926  142.6857  159.6100 N   0  0  0  0  0  0  0  0  0  0  0  0
  145.9201  138.8801  152.7626 H   0  0  0  0  0  0  0  0  0  0  0  0
  147.5760  138.2945  152.8764 H   0  0  0  0  0  0  0  0  0  0  0  0
  147.2190  139.7675  151.9748 H   0  0  0  0  0  0  0  0  0  0  0  0
  146.5028  140.8916  154.1122 H   0  0  0  0  0  0  0  0  0  0  0  0
  146.8298  139.4216  154.9929 H   0  0  0  0  0  0  0  0  0  0  0  0
  149.2201  139.5601  154.5367 H   0  0  0  0  0  0  0  0  0  0  0  0
  149.0696  140.4770  152.4856 H   0  0  0  0  0  0  0  0  0  0  0  0
  148.0217  142.1177  155.5972 H   0  0  0  0  0  0  0  0  0  0  0  0
  148.7261  140.7887  156.4879 H   0  0  0  0  0  0  0  0  0  0  0  0
  149.9884  143.0383  155.7980 H   0  0  0  0  0  0  0  0  0  0  0  0
  152.1252  142.0160  156.1136 H   0  0  0  0  0  0  0  0  0  0  0  0
  152.2538  139.5676  156.3866 H   0  0  0  0  0  0  0  0  0  0  0  0
  151.6502  140.0070  154.7979 H   0  0  0  0  0  0  0  0  0  0  0  0
  150.5353  139.4210  156.0248 H   0  0  0  0  0  0  0  0  0  0  0  0
  149.9043  141.5930  158.0332 H   0  0  0  0  0  0  0  0  0  0  0  0
  150.8786  139.3826  158.1979 H   0  0  0  0  0  0  0  0  0  0  0  0
  151.0781  140.3041  159.6785 H   0  0  0  0  0  0  0  0  0  0  0  0
  152.4473  140.0505  158.6148 H   0  0  0  0  0  0  0  0  0  0  0  0
  150.7640  144.3078  157.2162 H   0  0  0  0  0  0  0  0  0  0  0  0
  152.1371  145.9337  158.9203 H   0  0  0  0  0  0  0  0  0  0  0  0
  153.2457  144.1474  160.7267 H   0  0  0  0  0  0  0  0  0  0  0  0
  1  2  1  0  0  0  0
  1 16  1  0  0  0  0
  1 17  1  0  0  0  0
  1 18  1  0  0  0  0
  2  3  1  0  0  0  0
  2 19  1  0  0  0  0
  2 20  1  0  0  0  0
  3  4  1  0  0  0  0
  3  5  1  0  0  0  0
  3 21  1  0  0  0  0
  4 22  1  0  0  0  0
  5  6  1  0  0  0  0
  5 23  1  0  0  0  0
  5 24  1  0  0  0  0
  6  7  1  0  0  0  0
  6 25  1  0  0  0  0
  7  8  1  0  0  0  0
  7  9  1  0  0  0  0
  7 26  1  0  0  0  0
  8 27  1  0  0  0  0
  8 28  1  0  0  0  0
  8 29  1  0  0  0  0
  9 10  1  0  0  0  0
  9 11  1  0  0  0  0
  9 30  1  0  0  0  0
 10 31  1  0  0  0  0
 10 32  1  0  0  0  0
 10 33  1  0  0  0  0
 11 15  1  0  0  0  0
 11 12  1  0  0  0  0
 12 13  2  0  0  0  0
 12 34  1  0  0  0  0
 13 14  1  0  0  0  0
 13 35  1  0  0  0  0
 14 15  2  0  0  0  0
 14 36  1  0  0  0  0
M  END
> <s_m_source_file>
AV-unprocessed.smi

> <i_m_source_file_index>
3112

> <i_lp_mmshare_version>
43012

> <i_f3d_flags>
0

> <s_epik_input>
W0NIM11bQ0gyXVtDQEhdKFtPSF0pW0NIMl1bTkhdW0NASF0oW0NIM10pW0NASF0oW0NIM10pbjFbY0hdW2NIXVtjSF1uMQ==

> <s_epik_cmdline>
J2VwaWtfcHl0aG9uJywgJy1waCcsICc3LjAnLCAnLXRuJywgJzgnLCAnLW1hJywgJzIwMCcsICctbWV0YWxfYmluZGluZycsICctaW1hZScsICc8aW5maWxlLm1hZT4nLCAnLW9tYWUnLCAnPG91dGZpbGUubWFlPic=

> <r_lp_tautomer_probability>
1

> <r_epik_Ionization_Penalty>
2.16876

> <r_epik_Ionization_Penalty_Charging>
0

> <r_epik_Ionization_Penalty_Neutral>
2.16876

> <r_epik_State_Penalty>
2.30854

> <r_epik_Charging_Adjusted_Penalty>
2.30854

> <i_epik_Tot_Q>
0

> <i_epik_Tot_abs_Q>
0

> <r_epik_Metal_State_Penalty>
2.3073

> <b_epik_Metal_Only>
0

> <s_lp_Force_Field>
OPLS_2005

> <r_lp_Energy>
23.5049

> <b_lp_Chiralities_Consistent>
1

> <s_lp_Variant>
AV-unprocessed.smi:3112-14

> <Gold.Version>
5.8.1

> <Gold.Id.Protein>
6NUR|6NUR_protein|mol2

> <Gold.PLP.Fitness>
44.0278

> <Gold.PLP.PLP>
-35.8111

> <Gold.PLP.part.hbond>
-3.3363

> <Gold.PLP.part.metal>
0.0000

> <Gold.PLP.part.buried>
-5.0928

> <Gold.PLP.part.nonpolar>
-27.9288

> <Gold.PLP.part.repulsive>
0.0000

> <Gold.PLP.ligand.clash>
0.0000

> <Gold.PLP.ligand.torsion>
1.6371

> <Gold.PLP.Chemscore.Hbond>
2.7214

> <Gold.PLP.Chemscore.CHOScore>
1.0000

> <Gold.PLP.Chemscore.Metal>
0.0000

> <Gold.Chemscore.Hbonds>
donor molecule, donor type, donor heavy atom, donor atom, acceptor molecule, acceptor atom, score
      L1  H     4    22       P1  7957  0.84
      L1  H     6    25       P1  8028  0.98
      P1  H  8011  8017       L1     4  0.85
      L1  C    12    34       P1  8028  1.00

> <Gold.PLP.Chemscore.Internal.Correction>
0.3266

> <Gold.Rescore>
     Score         DG    S(hbond)    S(metal)    S(lipo)     H(rot)  DE(clash)    DE(int)     intcor
     15.02     -16.86       2.10        0.00      87.91       2.31       0.23       1.61       ----

> <Gold.Chemscore.Fitness>
15.0176

> <Gold.Chemscore.DG>
-16.8596

> <Gold.Chemscore.ZeroCoef>
-5.4800

> <Gold.Chemscore.Hbond>
2.0987

> <Gold.Chemscore.Metal>
0.0000

> <Gold.Chemscore.Lipo>
87.9107

> <Gold.Chemscore.Internal_Hbond>
0.0000

> <Gold.Chemscore.DEClash>
0.2323

> <Gold.Chemscore.DEInternal>
1.6097

> <Gold.Chemscore.Rot>
2.3108

> <Gold.Chemscore.Internal.Correction>
   9.000000E+99

> <Gold.Chemscore.Hbonds>
donor molecule, donor type, donor heavy atom, donor atom, acceptor molecule, acceptor atom, score
      L1  H     4    22       P1  7957  0.79
      L1  H     6    25       P1  8028  0.88
      P1  H  8011  8017       L1     4  0.15

> <Gold.Chemscore.Hbond.Weighted>
-7.0097

> <Gold.Chemscore.Metal.Weighted>
-0.0000

> <Gold.Chemscore.Lipo.Weighted>
-10.2856

> <Gold.Chemscore.Internal_Hbond.Weighted>
0.0000

> <Gold.Chemscore.DEClash.Weighted>
0.2323

> <Gold.Chemscore.DEInternal.Weighted>
1.6097

> <Gold.Chemscore.Rot.Weighted>
5.9157

> <Gold.Chemscore.Internal.Correction.Weighted>
   9.000000E+99

> <Gold.Protein.RotatedTorsions>
[ 6907 6896 6895 6894 ] final   67.86 input  -60.11 | X-H torsion
[ 7974 7965 7964 7962 ] final -158.45 input  175.53 | X-H torsion
[ 8008 7997 7996 7995 ] final  -65.05 input   59.86 | X-H torsion
[ 10167 10162 10161 10158 ] final  -99.82 input  -65.29 | X-H torsion
[ 10718 10713 10712 10709 ] final   80.05 input   66.30 | X-H torsion
[ 10763 10752 10751 10750 ] final  158.86 input  -60.55 | X-H torsion
[ 11005 11000 10999 10996 ] final  -52.10 input  -57.11 | X-H torsion

> <Gold.Protein.ActiveResidues>
 VAL166  LYS551  ARG553  GLY616  TRP617  ASP618  TYR619  PRO620  LYS621  CYS622 
 ASP623  PHE694  ASN695  SER759  ASP760  ASP761  ALA762  ILE779  LEU786  VAL792 
 PHE793  MET794  SER795  GLU796  ALA797  LYS798  CYS799  TRP800  GLU811  SER814 

> <Gold.Protein.RotatedAtoms>
  152.4581  134.5246  159.9792 H   0  0  0  0  0  0  0  0  0  0  0  0  # atno 6907 bound_to 6896
  151.5302  133.3444  159.2924 H   0  0  0  0  0  0  0  0  0  0  0  0  # atno 6908 bound_to 6896
  150.8533  134.7894  159.7088 H   0  0  0  0  0  0  0  0  0  0  0  0  # atno 6909 bound_to 6896
  144.7505  140.3826  143.6051 H   0  0  0  0  0  0  0  0  0  0  0  0  # atno 7974 bound_to 7965
  154.4648  140.0941  156.6991 H   0  0  0  0  0  0  0  0  0  0  0  0  # atno 8008 bound_to 7997
  155.4889  140.3470  155.4333 H   0  0  0  0  0  0  0  0  0  0  0  0  # atno 8009 bound_to 7997
  156.0936  140.1404  156.9548 H   0  0  0  0  0  0  0  0  0  0  0  0  # atno 8010 bound_to 7997
  140.2585  143.3424  152.0648 H   0  0  0  0  0  0  0  0  0  0  0  0  # atno 10167 bound_to 10162
  157.6795  130.9942  150.2023 H   0  0  0  0  0  0  0  0  0  0  0  0  # atno 10718 bound_to 10713
  154.2226  135.2781  155.2919 H   0  0  0  0  0  0  0  0  0  0  0  0  # atno 10763 bound_to 10752
  154.5689  135.5624  153.7080 H   0  0  0  0  0  0  0  0  0  0  0  0  # atno 10764 bound_to 10752
  153.0038  135.6316  154.2367 H   0  0  0  0  0  0  0  0  0  0  0  0  # atno 10765 bound_to 10752
  141.0906  133.6633  156.3975 H   0  0  0  0  0  0  0  0  0  0  0  0  # atno 11005 bound_to 11000
  145.6961  139.1650  143.2619 LP  0  0  0  0  0  0  0  0  0  0  0  0  # atno 17320 bound_to 7965
  146.1448  140.7007  142.9350 LP  0  0  0  0  0  0  0  0  0  0  0  0  # atno 17321 bound_to 7965
  139.5024  144.6734  151.6187 LP  0  0  0  0  0  0  0  0  0  0  0  0  # atno 17342 bound_to 10162
  140.5985  143.9653  150.6370 LP  0  0  0  0  0  0  0  0  0  0  0  0  # atno 17343 bound_to 10162
  156.2711  130.3722  149.8030 LP  0  0  0  0  0  0  0  0  0  0  0  0  # atno 17370 bound_to 10713
  156.5747  130.8440  151.3366 LP  0  0  0  0  0  0  0  0  0  0  0  0  # atno 17371 bound_to 10713
  140.5260  134.6259  157.5334 LP  0  0  0  0  0  0  0  0  0  0  0  0  # atno 17394 bound_to 11000
  139.9732  134.7259  156.0001 LP  0  0  0  0  0  0  0  0  0  0  0  0  # atno 17395 bound_to 11000

$$$$
