AV-unprocessed.smi:1867|AV-procd|sdf|7573|dock3
  -GOLD-   22720 9283D 1   1.00000     0.00000
 Structure written by MMmdl.
 53 56  0  0  0  0  0  0  0  0  3 V2000
  146.5957  137.8427  155.2362 O   0  0  0  0  0  0  0  0  0  0  0  0
  147.3827  137.4674  154.3713 C   0  0  0  0  0  0  0  0  0  0  0  0
  148.6608  137.8812  154.2566 N   0  0  0  0  0  0  0  0  0  0  0  0
  149.3878  138.8052  155.0579 C   0  0  0  0  0  0  0  0  0  0  0  0
  150.7637  138.9583  154.7845 C   0  0  0  0  0  0  0  0  0  0  0  0
  151.5386  139.8548  155.5485 C   0  0  0  0  0  0  0  0  0  0  0  0
  150.9294  140.5969  156.5873 C   0  0  0  0  0  0  0  0  0  0  0  0
  151.6373  141.5049  157.3975 N   0  0  0  0  0  0  0  0  0  0  0  0
  151.2932  142.9160  157.4432 C   0  0  0  0  0  0  0  0  0  0  0  0
  152.1910  143.4963  158.5353 C   0  0  0  0  0  0  0  0  0  0  0  0
  152.3397  142.3341  159.5176 C   0  0  0  0  0  0  0  0  0  0  0  0
  152.2921  141.0849  158.6299 C   0  0  0  0  0  0  0  0  0  0  0  0
  149.6084  140.4136  156.8208 N   0  3  0  0  0  0  0  0  0  0  0  0
  148.8296  139.5660  156.1142 C   0  0  0  0  0  0  0  0  0  0  0  0
  147.0047  136.5801  153.4337 N   0  0  0  0  0  0  0  0  0  0  0  0
  145.7013  135.9355  153.2681 C   0  0  1  0  0  0  0  0  0  0  0  0
  144.5544  136.9007  152.9777 C   0  0  0  0  0  0  0  0  0  0  0  0
  143.5048  135.9787  152.3538 C   0  0  0  0  0  0  0  0  0  0  0  0
  144.2603  134.9484  151.6048 N   0  3  2  0  0  0  0  0  0  0  0  0
  143.6433  133.5994  151.6139 C   0  0  0  0  0  0  0  0  0  0  0  0
  144.4945  132.6053  150.8015 C   0  0  0  0  0  0  0  0  0  0  0  0
  145.9884  132.6267  151.1900 C   0  0  0  0  0  0  0  0  0  0  0  0
  146.2833  133.6107  152.3326 C   0  0  0  0  0  0  0  0  0  0  0  0
  145.6829  135.0052  152.0458 C   0  0  2  0  0  0  0  0  0  0  0  0
  149.1738  137.4949  153.4779 H   0  0  0  0  0  0  0  0  0  0  0  0
  151.2296  138.3916  153.9914 H   0  0  0  0  0  0  0  0  0  0  0  0
  152.5906  139.9591  155.3280 H   0  0  0  0  0  0  0  0  0  0  0  0
  151.4621  143.4060  156.4839 H   0  0  0  0  0  0  0  0  0  0  0  0
  150.2411  143.0252  157.7101 H   0  0  0  0  0  0  0  0  0  0  0  0
  153.1658  143.7502  158.1168 H   0  0  0  0  0  0  0  0  0  0  0  0
  151.7766  144.3945  158.9941 H   0  0  0  0  0  0  0  0  0  0  0  0
  153.2505  142.3945  160.1140 H   0  0  0  0  0  0  0  0  0  0  0  0
  151.4913  142.3273  160.2033 H   0  0  0  0  0  0  0  0  0  0  0  0
  151.7605  140.2733  159.1283 H   0  0  0  0  0  0  0  0  0  0  0  0
  153.2992  140.7403  158.3930 H   0  0  0  0  0  0  0  0  0  0  0  0
  147.8002  139.5369  156.4358 H   0  0  0  0  0  0  0  0  0  0  0  0
  147.7101  136.3206  152.7586 H   0  0  0  0  0  0  0  0  0  0  0  0
  145.4557  135.3537  154.1588 H   0  0  0  0  0  0  0  0  0  0  0  0
  144.1888  137.4127  153.8683 H   0  0  0  0  0  0  0  0  0  0  0  0
  144.8654  137.6571  152.2552 H   0  0  0  0  0  0  0  0  0  0  0  0
  142.9232  135.5088  153.1487 H   0  0  0  0  0  0  0  0  0  0  0  0
  142.8105  136.5138  151.7057 H   0  0  0  0  0  0  0  0  0  0  0  0
  143.5373  133.2497  152.6423 H   0  0  0  0  0  0  0  0  0  0  0  0
  142.6370  133.6574  151.1975 H   0  0  0  0  0  0  0  0  0  0  0  0
  144.0933  131.5988  150.9256 H   0  0  0  0  0  0  0  0  0  0  0  0
  144.4001  132.8353  149.7392 H   0  0  0  0  0  0  0  0  0  0  0  0
  146.3179  131.6258  151.4711 H   0  0  0  0  0  0  0  0  0  0  0  0
  146.5807  132.9044  150.3169 H   0  0  0  0  0  0  0  0  0  0  0  0
  145.8743  133.2091  153.2611 H   0  0  0  0  0  0  0  0  0  0  0  0
  147.3596  133.6908  152.4892 H   0  0  0  0  0  0  0  0  0  0  0  0
  146.2327  135.4693  151.2248 H   0  0  0  0  0  0  0  0  0  0  0  0
  144.2689  135.2452  150.6391 H   0  0  0  0  0  0  0  0  0  0  0  0
  149.1746  140.9454  157.5757 H   0  0  0  0  0  0  0  0  0  0  0  0
  1  2  2  0  0  0  0
  2  3  1  0  0  0  0
  2 15  1  0  0  0  0
  3  4  1  0  0  0  0
  3 25  1  0  0  0  0
  4 14  1  0  0  0  0
  4  5  2  0  0  0  0
  5  6  1  0  0  0  0
  5 26  1  0  0  0  0
  6  7  2  0  0  0  0
  6 27  1  0  0  0  0
  7  8  1  0  0  0  0
  7 13  1  0  0  0  0
  8 12  1  0  0  0  0
  8  9  1  0  0  0  0
  9 10  1  0  0  0  0
  9 28  1  0  0  0  0
  9 29  1  0  0  0  0
 10 11  1  0  0  0  0
 10 30  1  0  0  0  0
 10 31  1  0  0  0  0
 11 12  1  0  0  0  0
 11 32  1  0  0  0  0
 11 33  1  0  0  0  0
 12 34  1  0  0  0  0
 12 35  1  0  0  0  0
 13 14  2  0  0  0  0
 13 53  1  0  0  0  0
 14 36  1  0  0  0  0
 15 16  1  0  0  0  0
 15 37  1  0  0  0  0
 16 24  1  0  0  0  0
 16 17  1  0  0  0  0
 16 38  1  0  0  0  0
 17 18  1  0  0  0  0
 17 39  1  0  0  0  0
 17 40  1  0  0  0  0
 18 19  1  0  0  0  0
 18 41  1  0  0  0  0
 18 42  1  0  0  0  0
 19 24  1  0  0  0  0
 19 20  1  0  0  0  0
 19 52  1  0  0  0  0
 20 21  1  0  0  0  0
 20 43  1  0  0  0  0
 20 44  1  0  0  0  0
 21 22  1  0  0  0  0
 21 45  1  0  0  0  0
 21 46  1  0  0  0  0
 22 23  1  0  0  0  0
 22 47  1  0  0  0  0
 22 48  1  0  0  0  0
 23 24  1  0  0  0  0
 23 49  1  0  0  0  0
 23 50  1  0  0  0  0
 24 51  1  0  0  0  0
M  CHG  1  13   1
M  CHG  1  19   1
M  END
> <s_m_source_file>
AV-unprocessed.smi

> <i_m_source_file_index>
1867

> <i_lp_mmshare_version>
43012

> <i_f3d_flags>
0

> <s_epik_input>
W0NIMl0xW0NIMl1bQ0gyXVtDSDJdW0NASF0oTjEyKVtDQEBIXShbQ0gyXVtDSDJdMilbTkhdQyg9TylbTkhdYzNbY0hdW2NIXWMobltjSF0zKU40W0NIMl1bQ0gyXVtDSDJdW0NIMl00

> <s_epik_cmdline>
J2VwaWtfcHl0aG9uJywgJy1waCcsICc3LjAnLCAnLXRuJywgJzgnLCAnLW1hJywgJzIwMCcsICctbWV0YWxfYmluZGluZycsICctaW1hZScsICc8aW5maWxlLm1hZT4nLCAnLW9tYWUnLCAnPG91dGZpbGUubWFlPic=

> <r_lp_tautomer_probability>
0.999994

> <r_epik_Ionization_Penalty>
1.27347

> <r_epik_Ionization_Penalty_Charging>
1.27345

> <r_epik_Ionization_Penalty_Neutral>
1.96458e-05

> <r_epik_State_Penalty>
1.34393

> <r_epik_Charging_Adjusted_Penalty>
2.61738

> <i_epik_Tot_Q>
2

> <i_epik_Tot_abs_Q>
2

> <r_epik_Metal_State_Penalty>
1.41094

> <b_epik_Metal_Only>
0

> <s_lp_Force_Field>
OPLS_2005

> <r_lp_Energy>
84.8883

> <b_lp_Chiralities_Consistent>
1

> <s_lp_Variant>
AV-unprocessed.smi:1867-14

> <Gold.Version>
5.8.1

> <Gold.Id.Protein>
6NUR|6NUR_protein|mol2

> <Gold.PLP.Fitness>
42.9886

> <Gold.PLP.PLP>
-39.9294

> <Gold.PLP.part.hbond>
-1.9589

> <Gold.PLP.part.metal>
0.0000

> <Gold.PLP.part.buried>
-5.9010

> <Gold.PLP.part.nonpolar>
-32.6900

> <Gold.PLP.part.repulsive>
0.0641

> <Gold.PLP.ligand.clash>
0.0000

> <Gold.PLP.ligand.torsion>
1.3368

> <Gold.PLP.Chemscore.Hbond>
1.8477

> <Gold.PLP.Chemscore.CHOScore>
0.0000

> <Gold.PLP.Chemscore.Metal>
0.0000

> <Gold.Chemscore.Hbonds>
donor molecule, donor type, donor heavy atom, donor atom, acceptor molecule, acceptor atom, score
      L1  H     3    25       P1  7948  0.84
      L1  H    15    37       P1  7948  1.00

> <Gold.PLP.Chemscore.Internal.Correction>
0.1897

> <Gold.Rescore>
     Score         DG    S(hbond)    S(metal)    S(lipo)     H(rot)  DE(clash)    DE(int)     intcor
     18.46     -20.95       1.91        0.00      99.57       1.00       0.03       2.47       ----

> <Gold.Chemscore.Fitness>
18.4584

> <Gold.Chemscore.DG>
-20.9501

> <Gold.Chemscore.ZeroCoef>
-5.4800

> <Gold.Chemscore.Hbond>
1.9104

> <Gold.Chemscore.Metal>
0.0000

> <Gold.Chemscore.Lipo>
99.5677

> <Gold.Chemscore.Internal_Hbond>
0.0000

> <Gold.Chemscore.DEClash>
0.0262

> <Gold.Chemscore.DEInternal>
2.4654

> <Gold.Chemscore.Rot>
1.0000

> <Gold.Chemscore.Internal.Correction>
   9.000000E+99

> <Gold.Chemscore.Hbonds>
donor molecule, donor type, donor heavy atom, donor atom, acceptor molecule, acceptor atom, score
      L1  H     3    25       P1  7948  0.77
      L1  H    15    37       P1  7948  0.93

> <Gold.Chemscore.Hbond.Weighted>
-6.3806

> <Gold.Chemscore.Metal.Weighted>
-0.0000

> <Gold.Chemscore.Lipo.Weighted>
-11.6494

> <Gold.Chemscore.Internal_Hbond.Weighted>
0.0000

> <Gold.Chemscore.DEClash.Weighted>
0.0262

> <Gold.Chemscore.DEInternal.Weighted>
2.4654

> <Gold.Chemscore.Rot.Weighted>
2.5600

> <Gold.Chemscore.Internal.Correction.Weighted>
   9.000000E+99

> <Gold.Protein.RotatedTorsions>
[ 6907 6896 6895 6894 ] final  106.99 input  -60.11 | X-H torsion
[ 7974 7965 7964 7962 ] final    9.81 input  175.53 | X-H torsion
[ 8008 7997 7996 7995 ] final -175.04 input   59.86 | X-H torsion
[ 10167 10162 10161 10158 ] final -144.25 input  -65.29 | X-H torsion
[ 10718 10713 10712 10709 ] final   86.59 input   66.30 | X-H torsion
[ 10763 10752 10751 10750 ] final   44.04 input  -60.55 | X-H torsion
[ 11005 11000 10999 10996 ] final   -8.59 input  -57.11 | X-H torsion

> <Gold.Protein.ActiveResidues>
 VAL166  LYS551  ARG553  GLY616  TRP617  ASP618  TYR619  PRO620  LYS621  CYS622 
 ASP623  PHE694  ASN695  SER759  ASP760  ASP761  ALA762  ILE779  LEU786  VAL792 
 PHE793  MET794  SER795  GLU796  ALA797  LYS798  CYS799  TRP800  GLU811  SER814 

> <Gold.Protein.RotatedAtoms>
  152.5172  133.9299  159.7575 H   0  0  0  0  0  0  0  0  0  0  0  0  # atno 6907 bound_to 6896
  150.9652  133.6394  159.2754 H   0  0  0  0  0  0  0  0  0  0  0  0  # atno 6908 bound_to 6896
  151.3625  135.0912  159.9492 H   0  0  0  0  0  0  0  0  0  0  0  0  # atno 6909 bound_to 6896
  146.2398  139.9728  142.8445 H   0  0  0  0  0  0  0  0  0  0  0  0  # atno 7974 bound_to 7965
  155.9776  140.1175  157.0756 H   0  0  0  0  0  0  0  0  0  0  0  0  # atno 8008 bound_to 7997
  154.4173  140.1151  156.5459 H   0  0  0  0  0  0  0  0  0  0  0  0  # atno 8009 bound_to 7997
  155.6514  140.3473  155.4752 H   0  0  0  0  0  0  0  0  0  0  0  0  # atno 8010 bound_to 7997
  139.7916  143.7958  152.2650 H   0  0  0  0  0  0  0  0  0  0  0  0  # atno 10167 bound_to 10162
  157.6930  131.0222  150.2996 H   0  0  0  0  0  0  0  0  0  0  0  0  # atno 10718 bound_to 10713
  152.9849  135.6083  154.3209 H   0  0  0  0  0  0  0  0  0  0  0  0  # atno 10763 bound_to 10752
  154.2918  135.2774  155.2653 H   0  0  0  0  0  0  0  0  0  0  0  0  # atno 10764 bound_to 10752
  154.4945  135.5883  153.6540 H   0  0  0  0  0  0  0  0  0  0  0  0  # atno 10765 bound_to 10752
  140.7251  133.8796  155.8850 H   0  0  0  0  0  0  0  0  0  0  0  0  # atno 11005 bound_to 11000
  145.1665  140.9699  143.4347 LP  0  0  0  0  0  0  0  0  0  0  0  0  # atno 17320 bound_to 7965
  145.0068  139.3547  143.6140 LP  0  0  0  0  0  0  0  0  0  0  0  0  # atno 17321 bound_to 7965
  139.8051  144.7358  150.9772 LP  0  0  0  0  0  0  0  0  0  0  0  0  # atno 17342 bound_to 10162
  140.7820  143.4306  151.0700 LP  0  0  0  0  0  0  0  0  0  0  0  0  # atno 17343 bound_to 10162
  156.3514  130.3831  149.7326 LP  0  0  0  0  0  0  0  0  0  0  0  0  # atno 17370 bound_to 10713
  156.4802  130.8037  151.3052 LP  0  0  0  0  0  0  0  0  0  0  0  0  # atno 17371 bound_to 10713
  140.9970  134.1202  157.4354 LP  0  0  0  0  0  0  0  0  0  0  0  0  # atno 17394 bound_to 11000
  139.8839  135.0057  156.6332 LP  0  0  0  0  0  0  0  0  0  0  0  0  # atno 17395 bound_to 11000

$$$$
