AV-unprocessed.smi:990|AV-procd|sdf|4327|dock10
  -GOLD-   22720 2233D 1   1.00000     0.00000
 Structure written by MMmdl.
 45 46  0  0  0  0  0  0  0  0  2 V2000
  152.2461  144.8917  159.7010 C   0  0  0  0  0  0  0  0  0  0  0  0
  151.1328  144.1942  159.4302 C   0  0  0  0  0  0  0  0  0  0  0  0
  151.0853  142.9613  158.5484 C   0  0  0  0  0  0  0  0  0  0  0  0
  149.8919  142.9466  157.7105 N   0  0  0  0  0  0  0  0  0  0  0  0
  148.9779  141.9657  157.6882 C   0  0  0  0  0  0  0  0  0  0  0  0
  149.0570  140.9492  158.3779 O   0  0  0  0  0  0  0  0  0  0  0  0
  147.9928  142.2349  156.8135 N   0  0  0  0  0  0  0  0  0  0  0  0
  146.8404  141.4582  156.5156 C   0  0  0  0  0  0  0  0  0  0  0  0
  146.1413  140.6788  157.4714 C   0  0  0  0  0  0  0  0  0  0  0  0
  145.0002  139.9522  157.0746 C   0  0  0  0  0  0  0  0  0  0  0  0
  144.5653  140.0188  155.7311 C   0  0  0  0  0  0  0  0  0  0  0  0
  143.4493  139.3247  155.2444 N   0  0  0  0  0  0  0  0  0  0  0  0
  142.1837  139.8775  155.7092 C   0  0  0  0  0  0  0  0  0  0  0  0
  140.9968  139.1828  155.0192 C   0  0  0  0  0  0  0  0  0  0  0  0
  141.0683  137.7176  155.1893 N   0  0  0  0  0  0  0  0  0  0  0  0
  139.6472  136.7961  154.8183 S   0  0  0  0  0  0  0  0  0  0  0  0
  138.6568  137.9492  153.7808 C   0  0  0  0  0  0  0  0  0  0  0  0
  140.0546  135.6675  153.9675 O   0  0  0  0  0  0  0  0  0  0  0  0
  138.9339  136.5458  156.0799 O   0  0  0  0  0  0  0  0  0  0  0  0
  142.3729  137.1527  154.7905 C   0  0  0  0  0  0  0  0  0  0  0  0
  143.5310  137.8899  155.4849 C   0  0  0  0  0  0  0  0  0  0  0  0
  145.2499  140.7864  154.8552 N   0  3  0  0  0  0  0  0  0  0  0  0
  146.3465  141.4985  155.1946 C   0  0  0  0  0  0  0  0  0  0  0  0
  153.2026  144.6063  159.2884 H   0  0  0  0  0  0  0  0  0  0  0  0
  152.2135  145.7604  160.3419 H   0  0  0  0  0  0  0  0  0  0  0  0
  150.1961  144.5098  159.8669 H   0  0  0  0  0  0  0  0  0  0  0  0
  151.9652  142.9278  157.9053 H   0  0  0  0  0  0  0  0  0  0  0  0
  151.1198  142.0697  159.1766 H   0  0  0  0  0  0  0  0  0  0  0  0
  149.7525  143.7440  157.1070 H   0  0  0  0  0  0  0  0  0  0  0  0
  148.1098  143.0695  156.2578 H   0  0  0  0  0  0  0  0  0  0  0  0
  146.4489  140.6317  158.5044 H   0  0  0  0  0  0  0  0  0  0  0  0
  144.4684  139.3536  157.7996 H   0  0  0  0  0  0  0  0  0  0  0  0
  142.1009  139.7554  156.7902 H   0  0  0  0  0  0  0  0  0  0  0  0
  142.1537  140.9488  155.5063 H   0  0  0  0  0  0  0  0  0  0  0  0
  140.0656  139.5613  155.4398 H   0  0  0  0  0  0  0  0  0  0  0  0
  140.9834  139.4159  153.9535 H   0  0  0  0  0  0  0  0  0  0  0  0
  137.7672  137.4329  153.4206 H   0  0  0  0  0  0  0  0  0  0  0  0
  139.2521  138.2759  152.9284 H   0  0  0  0  0  0  0  0  0  0  0  0
  138.3503  138.8143  154.3669 H   0  0  0  0  0  0  0  0  0  0  0  0
  142.4130  136.0940  155.0421 H   0  0  0  0  0  0  0  0  0  0  0  0
  142.4738  137.2243  153.7065 H   0  0  0  0  0  0  0  0  0  0  0  0
  144.4846  137.5095  155.1161 H   0  0  0  0  0  0  0  0  0  0  0  0
  143.5020  137.6926  156.5576 H   0  0  0  0  0  0  0  0  0  0  0  0
  146.7982  142.0710  154.3971 H   0  0  0  0  0  0  0  0  0  0  0  0
  144.9232  140.8302  153.8894 H   0  0  0  0  0  0  0  0  0  0  0  0
  1  2  2  0  0  0  0
  1 24  1  0  0  0  0
  1 25  1  0  0  0  0
  2  3  1  0  0  0  0
  2 26  1  0  0  0  0
  3  4  1  0  0  0  0
  3 27  1  0  0  0  0
  3 28  1  0  0  0  0
  4  5  1  0  0  0  0
  4 29  1  0  0  0  0
  5  6  2  0  0  0  0
  5  7  1  0  0  0  0
  7  8  1  0  0  0  0
  7 30  1  0  0  0  0
  8 23  1  0  0  0  0
  8  9  2  0  0  0  0
  9 10  1  0  0  0  0
  9 31  1  0  0  0  0
 10 11  2  0  0  0  0
 10 32  1  0  0  0  0
 11 12  1  0  0  0  0
 11 22  1  0  0  0  0
 12 21  1  0  0  0  0
 12 13  1  0  0  0  0
 13 14  1  0  0  0  0
 13 33  1  0  0  0  0
 13 34  1  0  0  0  0
 14 15  1  0  0  0  0
 14 35  1  0  0  0  0
 14 36  1  0  0  0  0
 15 16  1  0  0  0  0
 15 20  1  0  0  0  0
 16 17  1  0  0  0  0
 16 18  2  0  0  0  0
 16 19  2  0  0  0  0
 17 37  1  0  0  0  0
 17 38  1  0  0  0  0
 17 39  1  0  0  0  0
 20 21  1  0  0  0  0
 20 40  1  0  0  0  0
 20 41  1  0  0  0  0
 21 42  1  0  0  0  0
 21 43  1  0  0  0  0
 22 23  2  0  0  0  0
 22 45  1  0  0  0  0
 23 44  1  0  0  0  0
M  CHG  1  22   1
M  END
> <s_m_source_file>
AV-unprocessed.smi

> <i_m_source_file_index>
990

> <i_lp_mmshare_version>
43012

> <i_f3d_flags>
0

> <s_epik_input>
W0NIMl09W0NIXVtDSDJdW05IXUMoPU8pW05IXWMxW2NIXVtjSF1jKG5bY0hdMSlOMltDSDJdW0NIMl1OKFMoPU8pKD1PKVtDSDNdKVtDSDJdW0NIMl0y

> <s_epik_cmdline>
J2VwaWtfcHl0aG9uJywgJy1waCcsICc3LjAnLCAnLXRuJywgJzgnLCAnLW1hJywgJzIwMCcsICctbWV0YWxfYmluZGluZycsICctaW1hZScsICc8aW5maWxlLm1hZT4nLCAnLW9tYWUnLCAnPG91dGZpbGUubWFlPic=

> <r_lp_tautomer_probability>
0.999994

> <r_epik_Ionization_Penalty>
0.881759

> <r_epik_Ionization_Penalty_Charging>
0.881739

> <r_epik_Ionization_Penalty_Neutral>
2.00436e-05

> <r_epik_State_Penalty>
0.920006

> <r_epik_Charging_Adjusted_Penalty>
1.80175

> <i_epik_Tot_Q>
1

> <i_epik_Tot_abs_Q>
1

> <r_epik_Metal_State_Penalty>
1.04263

> <b_epik_Metal_Only>
0

> <s_lp_Force_Field>
OPLS_2005

> <r_lp_Energy>
28.5026

> <b_lp_Chiralities_Consistent>
1

> <s_lp_Variant>
AV-unprocessed.smi:990-2

> <Gold.Version>
5.8.1

> <Gold.Id.Protein>
6NUR|6NUR_protein|mol2

> <Gold.PLP.Fitness>
40.1256

> <Gold.PLP.PLP>
-26.5634

> <Gold.PLP.part.hbond>
-4.6460

> <Gold.PLP.part.metal>
0.0000

> <Gold.PLP.part.buried>
-6.0143

> <Gold.PLP.part.nonpolar>
-17.3370

> <Gold.PLP.part.repulsive>
2.3043

> <Gold.PLP.ligand.clash>
0.0000

> <Gold.PLP.ligand.torsion>
0.9271

> <Gold.PLP.Chemscore.Hbond>
4.9000

> <Gold.PLP.Chemscore.CHOScore>
0.0000

> <Gold.PLP.Chemscore.Metal>
0.0000

> <Gold.Chemscore.Hbonds>
donor molecule, donor type, donor heavy atom, donor atom, acceptor molecule, acceptor atom, score
      L1  H     4    29       P1  8028  1.00
      L1  H     7    30       P1  8028  1.00
      L1  H    22    45       P1 10175  2.00
      P1  H 11000 11005       L1    19  0.65

> <Gold.PLP.Chemscore.Internal.Correction>
0.7165

> <Gold.Rescore>
     Score         DG    S(hbond)    S(metal)    S(lipo)     H(rot)  DE(clash)    DE(int)     intcor
     17.10     -19.26       3.55        0.00      55.18       1.77       1.30       0.85       ----

> <Gold.Chemscore.Fitness>
17.1024

> <Gold.Chemscore.DG>
-19.2561

> <Gold.Chemscore.ZeroCoef>
-5.4800

> <Gold.Chemscore.Hbond>
3.5500

> <Gold.Chemscore.Metal>
0.0000

> <Gold.Chemscore.Lipo>
55.1806

> <Gold.Chemscore.Internal_Hbond>
0.0000

> <Gold.Chemscore.DEClash>
1.3042

> <Gold.Chemscore.DEInternal>
0.8496

> <Gold.Chemscore.Rot>
1.7723

> <Gold.Chemscore.Internal.Correction>
   9.000000E+99

> <Gold.Chemscore.Hbonds>
donor molecule, donor type, donor heavy atom, donor atom, acceptor molecule, acceptor atom, score
      L1  H     4    29       P1  8028  0.88
      L1  H     7    30       P1  8028  0.55
      L1  H    22    45       P1 10175  0.92
      P1  H 11000 11005       L1    19  0.06

> <Gold.Chemscore.Hbond.Weighted>
-11.8571

> <Gold.Chemscore.Metal.Weighted>
-0.0000

> <Gold.Chemscore.Lipo.Weighted>
-6.4561

> <Gold.Chemscore.Internal_Hbond.Weighted>
0.0000

> <Gold.Chemscore.DEClash.Weighted>
1.3042

> <Gold.Chemscore.DEInternal.Weighted>
0.8496

> <Gold.Chemscore.Rot.Weighted>
4.5371

> <Gold.Chemscore.Internal.Correction.Weighted>
   9.000000E+99

> <Gold.Protein.RotatedTorsions>
[ 6907 6896 6895 6894 ] final  100.86 input  -60.11 | X-H torsion
[ 7974 7965 7964 7962 ] final  -95.81 input  175.53 | X-H torsion
[ 8008 7997 7996 7995 ] final  140.04 input   59.86 | X-H torsion
[ 10167 10162 10161 10158 ] final  130.13 input  -65.29 | X-H torsion
[ 10718 10713 10712 10709 ] final -162.74 input   66.30 | X-H torsion
[ 10763 10752 10751 10750 ] final   62.11 input  -60.55 | X-H torsion
[ 11005 11000 10999 10996 ] final   96.52 input  -57.11 | X-H torsion

> <Gold.Protein.ActiveResidues>
 VAL166  LYS551  ARG553  GLY616  TRP617  ASP618  TYR619  PRO620  LYS621  CYS622 
 ASP623  PHE694  ASN695  SER759  ASP760  ASP761  ALA762  ILE779  LEU786  VAL792 
 PHE793  MET794  SER795  GLU796  ALA797  LYS798  CYS799  TRP800  GLU811  SER814 

> <Gold.Protein.RotatedAtoms>
  152.5362  134.0213  159.7982 H   0  0  0  0  0  0  0  0  0  0  0  0  # atno 6907 bound_to 6896
  151.0399  133.5708  159.2659 H   0  0  0  0  0  0  0  0  0  0  0  0  # atno 6908 bound_to 6896
  151.2681  135.0683  159.9177 H   0  0  0  0  0  0  0  0  0  0  0  0  # atno 6909 bound_to 6896
  145.3551  140.9483  143.2532 H   0  0  0  0  0  0  0  0  0  0  0  0  # atno 7974 bound_to 7965
  156.2983  140.2352  156.4337 H   0  0  0  0  0  0  0  0  0  0  0  0  # atno 8008 bound_to 7997
  154.8248  140.0436  157.1456 H   0  0  0  0  0  0  0  0  0  0  0  0  # atno 8009 bound_to 7997
  154.9274  140.3012  155.5188 H   0  0  0  0  0  0  0  0  0  0  0  0  # atno 8010 bound_to 7997
  139.5444  144.6760  151.4519 H   0  0  0  0  0  0  0  0  0  0  0  0  # atno 10167 bound_to 10162
  156.6148  130.8865  151.2944 H   0  0  0  0  0  0  0  0  0  0  0  0  # atno 10718 bound_to 10713
  152.9972  135.5476  154.6141 H   0  0  0  0  0  0  0  0  0  0  0  0  # atno 10763 bound_to 10752
  154.5455  135.2823  155.1059 H   0  0  0  0  0  0  0  0  0  0  0  0  # atno 10764 bound_to 10752
  154.2319  135.6432  153.5231 H   0  0  0  0  0  0  0  0  0  0  0  0  # atno 10765 bound_to 10752
  139.8781  134.8955  156.4170 H   0  0  0  0  0  0  0  0  0  0  0  0  # atno 11005 bound_to 11000
  144.8688  139.5068  143.6777 LP  0  0  0  0  0  0  0  0  0  0  0  0  # atno 17320 bound_to 7965
  146.2951  139.7255  142.9132 LP  0  0  0  0  0  0  0  0  0  0  0  0  # atno 17321 bound_to 7965
  140.6687  143.8341  150.6973 LP  0  0  0  0  0  0  0  0  0  0  0  0  # atno 17342 bound_to 10162
  140.1758  143.4156  152.1968 LP  0  0  0  0  0  0  0  0  0  0  0  0  # atno 17343 bound_to 10162
  157.7244  130.9602  150.1573 LP  0  0  0  0  0  0  0  0  0  0  0  0  # atno 17370 bound_to 10713
  156.2360  130.3686  149.8391 LP  0  0  0  0  0  0  0  0  0  0  0  0  # atno 17371 bound_to 10713
  140.9160  133.7678  155.9849 LP  0  0  0  0  0  0  0  0  0  0  0  0  # atno 17394 bound_to 11000
  140.8493  134.2973  157.5282 LP  0  0  0  0  0  0  0  0  0  0  0  0  # atno 17395 bound_to 11000

$$$$
