AV-unprocessed.smi:650|AV-procd|sdf|3182|dock6
  -GOLD-   22720 0103D 1   1.00000     0.00000
 Structure written by MMmdl.
 43 44  0  0  0  0  0  0  0  0  2 V2000
  151.9359  139.9657  158.4340 C   0  0  0  0  0  0  0  0  0  0  0  0
  151.4989  139.8720  157.0121 C   0  0  0  0  0  0  0  0  0  0  0  0
  150.2689  139.8023  156.4208 C   0  0  0  0  0  0  0  0  0  0  0  0
  150.5825  139.7288  155.0375 C   0  0  0  0  0  0  0  0  0  0  0  0
  149.5568  139.6388  154.0622 N   0  0  0  0  0  0  0  0  0  0  0  0
  148.2463  139.4256  154.2697 C   0  0  0  0  0  0  0  0  0  0  0  0
  147.7192  139.2668  155.3712 O   0  0  0  0  0  0  0  0  0  0  0  0
  147.5670  139.4008  153.1134 N   0  0  0  0  0  0  0  0  0  0  0  0
  146.1228  139.2270  152.9841 C   0  0  0  0  0  0  0  0  0  0  0  0
  145.7291  137.7857  152.5971 C   0  0  2  0  0  0  0  0  0  0  0  0
  146.3917  136.7673  153.5420 C   0  0  0  0  0  0  0  0  0  0  0  0
  146.0302  135.3219  153.1632 C   0  0  0  0  0  0  0  0  0  0  0  0
  146.4073  135.0273  151.7578 N   0  3  1  0  0  0  0  0  0  0  0  0
  146.2071  133.5975  151.4083 C   0  0  0  0  0  0  0  0  0  0  0  0
  147.0093  132.6487  152.3153 C   0  0  0  0  0  0  0  0  0  0  0  0
  146.9253  131.3269  151.8259 O   0  0  0  0  0  0  0  0  0  0  0  0
  145.7450  135.9647  150.8136 C   0  0  0  0  0  0  0  0  0  0  0  0
  146.0952  137.4252  151.1429 C   0  0  0  0  0  0  0  0  0  0  0  0
  151.8860  139.7560  154.8048 N   0  0  0  0  0  0  0  0  0  0  0  0
  152.4798  139.8478  156.0691 O   0  0  0  0  0  0  0  0  0  0  0  0
  151.2114  139.4892  159.0945 H   0  0  0  0  0  0  0  0  0  0  0  0
  152.0380  141.0073  158.7382 H   0  0  0  0  0  0  0  0  0  0  0  0
  152.8980  139.4738  158.5802 H   0  0  0  0  0  0  0  0  0  0  0  0
  149.3029  139.8016  156.9031 H   0  0  0  0  0  0  0  0  0  0  0  0
  149.8527  139.7570  153.1047 H   0  0  0  0  0  0  0  0  0  0  0  0
  148.0849  139.5349  152.2573 H   0  0  0  0  0  0  0  0  0  0  0  0
  145.6100  139.5295  153.8990 H   0  0  0  0  0  0  0  0  0  0  0  0
  145.7856  139.9171  152.2101 H   0  0  0  0  0  0  0  0  0  0  0  0
  144.6476  137.6921  152.7080 H   0  0  0  0  0  0  0  0  0  0  0  0
  147.4757  136.8882  153.5143 H   0  0  0  0  0  0  0  0  0  0  0  0
  146.0873  136.9604  154.5711 H   0  0  0  0  0  0  0  0  0  0  0  0
  146.5499  134.6384  153.8358 H   0  0  0  0  0  0  0  0  0  0  0  0
  144.9610  135.1509  153.2998 H   0  0  0  0  0  0  0  0  0  0  0  0
  145.1506  133.3387  151.4954 H   0  0  0  0  0  0  0  0  0  0  0  0
  146.4732  133.4385  150.3623 H   0  0  0  0  0  0  0  0  0  0  0  0
  148.0589  132.9437  152.3187 H   0  0  0  0  0  0  0  0  0  0  0  0
  146.6718  132.6807  153.3504 H   0  0  0  0  0  0  0  0  0  0  0  0
  147.6602  131.1694  151.2519 H   0  0  0  0  0  0  0  0  0  0  0  0
  146.0511  135.7539  149.7897 H   0  0  0  0  0  0  0  0  0  0  0  0
  144.6641  135.8216  150.8541 H   0  0  0  0  0  0  0  0  0  0  0  0
  145.5700  138.0771  150.4449 H   0  0  0  0  0  0  0  0  0  0  0  0
  147.1608  137.5917  150.9781 H   0  0  0  0  0  0  0  0  0  0  0  0
  147.4020  135.1935  151.6933 H   0  0  0  0  0  0  0  0  0  0  0  0
  1  2  1  0  0  0  0
  1 21  1  0  0  0  0
  1 22  1  0  0  0  0
  1 23  1  0  0  0  0
  2 20  1  0  0  0  0
  2  3  2  0  0  0  0
  3  4  1  0  0  0  0
  3 24  1  0  0  0  0
  4  5  1  0  0  0  0
  4 19  2  0  0  0  0
  5  6  1  0  0  0  0
  5 25  1  0  0  0  0
  6  7  2  0  0  0  0
  6  8  1  0  0  0  0
  8  9  1  0  0  0  0
  8 26  1  0  0  0  0
  9 10  1  0  0  0  0
  9 27  1  0  0  0  0
  9 28  1  0  0  0  0
 10 18  1  0  0  0  0
 10 11  1  0  0  0  0
 10 29  1  0  0  0  0
 11 12  1  0  0  0  0
 11 30  1  0  0  0  0
 11 31  1  0  0  0  0
 12 13  1  0  0  0  0
 12 32  1  0  0  0  0
 12 33  1  0  0  0  0
 13 14  1  0  0  0  0
 13 17  1  0  0  0  0
 13 43  1  0  0  0  0
 14 15  1  0  0  0  0
 14 34  1  0  0  0  0
 14 35  1  0  0  0  0
 15 16  1  0  0  0  0
 15 36  1  0  0  0  0
 15 37  1  0  0  0  0
 16 38  1  0  0  0  0
 17 18  1  0  0  0  0
 17 39  1  0  0  0  0
 17 40  1  0  0  0  0
 18 41  1  0  0  0  0
 18 42  1  0  0  0  0
 19 20  1  0  0  0  0
M  CHG  1  13   1
M  END
> <s_m_source_file>
AV-unprocessed.smi

> <i_m_source_file_index>
650

> <i_lp_mmshare_version>
43012

> <i_f3d_flags>
0

> <s_epik_input>
W0NIM11jMVtjSF1jKG5vMSlbTkhdQyg9TylbTkhdW0NIMl1bQ0hdMltDSDJdW0NIMl1OKFtDSDJdW0NIMl0yKVtDSDJdW0NIMl1bT0hd

> <s_epik_cmdline>
J2VwaWtfcHl0aG9uJywgJy1waCcsICc3LjAnLCAnLXRuJywgJzgnLCAnLW1hJywgJzIwMCcsICctbWV0YWxfYmluZGluZycsICctaW1hZScsICc8aW5maWxlLm1hZT4nLCAnLW9tYWUnLCAnPG91dGZpbGUubWFlPic=

> <r_epik_Ionization_Penalty>
0.00179437

> <r_epik_Ionization_Penalty_Charging>
0.00177223

> <r_epik_Ionization_Penalty_Neutral>
2.21418e-05

> <r_epik_State_Penalty>
0.00120075

> <r_epik_Charging_Adjusted_Penalty>
0.00297297

> <i_epik_Tot_Q>
1

> <i_epik_Tot_abs_Q>
1

> <r_epik_Metal_State_Penalty>
-0

> <b_epik_Metal_Only>
0

> <s_lp_Force_Field>
OPLS_2005

> <r_lp_Energy>
15.9462

> <b_lp_Chiralities_Consistent>
1

> <s_lp_Variant>
AV-unprocessed.smi:650-1

> <Gold.Version>
5.8.1

> <Gold.Id.Protein>
6NUR|6NUR_protein|mol2

> <Gold.PLP.Fitness>
45.3030

> <Gold.PLP.PLP>
-25.9804

> <Gold.PLP.part.hbond>
-6.0000

> <Gold.PLP.part.metal>
0.0000

> <Gold.PLP.part.buried>
3.3024

> <Gold.PLP.part.nonpolar>
-23.7075

> <Gold.PLP.part.repulsive>
0.3031

> <Gold.PLP.ligand.clash>
0.0000

> <Gold.PLP.ligand.torsion>
0.2302

> <Gold.PLP.Chemscore.Hbond>
6.5760

> <Gold.PLP.Chemscore.CHOScore>
0.0000

> <Gold.PLP.Chemscore.Metal>
0.0000

> <Gold.Chemscore.Hbonds>
donor molecule, donor type, donor heavy atom, donor atom, acceptor molecule, acceptor atom, score
      L1  H     5    25       P1  7957  1.00
      L1  H     8    26       P1  7957  1.00
      L1  H    13    43       P1  7948  2.00
      L1  H    16    38       P1 10747  1.00
      P1  H  7989  7998       L1    19  0.53
      P1  H  7997  8009       L1    20  1.00

> <Gold.PLP.Chemscore.Internal.Correction>
0.0548

> <Gold.Rescore>
     Score         DG    S(hbond)    S(metal)    S(lipo)     H(rot)  DE(clash)    DE(int)     intcor
     18.19     -22.39       4.91        0.00      60.26       2.55       2.56       1.63       ----

> <Gold.Chemscore.Fitness>
18.1939

> <Gold.Chemscore.DG>
-22.3877

> <Gold.Chemscore.ZeroCoef>
-5.4800

> <Gold.Chemscore.Hbond>
4.9052

> <Gold.Chemscore.Metal>
0.0000

> <Gold.Chemscore.Lipo>
60.2590

> <Gold.Chemscore.Internal_Hbond>
0.0000

> <Gold.Chemscore.DEClash>
2.5610

> <Gold.Chemscore.DEInternal>
1.6328

> <Gold.Chemscore.Rot>
2.5492

> <Gold.Chemscore.Internal.Correction>
   9.000000E+99

> <Gold.Chemscore.Hbonds>
donor molecule, donor type, donor heavy atom, donor atom, acceptor molecule, acceptor atom, score
      L1  H     5    25       P1  7957  0.96
      L1  H     8    26       P1  7957  0.99
      L1  H    13    43       P1  7948  0.89
      L1  H    16    38       P1 10747  1.00
      P1  H  7989  7998       L1    19  0.03
      P1  H  7997  8009       L1    20  0.99

> <Gold.Chemscore.Hbond.Weighted>
-16.3834

> <Gold.Chemscore.Metal.Weighted>
-0.0000

> <Gold.Chemscore.Lipo.Weighted>
-7.0503

> <Gold.Chemscore.Internal_Hbond.Weighted>
0.0000

> <Gold.Chemscore.DEClash.Weighted>
2.5610

> <Gold.Chemscore.DEInternal.Weighted>
1.6328

> <Gold.Chemscore.Rot.Weighted>
6.5260

> <Gold.Chemscore.Internal.Correction.Weighted>
   9.000000E+99

> <Gold.Protein.RotatedTorsions>
[ 6907 6896 6895 6894 ] final -118.89 input  -60.11 | X-H torsion
[ 7974 7965 7964 7962 ] final  -83.79 input  175.53 | X-H torsion
[ 8008 7997 7996 7995 ] final -162.13 input   59.86 | X-H torsion
[ 10167 10162 10161 10158 ] final  -39.09 input  -65.29 | X-H torsion
[ 10718 10713 10712 10709 ] final  -26.47 input   66.30 | X-H torsion
[ 10763 10752 10751 10750 ] final  -54.21 input  -60.55 | X-H torsion
[ 11005 11000 10999 10996 ] final -101.39 input  -57.11 | X-H torsion

> <Gold.Protein.ActiveResidues>
 VAL166  LYS551  ARG553  GLY616  TRP617  ASP618  TYR619  PRO620  LYS621  CYS622 
 ASP623  PHE694  ASN695  SER759  ASP760  ASP761  ALA762  ILE779  LEU786  VAL792 
 PHE793  MET794  SER795  GLU796  ALA797  LYS798  CYS799  TRP800  GLU811  SER814 

> <Gold.Protein.RotatedAtoms>
  150.8258  133.8174  159.3119 H   0  0  0  0  0  0  0  0  0  0  0  0  # atno 6907 bound_to 6896
  151.5919  135.1051  160.0050 H   0  0  0  0  0  0  0  0  0  0  0  0  # atno 6908 bound_to 6896
  152.4343  133.7292  159.6634 H   0  0  0  0  0  0  0  0  0  0  0  0  # atno 6909 bound_to 6896
  145.5153  140.9536  143.1685 H   0  0  0  0  0  0  0  0  0  0  0  0  # atno 7974 bound_to 7965
  155.8023  140.0893  157.1950 H   0  0  0  0  0  0  0  0  0  0  0  0  # atno 8008 bound_to 7997
  154.3981  140.1470  156.3348 H   0  0  0  0  0  0  0  0  0  0  0  0  # atno 8009 bound_to 7997
  155.8450  140.3437  155.5658 H   0  0  0  0  0  0  0  0  0  0  0  0  # atno 8010 bound_to 7997
  140.7074  143.3236  151.2733 H   0  0  0  0  0  0  0  0  0  0  0  0  # atno 10167 bound_to 10162
  156.4508  130.4483  149.6991 H   0  0  0  0  0  0  0  0  0  0  0  0  # atno 10718 bound_to 10713
  154.1711  135.6459  153.5010 H   0  0  0  0  0  0  0  0  0  0  0  0  # atno 10763 bound_to 10752
  153.0084  135.5383  154.6611 H   0  0  0  0  0  0  0  0  0  0  0  0  # atno 10764 bound_to 10752
  154.5951  135.2938  155.0567 H   0  0  0  0  0  0  0  0  0  0  0  0  # atno 10765 bound_to 10752
  141.1233  133.8474  157.1225 H   0  0  0  0  0  0  0  0  0  0  0  0  # atno 11005 bound_to 11000
  144.7705  139.6745  143.7196 LP  0  0  0  0  0  0  0  0  0  0  0  0  # atno 17320 bound_to 7965
  146.2141  139.5517  142.9662 LP  0  0  0  0  0  0  0  0  0  0  0  0  # atno 17321 bound_to 7965
  139.6697  144.0042  152.2745 LP  0  0  0  0  0  0  0  0  0  0  0  0  # atno 17342 bound_to 10162
  139.9636  144.6541  150.8056 LP  0  0  0  0  0  0  0  0  0  0  0  0  # atno 17343 bound_to 10162
  156.3818  130.7583  151.2576 LP  0  0  0  0  0  0  0  0  0  0  0  0  # atno 17370 bound_to 10713
  157.7503  131.0293  150.4089 LP  0  0  0  0  0  0  0  0  0  0  0  0  # atno 17371 bound_to 10713
  140.0208  134.9946  157.0588 LP  0  0  0  0  0  0  0  0  0  0  0  0  # atno 17394 bound_to 11000
  140.4442  134.1649  155.7176 LP  0  0  0  0  0  0  0  0  0  0  0  0  # atno 17395 bound_to 11000

$$$$
