AV-unprocessed.smi:2189|AV-procd|sdf|8887|dock2
  -GOLD-   2272012 83D 1   1.00000     0.00000
 Structure written by MMmdl.
 39 41  0  0  0  0  0  0  0  0  3 V2000
  152.7402  139.5984  155.9051 O   0  0  0  0  0  0  0  0  0  0  0  0
  151.7229  140.0945  156.4066 C   0  0  0  0  0  0  0  0  0  0  0  0
  150.4446  139.9006  155.9578 N   0  5  0  0  0  0  0  0  0  0  0  0
  150.0652  139.5342  154.5915 C   0  0  0  0  0  0  0  0  0  0  0  0
  150.9494  138.3701  154.0925 C   0  0  0  0  0  0  0  0  0  0  0  0
  150.8213  137.0810  154.8994 C   0  0  0  0  0  0  0  0  0  0  0  0
  151.4098  136.9382  156.1767 C   0  0  0  0  0  0  0  0  0  0  0  0
  151.2547  135.7259  156.8795 C   0  0  0  0  0  0  0  0  0  0  0  0
  150.5216  134.6755  156.2900 C   0  0  0  0  0  0  0  0  0  0  0  0
  149.9603  134.8657  155.0110 C   0  0  0  0  0  0  0  0  0  0  0  0
  150.1299  136.0426  154.3699 N   0  3  0  0  0  0  0  0  0  0  0  0
  151.8665  140.9952  157.5643 C   0  0  0  0  0  0  0  0  0  0  0  0
  151.0245  142.0569  157.6651 C   0  0  0  0  0  0  0  0  0  0  0  0
  151.0890  142.9751  158.7745 C   0  0  0  0  0  0  0  0  0  0  0  0
  152.0301  142.7729  159.7028 C   0  0  0  0  0  0  0  0  0  0  0  0
  152.9458  141.7231  159.6470 N   0  0  0  0  0  0  0  0  0  0  0  0
  153.9724  141.6851  160.6827 C   0  0  0  0  0  0  0  0  0  0  0  0
  154.2019  140.2588  161.1484 C   0  0  0  0  0  0  0  0  0  0  0  0
  154.8412  139.3561  159.6922 S   0  0  0  0  0  0  0  0  0  0  0  0
  156.0916  140.0045  159.2664 O   0  0  0  0  0  0  0  0  0  0  0  0
  154.8460  137.9205  160.0119 O   0  0  0  0  0  0  0  0  0  0  0  0
  153.6378  139.6890  158.5761 N   0  0  0  0  0  0  0  0  0  0  0  0
  152.8841  140.7519  158.6076 C   0  0  0  0  0  0  0  0  0  0  0  0
  149.0197  139.2348  154.5056 H   0  0  0  0  0  0  0  0  0  0  0  0
  150.1845  140.3789  153.9130 H   0  0  0  0  0  0  0  0  0  0  0  0
  150.6977  138.1499  153.0546 H   0  0  0  0  0  0  0  0  0  0  0  0
  151.9953  138.6802  154.0843 H   0  0  0  0  0  0  0  0  0  0  0  0
  151.9629  137.7552  156.6169 H   0  0  0  0  0  0  0  0  0  0  0  0
  151.6917  135.6047  157.8596 H   0  0  0  0  0  0  0  0  0  0  0  0
  150.3900  133.7392  156.8121 H   0  0  0  0  0  0  0  0  0  0  0  0
  149.3824  134.1193  154.4862 H   0  0  0  0  0  0  0  0  0  0  0  0
  150.2810  142.2492  156.9048 H   0  0  0  0  0  0  0  0  0  0  0  0
  150.3972  143.8006  158.8534 H   0  0  0  0  0  0  0  0  0  0  0  0
  152.1289  143.4270  160.5568 H   0  0  0  0  0  0  0  0  0  0  0  0
  154.8934  142.1217  160.2952 H   0  0  0  0  0  0  0  0  0  0  0  0
  153.6771  142.2907  161.5402 H   0  0  0  0  0  0  0  0  0  0  0  0
  154.9413  140.2057  161.9469 H   0  0  0  0  0  0  0  0  0  0  0  0
  153.2816  139.7857  161.4930 H   0  0  0  0  0  0  0  0  0  0  0  0
  149.7084  136.1615  153.4485 H   0  0  0  0  0  0  0  0  0  0  0  0
  1  2  2  0  0  0  0
  2  3  1  0  0  0  0
  2 12  1  0  0  0  0
  3  4  1  0  0  0  0
  4  5  1  0  0  0  0
  4 24  1  0  0  0  0
  4 25  1  0  0  0  0
  5  6  1  0  0  0  0
  5 26  1  0  0  0  0
  5 27  1  0  0  0  0
  6 11  1  0  0  0  0
  6  7  2  0  0  0  0
  7  8  1  0  0  0  0
  7 28  1  0  0  0  0
  8  9  2  0  0  0  0
  8 29  1  0  0  0  0
  9 10  1  0  0  0  0
  9 30  1  0  0  0  0
 10 11  2  0  0  0  0
 10 31  1  0  0  0  0
 11 39  1  0  0  0  0
 12 23  1  0  0  0  0
 12 13  2  0  0  0  0
 13 14  1  0  0  0  0
 13 32  1  0  0  0  0
 14 15  2  0  0  0  0
 14 33  1  0  0  0  0
 15 16  1  0  0  0  0
 15 34  1  0  0  0  0
 16 23  1  0  0  0  0
 16 17  1  0  0  0  0
 17 18  1  0  0  0  0
 17 35  1  0  0  0  0
 17 36  1  0  0  0  0
 18 19  1  0  0  0  0
 18 37  1  0  0  0  0
 18 38  1  0  0  0  0
 19 20  2  0  0  0  0
 19 21  2  0  0  0  0
 19 22  1  0  0  0  0
 22 23  2  0  0  0  0
M  CHG  1   3  -1
M  CHG  1  11   1
M  END
> <s_m_source_file>
AV-unprocessed.smi

> <i_m_source_file_index>
2189

> <i_lp_mmshare_version>
43012

> <i_f3d_flags>
0

> <s_epik_input>
W0NIMl0xW0NIMl1TKD1PKSg9TylOPUMoTjEyKUMoPVtDSF1bQ0hdPVtDSF0yKUMoPU8pW05IXVtDSDJdW0NIMl1jM1tjSF1bY0hdW2NIXVtjSF1uMw==

> <s_epik_cmdline>
J2VwaWtfcHl0aG9uJywgJy1waCcsICc3LjAnLCAnLXRuJywgJzgnLCAnLW1hJywgJzIwMCcsICctbWV0YWxfYmluZGluZycsICctaW1hZScsICc8aW5maWxlLm1hZT4nLCAnLW9tYWUnLCAnPG91dGZpbGUubWFlPic=

> <r_epik_Ionization_Penalty>
6.52844

> <r_epik_Ionization_Penalty_Charging>
6.52844

> <r_epik_Ionization_Penalty_Neutral>
1.18271e-13

> <r_epik_State_Penalty>
7.49351

> <r_epik_Charging_Adjusted_Penalty>
14.0219

> <i_epik_Tot_Q>
0

> <i_epik_Tot_abs_Q>
2

> <r_epik_Metal_State_Penalty>
3.53414

> <b_epik_Metal_Only>
1

> <s_lp_Force_Field>
OPLS_2005

> <r_lp_Energy>
35.7172

> <b_lp_Chiralities_Consistent>
1

> <s_lp_Variant>
AV-unprocessed.smi:2189-4

> <Gold.Version>
5.8.1

> <Gold.Id.Protein>
6NUR|6NUR_protein|mol2

> <Gold.PLP.Fitness>
51.5835

> <Gold.PLP.PLP>
-41.0339

> <Gold.PLP.part.hbond>
-4.9190

> <Gold.PLP.part.metal>
0.0000

> <Gold.PLP.part.buried>
-4.6528

> <Gold.PLP.part.nonpolar>
-31.4255

> <Gold.PLP.part.repulsive>
0.0843

> <Gold.PLP.ligand.clash>
0.0000

> <Gold.PLP.ligand.torsion>
0.9158

> <Gold.PLP.Chemscore.Hbond>
4.0000

> <Gold.PLP.Chemscore.CHOScore>
0.0000

> <Gold.PLP.Chemscore.Metal>
0.0000

> <Gold.Chemscore.Hbonds>
donor molecule, donor type, donor heavy atom, donor atom, acceptor molecule, acceptor atom, score
      L1  H    11    39       P1  7948  1.90
      P1  H  7997  8008       L1     1  1.00
      P1  H  7997  8010       L1    20  0.95

> <Gold.PLP.Chemscore.Internal.Correction>
0.3811

> <Gold.Rescore>
     Score         DG    S(hbond)    S(metal)    S(lipo)     H(rot)  DE(clash)    DE(int)     intcor
     16.64     -20.15       2.60        0.00      84.30       1.51       0.00       3.51       ----

> <Gold.Chemscore.Fitness>
16.6365

> <Gold.Chemscore.DG>
-20.1515

> <Gold.Chemscore.ZeroCoef>
-5.4800

> <Gold.Chemscore.Hbond>
2.5979

> <Gold.Chemscore.Metal>
0.0000

> <Gold.Chemscore.Lipo>
84.2955

> <Gold.Chemscore.Internal_Hbond>
0.0000

> <Gold.Chemscore.DEClash>
0.0000

> <Gold.Chemscore.DEInternal>
3.5150

> <Gold.Chemscore.Rot>
1.5109

> <Gold.Chemscore.Internal.Correction>
   9.000000E+99

> <Gold.Chemscore.Hbonds>
donor molecule, donor type, donor heavy atom, donor atom, acceptor molecule, acceptor atom, score
      L1  H    11    39       P1  7948  0.22
      P1  H  7997  8008       L1     1  1.00
      P1  H  7997  8010       L1    20  0.19

> <Gold.Chemscore.Hbond.Weighted>
-8.6770

> <Gold.Chemscore.Metal.Weighted>
-0.0000

> <Gold.Chemscore.Lipo.Weighted>
-9.8626

> <Gold.Chemscore.Internal_Hbond.Weighted>
0.0000

> <Gold.Chemscore.DEClash.Weighted>
0.0000

> <Gold.Chemscore.DEInternal.Weighted>
3.5150

> <Gold.Chemscore.Rot.Weighted>
3.8680

> <Gold.Chemscore.Internal.Correction.Weighted>
   9.000000E+99

> <Gold.Protein.RotatedTorsions>
[ 6907 6896 6895 6894 ] final   16.41 input  -60.11 | X-H torsion
[ 7974 7965 7964 7962 ] final  -75.14 input  175.53 | X-H torsion
[ 8008 7997 7996 7995 ] final  -38.55 input   59.86 | X-H torsion
[ 10167 10162 10161 10158 ] final  -60.73 input  -65.29 | X-H torsion
[ 10718 10713 10712 10709 ] final   60.02 input   66.30 | X-H torsion
[ 10763 10752 10751 10750 ] final -108.30 input  -60.55 | X-H torsion
[ 11005 11000 10999 10996 ] final  -35.69 input  -57.11 | X-H torsion

> <Gold.Protein.ActiveResidues>
 VAL166  LYS551  ARG553  GLY616  TRP617  ASP618  TYR619  PRO620  LYS621  CYS622 
 ASP623  PHE694  ASN695  SER759  ASP760  ASP761  ALA762  ILE779  LEU786  VAL792 
 PHE793  MET794  SER795  GLU796  ALA797  LYS798  CYS799  TRP800  GLU811  SER814 

> <Gold.Protein.RotatedAtoms>
  151.8335  135.0614  160.0439 H   0  0  0  0  0  0  0  0  0  0  0  0  # atno 6907 bound_to 6896
  152.2863  133.5513  159.5537 H   0  0  0  0  0  0  0  0  0  0  0  0  # atno 6908 bound_to 6896
  150.7210  134.0409  159.3807 H   0  0  0  0  0  0  0  0  0  0  0  0  # atno 6909 bound_to 6896
  145.6299  140.9340  143.1092 H   0  0  0  0  0  0  0  0  0  0  0  0  # atno 7974 bound_to 7965
  154.4035  140.1575  156.2718 H   0  0  0  0  0  0  0  0  0  0  0  0  # atno 8008 bound_to 7997
  155.8946  140.3436  155.5959 H   0  0  0  0  0  0  0  0  0  0  0  0  # atno 8009 bound_to 7997
  155.7518  140.0806  157.2188 H   0  0  0  0  0  0  0  0  0  0  0  0  # atno 8010 bound_to 7997
  140.6052  143.2371  151.5837 H   0  0  0  0  0  0  0  0  0  0  0  0  # atno 10167 bound_to 10162
  157.5721  130.8915  149.9284 H   0  0  0  0  0  0  0  0  0  0  0  0  # atno 10718 bound_to 10713
  154.8127  135.4643  154.0560 H   0  0  0  0  0  0  0  0  0  0  0  0  # atno 10763 bound_to 10752
  153.1978  135.6864  153.8277 H   0  0  0  0  0  0  0  0  0  0  0  0  # atno 10764 bound_to 10752
  153.7772  135.3261  155.3338 H   0  0  0  0  0  0  0  0  0  0  0  0  # atno 10765 bound_to 10752
  140.9816  133.7053  156.1693 H   0  0  0  0  0  0  0  0  0  0  0  0  # atno 11005 bound_to 11000
  144.7198  139.8071  143.7386 LP  0  0  0  0  0  0  0  0  0  0  0  0  # atno 17320 bound_to 7965
  146.1365  139.4411  143.0136 LP  0  0  0  0  0  0  0  0  0  0  0  0  # atno 17321 bound_to 7965
  139.5320  144.2889  152.1168 LP  0  0  0  0  0  0  0  0  0  0  0  0  # atno 17342 bound_to 10162
  140.2077  144.4594  150.6400 LP  0  0  0  0  0  0  0  0  0  0  0  0  # atno 17343 bound_to 10162
  156.0766  130.3678  150.0665 LP  0  0  0  0  0  0  0  0  0  0  0  0  # atno 17370 bound_to 10713
  156.8816  130.9558  151.3599 LP  0  0  0  0  0  0  0  0  0  0  0  0  # atno 17371 bound_to 10713
  140.7178  134.4391  157.5577 LP  0  0  0  0  0  0  0  0  0  0  0  0  # atno 17394 bound_to 11000
  139.8952  134.8687  156.2140 LP  0  0  0  0  0  0  0  0  0  0  0  0  # atno 17395 bound_to 11000

$$$$
