AV-unprocessed.smi:1239|AV-procd|sdf|5189|dock3
  -GOLD-   22720 4273D 1   1.00000     0.00000
 Structure written by MMmdl.
 49 50  0  0  0  0  0  0  0  0  3 V2000
  144.0469  137.0906  152.6594 C   0  0  0  0  0  0  0  0  0  0  0  0
  145.5620  136.8818  152.9002 C   0  0  2  0  0  0  0  0  0  0  0  0
  146.3581  138.0999  152.3608 C   0  0  0  0  0  0  0  0  0  0  0  0
  147.6208  138.3143  153.0633 N   0  0  0  0  0  0  0  0  0  0  0  0
  147.9090  139.3954  153.8018 C   0  0  0  0  0  0  0  0  0  0  0  0
  147.1287  140.3347  153.9556 O   0  0  0  0  0  0  0  0  0  0  0  0
  149.1474  139.3207  154.3198 N   0  0  0  0  0  0  0  0  0  0  0  0
  149.8014  140.2420  155.1830 C   0  0  0  0  0  0  0  0  0  0  0  0
  150.8851  139.7700  155.9528 C   0  0  0  0  0  0  0  0  0  0  0  0
  151.5538  140.6437  156.8346 C   0  0  0  0  0  0  0  0  0  0  0  0
  151.1280  141.9897  156.9515 C   0  0  0  0  0  0  0  0  0  0  0  0
  151.7447  142.9244  157.8114 N   0  0  0  0  0  0  0  0  0  0  0  0
  151.5906  144.3530  157.5593 C   0  0  0  0  0  0  0  0  0  0  0  0
  152.5032  142.4581  158.9648 C   0  0  0  0  0  0  0  0  0  0  0  0
  150.0738  142.3931  156.2009 N   0  3  0  0  0  0  0  0  0  0  0  0
  149.4066  141.5915  155.3430 C   0  0  0  0  0  0  0  0  0  0  0  0
  146.0932  135.6097  152.3092 N   0  3  0  0  0  0  0  0  0  0  0  0
  146.1246  134.4948  153.2953 C   0  0  0  0  0  0  0  0  0  0  0  0
  146.7579  133.2334  152.6868 C   0  0  0  0  0  0  0  0  0  0  0  0
  146.0274  132.8483  151.5317 O   0  0  0  0  0  0  0  0  0  0  0  0
  146.0651  133.8556  150.5317 C   0  0  0  0  0  0  0  0  0  0  0  0
  145.4209  135.1478  151.0631 C   0  0  0  0  0  0  0  0  0  0  0  0
  143.6980  138.0347  153.0771 H   0  0  0  0  0  0  0  0  0  0  0  0
  143.4459  136.3184  153.1398 H   0  0  0  0  0  0  0  0  0  0  0  0
  143.8090  137.0978  151.5951 H   0  0  0  0  0  0  0  0  0  0  0  0
  145.7005  136.8203  153.9809 H   0  0  0  0  0  0  0  0  0  0  0  0
  146.5751  138.0093  151.2970 H   0  0  0  0  0  0  0  0  0  0  0  0
  145.7593  139.0050  152.4663 H   0  0  0  0  0  0  0  0  0  0  0  0
  148.3182  137.5883  152.9828 H   0  0  0  0  0  0  0  0  0  0  0  0
  149.7004  138.5250  154.0364 H   0  0  0  0  0  0  0  0  0  0  0  0
  151.2100  138.7432  155.8680 H   0  0  0  0  0  0  0  0  0  0  0  0
  152.3843  140.2634  157.4098 H   0  0  0  0  0  0  0  0  0  0  0  0
  150.5399  144.6402  157.6118 H   0  0  0  0  0  0  0  0  0  0  0  0
  151.9726  144.6117  156.5710 H   0  0  0  0  0  0  0  0  0  0  0  0
  152.1360  144.9473  158.2926 H   0  0  0  0  0  0  0  0  0  0  0  0
  153.3441  141.8413  158.6465 H   0  0  0  0  0  0  0  0  0  0  0  0
  151.8691  141.8690  159.6279 H   0  0  0  0  0  0  0  0  0  0  0  0
  152.9019  143.2930  159.5415 H   0  0  0  0  0  0  0  0  0  0  0  0
  148.5804  142.0644  154.8339 H   0  0  0  0  0  0  0  0  0  0  0  0
  146.6882  134.7690  154.1850 H   0  0  0  0  0  0  0  0  0  0  0  0
  145.1084  134.2716  153.6246 H   0  0  0  0  0  0  0  0  0  0  0  0
  147.8060  133.4029  152.4349 H   0  0  0  0  0  0  0  0  0  0  0  0
  146.7321  132.4164  153.4082 H   0  0  0  0  0  0  0  0  0  0  0  0
  147.0944  134.0349  150.2164 H   0  0  0  0  0  0  0  0  0  0  0  0
  145.5229  133.5008  149.6552 H   0  0  0  0  0  0  0  0  0  0  0  0
  144.3596  134.9848  151.2575 H   0  0  0  0  0  0  0  0  0  0  0  0
  145.4998  135.8976  150.2765 H   0  0  0  0  0  0  0  0  0  0  0  0
  149.7620  143.3602  156.2903 H   0  0  0  0  0  0  0  0  0  0  0  0
  147.0507  135.7982  152.0479 H   0  0  0  0  0  0  0  0  0  0  0  0
  1  2  1  0  0  0  0
  1 23  1  0  0  0  0
  1 24  1  0  0  0  0
  1 25  1  0  0  0  0
  2  3  1  0  0  0  0
  2 17  1  0  0  0  0
  2 26  1  0  0  0  0
  3  4  1  0  0  0  0
  3 27  1  0  0  0  0
  3 28  1  0  0  0  0
  4  5  1  0  0  0  0
  4 29  1  0  0  0  0
  5  6  2  0  0  0  0
  5  7  1  0  0  0  0
  7  8  1  0  0  0  0
  7 30  1  0  0  0  0
  8 16  1  0  0  0  0
  8  9  2  0  0  0  0
  9 10  1  0  0  0  0
  9 31  1  0  0  0  0
 10 11  2  0  0  0  0
 10 32  1  0  0  0  0
 11 12  1  0  0  0  0
 11 15  1  0  0  0  0
 12 13  1  0  0  0  0
 12 14  1  0  0  0  0
 13 33  1  0  0  0  0
 13 34  1  0  0  0  0
 13 35  1  0  0  0  0
 14 36  1  0  0  0  0
 14 37  1  0  0  0  0
 14 38  1  0  0  0  0
 15 16  2  0  0  0  0
 15 48  1  0  0  0  0
 16 39  1  0  0  0  0
 17 22  1  0  0  0  0
 17 18  1  0  0  0  0
 17 49  1  0  0  0  0
 18 19  1  0  0  0  0
 18 40  1  0  0  0  0
 18 41  1  0  0  0  0
 19 20  1  0  0  0  0
 19 42  1  0  0  0  0
 19 43  1  0  0  0  0
 20 21  1  0  0  0  0
 21 22  1  0  0  0  0
 21 44  1  0  0  0  0
 21 45  1  0  0  0  0
 22 46  1  0  0  0  0
 22 47  1  0  0  0  0
M  CHG  1  15   1
M  CHG  1  17   1
M  END
> <s_m_source_file>
AV-unprocessed.smi

> <i_m_source_file_index>
1239

> <i_lp_mmshare_version>
43012

> <i_f3d_flags>
0

> <s_epik_input>
W0NIMl0xW0NIMl1PW0NIMl1bQ0gyXU4xW0NASF0oW0NIM10pW0NIMl1bTkhdQyg9TylbTkhdYzJbY0hdW2NIXWMoTihbQ0gzXSlbQ0gzXSluW2NIXTI=

> <s_epik_cmdline>
J2VwaWtfcHl0aG9uJywgJy1waCcsICc3LjAnLCAnLXRuJywgJzgnLCAnLW1hJywgJzIwMCcsICctbWV0YWxfYmluZGluZycsICctaW1hZScsICc8aW5maWxlLm1hZT4nLCAnLW9tYWUnLCAnPG91dGZpbGUubWFlPic=

> <r_lp_tautomer_probability>
0.999994

> <r_epik_Ionization_Penalty>
0.907597

> <r_epik_Ionization_Penalty_Charging>
0.907577

> <r_epik_Ionization_Penalty_Neutral>
2.023e-05

> <r_epik_State_Penalty>
0.909151

> <r_epik_Charging_Adjusted_Penalty>
1.81673

> <i_epik_Tot_Q>
2

> <i_epik_Tot_abs_Q>
2

> <r_epik_Metal_State_Penalty>
1.19543

> <b_epik_Metal_Only>
0

> <s_lp_Force_Field>
OPLS_2005

> <r_lp_Energy>
31.6235

> <b_lp_Chiralities_Consistent>
1

> <s_lp_Variant>
AV-unprocessed.smi:1239-5

> <Gold.Version>
5.8.1

> <Gold.Id.Protein>
6NUR|6NUR_protein|mol2

> <Gold.PLP.Fitness>
49.4910

> <Gold.PLP.PLP>
-37.8866

> <Gold.PLP.part.hbond>
-3.7801

> <Gold.PLP.part.metal>
0.0000

> <Gold.PLP.part.buried>
-2.3095

> <Gold.PLP.part.nonpolar>
-31.6063

> <Gold.PLP.part.repulsive>
0.5079

> <Gold.PLP.ligand.clash>
0.0000

> <Gold.PLP.ligand.torsion>
1.4763

> <Gold.PLP.Chemscore.Hbond>
4.8160

> <Gold.PLP.Chemscore.CHOScore>
0.0000

> <Gold.PLP.Chemscore.Metal>
0.0000

> <Gold.Chemscore.Hbonds>
donor molecule, donor type, donor heavy atom, donor atom, acceptor molecule, acceptor atom, score
      L1  H     4    29       P1  7948  0.86
      L1  H    15    48       P1  8028  2.00
      L1  H    17    49       P1  7948  2.00

> <Gold.PLP.Chemscore.Internal.Correction>
0.1089

> <Gold.Rescore>
     Score         DG    S(hbond)    S(metal)    S(lipo)     H(rot)  DE(clash)    DE(int)     intcor
     18.52     -20.74       2.75        0.00      84.81       1.51       0.12       2.10       ----

> <Gold.Chemscore.Fitness>
18.5236

> <Gold.Chemscore.DG>
-20.7439

> <Gold.Chemscore.ZeroCoef>
-5.4800

> <Gold.Chemscore.Hbond>
2.7537

> <Gold.Chemscore.Metal>
0.0000

> <Gold.Chemscore.Lipo>
84.8106

> <Gold.Chemscore.Internal_Hbond>
0.0000

> <Gold.Chemscore.DEClash>
0.1157

> <Gold.Chemscore.DEInternal>
2.1046

> <Gold.Chemscore.Rot>
1.5064

> <Gold.Chemscore.Internal.Correction>
   9.000000E+99

> <Gold.Chemscore.Hbonds>
donor molecule, donor type, donor heavy atom, donor atom, acceptor molecule, acceptor atom, score
      L1  H     4    29       P1  7948  0.85
      L1  H    15    48       P1  8028  0.94
      L1  H    17    49       P1  7948  0.99

> <Gold.Chemscore.Hbond.Weighted>
-9.1974

> <Gold.Chemscore.Metal.Weighted>
-0.0000

> <Gold.Chemscore.Lipo.Weighted>
-9.9228

> <Gold.Chemscore.Internal_Hbond.Weighted>
0.0000

> <Gold.Chemscore.DEClash.Weighted>
0.1157

> <Gold.Chemscore.DEInternal.Weighted>
2.1046

> <Gold.Chemscore.Rot.Weighted>
3.8563

> <Gold.Chemscore.Internal.Correction.Weighted>
   9.000000E+99

> <Gold.Protein.RotatedTorsions>
[ 6907 6896 6895 6894 ] final  -39.49 input  -60.11 | X-H torsion
[ 7974 7965 7964 7962 ] final   26.80 input  175.53 | X-H torsion
[ 8008 7997 7996 7995 ] final   51.59 input   59.86 | X-H torsion
[ 10167 10162 10161 10158 ] final -176.58 input  -65.29 | X-H torsion
[ 10718 10713 10712 10709 ] final   17.39 input   66.30 | X-H torsion
[ 10763 10752 10751 10750 ] final  -52.70 input  -60.55 | X-H torsion
[ 11005 11000 10999 10996 ] final  -73.60 input  -57.11 | X-H torsion

> <Gold.Protein.ActiveResidues>
 VAL166  LYS551  ARG553  GLY616  TRP617  ASP618  TYR619  PRO620  LYS621  CYS622 
 ASP623  PHE694  ASN695  SER759  ASP760  ASP761  ALA762  ILE779  LEU786  VAL792 
 PHE793  MET794  SER795  GLU796  ALA797  LYS798  CYS799  TRP800  GLU811  SER814 

> <Gold.Protein.RotatedAtoms>
  150.9897  134.9234  159.7891 H   0  0  0  0  0  0  0  0  0  0  0  0  # atno 6907 bound_to 6896
  152.5247  134.3298  159.9189 H   0  0  0  0  0  0  0  0  0  0  0  0  # atno 6908 bound_to 6896
  151.3305  133.3961  159.2696 H   0  0  0  0  0  0  0  0  0  0  0  0  # atno 6909 bound_to 6896
  146.1818  139.7279  142.8895 H   0  0  0  0  0  0  0  0  0  0  0  0  # atno 7974 bound_to 7965
  155.4377  140.3453  155.4286 H   0  0  0  0  0  0  0  0  0  0  0  0  # atno 8008 bound_to 7997
  156.1297  140.1511  156.9113 H   0  0  0  0  0  0  0  0  0  0  0  0  # atno 8009 bound_to 7997
  154.4885  140.0848  156.7522 H   0  0  0  0  0  0  0  0  0  0  0  0  # atno 8010 bound_to 7997
  139.5522  144.2079  152.1097 H   0  0  0  0  0  0  0  0  0  0  0  0  # atno 10167 bound_to 10162
  157.0815  130.6389  149.5827 H   0  0  0  0  0  0  0  0  0  0  0  0  # atno 10718 bound_to 10713
  154.1469  135.6496  153.4954 H   0  0  0  0  0  0  0  0  0  0  0  0  # atno 10763 bound_to 10752
  153.0149  135.5329  154.6847 H   0  0  0  0  0  0  0  0  0  0  0  0  # atno 10764 bound_to 10752
  154.6125  135.2955  155.0388 H   0  0  0  0  0  0  0  0  0  0  0  0  # atno 10765 bound_to 10752
  141.1625  133.6883  156.7237 H   0  0  0  0  0  0  0  0  0  0  0  0  # atno 11005 bound_to 11000
  145.4053  141.0390  143.3047 LP  0  0  0  0  0  0  0  0  0  0  0  0  # atno 17320 bound_to 7965
  144.8329  139.5599  143.6935 LP  0  0  0  0  0  0  0  0  0  0  0  0  # atno 17321 bound_to 7965
  140.1577  144.5055  150.6650 LP  0  0  0  0  0  0  0  0  0  0  0  0  # atno 17342 bound_to 10162
  140.6787  143.2317  151.5439 LP  0  0  0  0  0  0  0  0  0  0  0  0  # atno 17343 bound_to 10162
  155.9922  130.4980  150.7332 LP  0  0  0  0  0  0  0  0  0  0  0  0  # atno 17370 bound_to 10713
  157.4796  131.0901  151.0551 LP  0  0  0  0  0  0  0  0  0  0  0  0  # atno 17371 bound_to 10713
  140.2797  134.8326  157.3922 LP  0  0  0  0  0  0  0  0  0  0  0  0  # atno 17394 bound_to 11000
  140.1445  134.4929  155.8007 LP  0  0  0  0  0  0  0  0  0  0  0  0  # atno 17395 bound_to 11000

$$$$
