AV-unprocessed.smi:50|AV-procd|sdf|494|dock10
  -GOLD-   2262016363D 1   1.00000     0.00000
 Structure written by MMmdl.
 43 44  0  0  0  0  0  0  0  0  1 V2000
  151.3620  145.3014  158.2665 C   0  0  0  0  0  0  0  0  0  0  0  0
  151.7870  143.9718  158.9237 C   0  0  0  0  0  0  0  0  0  0  0  0
  150.7292  142.8986  158.6023 C   0  0  0  0  0  0  0  0  0  0  0  0
  152.0498  144.0767  160.4554 C   0  0  1  0  0  0  0  0  0  0  0  0
  150.8374  144.5024  161.1545 N   0  0  0  0  0  0  0  0  0  0  0  0
  152.5895  142.7669  161.0573 C   0  0  0  0  0  0  0  0  0  0  0  0
  152.0832  142.1834  162.0178 O   0  0  0  0  0  0  0  0  0  0  0  0
  153.6666  142.3423  160.3763 O   0  0  0  0  0  0  0  0  0  0  0  0
  154.3417  141.1671  160.7929 C   0  0  0  0  0  0  0  0  0  0  0  0
  153.6873  139.9416  160.1483 C   0  0  0  0  0  0  0  0  0  0  0  0
  153.3572  140.2374  158.7961 O   0  0  0  0  0  0  0  0  0  0  0  0
  152.0162  140.0791  158.4588 C   0  0  0  0  0  0  0  0  0  0  0  0
  151.8307  138.7673  157.8599 N   0  0  0  0  0  0  0  0  0  0  0  0
  152.1743  137.5443  158.3787 C   0  0  0  0  0  0  0  0  0  0  0  0
  151.8677  136.5368  157.6102 N   0  0  0  0  0  0  0  0  0  0  0  0
  151.2781  137.1264  156.4958 C   0  0  0  0  0  0  0  0  0  0  0  0
  150.7356  136.5247  155.3112 C   0  0  0  0  0  0  0  0  0  0  0  0
  150.6684  135.3311  155.0259 O   0  0  0  0  0  0  0  0  0  0  0  0
  150.2440  137.4793  154.4120 N   0  0  0  0  0  0  0  0  0  0  0  0
  150.2700  138.8534  154.6388 C   0  0  0  0  0  0  0  0  0  0  0  0
  149.7640  139.6338  153.6750 N   0  0  0  0  0  0  0  0  0  0  0  0
  150.7620  139.4055  155.7339 N   0  0  0  0  0  0  0  0  0  0  0  0
  151.2560  138.5006  156.6350 C   0  0  0  0  0  0  0  0  0  0  0  0
  152.7997  144.8508  160.6136 H   0  0  0  0  0  0  0  0  0  0  0  0
  149.8498  137.1334  153.5494 H   0  0  0  0  0  0  0  0  0  0  0  0
  150.4881  145.7236  158.7619 H   0  0  0  0  0  0  0  0  0  0  0  0
  151.1081  145.1575  157.2159 H   0  0  0  0  0  0  0  0  0  0  0  0
  152.1574  146.0462  158.2956 H   0  0  0  0  0  0  0  0  0  0  0  0
  152.7165  143.6624  158.4430 H   0  0  0  0  0  0  0  0  0  0  0  0
  149.7699  143.1395  159.0585 H   0  0  0  0  0  0  0  0  0  0  0  0
  151.0270  141.9127  158.9583 H   0  0  0  0  0  0  0  0  0  0  0  0
  150.5699  142.8130  157.5272 H   0  0  0  0  0  0  0  0  0  0  0  0
  150.9273  144.3944  162.1545 H   0  0  0  0  0  0  0  0  0  0  0  0
  150.6317  145.4762  160.9831 H   0  0  0  0  0  0  0  0  0  0  0  0
  155.4032  141.2128  160.5451 H   0  0  0  0  0  0  0  0  0  0  0  0
  154.2617  141.0920  161.8782 H   0  0  0  0  0  0  0  0  0  0  0  0
  154.4053  139.1217  160.1276 H   0  0  0  0  0  0  0  0  0  0  0  0
  152.8421  139.5944  160.7450 H   0  0  0  0  0  0  0  0  0  0  0  0
  151.4281  140.1119  159.3764 H   0  0  0  0  0  0  0  0  0  0  0  0
  151.6581  140.8699  157.7972 H   0  0  0  0  0  0  0  0  0  0  0  0
  152.6546  137.4241  159.3388 H   0  0  0  0  0  0  0  0  0  0  0  0
  149.3893  139.2143  152.8362 H   0  0  0  0  0  0  0  0  0  0  0  0
  149.7568  140.6378  153.7830 H   0  0  0  0  0  0  0  0  0  0  0  0
  1  2  1  0  0  0  0
  1 26  1  0  0  0  0
  1 27  1  0  0  0  0
  1 28  1  0  0  0  0
  2  3  1  0  0  0  0
  2  4  1  0  0  0  0
  2 29  1  0  0  0  0
  3 30  1  0  0  0  0
  3 31  1  0  0  0  0
  3 32  1  0  0  0  0
  4 24  1  0  0  0  0
  4  5  1  0  0  0  0
  4  6  1  0  0  0  0
  5 33  1  0  0  0  0
  5 34  1  0  0  0  0
  6  7  2  0  0  0  0
  6  8  1  0  0  0  0
  8  9  1  0  0  0  0
  9 10  1  0  0  0  0
  9 35  1  0  0  0  0
  9 36  1  0  0  0  0
 10 11  1  0  0  0  0
 10 37  1  0  0  0  0
 10 38  1  0  0  0  0
 11 12  1  0  0  0  0
 12 13  1  0  0  0  0
 12 39  1  0  0  0  0
 12 40  1  0  0  0  0
 13 23  1  0  0  0  0
 13 14  1  0  0  0  0
 14 15  2  0  0  0  0
 14 41  1  0  0  0  0
 15 16  1  0  0  0  0
 16 23  2  0  0  0  0
 16 17  1  0  0  0  0
 17 18  2  0  0  0  0
 17 19  1  0  0  0  0
 19 25  1  0  0  0  0
 19 20  1  0  0  0  0
 20 21  1  0  0  0  0
 20 22  2  0  0  0  0
 21 42  1  0  0  0  0
 21 43  1  0  0  0  0
 22 23  1  0  0  0  0
M  END
> <s_m_source_file>
AV-unprocessed.smi

> <i_m_source_file_index>
50

> <i_lp_mmshare_version>
43012

> <i_f3d_flags>
0

> <s_epik_input>
W0NIM11bQ0hdKFtDSDNdKVtDQEhdKFtOSDJdKUMoPU8pT1tDSDJdW0NIMl1PW0NIMl1uKFtjSF1uMSljKGMxMiluYyhbTkgyXSlbbkhdYzI9Tw==

> <s_epik_cmdline>
J2VwaWtfcHl0aG9uJywgJy1waCcsICc3LjAnLCAnLXRuJywgJzgnLCAnLW1hJywgJzIwMCcsICctbWV0YWxfYmluZGluZycsICctaW1hZScsICc8aW5maWxlLm1hZT4nLCAnLW9tYWUnLCAnPG91dGZpbGUubWFlPic=

> <r_lp_tautomer_probability>
0.99994

> <r_epik_Ionization_Penalty>
0.704142

> <r_epik_Ionization_Penalty_Charging>
0.00148332

> <r_epik_Ionization_Penalty_Neutral>
0.702658

> <r_epik_State_Penalty>
0.725442

> <r_epik_Charging_Adjusted_Penalty>
0.726926

> <i_epik_Tot_Q>
0

> <i_epik_Tot_abs_Q>
0

> <r_epik_Metal_State_Penalty>
1.04557

> <b_epik_Metal_Only>
0

> <s_epik_Chemistry_Notes>
This compound has an ester and may undergo hydrolysis at high or low pH. This compound contains an acetal/aminal-like group ( X-CH(R)-Y where X, Y are N, S, or O) that may be acid/base labile, releasing an aldehyde.

> <s_lp_Force_Field>
OPLS_2005

> <r_lp_Energy>
2.75991

> <b_lp_Chiralities_Consistent>
1

> <s_lp_Variant>
AV-unprocessed.smi:50-4

> <Gold.Version>
5.8.1

> <Gold.Id.Protein>
6NUR|6NUR_protein|mol2

> <Gold.PLP.Fitness>
44.3818

> <Gold.PLP.PLP>
-36.0131

> <Gold.PLP.part.hbond>
-5.8240

> <Gold.PLP.part.metal>
0.0000

> <Gold.PLP.part.buried>
-5.2553

> <Gold.PLP.part.nonpolar>
-25.7919

> <Gold.PLP.part.repulsive>
1.8769

> <Gold.PLP.ligand.clash>
0.0000

> <Gold.PLP.ligand.torsion>
0.9623

> <Gold.PLP.Chemscore.Hbond>
3.3886

> <Gold.PLP.Chemscore.CHOScore>
0.0000

> <Gold.PLP.Chemscore.Metal>
0.0000

> <Gold.Chemscore.Hbonds>
donor molecule, donor type, donor heavy atom, donor atom, acceptor molecule, acceptor atom, score
      L1  H    19    25       P1  7948  0.89
      L1  H    21    42       P1  7957  0.43
      P1  H  6933  6945       L1     7  0.80
      P1  H  7997  8009       L1    11  0.65
      P1  H 10752 10765       L1    18  0.04

> <Gold.PLP.Chemscore.Internal.Correction>
0.1276

> <Gold.Rescore>
     Score         DG    S(hbond)    S(metal)    S(lipo)     H(rot)  DE(clash)    DE(int)     intcor
      8.30     -10.89       2.71        0.00      72.75       4.75       1.69       0.90       ----

> <Gold.Chemscore.Fitness>
8.2975

> <Gold.Chemscore.DG>
-10.8874

> <Gold.Chemscore.ZeroCoef>
-5.4800

> <Gold.Chemscore.Hbond>
2.7115

> <Gold.Chemscore.Metal>
0.0000

> <Gold.Chemscore.Lipo>
72.7471

> <Gold.Chemscore.Internal_Hbond>
0.0000

> <Gold.Chemscore.DEClash>
1.6947

> <Gold.Chemscore.DEInternal>
0.8952

> <Gold.Chemscore.Rot>
4.7501

> <Gold.Chemscore.Internal.Correction>
   9.000000E+99

> <Gold.Chemscore.Hbonds>
donor molecule, donor type, donor heavy atom, donor atom, acceptor molecule, acceptor atom, score
      L1  H    19    25       P1  7948  0.47
      L1  H    21    42       P1  7957  0.44
      P1  H  6933  6945       L1     7  0.76
      P1  H  7997  8009       L1    11  0.58

> <Gold.Chemscore.Hbond.Weighted>
-9.0563

> <Gold.Chemscore.Metal.Weighted>
-0.0000

> <Gold.Chemscore.Lipo.Weighted>
-8.5114

> <Gold.Chemscore.Internal_Hbond.Weighted>
0.0000

> <Gold.Chemscore.DEClash.Weighted>
1.6947

> <Gold.Chemscore.DEInternal.Weighted>
0.8952

> <Gold.Chemscore.Rot.Weighted>
12.1603

> <Gold.Chemscore.Internal.Correction.Weighted>
   9.000000E+99

> <Gold.Protein.RotatedTorsions>
[ 6907 6896 6895 6894 ] final  -30.15 input  -60.11 | X-H torsion
[ 7974 7965 7964 7962 ] final  130.29 input  175.53 | X-H torsion
[ 8008 7997 7996 7995 ] final  140.46 input   59.86 | X-H torsion
[ 10167 10162 10161 10158 ] final -130.26 input  -65.29 | X-H torsion
[ 10718 10713 10712 10709 ] final   -8.07 input   66.30 | X-H torsion
[ 10763 10752 10751 10750 ] final -165.65 input  -60.55 | X-H torsion
[ 11005 11000 10999 10996 ] final -145.10 input  -57.11 | X-H torsion

> <Gold.Protein.ActiveResidues>
 VAL166  LYS551  ARG553  GLY616  TRP617  ASP618  TYR619  PRO620  LYS621  CYS622 
 ASP623  PHE694  ASN695  SER759  ASP760  ASP761  ALA762  ILE779  LEU786  VAL792 
 PHE793  MET794  SER795  GLU796  ALA797  LYS798  CYS799  TRP800  GLU811  SER814 

> <Gold.Protein.RotatedAtoms>
  151.1095  135.0018  159.8486 H   0  0  0  0  0  0  0  0  0  0  0  0  # atno 6907 bound_to 6896
  152.5442  134.1853  159.8662 H   0  0  0  0  0  0  0  0  0  0  0  0  # atno 6908 bound_to 6896
  151.1902  133.4627  159.2628 H   0  0  0  0  0  0  0  0  0  0  0  0  # atno 6909 bound_to 6896
  145.0195  139.4145  143.5204 H   0  0  0  0  0  0  0  0  0  0  0  0  # atno 7974 bound_to 7965
  156.2979  140.2341  156.4404 H   0  0  0  0  0  0  0  0  0  0  0  0  # atno 8008 bound_to 7997
  154.8190  140.0439  157.1418 H   0  0  0  0  0  0  0  0  0  0  0  0  # atno 8009 bound_to 7997
  154.9336  140.3020  155.5159 H   0  0  0  0  0  0  0  0  0  0  0  0  # atno 8010 bound_to 7997
  139.9312  143.6270  152.2529 H   0  0  0  0  0  0  0  0  0  0  0  0  # atno 10167 bound_to 10162
  156.7080  130.5113  149.5899 H   0  0  0  0  0  0  0  0  0  0  0  0  # atno 10718 bound_to 10713
  154.6911  135.2971  154.9478 H   0  0  0  0  0  0  0  0  0  0  0  0  # atno 10763 bound_to 10752
  154.0441  135.6653  153.4797 H   0  0  0  0  0  0  0  0  0  0  0  0  # atno 10764 bound_to 10752
  153.0613  135.5114  154.8004 H   0  0  0  0  0  0  0  0  0  0  0  0  # atno 10765 bound_to 10752
  140.7957  134.2916  157.4997 H   0  0  0  0  0  0  0  0  0  0  0  0  # atno 11005 bound_to 11000
  146.3483  139.9684  142.8709 LP  0  0  0  0  0  0  0  0  0  0  0  0  # atno 17320 bound_to 7965
  145.1915  140.9813  143.4208 LP  0  0  0  0  0  0  0  0  0  0  0  0  # atno 17321 bound_to 7965
  139.6781  144.7657  151.1659 LP  0  0  0  0  0  0  0  0  0  0  0  0  # atno 17342 bound_to 10162
  140.7637  143.5765  150.8940 LP  0  0  0  0  0  0  0  0  0  0  0  0  # atno 17343 bound_to 10162
  156.1681  130.6419  151.0803 LP  0  0  0  0  0  0  0  0  0  0  0  0  # atno 17370 bound_to 10713
  157.6947  131.0798  150.7004 LP  0  0  0  0  0  0  0  0  0  0  0  0  # atno 17371 bound_to 10713
  139.8726  134.9400  156.3759 LP  0  0  0  0  0  0  0  0  0  0  0  0  # atno 17394 bound_to 11000
  140.9345  133.7556  156.0067 LP  0  0  0  0  0  0  0  0  0  0  0  0  # atno 17395 bound_to 11000

$$$$
