AV-unprocessed.smi:49|AV-procd|sdf|473|dock2
  -GOLD-   2262016343D 1   1.00000     0.00000
 Structure written by MMmdl.
 27 28  0  0  0  0  0  0  0  0  1 V2000
  152.7891  141.6508  158.9855 C   0  0  0  0  0  0  0  0  0  0  0  0
  151.4344  140.9658  158.7757 C   0  0  0  0  0  0  0  0  0  0  0  0
  151.0745  140.8368  157.3321 C   0  0  0  0  0  0  0  0  0  0  0  0
  149.9658  141.3115  156.7748 N   0  0  0  0  0  0  0  0  0  0  0  0
  150.1678  140.9409  155.4743 C   0  0  0  0  0  0  0  0  0  0  0  0
  149.1511  141.2059  154.4063 C   0  0  2  0  0  0  0  0  0  0  0  0
  147.8162  141.7032  154.9756 C   0  0  0  0  0  0  0  0  0  0  0  0
  146.8205  141.2562  153.9161 C   0  0  2  0  0  0  0  0  0  0  0  0
  145.5003  141.1607  154.4067 O   0  0  0  0  0  0  0  0  0  0  0  0
  147.3873  139.9021  153.4985 C   0  0  0  0  0  0  0  0  0  0  0  0
  148.8403  140.0409  153.5664 N   0  0  0  0  0  0  0  0  0  0  0  0
  151.2944  140.2692  155.2293 N   0  0  0  0  0  0  0  0  0  0  0  0
  151.8693  140.2288  156.4494 N   0  0  0  0  0  0  0  0  0  0  0  0
  149.5456  141.9880  153.7564 H   0  0  0  0  0  0  0  0  0  0  0  0
  146.8433  141.9462  153.0712 H   0  0  0  0  0  0  0  0  0  0  0  0
  152.7608  139.7877  156.6253 H   0  0  0  0  0  0  0  0  0  0  0  0
  153.0240  141.7307  160.0469 H   0  0  0  0  0  0  0  0  0  0  0  0
  152.7891  142.6580  158.5678 H   0  0  0  0  0  0  0  0  0  0  0  0
  153.5918  141.0888  158.5073 H   0  0  0  0  0  0  0  0  0  0  0  0
  151.4448  139.9746  159.2309 H   0  0  0  0  0  0  0  0  0  0  0  0
  150.6510  141.5317  159.2810 H   0  0  0  0  0  0  0  0  0  0  0  0
  147.5976  141.1951  155.9169 H   0  0  0  0  0  0  0  0  0  0  0  0
  147.8038  142.7772  155.1635 H   0  0  0  0  0  0  0  0  0  0  0  0
  144.9246  140.9640  153.6837 H   0  0  0  0  0  0  0  0  0  0  0  0
  147.0682  139.1361  154.2068 H   0  0  0  0  0  0  0  0  0  0  0  0
  147.0528  139.5947  152.5076 H   0  0  0  0  0  0  0  0  0  0  0  0
  149.1908  140.2194  152.6309 H   0  0  0  0  0  0  0  0  0  0  0  0
  1  2  1  0  0  0  0
  1 17  1  0  0  0  0
  1 18  1  0  0  0  0
  1 19  1  0  0  0  0
  2  3  1  0  0  0  0
  2 20  1  0  0  0  0
  2 21  1  0  0  0  0
  3 13  1  0  0  0  0
  3  4  2  0  0  0  0
  4  5  1  0  0  0  0
  5  6  1  0  0  0  0
  5 12  2  0  0  0  0
  6 14  1  0  0  0  0
  6 11  1  0  0  0  0
  6  7  1  0  0  0  0
  7  8  1  0  0  0  0
  7 22  1  0  0  0  0
  7 23  1  0  0  0  0
  8 15  1  0  0  0  0
  8  9  1  0  0  0  0
  8 10  1  0  0  0  0
  9 24  1  0  0  0  0
 10 11  1  0  0  0  0
 10 25  1  0  0  0  0
 10 26  1  0  0  0  0
 11 27  1  0  0  0  0
 12 13  1  0  0  0  0
 13 16  1  0  0  0  0
M  END
> <s_m_source_file>
AV-unprocessed.smi

> <i_m_source_file_index>
49

> <i_lp_mmshare_version>
43012

> <i_f3d_flags>
0

> <s_epik_input>
W0NIM11bQ0gyXWMxbmMobltuSF0xKVtDQEBIXTJbQ0gyXVtDQEBIXShbT0hdKVtDSDJdW05IXTI=

> <s_epik_cmdline>
J2VwaWtfcHl0aG9uJywgJy1waCcsICc3LjAnLCAnLXRuJywgJzgnLCAnLW1hJywgJzIwMCcsICctbWV0YWxfYmluZGluZycsICctaW1hZScsICc8aW5maWxlLm1hZT4nLCAnLW9tYWUnLCAnPG91dGZpbGUubWFlPic=

> <r_lp_tautomer_probability>
0.948284

> <r_epik_Ionization_Penalty>
1.6657

> <r_epik_Ionization_Penalty_Charging>
0

> <r_epik_Ionization_Penalty_Neutral>
1.6657

> <r_epik_State_Penalty>
2.01417

> <r_epik_Charging_Adjusted_Penalty>
2.01417

> <i_epik_Tot_Q>
0

> <i_epik_Tot_abs_Q>
0

> <r_epik_Metal_State_Penalty>
2.28256

> <b_epik_Metal_Only>
0

> <s_lp_Force_Field>
OPLS_2005

> <r_lp_Energy>
18.5321

> <b_lp_Chiralities_Consistent>
1

> <s_lp_Variant>
AV-unprocessed.smi:49-11

> <Gold.Version>
5.8.1

> <Gold.Id.Protein>
6NUR|6NUR_protein|mol2

> <Gold.PLP.Fitness>
32.5708

> <Gold.PLP.PLP>
-24.1114

> <Gold.PLP.part.hbond>
-2.9840

> <Gold.PLP.part.metal>
0.0000

> <Gold.PLP.part.buried>
-3.8400

> <Gold.PLP.part.nonpolar>
-17.5659

> <Gold.PLP.part.repulsive>
0.2420

> <Gold.PLP.ligand.clash>
0.0000

> <Gold.PLP.ligand.torsion>
0.2782

> <Gold.PLP.Chemscore.Hbond>
3.0000

> <Gold.PLP.Chemscore.CHOScore>
0.0000

> <Gold.PLP.Chemscore.Metal>
0.0000

> <Gold.Chemscore.Hbonds>
donor molecule, donor type, donor heavy atom, donor atom, acceptor molecule, acceptor atom, score
      L1  H     9    24       P1 10175  1.00
      L1  H    11    27       P1  7957  1.00
      P1  H  7989  7998       L1    12  1.00

> <Gold.PLP.Chemscore.Internal.Correction>
0.0159

> <Gold.Rescore>
     Score         DG    S(hbond)    S(metal)    S(lipo)     H(rot)  DE(clash)    DE(int)     intcor
     14.83     -14.84       2.86        0.00      38.83       1.86       0.00       0.01       ----

> <Gold.Chemscore.Fitness>
14.8285

> <Gold.Chemscore.DG>
-14.8374

> <Gold.Chemscore.ZeroCoef>
-5.4800

> <Gold.Chemscore.Hbond>
2.8638

> <Gold.Chemscore.Metal>
0.0000

> <Gold.Chemscore.Lipo>
38.8283

> <Gold.Chemscore.Internal_Hbond>
0.0000

> <Gold.Chemscore.DEClash>
0.0000

> <Gold.Chemscore.DEInternal>
0.0089

> <Gold.Chemscore.Rot>
1.8558

> <Gold.Chemscore.Internal.Correction>
   9.000000E+99

> <Gold.Chemscore.Hbonds>
donor molecule, donor type, donor heavy atom, donor atom, acceptor molecule, acceptor atom, score
      L1  H     9    24       P1 10175  0.78
      L1  H    11    27       P1  7957  0.94
      P1  H  7989  7998       L1    12  0.25

> <Gold.Chemscore.Hbond.Weighted>
-9.5652

> <Gold.Chemscore.Metal.Weighted>
-0.0000

> <Gold.Chemscore.Lipo.Weighted>
-4.5429

> <Gold.Chemscore.Internal_Hbond.Weighted>
0.0000

> <Gold.Chemscore.DEClash.Weighted>
0.0000

> <Gold.Chemscore.DEInternal.Weighted>
0.0089

> <Gold.Chemscore.Rot.Weighted>
4.7507

> <Gold.Chemscore.Internal.Correction.Weighted>
   9.000000E+99

> <Gold.Protein.RotatedTorsions>
[ 6907 6896 6895 6894 ] final  132.54 input  -60.11 | X-H torsion
[ 7974 7965 7964 7962 ] final  154.93 input  175.53 | X-H torsion
[ 8008 7997 7996 7995 ] final   46.99 input   59.86 | X-H torsion
[ 10167 10162 10161 10158 ] final   98.75 input  -65.29 | X-H torsion
[ 10718 10713 10712 10709 ] final   20.71 input   66.30 | X-H torsion
[ 10763 10752 10751 10750 ] final  -46.70 input  -60.55 | X-H torsion
[ 11005 11000 10999 10996 ] final  129.46 input  -57.11 | X-H torsion

> <Gold.Protein.ActiveResidues>
 VAL166  LYS551  ARG553  GLY616  TRP617  ASP618  TYR619  PRO620  LYS621  CYS622 
 ASP623  PHE694  ASN695  SER759  ASP760  ASP761  ALA762  ILE779  LEU786  VAL792 
 PHE793  MET794  SER795  GLU796  ALA797  LYS798  CYS799  TRP800  GLU811  SER814 

> <Gold.Protein.RotatedAtoms>
  152.3313  133.5962  159.5811 H   0  0  0  0  0  0  0  0  0  0  0  0  # atno 6907 bound_to 6896
  150.7425  133.9863  159.3601 H   0  0  0  0  0  0  0  0  0  0  0  0  # atno 6908 bound_to 6896
  151.7737  135.0780  160.0414 H   0  0  0  0  0  0  0  0  0  0  0  0  # atno 6909 bound_to 6896
  144.8057  139.7000  143.6163 H   0  0  0  0  0  0  0  0  0  0  0  0  # atno 7974 bound_to 7965
  155.3616  140.3419  155.4241 H   0  0  0  0  0  0  0  0  0  0  0  0  # atno 8008 bound_to 7997
  156.1710  140.1632  156.8481 H   0  0  0  0  0  0  0  0  0  0  0  0  # atno 8009 bound_to 7997
  154.5233  140.0762  156.8195 H   0  0  0  0  0  0  0  0  0  0  0  0  # atno 8010 bound_to 7997
  139.7680  144.6932  151.0196 H   0  0  0  0  0  0  0  0  0  0  0  0  # atno 10167 bound_to 10162
  157.1282  130.6579  149.5944 H   0  0  0  0  0  0  0  0  0  0  0  0  # atno 10718 bound_to 10713
  154.0492  135.6633  153.4798 H   0  0  0  0  0  0  0  0  0  0  0  0  # atno 10763 bound_to 10752
  153.0470  135.5108  154.7767 H   0  0  0  0  0  0  0  0  0  0  0  0  # atno 10764 bound_to 10752
  154.6768  135.3038  154.9634 H   0  0  0  0  0  0  0  0  0  0  0  0  # atno 10765 bound_to 10752
  139.9617  134.9601  156.9151 H   0  0  0  0  0  0  0  0  0  0  0  0  # atno 11005 bound_to 11000
  146.2347  139.5883  142.9531 LP  0  0  0  0  0  0  0  0  0  0  0  0  # atno 17320 bound_to 7965
  145.5445  141.0418  143.2312 LP  0  0  0  0  0  0  0  0  0  0  0  0  # atno 17321 bound_to 7965
  140.7812  143.4620  151.0264 LP  0  0  0  0  0  0  0  0  0  0  0  0  # atno 17342 bound_to 10162
  139.8305  143.7698  152.3179 LP  0  0  0  0  0  0  0  0  0  0  0  0  # atno 17343 bound_to 10162
  155.9813  130.4820  150.6823 LP  0  0  0  0  0  0  0  0  0  0  0  0  # atno 17370 bound_to 10713
  157.4416  131.0862  151.0938 LP  0  0  0  0  0  0  0  0  0  0  0  0  # atno 17371 bound_to 10713
  140.5486  134.0649  155.7362 LP  0  0  0  0  0  0  0  0  0  0  0  0  # atno 17394 bound_to 11000
  141.1294  133.9328  157.2567 LP  0  0  0  0  0  0  0  0  0  0  0  0  # atno 17395 bound_to 11000

$$$$
