AV-unprocessed.smi:1716|AV-procd|sdf|6916|dock6
  -GOLD-   22720 8123D 1   1.00000     0.00000
 Structure written by MMmdl.
 40 41  0  0  0  0  0  0  0  0  1 V2000
  149.3395  140.9553  156.3179 C   0  0  0  0  0  0  0  0  0  0  0  0
  148.7486  141.2570  154.9387 C   0  0  0  0  0  0  0  0  0  0  0  0
  149.3790  142.0046  154.1907 O   0  0  0  0  0  0  0  0  0  0  0  0
  147.5660  140.6966  154.5872 N   0  0  0  0  0  0  0  0  0  0  0  0
  146.9644  140.8780  153.2608 C   0  0  0  0  0  0  0  0  0  0  0  0
  147.0351  139.5457  152.4928 C   0  0  0  0  0  0  0  0  0  0  0  0
  146.3618  138.4026  153.2866 C   0  0  0  0  0  0  0  0  0  0  0  0
  146.6018  137.1150  152.6416 N   0  0  0  0  0  0  0  0  0  0  0  0
  145.6727  136.1711  152.4288 C   0  0  0  0  0  0  0  0  0  0  0  0
  144.4928  136.2943  152.7592 O   0  0  0  0  0  0  0  0  0  0  0  0
  146.2029  135.0977  151.8161 N   0  0  0  0  0  0  0  0  0  0  0  0
  145.5566  133.8915  151.4231 C   0  0  0  0  0  0  0  0  0  0  0  0
  144.3958  133.8780  150.7202 N   0  0  0  0  0  0  0  0  0  0  0  0
  143.8368  132.6987  150.3807 C   0  0  0  0  0  0  0  0  0  0  0  0
  144.3996  131.4567  150.7203 C   0  0  0  0  0  0  0  0  0  0  0  0
  145.6019  131.4519  151.4480 C   0  0  0  0  0  0  0  0  0  0  0  0
  146.1942  132.6813  151.8077 C   0  0  0  0  0  0  0  0  0  0  0  0
  147.4950  132.6777  152.5944 C   0  0  0  0  0  0  0  0  0  0  0  0
  146.8699  138.3564  154.7436 C   0  0  0  0  0  0  0  0  0  0  0  0
  146.8000  139.7456  155.4027 C   0  0  0  0  0  0  0  0  0  0  0  0
  149.4998  139.8842  156.4449 H   0  0  0  0  0  0  0  0  0  0  0  0
  148.6784  141.3125  157.1079 H   0  0  0  0  0  0  0  0  0  0  0  0
  150.3025  141.4519  156.4399 H   0  0  0  0  0  0  0  0  0  0  0  0
  145.9253  141.1901  153.3747 H   0  0  0  0  0  0  0  0  0  0  0  0
  147.4479  141.6651  152.6808 H   0  0  0  0  0  0  0  0  0  0  0  0
  146.5618  139.6569  151.5166 H   0  0  0  0  0  0  0  0  0  0  0  0
  148.0807  139.2989  152.3028 H   0  0  0  0  0  0  0  0  0  0  0  0
  145.2871  138.5920  153.3187 H   0  0  0  0  0  0  0  0  0  0  0  0
  147.5458  136.9306  152.3354 H   0  0  0  0  0  0  0  0  0  0  0  0
  147.1885  135.1461  151.6053 H   0  0  0  0  0  0  0  0  0  0  0  0
  142.9136  132.7478  149.8225 H   0  0  0  0  0  0  0  0  0  0  0  0
  143.9212  130.5330  150.4303 H   0  0  0  0  0  0  0  0  0  0  0  0
  146.0609  130.5142  151.7249 H   0  0  0  0  0  0  0  0  0  0  0  0
  147.8320  131.6613  152.8003 H   0  0  0  0  0  0  0  0  0  0  0  0
  147.3653  133.1872  153.5495 H   0  0  0  0  0  0  0  0  0  0  0  0
  148.2814  133.1846  152.0347 H   0  0  0  0  0  0  0  0  0  0  0  0
  146.2837  137.6409  155.3214 H   0  0  0  0  0  0  0  0  0  0  0  0
  147.9018  138.0021  154.7669 H   0  0  0  0  0  0  0  0  0  0  0  0
  147.1391  139.6823  156.4354 H   0  0  0  0  0  0  0  0  0  0  0  0
  145.7626  140.0782  155.4587 H   0  0  0  0  0  0  0  0  0  0  0  0
  1  2  1  0  0  0  0
  1 21  1  0  0  0  0
  1 22  1  0  0  0  0
  1 23  1  0  0  0  0
  2  3  2  0  0  0  0
  2  4  1  0  0  0  0
  4 20  1  0  0  0  0
  4  5  1  0  0  0  0
  5  6  1  0  0  0  0
  5 24  1  0  0  0  0
  5 25  1  0  0  0  0
  6  7  1  0  0  0  0
  6 26  1  0  0  0  0
  6 27  1  0  0  0  0
  7  8  1  0  0  0  0
  7 19  1  0  0  0  0
  7 28  1  0  0  0  0
  8  9  1  0  0  0  0
  8 29  1  0  0  0  0
  9 10  2  0  0  0  0
  9 11  1  0  0  0  0
 11 12  1  0  0  0  0
 11 30  1  0  0  0  0
 12 17  1  0  0  0  0
 12 13  2  0  0  0  0
 13 14  1  0  0  0  0
 14 15  2  0  0  0  0
 14 31  1  0  0  0  0
 15 16  1  0  0  0  0
 15 32  1  0  0  0  0
 16 17  2  0  0  0  0
 16 33  1  0  0  0  0
 17 18  1  0  0  0  0
 18 34  1  0  0  0  0
 18 35  1  0  0  0  0
 18 36  1  0  0  0  0
 19 20  1  0  0  0  0
 19 37  1  0  0  0  0
 19 38  1  0  0  0  0
 20 39  1  0  0  0  0
 20 40  1  0  0  0  0
M  END
> <s_m_source_file>
AV-unprocessed.smi

> <i_m_source_file_index>
1716

> <i_lp_mmshare_version>
43012

> <i_f3d_flags>
0

> <s_epik_input>
W0NIM11DKD1PKU4xW0NIMl1bQ0gyXVtDSF0oW0NIMl1bQ0gyXTEpW05IXUMoPU8pW05IXWMybltjSF1bY0hdW2NIXWMyW0NIM10=

> <s_epik_cmdline>
J2VwaWtfcHl0aG9uJywgJy1waCcsICc3LjAnLCAnLXRuJywgJzgnLCAnLW1hJywgJzIwMCcsICctbWV0YWxfYmluZGluZycsICctaW1hZScsICc8aW5maWxlLm1hZT4nLCAnLW9tYWUnLCAnPG91dGZpbGUubWFlPic=

> <r_lp_tautomer_probability>
1

> <r_epik_Ionization_Penalty>
5.94044e-05

> <r_epik_Ionization_Penalty_Charging>
0

> <r_epik_Ionization_Penalty_Neutral>
5.94044e-05

> <r_epik_State_Penalty>
-0

> <r_epik_Charging_Adjusted_Penalty>
0

> <i_epik_Tot_Q>
0

> <i_epik_Tot_abs_Q>
0

> <r_epik_Metal_State_Penalty>
-0

> <b_epik_Metal_Only>
0

> <s_lp_Force_Field>
OPLS_2005

> <r_lp_Energy>
26.4914

> <b_lp_Chiralities_Consistent>
1

> <s_lp_Variant>
AV-unprocessed.smi:1716-1

> <Gold.Version>
5.8.1

> <Gold.Id.Protein>
6NUR|6NUR_protein|mol2

> <Gold.PLP.Fitness>
39.0541

> <Gold.PLP.PLP>
-30.3730

> <Gold.PLP.part.hbond>
-4.0000

> <Gold.PLP.part.metal>
0.0000

> <Gold.PLP.part.buried>
-1.9214

> <Gold.PLP.part.nonpolar>
-25.9016

> <Gold.PLP.part.repulsive>
0.6175

> <Gold.PLP.ligand.clash>
0.0000

> <Gold.PLP.ligand.torsion>
0.6464

> <Gold.PLP.Chemscore.Hbond>
2.3197

> <Gold.PLP.Chemscore.CHOScore>
1.0000

> <Gold.PLP.Chemscore.Metal>
0.0000

> <Gold.Chemscore.Hbonds>
donor molecule, donor type, donor heavy atom, donor atom, acceptor molecule, acceptor atom, score
      L1  H     8    29       P1  7948  1.00
      L1  H    11    30       P1  7948  0.92
      P1  H  8011  8017       L1     3  0.37
      L1  C    14    31       P1 10186  0.95

> <Gold.PLP.Chemscore.Internal.Correction>
0.0146

> <Gold.Rescore>
     Score         DG    S(hbond)    S(metal)    S(lipo)     H(rot)  DE(clash)    DE(int)     intcor
     16.33     -18.40       2.10        0.00      72.27       1.00       1.41       0.66       ----

> <Gold.Chemscore.Fitness>
16.3345

> <Gold.Chemscore.DG>
-18.4040

> <Gold.Chemscore.ZeroCoef>
-5.4800

> <Gold.Chemscore.Hbond>
2.1043

> <Gold.Chemscore.Metal>
0.0000

> <Gold.Chemscore.Lipo>
72.2718

> <Gold.Chemscore.Internal_Hbond>
0.0000

> <Gold.Chemscore.DEClash>
1.4103

> <Gold.Chemscore.DEInternal>
0.6592

> <Gold.Chemscore.Rot>
1.0000

> <Gold.Chemscore.Internal.Correction>
   9.000000E+99

> <Gold.Chemscore.Hbonds>
donor molecule, donor type, donor heavy atom, donor atom, acceptor molecule, acceptor atom, score
      L1  H     8    29       P1  7948  0.99
      L1  H    11    30       P1  7948  0.75
      P1  H  8011  8017       L1     3  0.38

> <Gold.Chemscore.Hbond.Weighted>
-7.0282

> <Gold.Chemscore.Metal.Weighted>
-0.0000

> <Gold.Chemscore.Lipo.Weighted>
-8.4558

> <Gold.Chemscore.Internal_Hbond.Weighted>
0.0000

> <Gold.Chemscore.DEClash.Weighted>
1.4103

> <Gold.Chemscore.DEInternal.Weighted>
0.6592

> <Gold.Chemscore.Rot.Weighted>
2.5600

> <Gold.Chemscore.Internal.Correction.Weighted>
   9.000000E+99

> <Gold.Protein.RotatedTorsions>
[ 6907 6896 6895 6894 ] final  -91.37 input  -60.11 | X-H torsion
[ 7974 7965 7964 7962 ] final  124.28 input  175.53 | X-H torsion
[ 8008 7997 7996 7995 ] final  -25.69 input   59.86 | X-H torsion
[ 10167 10162 10161 10158 ] final -124.75 input  -65.29 | X-H torsion
[ 10718 10713 10712 10709 ] final  127.15 input   66.30 | X-H torsion
[ 10763 10752 10751 10750 ] final  -54.31 input  -60.55 | X-H torsion
[ 11005 11000 10999 10996 ] final  -42.78 input  -57.11 | X-H torsion

> <Gold.Protein.ActiveResidues>
 VAL166  LYS551  ARG553  GLY616  TRP617  ASP618  TYR619  PRO620  LYS621  CYS622 
 ASP623  PHE694  ASN695  SER759  ASP760  ASP761  ALA762  ILE779  LEU786  VAL792 
 PHE793  MET794  SER795  GLU796  ALA797  LYS798  CYS799  TRP800  GLU811  SER814 

> <Gold.Protein.RotatedAtoms>
  150.6892  134.2288  159.4425 H   0  0  0  0  0  0  0  0  0  0  0  0  # atno 6907 bound_to 6896
  152.0240  134.9804  160.0580 H   0  0  0  0  0  0  0  0  0  0  0  0  # atno 6908 bound_to 6896
  152.1370  133.4406  159.4785 H   0  0  0  0  0  0  0  0  0  0  0  0  # atno 6909 bound_to 6896
  145.0862  139.3620  143.4884 H   0  0  0  0  0  0  0  0  0  0  0  0  # atno 7974 bound_to 7965
  154.4463  140.1919  156.0659 H   0  0  0  0  0  0  0  0  0  0  0  0  # atno 8008 bound_to 7997
  156.0548  140.3304  155.7366 H   0  0  0  0  0  0  0  0  0  0  0  0  # atno 8009 bound_to 7997
  155.5502  140.0594  157.2842 H   0  0  0  0  0  0  0  0  0  0  0  0  # atno 8010 bound_to 7997
  139.9894  143.5657  152.2348 H   0  0  0  0  0  0  0  0  0  0  0  0  # atno 10167 bound_to 10162
  157.5357  131.1097  150.8938 H   0  0  0  0  0  0  0  0  0  0  0  0  # atno 10718 bound_to 10713
  154.1727  135.6456  153.5013 H   0  0  0  0  0  0  0  0  0  0  0  0  # atno 10763 bound_to 10752
  153.0080  135.5387  154.6596 H   0  0  0  0  0  0  0  0  0  0  0  0  # atno 10764 bound_to 10752
  154.5939  135.2937  155.0579 H   0  0  0  0  0  0  0  0  0  0  0  0  # atno 10765 bound_to 10752
  141.0339  133.6808  156.2642 H   0  0  0  0  0  0  0  0  0  0  0  0  # atno 11005 bound_to 11000
  146.3531  140.0676  142.8625 LP  0  0  0  0  0  0  0  0  0  0  0  0  # atno 17320 bound_to 7965
  145.1119  140.9410  143.4651 LP  0  0  0  0  0  0  0  0  0  0  0  0  # atno 17321 bound_to 7965
  139.6351  144.7649  151.2455 LP  0  0  0  0  0  0  0  0  0  0  0  0  # atno 17342 bound_to 10162
  140.7460  143.6412  150.8333 LP  0  0  0  0  0  0  0  0  0  0  0  0  # atno 17343 bound_to 10162
  156.9506  130.5418  149.5282 LP  0  0  0  0  0  0  0  0  0  0  0  0  # atno 17370 bound_to 10713
  156.0457  130.5534  150.8875 LP  0  0  0  0  0  0  0  0  0  0  0  0  # atno 17371 bound_to 10713
  140.6357  134.5218  157.5564 LP  0  0  0  0  0  0  0  0  0  0  0  0  # atno 17394 bound_to 11000
  139.9227  134.8117  156.1162 LP  0  0  0  0  0  0  0  0  0  0  0  0  # atno 17395 bound_to 11000

$$$$
