AV-unprocessed.smi:213|AV-procd|sdf|1641|dock2
  -GOLD-   2262020 13D 1   1.00000     0.00000
 Structure written by MMmdl.
 58 61  0  0  0  0  0  0  0  0  1 V2000
  152.1065  140.1173  155.7226 C   0  0  0  0  0  0  0  0  0  0  0  0
  151.3476  140.7908  156.8796 C   0  0  2  0  0  0  0  0  0  0  0  0
  152.2645  141.1145  158.0805 C   0  0  0  0  0  0  0  0  0  0  0  0
  151.7573  142.1235  159.0115 N   0  0  0  0  0  0  0  0  0  0  0  0
  151.5524  143.3997  158.3345 C   0  0  0  0  0  0  0  0  0  0  0  0
  151.0117  144.4782  159.2889 C   0  0  0  0  0  0  0  0  0  0  0  0
  151.9039  144.6301  160.3880 O   0  0  0  0  0  0  0  0  0  0  0  0
  152.0970  143.4170  161.1074 C   0  0  0  0  0  0  0  0  0  0  0  0
  152.6377  142.3319  160.1598 C   0  0  0  0  0  0  0  0  0  0  0  0
  150.2054  139.9744  157.3004 N   0  0  0  0  0  0  0  0  0  0  0  0
  148.8462  140.5115  157.2747 C   0  0  0  0  0  0  0  0  0  0  0  0
  150.3720  138.6599  157.6063 C   0  0  0  0  0  0  0  0  0  0  0  0
  150.2376  138.2801  158.9054 N   0  0  0  0  0  0  0  0  0  0  0  0
  150.3887  137.0010  159.2597 C   0  0  0  0  0  0  0  0  0  0  0  0
  150.6784  135.9515  158.4901 N   0  0  0  0  0  0  0  0  0  0  0  0
  150.8292  136.3234  157.1872 C   0  0  0  0  0  0  0  0  0  0  0  0
  150.6966  137.6408  156.6610 C   0  0  0  0  0  0  0  0  0  0  0  0
  150.9463  137.6202  155.2919 N   0  0  0  0  0  0  0  0  0  0  0  0
  151.1949  136.3675  155.0247 C   0  0  0  0  0  0  0  0  0  0  0  0
  151.1476  135.5206  156.1073 N   0  0  0  0  0  0  0  0  0  0  0  0
  151.3929  134.0899  156.1089 C   0  0  0  0  0  0  0  0  0  0  0  0
  150.1532  133.2879  156.5494 C   0  0  2  0  0  0  0  0  0  0  0  0
  150.2557  132.9261  157.9134 O   0  0  0  0  0  0  0  0  0  0  0  0
  149.9040  132.0432  155.6747 C   0  0  2  0  0  0  0  0  0  0  0  0
  151.1347  131.2153  155.2969 C   0  0  0  0  0  0  0  0  0  0  0  0
  150.6262  130.4807  154.0767 C   0  0  0  0  0  0  0  0  0  0  0  0
  149.7676  131.5478  153.3997 C   0  0  0  0  0  0  0  0  0  0  0  0
  149.2609  132.3731  154.4462 O   0  0  0  0  0  0  0  0  0  0  0  0
  152.8981  140.7635  155.3432 H   0  0  0  0  0  0  0  0  0  0  0  0
  151.4370  139.9015  154.8895 H   0  0  0  0  0  0  0  0  0  0  0  0
  152.5680  139.1794  156.0309 H   0  0  0  0  0  0  0  0  0  0  0  0
  150.9669  141.7414  156.5163 H   0  0  0  0  0  0  0  0  0  0  0  0
  152.4726  140.1945  158.6292 H   0  0  0  0  0  0  0  0  0  0  0  0
  153.2266  141.4518  157.6928 H   0  0  0  0  0  0  0  0  0  0  0  0
  152.4926  143.7432  157.8996 H   0  0  0  0  0  0  0  0  0  0  0  0
  150.8545  143.2720  157.5062 H   0  0  0  0  0  0  0  0  0  0  0  0
  150.9183  145.4320  158.7700 H   0  0  0  0  0  0  0  0  0  0  0  0
  150.0180  144.2106  159.6516 H   0  0  0  0  0  0  0  0  0  0  0  0
  152.7987  143.5932  161.9226 H   0  0  0  0  0  0  0  0  0  0  0  0
  151.1550  143.1004  161.5580 H   0  0  0  0  0  0  0  0  0  0  0  0
  152.7512  141.4088  160.7267 H   0  0  0  0  0  0  0  0  0  0  0  0
  153.6341  142.6147  159.8166 H   0  0  0  0  0  0  0  0  0  0  0  0
  148.2815  140.1766  158.1456 H   0  0  0  0  0  0  0  0  0  0  0  0
  148.3233  140.1827  156.3761 H   0  0  0  0  0  0  0  0  0  0  0  0
  148.8482  141.6011  157.2818 H   0  0  0  0  0  0  0  0  0  0  0  0
  150.2601  136.7888  160.3109 H   0  0  0  0  0  0  0  0  0  0  0  0
  151.4298  136.0267  154.0268 H   0  0  0  0  0  0  0  0  0  0  0  0
  151.6954  133.7953  155.1034 H   0  0  0  0  0  0  0  0  0  0  0  0
  152.2403  133.8814  156.7634 H   0  0  0  0  0  0  0  0  0  0  0  0
  149.2773  133.9326  156.4653 H   0  0  0  0  0  0  0  0  0  0  0  0
  149.3920  132.7058  158.2272 H   0  0  0  0  0  0  0  0  0  0  0  0
  149.2133  131.3863  156.2062 H   0  0  0  0  0  0  0  0  0  0  0  0
  151.9773  131.8483  155.0169 H   0  0  0  0  0  0  0  0  0  0  0  0
  151.4597  130.5472  156.0948 H   0  0  0  0  0  0  0  0  0  0  0  0
  151.4250  130.1059  153.4361 H   0  0  0  0  0  0  0  0  0  0  0  0
  150.0063  129.6360  154.3804 H   0  0  0  0  0  0  0  0  0  0  0  0
  150.3788  132.1652  152.7403 H   0  0  0  0  0  0  0  0  0  0  0  0
  148.9605  131.1162  152.8073 H   0  0  0  0  0  0  0  0  0  0  0  0
  1  2  1  0  0  0  0
  1 29  1  0  0  0  0
  1 30  1  0  0  0  0
  1 31  1  0  0  0  0
  2  3  1  0  0  0  0
  2 10  1  0  0  0  0
  2 32  1  0  0  0  0
  3  4  1  0  0  0  0
  3 33  1  0  0  0  0
  3 34  1  0  0  0  0
  4  9  1  0  0  0  0
  4  5  1  0  0  0  0
  5  6  1  0  0  0  0
  5 35  1  0  0  0  0
  5 36  1  0  0  0  0
  6  7  1  0  0  0  0
  6 37  1  0  0  0  0
  6 38  1  0  0  0  0
  7  8  1  0  0  0  0
  8  9  1  0  0  0  0
  8 39  1  0  0  0  0
  8 40  1  0  0  0  0
  9 41  1  0  0  0  0
  9 42  1  0  0  0  0
 10 11  1  0  0  0  0
 10 12  1  0  0  0  0
 11 43  1  0  0  0  0
 11 44  1  0  0  0  0
 11 45  1  0  0  0  0
 12 17  1  0  0  0  0
 12 13  2  0  0  0  0
 13 14  1  0  0  0  0
 14 15  2  0  0  0  0
 14 46  1  0  0  0  0
 15 16  1  0  0  0  0
 16 20  1  0  0  0  0
 16 17  2  0  0  0  0
 17 18  1  0  0  0  0
 18 19  2  0  0  0  0
 19 20  1  0  0  0  0
 19 47  1  0  0  0  0
 20 21  1  0  0  0  0
 21 22  1  0  0  0  0
 21 48  1  0  0  0  0
 21 49  1  0  0  0  0
 22 23  1  0  0  0  0
 22 24  1  0  0  0  0
 22 50  1  0  0  0  0
 23 51  1  0  0  0  0
 24 28  1  0  0  0  0
 24 25  1  0  0  0  0
 24 52  1  0  0  0  0
 25 26  1  0  0  0  0
 25 53  1  0  0  0  0
 25 54  1  0  0  0  0
 26 27  1  0  0  0  0
 26 55  1  0  0  0  0
 26 56  1  0  0  0  0
 27 28  1  0  0  0  0
 27 57  1  0  0  0  0
 27 58  1  0  0  0  0
M  END
> <s_m_source_file>
AV-unprocessed.smi

> <i_m_source_file_index>
213

> <i_lp_mmshare_version>
43012

> <i_f3d_flags>
0

> <s_epik_input>
W0NIMl0xW0NIMl1PW0NIMl1bQ0gyXU4xW0NIMl1bQ0BASF0oW0NIM10pTihbQ0gzXSljKG5bY0hdbjIpYyhjMjMpbltjSF1uM1tDSDJdW0NASF0oW09IXSlbQ0BASF00W0NIMl1bQ0gyXVtDSDJdTzQ=

> <s_epik_cmdline>
J2VwaWtfcHl0aG9uJywgJy1waCcsICc3LjAnLCAnLXRuJywgJzgnLCAnLW1hJywgJzIwMCcsICctbWV0YWxfYmluZGluZycsICctaW1hZScsICc8aW5maWxlLm1hZT4nLCAnLW9tYWUnLCAnPG91dGZpbGUubWFlPic=

> <r_lp_tautomer_probability>
1

> <r_epik_Ionization_Penalty>
0.423322

> <r_epik_Ionization_Penalty_Charging>
0

> <r_epik_Ionization_Penalty_Neutral>
0.423322

> <r_epik_State_Penalty>
0.569486

> <r_epik_Charging_Adjusted_Penalty>
0.569486

> <i_epik_Tot_Q>
0

> <i_epik_Tot_abs_Q>
0

> <r_epik_Metal_State_Penalty>
0.568671

> <b_epik_Metal_Only>
0

> <s_lp_Force_Field>
OPLS_2005

> <r_lp_Energy>
51.8913

> <b_lp_Chiralities_Consistent>
1

> <s_lp_Variant>
AV-unprocessed.smi:213-9

> <Gold.Version>
5.8.1

> <Gold.Id.Protein>
6NUR|6NUR_protein|mol2

> <Gold.PLP.Fitness>
45.6440

> <Gold.PLP.PLP>
-42.8034

> <Gold.PLP.part.hbond>
-2.4806

> <Gold.PLP.part.metal>
0.0000

> <Gold.PLP.part.buried>
-5.9346

> <Gold.PLP.part.nonpolar>
-33.7956

> <Gold.PLP.part.repulsive>
0.2313

> <Gold.PLP.ligand.clash>
0.0000

> <Gold.PLP.ligand.torsion>
2.6338

> <Gold.PLP.Chemscore.Hbond>
1.5504

> <Gold.PLP.Chemscore.CHOScore>
0.8958

> <Gold.PLP.Chemscore.Metal>
0.0000

> <Gold.Chemscore.Hbonds>
donor molecule, donor type, donor heavy atom, donor atom, acceptor molecule, acceptor atom, score
      P1  H  6896  6907       L1    23  1.00
      P1  H  6896  6908       L1    15  0.29
      L1  C    19    47       P1  7949  0.97

> <Gold.PLP.Chemscore.Internal.Correction>
0.7695

> <Gold.Rescore>
     Score         DG    S(hbond)    S(metal)    S(lipo)     H(rot)  DE(clash)    DE(int)     intcor
     10.26     -14.95       1.41        0.00     100.69       2.74       0.08       4.61       ----

> <Gold.Chemscore.Fitness>
10.2598

> <Gold.Chemscore.DG>
-14.9481

> <Gold.Chemscore.ZeroCoef>
-5.4800

> <Gold.Chemscore.Hbond>
1.4060

> <Gold.Chemscore.Metal>
0.0000

> <Gold.Chemscore.Lipo>
100.6890

> <Gold.Chemscore.Internal_Hbond>
0.0000

> <Gold.Chemscore.DEClash>
0.0786

> <Gold.Chemscore.DEInternal>
4.6097

> <Gold.Chemscore.Rot>
2.7378

> <Gold.Chemscore.Internal.Correction>
   9.000000E+99

> <Gold.Chemscore.Hbonds>
donor molecule, donor type, donor heavy atom, donor atom, acceptor molecule, acceptor atom, score
      P1  H  6896  6907       L1    23  0.50
      P1  H  6896  6908       L1    15  0.01

> <Gold.Chemscore.Hbond.Weighted>
-4.6961

> <Gold.Chemscore.Metal.Weighted>
-0.0000

> <Gold.Chemscore.Lipo.Weighted>
-11.7806

> <Gold.Chemscore.Internal_Hbond.Weighted>
0.0000

> <Gold.Chemscore.DEClash.Weighted>
0.0786

> <Gold.Chemscore.DEInternal.Weighted>
4.6097

> <Gold.Chemscore.Rot.Weighted>
7.0087

> <Gold.Chemscore.Internal.Correction.Weighted>
   9.000000E+99

> <Gold.Protein.RotatedTorsions>
[ 6907 6896 6895 6894 ] final -141.05 input  -60.11 | X-H torsion
[ 7974 7965 7964 7962 ] final  -26.41 input  175.53 | X-H torsion
[ 8008 7997 7996 7995 ] final -146.13 input   59.86 | X-H torsion
[ 10167 10162 10161 10158 ] final -141.93 input  -65.29 | X-H torsion
[ 10718 10713 10712 10709 ] final   26.32 input   66.30 | X-H torsion
[ 10763 10752 10751 10750 ] final  -34.61 input  -60.55 | X-H torsion
[ 11005 11000 10999 10996 ] final  -63.20 input  -57.11 | X-H torsion

> <Gold.Protein.ActiveResidues>
 VAL166  LYS551  ARG553  GLY616  TRP617  ASP618  TYR619  PRO620  LYS621  CYS622 
 ASP623  PHE694  ASN695  SER759  ASP760  ASP761  ALA762  ILE779  LEU786  VAL792 
 PHE793  MET794  SER795  GLU796  ALA797  LYS798  CYS799  TRP800  GLU811  SER814 

> <Gold.Protein.RotatedAtoms>
  151.0687  133.5483  159.2628 H   0  0  0  0  0  0  0  0  0  0  0  0  # atno 6907 bound_to 6896
  151.2431  135.0595  159.9042 H   0  0  0  0  0  0  0  0  0  0  0  0  # atno 6908 bound_to 6896
  152.5408  134.0459  159.8142 H   0  0  0  0  0  0  0  0  0  0  0  0  # atno 6909 bound_to 6896
  146.1427  140.5016  142.8645 H   0  0  0  0  0  0  0  0  0  0  0  0  # atno 7974 bound_to 7965
  155.5543  140.0619  157.2843 H   0  0  0  0  0  0  0  0  0  0  0  0  # atno 8008 bound_to 7997
  154.4410  140.1897  156.0763 H   0  0  0  0  0  0  0  0  0  0  0  0  # atno 8009 bound_to 7997
  156.0493  140.3286  155.7336 H   0  0  0  0  0  0  0  0  0  0  0  0  # atno 8010 bound_to 7997
  139.8137  143.7667  152.2664 H   0  0  0  0  0  0  0  0  0  0  0  0  # atno 10167 bound_to 10162
  157.2053  130.6909  149.6205 H   0  0  0  0  0  0  0  0  0  0  0  0  # atno 10718 bound_to 10713
  153.8495  135.6850  153.4794 H   0  0  0  0  0  0  0  0  0  0  0  0  # atno 10763 bound_to 10752
  153.1406  135.4659  154.9487 H   0  0  0  0  0  0  0  0  0  0  0  0  # atno 10764 bound_to 10752
  154.7809  135.3268  154.7940 H   0  0  0  0  0  0  0  0  0  0  0  0  # atno 10765 bound_to 10752
  141.1385  133.6649  156.5644 H   0  0  0  0  0  0  0  0  0  0  0  0  # atno 11005 bound_to 11000
  144.7811  140.5841  143.6605 LP  0  0  0  0  0  0  0  0  0  0  0  0  # atno 17320 bound_to 7965
  145.5009  139.1483  143.3657 LP  0  0  0  0  0  0  0  0  0  0  0  0  # atno 17321 bound_to 7965
  139.7824  144.7439  151.0069 LP  0  0  0  0  0  0  0  0  0  0  0  0  # atno 17342 bound_to 10162
  140.7816  143.4528  151.0389 LP  0  0  0  0  0  0  0  0  0  0  0  0  # atno 17343 bound_to 10162
  155.9696  130.4569  150.5943 LP  0  0  0  0  0  0  0  0  0  0  0  0  # atno 17370 bound_to 10713
  157.3727  131.0768  151.1544 LP  0  0  0  0  0  0  0  0  0  0  0  0  # atno 17371 bound_to 10713
  140.3962  134.7396  157.4752 LP  0  0  0  0  0  0  0  0  0  0  0  0  # atno 17394 bound_to 11000
  140.0529  134.6104  155.8839 LP  0  0  0  0  0  0  0  0  0  0  0  0  # atno 17395 bound_to 11000

$$$$
