#       Name:                AV-unprocessed.smi:1144
#       Creating user name   scv26
#       Creation time:       Fri Mar 27 03:44:56 2020


#       File generated by GOLD software.
#

@<TRIPOS>MOLECULE
AV-unprocessed.smi:1144
    39    40     1
SMALL
NO_CHARGES


@<TRIPOS>ATOM
      1 ****        -4.3455   2.5477  -0.2692 C.3            1 S1                 0.0000
      2 ****        -2.8770   2.4075  -0.1724 N.4            1 S1                 1.0000
      3 ****        -2.3164   3.0846   1.0188 C.3            1 S1                 0.0000
      4 ****        -0.7870   2.9326   1.0467 C.3            1 S1                 0.0000
      5 ****        -0.4470   1.5518   1.0105 O.3            1 S1                 0.0000
      6 ****        -0.8939   0.9115  -0.1815 C.3            1 S1                 0.0000
      7 ****        -0.4088  -0.5441  -0.1541 C.3            1 S1                 0.0000
      8 ****         1.0361  -0.6332  -0.3016 N.pl3          1 S1                 0.0000
      9 ****         1.7497  -1.8143  -0.2326 C.ar           1 S1                 0.0000
     10 ****         1.0725  -2.9534  -0.0494 N.ar           1 S1                 0.0000
     11 ****         1.7954  -4.0920   0.0189 C.ar           1 S1                 0.0000
     12 ****         3.1995  -4.0879  -0.0983 C.ar           1 S1                 0.0000
     13 ****         3.8085  -2.8274  -0.2903 C.ar           1 S1                 0.0000
     14 ****         5.3149  -2.6698  -0.4330 C.3            1 S1                 0.0000
     15 ****         5.9412  -3.8435  -0.3395 F              1 S1                 0.0000
     16 ****         5.6002  -2.1312  -1.6187 F              1 S1                 0.0000
     17 ****         5.7759  -1.8673   0.5266 F              1 S1                 0.0000
     18 ****         3.0727  -1.6929  -0.3568 N.ar           1 S1                 0.0000
     19 ****        -2.4320   0.9964  -0.2347 C.3            1 S1                 0.0000
     20 ****        -4.8417   2.0717   0.5778 H              1 S1                 0.0000
     21 ****        -4.7156   2.0873  -1.1858 H              1 S1                 0.0000
     22 ****        -4.6311   3.6000  -0.2865 H              1 S1                 0.0000
     23 ****        -2.5857   4.1415   1.0054 H              1 S1                 0.0000
     24 ****        -2.7495   2.6538   1.9231 H              1 S1                 0.0000
     25 ****        -0.3260   3.4564   0.2078 H              1 S1                 0.0000
     26 ****        -0.3822   3.3728   1.9581 H              1 S1                 0.0000
     27 ****        -0.4718   1.4158  -1.0532 H              1 S1                 0.0000
     28 ****        -0.7156  -1.0264   0.7749 H              1 S1                 0.0000
     29 ****        -0.8679  -1.1013  -0.9715 H              1 S1                 0.0000
     30 ****         1.5633   0.2192  -0.4238 H              1 S1                 0.0000
     31 ****         1.2502  -5.0122   0.1684 H              1 S1                 0.0000
     32 ****         3.7693  -5.0035  -0.0428 H              1 S1                 0.0000
     33 ****        -2.8696   0.4391   0.5955 H              1 S1                 0.0000
     34 ****        -2.7978   0.5393  -1.1552 H              1 S1                 0.0000
     35 ****        -2.4872   2.8713  -0.9808 H              1 S1                 0.0000
     36 ****        -0.8673   1.0972   1.7958 LP             1 S1                 0.0000
     37 ****         0.5475   1.4647   1.0679 LP             1 S1                 0.0000
     38 ****         0.0759  -2.9614   0.0332 LP             1 S1                 0.0000
     39 ****         3.5030  -0.8006  -0.4934 LP             1 S1                 0.0000
@<TRIPOS>BOND
    1    1    2 1     
    2    1   20 1     
    3    1   21 1     
    4    1   22 1     
    5    2   19 1     
    6    2    3 1     
    7    2   35 1     
    8    3    4 1     
    9    3   23 1     
   10    3   24 1     
   11    4    5 1     
   12    4   25 1     
   13    4   26 1     
   14    5    6 1     
   15    6    7 1     
   16    6   19 1     
   17    6   27 1     
   18    7    8 1     
   19    7   28 1     
   20    7   29 1     
   21    8    9 1     
   22    8   30 1     
   23    9   18 ar    
   24    9   10 ar    
   25   10   11 ar    
   26   11   12 ar    
   27   11   31 1     
   28   12   13 ar    
   29   12   32 1     
   30   13   14 1     
   31   13   18 ar    
   32   14   15 1     
   33   14   16 1     
   34   14   17 1     
   35   19   33 1     
   36   19   34 1     
   37    5   36 1     
   38    5   37 1     
   39   10   38 1     
   40   18   39 1     
@<TRIPOS>SUBSTRUCTURE
      1 S1             1
@<TRIPOS>SET
LONE_PAIRS      STATIC     ATOMS    <user>   **** ""
4 36 37 38 39
DONOR_HYDROGENS      STATIC     ATOMS    <user>   **** ""
2 35 30
ATOM$BLUE        STATIC     ATOMS    COLORGROUP SYSTEM
4 36 37 38 39
ATOM$RED        STATIC     ATOMS    COLORGROUP SYSTEM
2 35 30
