AV-unprocessed.smi:1492|AV-procd|sdf|6047|dock7
  -GOLD-   22720 6163D 1   1.00000     0.00000
 Structure written by MMmdl.
 52 53  0  0  0  0  0  0  0  0  3 V2000
  147.7685  131.4111  155.2558 C   0  0  0  0  0  0  0  0  0  0  0  0
  147.0568  132.5327  154.4790 C   0  0  0  0  0  0  0  0  0  0  0  0
  147.9913  133.5906  153.8112 C   0  0  2  0  0  0  0  0  0  0  0  0
  148.9517  132.8206  152.8665 C   0  0  0  0  0  0  0  0  0  0  0  0
  148.8223  134.3155  154.9165 C   0  0  0  0  0  0  0  0  0  0  0  0
  149.5094  135.4992  154.4111 N   0  0  0  0  0  0  0  0  0  0  0  0
  150.4675  136.1972  155.0404 C   0  0  0  0  0  0  0  0  0  0  0  0
  151.0083  135.8229  156.0802 O   0  0  0  0  0  0  0  0  0  0  0  0
  150.8451  137.5458  154.4194 C   0  0  0  0  0  0  0  0  0  0  0  0
  151.2236  138.6415  155.4189 C   0  0  0  0  0  0  0  0  0  0  0  0
  150.5188  139.7991  155.5724 C   0  0  0  0  0  0  0  0  0  0  0  0
  149.3029  140.1459  154.7313 C   0  0  0  0  0  0  0  0  0  0  0  0
  150.8766  140.7427  156.5500 N   0  0  0  0  0  0  0  0  0  0  0  0
  151.8688  140.5058  157.3207 C   0  0  0  0  0  0  0  0  0  0  0  0
  152.2462  141.5221  158.3770 C   0  0  0  0  0  0  0  0  0  0  0  0
  152.6364  139.3650  157.2560 N   0  5  0  0  0  0  0  0  0  0  0  0
  152.3655  138.4108  156.3214 C   0  0  0  0  0  0  0  0  0  0  0  0
  153.0291  137.3790  156.2279 O   0  0  0  0  0  0  0  0  0  0  0  0
  147.1816  134.5835  153.0156 N   0  3  0  0  0  0  0  0  0  0  0  0
  146.3505  134.0154  151.9163 C   0  0  0  0  0  0  0  0  0  0  0  0
  145.7474  135.1419  151.0621 C   0  0  0  0  0  0  0  0  0  0  0  0
  144.9653  135.9959  151.8848 O   0  0  0  0  0  0  0  0  0  0  0  0
  145.7501  136.6170  152.8929 C   0  0  0  0  0  0  0  0  0  0  0  0
  146.3636  135.5446  153.8092 C   0  0  0  0  0  0  0  0  0  0  0  0
  147.0379  130.7220  155.6795 H   0  0  0  0  0  0  0  0  0  0  0  0
  148.3565  131.8042  156.0848 H   0  0  0  0  0  0  0  0  0  0  0  0
  148.4319  130.8285  154.6171 H   0  0  0  0  0  0  0  0  0  0  0  0
  146.3928  132.0873  153.7388 H   0  0  0  0  0  0  0  0  0  0  0  0
  146.3824  133.0274  155.1796 H   0  0  0  0  0  0  0  0  0  0  0  0
  149.3681  131.9356  153.3478 H   0  0  0  0  0  0  0  0  0  0  0  0
  149.8026  133.4293  152.5602 H   0  0  0  0  0  0  0  0  0  0  0  0
  148.4459  132.4821  151.9621 H   0  0  0  0  0  0  0  0  0  0  0  0
  148.1968  134.5839  155.7678 H   0  0  0  0  0  0  0  0  0  0  0  0
  149.5986  133.6598  155.3082 H   0  0  0  0  0  0  0  0  0  0  0  0
  149.1454  135.8937  153.5552 H   0  0  0  0  0  0  0  0  0  0  0  0
  151.6660  137.3970  153.7163 H   0  0  0  0  0  0  0  0  0  0  0  0
  150.0070  137.8739  153.8056 H   0  0  0  0  0  0  0  0  0  0  0  0
  149.5882  140.2772  153.6874 H   0  0  0  0  0  0  0  0  0  0  0  0
  148.8388  141.0726  155.0711 H   0  0  0  0  0  0  0  0  0  0  0  0
  148.5539  139.3565  154.7907 H   0  0  0  0  0  0  0  0  0  0  0  0
  153.2512  141.9022  158.1918 H   0  0  0  0  0  0  0  0  0  0  0  0
  152.2254  141.0649  159.3670 H   0  0  0  0  0  0  0  0  0  0  0  0
  151.5555  142.3665  158.3760 H   0  0  0  0  0  0  0  0  0  0  0  0
  146.9349  133.3749  151.2591 H   0  0  0  0  0  0  0  0  0  0  0  0
  145.5443  133.4061  152.3254 H   0  0  0  0  0  0  0  0  0  0  0  0
  146.5297  135.7126  150.5588 H   0  0  0  0  0  0  0  0  0  0  0  0
  145.1092  134.7221  150.2844 H   0  0  0  0  0  0  0  0  0  0  0  0
  146.5277  137.2338  152.4393 H   0  0  0  0  0  0  0  0  0  0  0  0
  145.1128  137.2850  153.4725 H   0  0  0  0  0  0  0  0  0  0  0  0
  145.5655  135.0185  154.3333 H   0  0  0  0  0  0  0  0  0  0  0  0
  146.9603  136.0561  154.5622 H   0  0  0  0  0  0  0  0  0  0  0  0
  147.8752  135.1528  152.5520 H   0  0  0  0  0  0  0  0  0  0  0  0
  1  2  1  0  0  0  0
  1 25  1  0  0  0  0
  1 26  1  0  0  0  0
  1 27  1  0  0  0  0
  2  3  1  0  0  0  0
  2 28  1  0  0  0  0
  2 29  1  0  0  0  0
  3  4  1  0  0  0  0
  3  5  1  0  0  0  0
  3 19  1  0  0  0  0
  4 30  1  0  0  0  0
  4 31  1  0  0  0  0
  4 32  1  0  0  0  0
  5  6  1  0  0  0  0
  5 33  1  0  0  0  0
  5 34  1  0  0  0  0
  6  7  1  0  0  0  0
  6 35  1  0  0  0  0
  7  8  2  0  0  0  0
  7  9  1  0  0  0  0
  9 10  1  0  0  0  0
  9 36  1  0  0  0  0
  9 37  1  0  0  0  0
 10 17  1  0  0  0  0
 10 11  2  0  0  0  0
 11 12  1  0  0  0  0
 11 13  1  0  0  0  0
 12 38  1  0  0  0  0
 12 39  1  0  0  0  0
 12 40  1  0  0  0  0
 13 14  2  0  0  0  0
 14 15  1  0  0  0  0
 14 16  1  0  0  0  0
 15 41  1  0  0  0  0
 15 42  1  0  0  0  0
 15 43  1  0  0  0  0
 16 17  1  0  0  0  0
 17 18  2  0  0  0  0
 19 24  1  0  0  0  0
 19 20  1  0  0  0  0
 19 52  1  0  0  0  0
 20 21  1  0  0  0  0
 20 44  1  0  0  0  0
 20 45  1  0  0  0  0
 21 22  1  0  0  0  0
 21 46  1  0  0  0  0
 21 47  1  0  0  0  0
 22 23  1  0  0  0  0
 23 24  1  0  0  0  0
 23 48  1  0  0  0  0
 23 49  1  0  0  0  0
 24 50  1  0  0  0  0
 24 51  1  0  0  0  0
M  CHG  1  16  -1
M  CHG  1  19   1
M  END
> <s_m_source_file>
AV-unprocessed.smi

> <i_m_source_file_index>
1492

> <i_lp_mmshare_version>
43012

> <i_f3d_flags>
0

> <s_epik_input>
W0NIMl0xW0NIMl1PW0NIMl1bQ0gyXU4xW0NAQF0oW0NIM10pKFtDSDJdW0NIM10pW0NIMl1bTkhdQyg9TylbQ0gyXWMyYyhbQ0gzXSluYyhbQ0gzXSlbbkhdYzI9Tw==

> <s_epik_cmdline>
J2VwaWtfcHl0aG9uJywgJy1waCcsICc3LjAnLCAnLXRuJywgJzgnLCAnLW1hJywgJzIwMCcsICctbWV0YWxfYmluZGluZycsICctaW1hZScsICc8aW5maWxlLm1hZT4nLCAnLW9tYWUnLCAnPG91dGZpbGUubWFlPic=

> <r_lp_tautomer_probability>
0.839158

> <r_epik_Ionization_Penalty>
6.90614

> <r_epik_Ionization_Penalty_Charging>
0.570079

> <r_epik_Ionization_Penalty_Neutral>
6.33607

> <r_epik_State_Penalty>
4.81716

> <r_epik_Charging_Adjusted_Penalty>
5.38724

> <i_epik_Tot_Q>
0

> <i_epik_Tot_abs_Q>
2

> <r_epik_Metal_State_Penalty>
1.25629

> <b_epik_Metal_Only>
1

> <s_lp_Force_Field>
OPLS_2005

> <r_lp_Energy>
27.3859

> <b_lp_Chiralities_Consistent>
1

> <s_lp_Variant>
AV-unprocessed.smi:1492-12

> <Gold.Version>
5.8.1

> <Gold.Id.Protein>
6NUR|6NUR_protein|mol2

> <Gold.PLP.Fitness>
47.5678

> <Gold.PLP.PLP>
-32.4215

> <Gold.PLP.part.hbond>
-4.0000

> <Gold.PLP.part.metal>
0.0000

> <Gold.PLP.part.buried>
-5.3292

> <Gold.PLP.part.nonpolar>
-24.0468

> <Gold.PLP.part.repulsive>
0.2668

> <Gold.PLP.ligand.clash>
0.0000

> <Gold.PLP.ligand.torsion>
0.6487

> <Gold.PLP.Chemscore.Hbond>
5.4462

> <Gold.PLP.Chemscore.CHOScore>
0.0000

> <Gold.PLP.Chemscore.Metal>
0.0000

> <Gold.Chemscore.Hbonds>
donor molecule, donor type, donor heavy atom, donor atom, acceptor molecule, acceptor atom, score
      L1  H     6    35       P1  7948  1.00
      L1  H    19    52       P1  7948  2.00
      P1  H  7997  8010       L1    16  2.00
      P1  H 10752 10765       L1    18  0.37

> <Gold.PLP.Chemscore.Internal.Correction>
0.1052

> <Gold.Rescore>
     Score         DG    S(hbond)    S(metal)    S(lipo)     H(rot)  DE(clash)    DE(int)     intcor
     14.67     -17.44       2.76        0.00      69.86       2.12       0.04       2.73       ----

> <Gold.Chemscore.Fitness>
14.6686

> <Gold.Chemscore.DG>
-17.4384

> <Gold.Chemscore.ZeroCoef>
-5.4800

> <Gold.Chemscore.Hbond>
2.7607

> <Gold.Chemscore.Metal>
0.0000

> <Gold.Chemscore.Lipo>
69.8604

> <Gold.Chemscore.Internal_Hbond>
0.0000

> <Gold.Chemscore.DEClash>
0.0437

> <Gold.Chemscore.DEInternal>
2.7261

> <Gold.Chemscore.Rot>
2.1235

> <Gold.Chemscore.Internal.Correction>
   9.000000E+99

> <Gold.Chemscore.Hbonds>
donor molecule, donor type, donor heavy atom, donor atom, acceptor molecule, acceptor atom, score
      L1  H     6    35       P1  7948  0.82
      L1  H    19    52       P1  7948  0.97
      P1  H  7997  8010       L1    16  0.10
      P1  H 10752 10765       L1    18  0.37

> <Gold.Chemscore.Hbond.Weighted>
-9.2208

> <Gold.Chemscore.Metal.Weighted>
-0.0000

> <Gold.Chemscore.Lipo.Weighted>
-8.1737

> <Gold.Chemscore.Internal_Hbond.Weighted>
0.0000

> <Gold.Chemscore.DEClash.Weighted>
0.0437

> <Gold.Chemscore.DEInternal.Weighted>
2.7261

> <Gold.Chemscore.Rot.Weighted>
5.4360

> <Gold.Chemscore.Internal.Correction.Weighted>
   9.000000E+99

> <Gold.Protein.RotatedTorsions>
[ 6907 6896 6895 6894 ] final   16.10 input  -60.11 | X-H torsion
[ 7974 7965 7964 7962 ] final -124.17 input  175.53 | X-H torsion
[ 8008 7997 7996 7995 ] final   63.79 input   59.86 | X-H torsion
[ 10167 10162 10161 10158 ] final  -26.19 input  -65.29 | X-H torsion
[ 10718 10713 10712 10709 ] final   71.09 input   66.30 | X-H torsion
[ 10763 10752 10751 10750 ] final -142.62 input  -60.55 | X-H torsion
[ 11005 11000 10999 10996 ] final  -40.01 input  -57.11 | X-H torsion

> <Gold.Protein.ActiveResidues>
 VAL166  LYS551  ARG553  GLY616  TRP617  ASP618  TYR619  PRO620  LYS621  CYS622 
 ASP623  PHE694  ASN695  SER759  ASP760  ASP761  ALA762  ILE779  LEU786  VAL792 
 PHE793  MET794  SER795  GLU796  ALA797  LYS798  CYS799  TRP800  GLU811  SER814 

> <Gold.Protein.RotatedAtoms>
  151.8286  135.0629  160.0433 H   0  0  0  0  0  0  0  0  0  0  0  0  # atno 6907 bound_to 6896
  152.2897  133.5545  159.5558 H   0  0  0  0  0  0  0  0  0  0  0  0  # atno 6908 bound_to 6896
  150.7225  134.0362  159.3792 H   0  0  0  0  0  0  0  0  0  0  0  0  # atno 6909 bound_to 6896
  145.0109  140.7905  143.4439 H   0  0  0  0  0  0  0  0  0  0  0  0  # atno 7974 bound_to 7965
  155.6358  140.3496  155.4698 H   0  0  0  0  0  0  0  0  0  0  0  0  # atno 8008 bound_to 7997
  155.9966  140.1204  157.0611 H   0  0  0  0  0  0  0  0  0  0  0  0  # atno 8009 bound_to 7997
  154.4235  140.1109  156.5625 H   0  0  0  0  0  0  0  0  0  0  0  0  # atno 8010 bound_to 7997
  140.7284  143.4199  151.0968 H   0  0  0  0  0  0  0  0  0  0  0  0  # atno 10167 bound_to 10162
  157.6434  130.9511  150.0741 H   0  0  0  0  0  0  0  0  0  0  0  0  # atno 10718 bound_to 10713
  154.8502  135.3491  154.6057 H   0  0  0  0  0  0  0  0  0  0  0  0  # atno 10763 bound_to 10752
  153.6666  135.6987  153.5165 H   0  0  0  0  0  0  0  0  0  0  0  0  # atno 10764 bound_to 10752
  153.2775  135.4273  155.1004 H   0  0  0  0  0  0  0  0  0  0  0  0  # atno 10765 bound_to 10752
  141.0144  133.6892  156.2264 H   0  0  0  0  0  0  0  0  0  0  0  0  # atno 11005 bound_to 11000
  145.2024  139.2245  143.5186 LP  0  0  0  0  0  0  0  0  0  0  0  0  # atno 17320 bound_to 7965
  146.3470  140.1844  142.8589 LP  0  0  0  0  0  0  0  0  0  0  0  0  # atno 17321 bound_to 7965
  139.7844  143.8309  152.3142 LP  0  0  0  0  0  0  0  0  0  0  0  0  # atno 17342 bound_to 10162
  139.8271  144.7270  150.9497 LP  0  0  0  0  0  0  0  0  0  0  0  0  # atno 17343 bound_to 10162
  156.1737  130.3647  149.9130 LP  0  0  0  0  0  0  0  0  0  0  0  0  # atno 17370 bound_to 10713
  156.7100  130.8966  151.3608 LP  0  0  0  0  0  0  0  0  0  0  0  0  # atno 17371 bound_to 10713
  140.6680  134.4898  157.5586 LP  0  0  0  0  0  0  0  0  0  0  0  0  # atno 17394 bound_to 11000
  139.9108  134.8349  156.1535 LP  0  0  0  0  0  0  0  0  0  0  0  0  # atno 17395 bound_to 11000

$$$$
