AV-unprocessed.smi:1335|AV-procd|sdf|5494|dock9
  -GOLD-   22720 5 73D 1   1.00000     0.00000
 Structure written by MMmdl.
 47 49  0  0  0  0  0  0  0  0  1 V2000
  146.2503  139.6832  157.5704 C   0  0  0  0  0  0  0  0  0  0  0  0
  146.6607  140.0129  156.2511 O   0  0  0  0  0  0  0  0  0  0  0  0
  146.1336  141.1445  155.6618 C   0  0  0  0  0  0  0  0  0  0  0  0
  145.1970  141.9937  156.3062 C   0  0  0  0  0  0  0  0  0  0  0  0
  144.7033  143.1417  155.6584 C   0  0  0  0  0  0  0  0  0  0  0  0
  145.1410  143.4618  154.3620 C   0  0  0  0  0  0  0  0  0  0  0  0
  146.0685  142.6287  153.7123 C   0  0  0  0  0  0  0  0  0  0  0  0
  146.5574  141.4664  154.3481 C   0  0  0  0  0  0  0  0  0  0  0  0
  147.5687  140.5912  153.6218 C   0  0  0  0  0  0  0  0  0  0  0  0
  148.6752  140.2613  154.4455 O   0  0  0  0  0  0  0  0  0  0  0  0
  149.5282  141.3639  154.7055 C   0  0  0  0  0  0  0  0  0  0  0  0
  150.3557  141.0559  155.9624 C   0  0  2  0  0  0  0  0  0  0  0  0
  149.4821  140.4875  156.9165 O   0  0  0  0  0  0  0  0  0  0  0  0
  150.9972  142.3221  156.5673 C   0  0  0  0  0  0  0  0  0  0  0  0
  151.7349  142.0134  157.7894 N   0  0  0  0  0  0  0  0  0  0  0  0
  152.5580  140.9579  157.9917 C   0  0  0  0  0  0  0  0  0  0  0  0
  152.8060  140.0689  157.1773 O   0  0  0  0  0  0  0  0  0  0  0  0
  153.0665  141.0583  159.2426 N   0  0  0  0  0  0  0  0  0  0  0  0
  154.0067  140.1473  159.8837 C   0  0  0  0  0  0  0  0  0  0  0  0
  152.5682  142.2179  159.8503 C   0  0  0  0  0  0  0  0  0  0  0  0
  152.8017  142.7673  161.1226 C   0  0  0  0  0  0  0  0  0  0  0  0
  152.1390  143.9778  161.4347 C   0  0  0  0  0  0  0  0  0  0  0  0
  151.2796  144.6005  160.4922 C   0  0  0  0  0  0  0  0  0  0  0  0
  151.0637  144.0253  159.2179 C   0  0  0  0  0  0  0  0  0  0  0  0
  151.7315  142.8210  158.9357 C   0  0  0  0  0  0  0  0  0  0  0  0
  146.7476  138.7646  157.8820 H   0  0  0  0  0  0  0  0  0  0  0  0
  145.1748  139.5085  157.6224 H   0  0  0  0  0  0  0  0  0  0  0  0
  146.5259  140.4636  158.2809 H   0  0  0  0  0  0  0  0  0  0  0  0
  144.8405  141.7886  157.3039 H   0  0  0  0  0  0  0  0  0  0  0  0
  143.9913  143.7803  156.1602 H   0  0  0  0  0  0  0  0  0  0  0  0
  144.7679  144.3464  153.8670 H   0  0  0  0  0  0  0  0  0  0  0  0
  146.4041  142.8895  152.7194 H   0  0  0  0  0  0  0  0  0  0  0  0
  147.0617  139.6822  153.2946 H   0  0  0  0  0  0  0  0  0  0  0  0
  147.9372  141.0997  152.7300 H   0  0  0  0  0  0  0  0  0  0  0  0
  150.1794  141.5553  153.8508 H   0  0  0  0  0  0  0  0  0  0  0  0
  148.9224  142.2575  154.8657 H   0  0  0  0  0  0  0  0  0  0  0  0
  151.1166  140.3171  155.7067 H   0  0  0  0  0  0  0  0  0  0  0  0
  150.0001  140.0742  157.5901 H   0  0  0  0  0  0  0  0  0  0  0  0
  151.7089  142.7554  155.8638 H   0  0  0  0  0  0  0  0  0  0  0  0
  150.2531  143.1018  156.7399 H   0  0  0  0  0  0  0  0  0  0  0  0
  153.6378  139.8508  160.8659 H   0  0  0  0  0  0  0  0  0  0  0  0
  154.9723  140.6364  160.0142 H   0  0  0  0  0  0  0  0  0  0  0  0
  154.1627  139.2409  159.2975 H   0  0  0  0  0  0  0  0  0  0  0  0
  153.4598  142.2890  161.8329 H   0  0  0  0  0  0  0  0  0  0  0  0
  152.2904  144.4344  162.4016 H   0  0  0  0  0  0  0  0  0  0  0  0
  150.7847  145.5252  160.7498 H   0  0  0  0  0  0  0  0  0  0  0  0
  150.4145  144.4959  158.4948 H   0  0  0  0  0  0  0  0  0  0  0  0
  1  2  1  0  0  0  0
  1 26  1  0  0  0  0
  1 27  1  0  0  0  0
  1 28  1  0  0  0  0
  2  3  1  0  0  0  0
  3  8  1  0  0  0  0
  3  4  2  0  0  0  0
  4  5  1  0  0  0  0
  4 29  1  0  0  0  0
  5  6  2  0  0  0  0
  5 30  1  0  0  0  0
  6  7  1  0  0  0  0
  6 31  1  0  0  0  0
  7  8  2  0  0  0  0
  7 32  1  0  0  0  0
  8  9  1  0  0  0  0
  9 10  1  0  0  0  0
  9 33  1  0  0  0  0
  9 34  1  0  0  0  0
 10 11  1  0  0  0  0
 11 12  1  0  0  0  0
 11 35  1  0  0  0  0
 11 36  1  0  0  0  0
 12 13  1  0  0  0  0
 12 14  1  0  0  0  0
 12 37  1  0  0  0  0
 13 38  1  0  0  0  0
 14 15  1  0  0  0  0
 14 39  1  0  0  0  0
 14 40  1  0  0  0  0
 15 25  1  0  0  0  0
 15 16  1  0  0  0  0
 16 17  2  0  0  0  0
 16 18  1  0  0  0  0
 18 19  1  0  0  0  0
 18 20  1  0  0  0  0
 19 41  1  0  0  0  0
 19 42  1  0  0  0  0
 19 43  1  0  0  0  0
 20 25  2  0  0  0  0
 20 21  1  0  0  0  0
 21 22  2  0  0  0  0
 21 44  1  0  0  0  0
 22 23  1  0  0  0  0
 22 45  1  0  0  0  0
 23 24  2  0  0  0  0
 23 46  1  0  0  0  0
 24 25  1  0  0  0  0
 24 47  1  0  0  0  0
M  END
> <s_m_source_file>
AV-unprocessed.smi

> <i_m_source_file_index>
1335

> <i_lp_mmshare_version>
43012

> <i_f3d_flags>
0

> <s_epik_input>
W0NIM11PYzFbY0hdW2NIXVtjSF1bY0hdYzFbQ0gyXU9bQ0gyXVtDQEhdKFtPSF0pW0NIMl1uKGMoPU8pbjJbQ0gzXSljKGMyMylbY0hdW2NIXVtjSF1bY0hdMw==

> <s_epik_cmdline>
J2VwaWtfcHl0aG9uJywgJy1waCcsICc3LjAnLCAnLXRuJywgJzgnLCAnLW1hJywgJzIwMCcsICctbWV0YWxfYmluZGluZycsICctaW1hZScsICc8aW5maWxlLm1hZT4nLCAnLW9tYWUnLCAnPG91dGZpbGUubWFlPic=

> <r_lp_tautomer_probability>
1

> <r_epik_Ionization_Penalty>
1.07897e-06

> <r_epik_Ionization_Penalty_Charging>
2.2947e-09

> <r_epik_Ionization_Penalty_Neutral>
1.07667e-06

> <r_epik_State_Penalty>
-0

> <r_epik_Charging_Adjusted_Penalty>
2.2947e-09

> <i_epik_Tot_Q>
0

> <i_epik_Tot_abs_Q>
0

> <r_epik_Metal_State_Penalty>
-0

> <b_epik_Metal_Only>
0

> <s_lp_Force_Field>
OPLS_2005

> <r_lp_Energy>
50.1795

> <b_lp_Chiralities_Consistent>
1

> <s_lp_Variant>
AV-unprocessed.smi:1335-1

> <Gold.Version>
5.8.1

> <Gold.Id.Protein>
6NUR|6NUR_protein|mol2

> <Gold.PLP.Fitness>
55.5167

> <Gold.PLP.PLP>
-53.7318

> <Gold.PLP.part.hbond>
-1.0000

> <Gold.PLP.part.metal>
0.0000

> <Gold.PLP.part.buried>
-8.0714

> <Gold.PLP.part.nonpolar>
-43.8268

> <Gold.PLP.part.repulsive>
0.1179

> <Gold.PLP.ligand.clash>
0.0000

> <Gold.PLP.ligand.torsion>
0.6577

> <Gold.PLP.Chemscore.Hbond>
1.0000

> <Gold.PLP.Chemscore.CHOScore>
0.0000

> <Gold.PLP.Chemscore.Metal>
0.0000

> <Gold.Chemscore.Hbonds>
donor molecule, donor type, donor heavy atom, donor atom, acceptor molecule, acceptor atom, score
      P1  H  7997  8009       L1    17  0.91

> <Gold.PLP.Chemscore.Internal.Correction>
0.1002

> <Gold.Rescore>
     Score         DG    S(hbond)    S(metal)    S(lipo)     H(rot)  DE(clash)    DE(int)     intcor
     14.42     -17.44       0.90        0.00     131.19       2.50       0.06       2.96       ----

> <Gold.Chemscore.Fitness>
14.4154

> <Gold.Chemscore.DG>
-17.4370

> <Gold.Chemscore.ZeroCoef>
-5.4800

> <Gold.Chemscore.Hbond>
0.9034

> <Gold.Chemscore.Metal>
0.0000

> <Gold.Chemscore.Lipo>
131.1915

> <Gold.Chemscore.Internal_Hbond>
0.0000

> <Gold.Chemscore.DEClash>
0.0641

> <Gold.Chemscore.DEInternal>
2.9575

> <Gold.Chemscore.Rot>
2.5038

> <Gold.Chemscore.Internal.Correction>
   9.000000E+99

> <Gold.Chemscore.Hbonds>
donor molecule, donor type, donor heavy atom, donor atom, acceptor molecule, acceptor atom, score
      P1  H  7997  8009       L1    17  0.58

> <Gold.Chemscore.Hbond.Weighted>
-3.0174

> <Gold.Chemscore.Metal.Weighted>
-0.0000

> <Gold.Chemscore.Lipo.Weighted>
-15.3494

> <Gold.Chemscore.Internal_Hbond.Weighted>
0.0000

> <Gold.Chemscore.DEClash.Weighted>
0.0641

> <Gold.Chemscore.DEInternal.Weighted>
2.9575

> <Gold.Chemscore.Rot.Weighted>
6.4098

> <Gold.Chemscore.Internal.Correction.Weighted>
   9.000000E+99

> <Gold.Protein.RotatedTorsions>
[ 6907 6896 6895 6894 ] final  127.90 input  -60.11 | X-H torsion
[ 7974 7965 7964 7962 ] final -133.43 input  175.53 | X-H torsion
[ 8008 7997 7996 7995 ] final  162.06 input   59.86 | X-H torsion
[ 10167 10162 10161 10158 ] final  157.45 input  -65.29 | X-H torsion
[ 10718 10713 10712 10709 ] final   91.63 input   66.30 | X-H torsion
[ 10763 10752 10751 10750 ] final   58.36 input  -60.55 | X-H torsion
[ 11005 11000 10999 10996 ] final  100.73 input  -57.11 | X-H torsion

> <Gold.Protein.ActiveResidues>
 VAL166  LYS551  ARG553  GLY616  TRP617  ASP618  TYR619  PRO620  LYS621  CYS622 
 ASP623  PHE694  ASN695  SER759  ASP760  ASP761  ALA762  ILE779  LEU786  VAL792 
 PHE793  MET794  SER795  GLU796  ALA797  LYS798  CYS799  TRP800  GLU811  SER814 

> <Gold.Protein.RotatedAtoms>
  152.3769  133.6493  159.6130 H   0  0  0  0  0  0  0  0  0  0  0  0  # atno 6907 bound_to 6896
  150.7711  133.9178  159.3397 H   0  0  0  0  0  0  0  0  0  0  0  0  # atno 6908 bound_to 6896
  151.6991  135.0934  160.0299 H   0  0  0  0  0  0  0  0  0  0  0  0  # atno 6909 bound_to 6896
  144.9194  140.6995  143.4975 H   0  0  0  0  0  0  0  0  0  0  0  0  # atno 7974 bound_to 7965
  156.2058  140.1760  156.7802 H   0  0  0  0  0  0  0  0  0  0  0  0  # atno 8008 bound_to 7997
  154.5654  140.0692  156.8913 H   0  0  0  0  0  0  0  0  0  0  0  0  # atno 8009 bound_to 7997
  155.2771  140.3346  155.4263 H   0  0  0  0  0  0  0  0  0  0  0  0  # atno 8010 bound_to 7997
  139.4823  144.4917  151.8299 H   0  0  0  0  0  0  0  0  0  0  0  0  # atno 10167 bound_to 10162
  157.6960  131.0414  150.3759 H   0  0  0  0  0  0  0  0  0  0  0  0  # atno 10718 bound_to 10713
  152.9869  135.5609  154.5539 H   0  0  0  0  0  0  0  0  0  0  0  0  # atno 10763 bound_to 10752
  154.4971  135.2795  155.1452 H   0  0  0  0  0  0  0  0  0  0  0  0  # atno 10764 bound_to 10752
  154.2898  135.6328  153.5433 H   0  0  0  0  0  0  0  0  0  0  0  0  # atno 10765 bound_to 10752
  139.8771  134.9153  156.4800 H   0  0  0  0  0  0  0  0  0  0  0  0  # atno 11005 bound_to 11000
  145.3321  139.1756  143.4531 LP  0  0  0  0  0  0  0  0  0  0  0  0  # atno 17320 bound_to 7965
  146.3197  140.3352  142.8643 LP  0  0  0  0  0  0  0  0  0  0  0  0  # atno 17321 bound_to 7965
  140.4401  144.1998  150.5891 LP  0  0  0  0  0  0  0  0  0  0  0  0  # atno 17342 bound_to 10162
  140.4691  143.2419  151.9113 LP  0  0  0  0  0  0  0  0  0  0  0  0  # atno 17343 bound_to 10162
  156.4178  130.3947  149.6846 LP  0  0  0  0  0  0  0  0  0  0  0  0  # atno 17370 bound_to 10713
  156.4107  130.7721  151.2733 LP  0  0  0  0  0  0  0  0  0  0  0  0  # atno 17371 bound_to 10713
  140.8734  133.7971  155.9388 LP  0  0  0  0  0  0  0  0  0  0  0  0  # atno 17394 bound_to 11000
  140.8929  134.2473  157.5084 LP  0  0  0  0  0  0  0  0  0  0  0  0  # atno 17395 bound_to 11000

$$$$
