#       Name:                AV-unprocessed.smi:3330
#       Creating user name   scv26
#       Creation time:       Fri Mar 27 19:18:26 2020


#       File generated by GOLD software.
#

@<TRIPOS>MOLECULE
AV-unprocessed.smi:3330
    44    45     1
SMALL
NO_CHARGES


@<TRIPOS>ATOM
      1 ****        -1.5305  -0.4687   2.2652 C.3            1 S1                 0.0000
      2 ****        -0.9310  -0.3983   0.8485 C.3            1 S1                 0.0000
      3 ****         0.5144  -0.5324   0.9919 N.3            1 S1                 0.0000
      4 ****         1.2127   0.5734   0.3558 C.3            1 S1                 0.0000
      5 ****         2.7285   0.3585   0.4715 C.3            1 S1                 0.0000
      6 ****         3.4636   1.4513  -0.1706 N.am           1 S1                 0.0000
      7 ****         3.8405   1.4522  -1.4528 C.2            1 S1                 0.0000
      8 ****         3.6593   0.5735  -2.2960 O.2            1 S1                 0.0000
      9 ****         4.5448   2.7621  -1.7188 C.3            1 S1                 0.0000
     10 ****         4.4666   3.4215  -0.4347 N.pl3          1 S1                -1.0000
     11 ****         3.8188   2.6042   0.4282 C.2            1 S1                 0.0000
     12 ****         3.5592   2.8383   1.6081 O.2            1 S1                 0.0000
     13 ****        -1.4646  -1.5003  -0.1058 C.3            1 S1                 0.0000
     14 ****        -0.9694  -1.3367  -1.5547 C.3            1 S1                 0.0000
     15 ****        -2.9209  -1.5593  -0.0933 N.pl3          1 S1                 0.0000
     16 ****        -3.8254  -0.5926  -0.4855 C.2            1 S1                 0.0000
     17 ****        -5.0776  -1.1015  -0.2927 C.2            1 S1                 0.0000
     18 ****        -4.8358  -2.4027   0.2287 C.2            1 S1                 0.0000
     19 ****        -3.5462  -2.6741   0.3457 N.2            1 S1                 0.0000
     20 ****        -2.6053  -0.2879   2.2573 H              1 S1                 0.0000
     21 ****        -1.0873   0.2846   2.9175 H              1 S1                 0.0000
     22 ****        -1.3616  -1.4453   2.7207 H              1 S1                 0.0000
     23 ****        -1.1817   0.5804   0.4354 H              1 S1                 0.0000
     24 ****         0.7574  -0.5536   1.9720 H              1 S1                 0.0000
     25 ****         0.9239   0.6434  -0.6934 H              1 S1                 0.0000
     26 ****         0.9265   1.5095   0.8376 H              1 S1                 0.0000
     27 ****         3.0200   0.2796   1.5203 H              1 S1                 0.0000
     28 ****         3.0065  -0.5931   0.0146 H              1 S1                 0.0000
     29 ****         5.5682   2.5734  -2.0446 H              1 S1                 0.0000
     30 ****         4.0322   3.3048  -2.5138 H              1 S1                 0.0000
     31 ****        -1.0989  -2.4634   0.2562 H              1 S1                 0.0000
     32 ****         0.1147  -1.4306  -1.6179 H              1 S1                 0.0000
     33 ****        -1.2435  -0.3638  -1.9637 H              1 S1                 0.0000
     34 ****        -1.3958  -2.1028  -2.2031 H              1 S1                 0.0000
     35 ****        -3.5048   0.3667  -0.8641 H              1 S1                 0.0000
     36 ****        -6.0219  -0.6176  -0.4930 H              1 S1                 0.0000
     37 ****        -5.5540  -3.1537   0.5231 H              1 S1                 0.0000
     38 ****         0.7911  -1.3839   0.5466 LP             1 S1                 0.0000
     39 ****         3.1765  -0.2662  -2.0473 LP             1 S1                 0.0000
     40 ****         3.9948   0.6996  -3.2295 LP             1 S1                 0.0000
     41 ****         4.8297   4.3282  -0.2202 LP             1 S1                 0.0000
     42 ****         3.0684   2.1609   2.1560 LP             1 S1                 0.0000
     43 ****         3.8390   3.7060   2.0190 LP             1 S1                 0.0000
     44 ****        -3.1273  -3.5168   0.6838 LP             1 S1                 0.0000
@<TRIPOS>BOND
    1    1    2 1     
    2    1   20 1     
    3    1   21 1     
    4    1   22 1     
    5    2    3 1     
    6    2   13 1     
    7    2   23 1     
    8    3    4 1     
    9    3   24 1     
   10    4    5 1     
   11    4   25 1     
   12    4   26 1     
   13    5    6 1     
   14    5   27 1     
   15    5   28 1     
   16    6   11 am    
   17    6    7 am    
   18    7    8 2     
   19    7    9 1     
   20    9   10 1     
   21    9   29 1     
   22    9   30 1     
   23   10   11 1     
   24   11   12 2     
   25   13   14 1     
   26   13   15 1     
   27   13   31 1     
   28   14   32 1     
   29   14   33 1     
   30   14   34 1     
   31   15   19 1     
   32   15   16 1     
   33   16   17 2     
   34   16   35 1     
   35   17   18 1     
   36   17   36 1     
   37   18   19 2     
   38   18   37 1     
   39    3   38 1     
   40    8   39 1     
   41    8   40 1     
   42   10   41 1     
   43   12   42 1     
   44   12   43 1     
   45   19   44 1     
@<TRIPOS>SUBSTRUCTURE
      1 S1             1
@<TRIPOS>SET
LONE_PAIRS      STATIC     ATOMS    <user>   **** ""
7 38 39 40 41 42 43 44
DONOR_HYDROGENS      STATIC     ATOMS    <user>   **** ""
1 24
ATOM$BLUE        STATIC     ATOMS    COLORGROUP SYSTEM
7 38 39 40 41 42 43 44
ATOM$RED        STATIC     ATOMS    COLORGROUP SYSTEM
1 24
