AV-unprocessed.smi:919|AV-procd|sdf|4166|dock1
  -GOLD-   22720 2 73D 1   1.00000     0.00000
 Structure written by MMmdl.
 43 45  0  0  0  0  0  0  0  0  1 V2000
  150.4313  138.1090  154.5289 C   0  0  0  0  0  0  0  0  0  0  0  0
  149.7007  139.4144  154.3948 C   0  0  0  0  0  0  0  0  0  0  0  0
  150.3681  140.5515  154.4969 N   0  0  0  0  0  0  0  0  0  0  0  0
  149.4210  141.5669  154.3306 O   0  0  0  0  0  0  0  0  0  0  0  0
  148.2065  140.9941  154.1317 C   0  0  0  0  0  0  0  0  0  0  0  0
  147.0564  141.9227  153.9363 C   0  0  0  0  0  0  0  0  0  0  0  0
  148.3137  139.6309  154.1565 C   0  0  0  0  0  0  0  0  0  0  0  0
  147.2382  138.5942  153.9814 C   0  0  0  0  0  0  0  0  0  0  0  0
  146.5472  138.7287  152.6156 C   0  0  0  0  0  0  0  0  0  0  0  0
  146.4210  137.4359  151.9555 N   0  0  0  0  0  0  0  0  0  0  0  0
  145.2831  136.7277  151.8614 C   0  0  0  0  0  0  0  0  0  0  0  0
  144.2042  137.1156  152.3061 O   0  0  0  0  0  0  0  0  0  0  0  0
  145.4096  135.5434  151.2378 N   0  0  0  0  0  0  0  0  0  0  0  0
  144.3649  134.5490  150.9787 C   0  0  2  0  0  0  0  0  0  0  0  0
  144.0971  133.6831  152.2295 C   0  0  0  0  0  0  0  0  0  0  0  0
  144.3619  132.2517  151.7279 C   0  0  2  0  0  0  0  0  0  0  0  0
  145.8734  132.0536  151.5056 C   0  0  0  0  0  0  0  0  0  0  0  0
  146.1396  132.8694  150.2265 C   0  0  0  0  0  0  0  0  0  0  0  0
  144.7548  133.4811  149.9228 C   0  0  1  0  0  0  0  0  0  0  0  0
  143.8376  132.3227  150.3000 C   0  0  0  0  0  0  0  0  0  0  0  0
  149.8196  137.3683  155.0446 H   0  0  0  0  0  0  0  0  0  0  0  0
  151.3570  138.2222  155.0947 H   0  0  0  0  0  0  0  0  0  0  0  0
  150.6861  137.7042  153.5492 H   0  0  0  0  0  0  0  0  0  0  0  0
  146.1068  141.4013  154.0585 H   0  0  0  0  0  0  0  0  0  0  0  0
  147.0779  142.3581  152.9374 H   0  0  0  0  0  0  0  0  0  0  0  0
  147.0879  142.7362  154.6613 H   0  0  0  0  0  0  0  0  0  0  0  0
  147.6516  137.5897  154.0792 H   0  0  0  0  0  0  0  0  0  0  0  0
  146.4965  138.6828  154.7760 H   0  0  0  0  0  0  0  0  0  0  0  0
  145.5632  139.1879  152.7261 H   0  0  0  0  0  0  0  0  0  0  0  0
  147.1263  139.3878  151.9680 H   0  0  0  0  0  0  0  0  0  0  0  0
  147.2603  137.0419  151.5558 H   0  0  0  0  0  0  0  0  0  0  0  0
  146.3276  135.3178  150.8827 H   0  0  0  0  0  0  0  0  0  0  0  0
  143.4390  135.0489  150.6882 H   0  0  0  0  0  0  0  0  0  0  0  0
  144.7316  133.9402  153.0793 H   0  0  0  0  0  0  0  0  0  0  0  0
  143.0605  133.7919  152.5509 H   0  0  0  0  0  0  0  0  0  0  0  0
  143.9062  131.4806  152.3494 H   0  0  0  0  0  0  0  0  0  0  0  0
  146.4633  132.4053  152.3530 H   0  0  0  0  0  0  0  0  0  0  0  0
  146.1111  131.0014  151.3452 H   0  0  0  0  0  0  0  0  0  0  0  0
  146.9278  133.6113  150.3549 H   0  0  0  0  0  0  0  0  0  0  0  0
  146.4479  132.2084  149.4153 H   0  0  0  0  0  0  0  0  0  0  0  0
  144.6505  133.8248  148.8933 H   0  0  0  0  0  0  0  0  0  0  0  0
  144.0241  131.4144  149.7241 H   0  0  0  0  0  0  0  0  0  0  0  0
  142.7769  132.5727  150.2399 H   0  0  0  0  0  0  0  0  0  0  0  0
  1  2  1  0  0  0  0
  1 21  1  0  0  0  0
  1 22  1  0  0  0  0
  1 23  1  0  0  0  0
  2  7  1  0  0  0  0
  2  3  2  0  0  0  0
  3  4  1  0  0  0  0
  4  5  1  0  0  0  0
  5  6  1  0  0  0  0
  5  7  2  0  0  0  0
  6 24  1  0  0  0  0
  6 25  1  0  0  0  0
  6 26  1  0  0  0  0
  7  8  1  0  0  0  0
  8  9  1  0  0  0  0
  8 27  1  0  0  0  0
  8 28  1  0  0  0  0
  9 10  1  0  0  0  0
  9 29  1  0  0  0  0
  9 30  1  0  0  0  0
 10 11  1  0  0  0  0
 10 31  1  0  0  0  0
 11 12  2  0  0  0  0
 11 13  1  0  0  0  0
 13 14  1  0  0  0  0
 13 32  1  0  0  0  0
 14 19  1  0  0  0  0
 14 15  1  0  0  0  0
 14 33  1  0  0  0  0
 15 16  1  0  0  0  0
 15 34  1  0  0  0  0
 15 35  1  0  0  0  0
 16 20  1  0  0  0  0
 16 17  1  0  0  0  0
 16 36  1  0  0  0  0
 17 18  1  0  0  0  0
 17 37  1  0  0  0  0
 17 38  1  0  0  0  0
 18 19  1  0  0  0  0
 18 39  1  0  0  0  0
 18 40  1  0  0  0  0
 19 20  1  0  0  0  0
 19 41  1  0  0  0  0
 20 42  1  0  0  0  0
 20 43  1  0  0  0  0
M  END
> <s_m_source_file>
AV-unprocessed.smi

> <i_m_source_file_index>
919

> <i_lp_mmshare_version>
43012

> <i_f3d_flags>
0

> <s_epik_input>
W0NIM11jMW5vYyhbQ0gzXSljMVtDSDJdW0NIMl1bTkhdQyg9TylbTkhdW0NASF0oW0NIMl1bQ0BASF0yMylbQ0BASF0oW0NIMl0zKVtDSDJdW0NIMl0y

> <s_epik_cmdline>
J2VwaWtfcHl0aG9uJywgJy1waCcsICc3LjAnLCAnLXRuJywgJzgnLCAnLW1hJywgJzIwMCcsICctbWV0YWxfYmluZGluZycsICctaW1hZScsICc8aW5maWxlLm1hZT4nLCAnLW9tYWUnLCAnPG91dGZpbGUubWFlPic=

> <r_lp_tautomer_probability>
1

> <r_epik_Ionization_Penalty>
6.40771e-05

> <r_epik_Ionization_Penalty_Charging>
0

> <r_epik_Ionization_Penalty_Neutral>
6.40771e-05

> <r_epik_State_Penalty>
-0

> <r_epik_Charging_Adjusted_Penalty>
0

> <i_epik_Tot_Q>
0

> <i_epik_Tot_abs_Q>
0

> <r_epik_Metal_State_Penalty>
-0

> <b_epik_Metal_Only>
0

> <s_lp_Force_Field>
OPLS_2005

> <r_lp_Energy>
47.1923

> <b_lp_Chiralities_Consistent>
1

> <s_lp_Variant>
AV-unprocessed.smi:919-3

> <Gold.Version>
5.8.1

> <Gold.Id.Protein>
6NUR|6NUR_protein|mol2

> <Gold.PLP.Fitness>
45.0272

> <Gold.PLP.PLP>
-39.2739

> <Gold.PLP.part.hbond>
-3.7483

> <Gold.PLP.part.metal>
0.0000

> <Gold.PLP.part.buried>
-2.4234

> <Gold.PLP.part.nonpolar>
-33.0495

> <Gold.PLP.part.repulsive>
2.0471

> <Gold.PLP.ligand.clash>
0.0000

> <Gold.PLP.ligand.torsion>
0.6788

> <Gold.PLP.Chemscore.Hbond>
2.3593

> <Gold.PLP.Chemscore.CHOScore>
0.0000

> <Gold.PLP.Chemscore.Metal>
0.0000

> <Gold.Chemscore.Hbonds>
donor molecule, donor type, donor heavy atom, donor atom, acceptor molecule, acceptor atom, score
      L1  H    10    31       P1  7948  0.98
      P1  H  7989  7998       L1     3  0.93
      P1  H  8011  8017       L1     4  0.33

> <Gold.PLP.Chemscore.Internal.Correction>
0.0331

> <Gold.Rescore>
     Score         DG    S(hbond)    S(metal)    S(lipo)     H(rot)  DE(clash)    DE(int)     intcor
     16.83     -17.59       1.58        0.00      91.74       1.52       0.13       0.63       ----

> <Gold.Chemscore.Fitness>
16.8276

> <Gold.Chemscore.DG>
-17.5926

> <Gold.Chemscore.ZeroCoef>
-5.4800

> <Gold.Chemscore.Hbond>
1.5751

> <Gold.Chemscore.Metal>
0.0000

> <Gold.Chemscore.Lipo>
91.7352

> <Gold.Chemscore.Internal_Hbond>
0.0000

> <Gold.Chemscore.DEClash>
0.1333

> <Gold.Chemscore.DEInternal>
0.6316

> <Gold.Chemscore.Rot>
1.5161

> <Gold.Chemscore.Internal.Correction>
   9.000000E+99

> <Gold.Chemscore.Hbonds>
donor molecule, donor type, donor heavy atom, donor atom, acceptor molecule, acceptor atom, score
      L1  H    10    31       P1  7948  0.93
      P1  H  7989  7998       L1     3  0.54
      P1  H  8011  8017       L1     4  0.05

> <Gold.Chemscore.Hbond.Weighted>
-5.2608

> <Gold.Chemscore.Metal.Weighted>
-0.0000

> <Gold.Chemscore.Lipo.Weighted>
-10.7330

> <Gold.Chemscore.Internal_Hbond.Weighted>
0.0000

> <Gold.Chemscore.DEClash.Weighted>
0.1333

> <Gold.Chemscore.DEInternal.Weighted>
0.6316

> <Gold.Chemscore.Rot.Weighted>
3.8813

> <Gold.Chemscore.Internal.Correction.Weighted>
   9.000000E+99

> <Gold.Protein.RotatedTorsions>
[ 6907 6896 6895 6894 ] final   58.86 input  -60.11 | X-H torsion
[ 7974 7965 7964 7962 ] final   80.59 input  175.53 | X-H torsion
[ 8008 7997 7996 7995 ] final  -31.34 input   59.86 | X-H torsion
[ 10167 10162 10161 10158 ] final  -43.27 input  -65.29 | X-H torsion
[ 10718 10713 10712 10709 ] final -160.41 input   66.30 | X-H torsion
[ 10763 10752 10751 10750 ] final -139.96 input  -60.55 | X-H torsion
[ 11005 11000 10999 10996 ] final  -18.01 input  -57.11 | X-H torsion

> <Gold.Protein.ActiveResidues>
 VAL166  LYS551  ARG553  GLY616  TRP617  ASP618  TYR619  PRO620  LYS621  CYS622 
 ASP623  PHE694  ASN695  SER759  ASP760  ASP761  ALA762  ILE779  LEU786  VAL792 
 PHE793  MET794  SER795  GLU796  ALA797  LYS798  CYS799  TRP800  GLU811  SER814 

> <Gold.Protein.RotatedAtoms>
  152.3863  134.6512  160.0124 H   0  0  0  0  0  0  0  0  0  0  0  0  # atno 6907 bound_to 6896
  151.6760  133.3307  159.3216 H   0  0  0  0  0  0  0  0  0  0  0  0  # atno 6908 bound_to 6896
  150.7788  134.6758  159.6461 H   0  0  0  0  0  0  0  0  0  0  0  0  # atno 6909 bound_to 6896
  145.6492  139.2443  143.1986 H   0  0  0  0  0  0  0  0  0  0  0  0  # atno 7974 bound_to 7965
  154.4217  140.1767  156.1550 H   0  0  0  0  0  0  0  0  0  0  0  0  # atno 8008 bound_to 7997
  155.9884  140.3371  155.6705 H   0  0  0  0  0  0  0  0  0  0  0  0  # atno 8009 bound_to 7997
  155.6406  140.0679  157.2610 H   0  0  0  0  0  0  0  0  0  0  0  0  # atno 8010 bound_to 7997
  140.6940  143.2992  151.3328 H   0  0  0  0  0  0  0  0  0  0  0  0  # atno 10167 bound_to 10162
  156.5818  130.8733  151.2866 H   0  0  0  0  0  0  0  0  0  0  0  0  # atno 10718 bound_to 10713
  154.8593  135.3567  154.5631 H   0  0  0  0  0  0  0  0  0  0  0  0  # atno 10763 bound_to 10752
  153.6245  135.7004  153.5303 H   0  0  0  0  0  0  0  0  0  0  0  0  # atno 10764 bound_to 10752
  153.3101  135.4181  155.1288 H   0  0  0  0  0  0  0  0  0  0  0  0  # atno 10765 bound_to 10752
  140.8225  133.8057  155.9674 H   0  0  0  0  0  0  0  0  0  0  0  0  # atno 11005 bound_to 11000
  146.1217  140.7300  142.9454 LP  0  0  0  0  0  0  0  0  0  0  0  0  # atno 17320 bound_to 7965
  144.7129  140.4104  143.7067 LP  0  0  0  0  0  0  0  0  0  0  0  0  # atno 17321 bound_to 7965
  139.6373  144.0606  152.2526 LP  0  0  0  0  0  0  0  0  0  0  0  0  # atno 17342 bound_to 10162
  140.0100  144.6231  150.7656 LP  0  0  0  0  0  0  0  0  0  0  0  0  # atno 17343 bound_to 10162
  157.7325  130.9715  150.1929 LP  0  0  0  0  0  0  0  0  0  0  0  0  # atno 17370 bound_to 10713
  156.2625  130.3712  149.8116 LP  0  0  0  0  0  0  0  0  0  0  0  0  # atno 17371 bound_to 10713
  140.9083  134.2292  157.5001 LP  0  0  0  0  0  0  0  0  0  0  0  0  # atno 17394 bound_to 11000
  139.8708  134.9738  156.4825 LP  0  0  0  0  0  0  0  0  0  0  0  0  # atno 17395 bound_to 11000

$$$$
