#       Name:                AV-unprocessed.smi:610
#       Creating user name   scv26
#       Creation time:       Thu Mar 26 23:58:00 2020


#       File generated by GOLD software.
#

@<TRIPOS>MOLECULE
AV-unprocessed.smi:610
    41    42     1
SMALL
NO_CHARGES


@<TRIPOS>ATOM
      1 ****        -2.8607  -0.7963  -1.9695 C.3            1 S1                 0.0000
      2 ****        -2.1561  -0.1639  -0.7618 C.3            1 S1                 0.0000
      3 ****        -2.5027  -0.9098   0.5438 C.3            1 S1                 0.0000
      4 ****        -1.9689  -0.2524   1.7223 N.pl3          1 S1                 0.0000
      5 ****        -2.4016   0.9412   2.2849 C.2            1 S1                 0.0000
      6 ****        -1.5974   1.1749   3.3773 C.2            1 S1                 0.0000
      7 ****        -0.6749   0.1397   3.5105 N.2            1 S1                 0.0000
      8 ****        -0.9617  -0.6709   2.5005 C.2            1 S1                 0.0000
      9 ****        -0.7126  -0.1729  -0.9978 N.am           1 S1                 0.0000
     10 ****         0.1382   0.8349  -0.7352 C.2            1 S1                 0.0000
     11 ****        -0.2383   1.9141  -0.2774 O.2            1 S1                 0.0000
     12 ****         1.6385   0.6268  -1.0505 C.3            1 S1                 0.0000
     13 ****         1.9440   1.4295  -2.2485 N.4            1 S1                 1.0000
     14 ****         2.5250   1.0415   0.1394 C.3            1 S1                 0.0000
     15 ****         2.5841  -0.1868   1.0595 C.3            1 S1                 0.0000
     16 ****         2.2411  -1.3990   0.1792 C.3            1 S1                 0.0000
     17 ****         2.0585  -0.8459  -1.2398 C.3            1 S1                 0.0000
     18 ****        -3.9436  -0.7833  -1.8418 H              1 S1                 0.0000
     19 ****        -2.5550  -1.8336  -2.1113 H              1 S1                 0.0000
     20 ****        -2.6325  -0.2524  -2.8869 H              1 S1                 0.0000
     21 ****        -2.5161   0.8635  -0.6838 H              1 S1                 0.0000
     22 ****        -3.5850  -0.9744   0.6626 H              1 S1                 0.0000
     23 ****        -2.1309  -1.9351   0.5110 H              1 S1                 0.0000
     24 ****        -3.2181   1.5131   1.8691 H              1 S1                 0.0000
     25 ****        -1.6133   2.0008   4.0731 H              1 S1                 0.0000
     26 ****        -0.4183  -1.5862   2.3168 H              1 S1                 0.0000
     27 ****        -0.3265  -1.0261  -1.3759 H              1 S1                 0.0000
     28 ****         2.9250   1.3451  -2.4725 H              1 S1                 0.0000
     29 ****         1.7211   2.3974  -2.0639 H              1 S1                 0.0000
     30 ****         3.5328   1.2680  -0.2129 H              1 S1                 0.0000
     31 ****         2.1741   1.9286   0.6688 H              1 S1                 0.0000
     32 ****         3.5672  -0.2854   1.5208 H              1 S1                 0.0000
     33 ****         1.8561  -0.0931   1.8656 H              1 S1                 0.0000
     34 ****         3.0162  -2.1654   0.2149 H              1 S1                 0.0000
     35 ****         1.3141  -1.8569   0.5265 H              1 S1                 0.0000
     36 ****         1.3686  -1.4440  -1.8361 H              1 S1                 0.0000
     37 ****         3.0194  -0.8856  -1.7560 H              1 S1                 0.0000
     38 ****         1.3885   1.1002  -3.0248 H              1 S1                 0.0000
     39 ****         0.0368   0.0327   4.2048 LP             1 S1                 0.0000
     40 ****        -1.2083   2.0655  -0.0874 LP             1 S1                 0.0000
     41 ****         0.4260   2.6392  -0.0956 LP             1 S1                 0.0000
@<TRIPOS>BOND
    1    1    2 1     
    2    1   18 1     
    3    1   19 1     
    4    1   20 1     
    5    2    3 1     
    6    2    9 1     
    7    2   21 1     
    8    3    4 1     
    9    3   22 1     
   10    3   23 1     
   11    4    8 1     
   12    4    5 1     
   13    5    6 2     
   14    5   24 1     
   15    6    7 1     
   16    6   25 1     
   17    7    8 2     
   18    8   26 1     
   19    9   10 am    
   20    9   27 1     
   21   10   11 2     
   22   10   12 1     
   23   12   17 1     
   24   12   13 1     
   25   12   14 1     
   26   13   28 1     
   27   13   29 1     
   28   13   38 1     
   29   14   15 1     
   30   14   30 1     
   31   14   31 1     
   32   15   16 1     
   33   15   32 1     
   34   15   33 1     
   35   16   17 1     
   36   16   34 1     
   37   16   35 1     
   38   17   36 1     
   39   17   37 1     
   40    7   39 1     
   41   11   40 1     
   42   11   41 1     
@<TRIPOS>SUBSTRUCTURE
      1 S1             1
@<TRIPOS>SET
LONE_PAIRS      STATIC     ATOMS    <user>   **** ""
3 39 40 41
DONOR_HYDROGENS      STATIC     ATOMS    <user>   **** ""
4 27 28 29 38
ATOM$BLUE        STATIC     ATOMS    COLORGROUP SYSTEM
3 39 40 41
ATOM$RED        STATIC     ATOMS    COLORGROUP SYSTEM
4 27 28 29 38
