AV-unprocessed.smi:230|AV-procd|sdf|1764|dock7
  -GOLD-   2262020293D 1   1.00000     0.00000
 Structure written by MMmdl.
 56 59  0  0  0  0  0  0  0  0  1 V2000
  147.0373  142.2313  154.1186 C   0  0  0  0  0  0  0  0  0  0  0  0
  147.2206  140.9491  154.9425 C   0  0  0  0  0  0  0  0  0  0  0  0
  148.5869  140.2443  154.7292 C   0  0  1  0  0  0  0  0  0  0  0  0
  149.7563  141.1705  155.1339 C   0  0  0  0  0  0  0  0  0  0  0  0
  151.0136  140.5125  154.9948 O   0  0  0  0  0  0  0  0  0  0  0  0
  151.1513  139.2949  155.7296 C   0  0  0  0  0  0  0  0  0  0  0  0
  152.5020  138.7043  155.2967 C   0  0  0  0  0  0  0  0  0  0  0  0
  151.1709  139.5533  157.2515 C   0  0  0  0  0  0  0  0  0  0  0  0
  150.0083  138.3464  155.3171 C   0  0  0  0  0  0  0  0  0  0  0  0
  148.7055  138.9859  155.4756 N   0  0  0  0  0  0  0  0  0  0  0  0
  147.6836  138.1146  155.3143 C   0  0  0  0  0  0  0  0  0  0  0  0
  147.3177  137.2924  156.3331 N   0  0  0  0  0  0  0  0  0  0  0  0
  146.3284  136.4112  156.1548 C   0  0  0  0  0  0  0  0  0  0  0  0
  145.5978  136.1854  155.0601 N   0  0  0  0  0  0  0  0  0  0  0  0
  145.9696  137.0079  154.0369 C   0  0  0  0  0  0  0  0  0  0  0  0
  146.9897  137.9976  154.0821 C   0  0  0  0  0  0  0  0  0  0  0  0
  147.0892  138.6407  152.8554 N   0  0  0  0  0  0  0  0  0  0  0  0
  146.1824  138.0562  152.1204 C   0  0  0  0  0  0  0  0  0  0  0  0
  145.4722  137.0562  152.7465 N   0  0  0  0  0  0  0  0  0  0  0  0
  144.4260  136.2330  152.1599 C   0  0  0  0  0  0  0  0  0  0  0  0
  144.9559  135.1590  151.1773 C   0  0  0  0  0  0  0  0  0  0  0  0
  145.3224  135.8187  149.9773 O   0  0  0  0  0  0  0  0  0  0  0  0
  146.1934  134.4110  151.7211 C   0  0  0  0  0  0  0  0  0  0  0  0
  146.5849  133.2155  150.8342 C   0  0  0  0  0  0  0  0  0  0  0  0
  145.4750  132.3411  150.6707 O   0  0  0  0  0  0  0  0  0  0  0  0
  144.3795  132.9606  150.0077 C   0  0  0  0  0  0  0  0  0  0  0  0
  143.8508  134.1348  150.8508 C   0  0  0  0  0  0  0  0  0  0  0  0
  146.0257  142.6203  154.2359 H   0  0  0  0  0  0  0  0  0  0  0  0
  147.1967  142.0415  153.0567 H   0  0  0  0  0  0  0  0  0  0  0  0
  147.7234  143.0183  154.4301 H   0  0  0  0  0  0  0  0  0  0  0  0
  147.0806  141.1728  156.0008 H   0  0  0  0  0  0  0  0  0  0  0  0
  146.4041  140.2827  154.6644 H   0  0  0  0  0  0  0  0  0  0  0  0
  148.6902  140.0063  153.6693 H   0  0  0  0  0  0  0  0  0  0  0  0
  149.7845  142.0509  154.4933 H   0  0  0  0  0  0  0  0  0  0  0  0
  149.6300  141.5385  156.1522 H   0  0  0  0  0  0  0  0  0  0  0  0
  152.6921  137.7473  155.7838 H   0  0  0  0  0  0  0  0  0  0  0  0
  153.3247  139.3742  155.5490 H   0  0  0  0  0  0  0  0  0  0  0  0
  152.5337  138.5391  154.2191 H   0  0  0  0  0  0  0  0  0  0  0  0
  151.3845  138.6347  157.7985 H   0  0  0  0  0  0  0  0  0  0  0  0
  150.2179  139.9276  157.6239 H   0  0  0  0  0  0  0  0  0  0  0  0
  151.9382  140.2809  157.5169 H   0  0  0  0  0  0  0  0  0  0  0  0
  150.1362  138.0554  154.2730 H   0  0  0  0  0  0  0  0  0  0  0  0
  150.0497  137.4305  155.9091 H   0  0  0  0  0  0  0  0  0  0  0  0
  146.0925  135.7946  157.0097 H   0  0  0  0  0  0  0  0  0  0  0  0
  146.0128  138.3314  151.0895 H   0  0  0  0  0  0  0  0  0  0  0  0
  143.8751  135.7576  152.9723 H   0  0  0  0  0  0  0  0  0  0  0  0
  143.7158  136.8912  151.6571 H   0  0  0  0  0  0  0  0  0  0  0  0
  145.5607  135.1656  149.3370 H   0  0  0  0  0  0  0  0  0  0  0  0
  147.0451  135.0851  151.8211 H   0  0  0  0  0  0  0  0  0  0  0  0
  145.9762  134.0408  152.7241 H   0  0  0  0  0  0  0  0  0  0  0  0
  146.9460  133.5497  149.8603 H   0  0  0  0  0  0  0  0  0  0  0  0
  147.4010  132.6614  151.2984 H   0  0  0  0  0  0  0  0  0  0  0  0
  144.6811  133.2925  149.0130 H   0  0  0  0  0  0  0  0  0  0  0  0
  143.5917  132.2206  149.8665 H   0  0  0  0  0  0  0  0  0  0  0  0
  143.4457  133.7341  151.7811 H   0  0  0  0  0  0  0  0  0  0  0  0
  143.0177  134.6188  150.3393 H   0  0  0  0  0  0  0  0  0  0  0  0
  1  2  1  0  0  0  0
  1 28  1  0  0  0  0
  1 29  1  0  0  0  0
  1 30  1  0  0  0  0
  2  3  1  0  0  0  0
  2 31  1  0  0  0  0
  2 32  1  0  0  0  0
  3 10  1  0  0  0  0
  3  4  1  0  0  0  0
  3 33  1  0  0  0  0
  4  5  1  0  0  0  0
  4 34  1  0  0  0  0
  4 35  1  0  0  0  0
  5  6  1  0  0  0  0
  6  7  1  0  0  0  0
  6  8  1  0  0  0  0
  6  9  1  0  0  0  0
  7 36  1  0  0  0  0
  7 37  1  0  0  0  0
  7 38  1  0  0  0  0
  8 39  1  0  0  0  0
  8 40  1  0  0  0  0
  8 41  1  0  0  0  0
  9 10  1  0  0  0  0
  9 42  1  0  0  0  0
  9 43  1  0  0  0  0
 10 11  1  0  0  0  0
 11 16  1  0  0  0  0
 11 12  2  0  0  0  0
 12 13  1  0  0  0  0
 13 14  2  0  0  0  0
 13 44  1  0  0  0  0
 14 15  1  0  0  0  0
 15 19  1  0  0  0  0
 15 16  2  0  0  0  0
 16 17  1  0  0  0  0
 17 18  2  0  0  0  0
 18 19  1  0  0  0  0
 18 45  1  0  0  0  0
 19 20  1  0  0  0  0
 20 21  1  0  0  0  0
 20 46  1  0  0  0  0
 20 47  1  0  0  0  0
 21 27  1  0  0  0  0
 21 22  1  0  0  0  0
 21 23  1  0  0  0  0
 22 48  1  0  0  0  0
 23 24  1  0  0  0  0
 23 49  1  0  0  0  0
 23 50  1  0  0  0  0
 24 25  1  0  0  0  0
 24 51  1  0  0  0  0
 24 52  1  0  0  0  0
 25 26  1  0  0  0  0
 26 27  1  0  0  0  0
 26 53  1  0  0  0  0
 26 54  1  0  0  0  0
 27 55  1  0  0  0  0
 27 56  1  0  0  0  0
M  END
> <s_m_source_file>
AV-unprocessed.smi

> <i_m_source_file_index>
230

> <i_lp_mmshare_version>
43012

> <i_f3d_flags>
0

> <s_epik_input>
W0NIM11DMShbQ0gzXSlPW0NIMl1bQ0BASF0oW0NIMl1bQ0gzXSlOKFtDSDJdMSljKG5bY0hdbjIpYyhjMjMpbltjSF1uM1tDSDJdQzQoW09IXSlbQ0gyXVtDSDJdT1tDSDJdW0NIMl00

> <s_epik_cmdline>
J2VwaWtfcHl0aG9uJywgJy1waCcsICc3LjAnLCAnLXRuJywgJzgnLCAnLW1hJywgJzIwMCcsICctbWV0YWxfYmluZGluZycsICctaW1hZScsICc8aW5maWxlLm1hZT4nLCAnLW9tYWUnLCAnPG91dGZpbGUubWFlPic=

> <r_lp_tautomer_probability>
1

> <r_epik_Ionization_Penalty>
0.000120535

> <r_epik_Ionization_Penalty_Charging>
0

> <r_epik_Ionization_Penalty_Neutral>
0.000120535

> <r_epik_State_Penalty>
-0

> <r_epik_Charging_Adjusted_Penalty>
0

> <i_epik_Tot_Q>
0

> <i_epik_Tot_abs_Q>
0

> <r_epik_Metal_State_Penalty>
-0

> <b_epik_Metal_Only>
0

> <s_lp_Force_Field>
OPLS_2005

> <r_lp_Energy>
34.4524

> <b_lp_Chiralities_Consistent>
1

> <s_lp_Variant>
AV-unprocessed.smi:230-2

> <Gold.Version>
5.8.1

> <Gold.Id.Protein>
6NUR|6NUR_protein|mol2

> <Gold.PLP.Fitness>
47.5912

> <Gold.PLP.PLP>
-40.4205

> <Gold.PLP.part.hbond>
-2.7671

> <Gold.PLP.part.metal>
0.0000

> <Gold.PLP.part.buried>
-4.2625

> <Gold.PLP.part.nonpolar>
-34.4618

> <Gold.PLP.part.repulsive>
0.5742

> <Gold.PLP.ligand.clash>
0.0000

> <Gold.PLP.ligand.torsion>
0.9905

> <Gold.PLP.Chemscore.Hbond>
1.9913

> <Gold.PLP.Chemscore.CHOScore>
0.9972

> <Gold.PLP.Chemscore.Metal>
0.0000

> <Gold.Chemscore.Hbonds>
donor molecule, donor type, donor heavy atom, donor atom, acceptor molecule, acceptor atom, score
      L1  H    22    48       P1  7921  0.93
      P1  H  7989  7998       L1     5  1.00
      L1  C    18    45       P1 10171  1.00

> <Gold.PLP.Chemscore.Internal.Correction>
0.1865

> <Gold.Rescore>
     Score         DG    S(hbond)    S(metal)    S(lipo)     H(rot)  DE(clash)    DE(int)     intcor
     14.16     -16.43       1.85        0.00      89.15       2.21       0.18       2.08       ----

> <Gold.Chemscore.Fitness>
14.1610

> <Gold.Chemscore.DG>
-16.4251

> <Gold.Chemscore.ZeroCoef>
-5.4800

> <Gold.Chemscore.Hbond>
1.8486

> <Gold.Chemscore.Metal>
0.0000

> <Gold.Chemscore.Lipo>
89.1474

> <Gold.Chemscore.Internal_Hbond>
0.0000

> <Gold.Chemscore.DEClash>
0.1795

> <Gold.Chemscore.DEInternal>
2.0846

> <Gold.Chemscore.Rot>
2.2107

> <Gold.Chemscore.Internal.Correction>
   9.000000E+99

> <Gold.Chemscore.Hbonds>
donor molecule, donor type, donor heavy atom, donor atom, acceptor molecule, acceptor atom, score
      L1  H    22    48       P1  7921  0.91
      P1  H  7989  7998       L1     5  0.62

> <Gold.Chemscore.Hbond.Weighted>
-6.1743

> <Gold.Chemscore.Metal.Weighted>
-0.0000

> <Gold.Chemscore.Lipo.Weighted>
-10.4302

> <Gold.Chemscore.Internal_Hbond.Weighted>
0.0000

> <Gold.Chemscore.DEClash.Weighted>
0.1795

> <Gold.Chemscore.DEInternal.Weighted>
2.0846

> <Gold.Chemscore.Rot.Weighted>
5.6595

> <Gold.Chemscore.Internal.Correction.Weighted>
   9.000000E+99

> <Gold.Protein.RotatedTorsions>
[ 6907 6896 6895 6894 ] final -176.48 input  -60.11 | X-H torsion
[ 7974 7965 7964 7962 ] final    4.62 input  175.53 | X-H torsion
[ 8008 7997 7996 7995 ] final   25.61 input   59.86 | X-H torsion
[ 10167 10162 10161 10158 ] final   54.56 input  -65.29 | X-H torsion
[ 10718 10713 10712 10709 ] final -167.94 input   66.30 | X-H torsion
[ 10763 10752 10751 10750 ] final   97.91 input  -60.55 | X-H torsion
[ 11005 11000 10999 10996 ] final  102.41 input  -57.11 | X-H torsion

> <Gold.Protein.ActiveResidues>
 VAL166  LYS551  ARG553  GLY616  TRP617  ASP618  TYR619  PRO620  LYS621  CYS622 
 ASP623  PHE694  ASN695  SER759  ASP760  ASP761  ALA762  ILE779  LEU786  VAL792 
 PHE793  MET794  SER795  GLU796  ALA797  LYS798  CYS799  TRP800  GLU811  SER814 

> <Gold.Protein.RotatedAtoms>
  151.6055  133.3352  159.3056 H   0  0  0  0  0  0  0  0  0  0  0  0  # atno 6907 bound_to 6896
  150.8185  134.7383  159.6762 H   0  0  0  0  0  0  0  0  0  0  0  0  # atno 6908 bound_to 6896
  152.4279  134.5838  160.0007 H   0  0  0  0  0  0  0  0  0  0  0  0  # atno 6909 bound_to 6896
  146.2443  140.0507  142.8375 H   0  0  0  0  0  0  0  0  0  0  0  0  # atno 7974 bound_to 7965
  155.0144  140.3140  155.4817 H   0  0  0  0  0  0  0  0  0  0  0  0  # atno 8008 bound_to 7997
  156.2903  140.2209  156.5201 H   0  0  0  0  0  0  0  0  0  0  0  0  # atno 8009 bound_to 7997
  154.7506  140.0466  157.0878 H   0  0  0  0  0  0  0  0  0  0  0  0  # atno 8010 bound_to 7997
  140.2288  144.3709  150.6422 H   0  0  0  0  0  0  0  0  0  0  0  0  # atno 10167 bound_to 10162
  156.6897  130.9154  151.3067 H   0  0  0  0  0  0  0  0  0  0  0  0  # atno 10718 bound_to 10713
  153.2826  135.4167  155.1092 H   0  0  0  0  0  0  0  0  0  0  0  0  # atno 10763 bound_to 10752
  154.8494  135.3499  154.6091 H   0  0  0  0  0  0  0  0  0  0  0  0  # atno 10764 bound_to 10752
  153.6512  135.7052  153.5266 H   0  0  0  0  0  0  0  0  0  0  0  0  # atno 10765 bound_to 10752
  139.8777  134.9223  156.5054 H   0  0  0  0  0  0  0  0  0  0  0  0  # atno 11005 bound_to 11000
  145.0987  140.9332  143.4725 LP  0  0  0  0  0  0  0  0  0  0  0  0  # atno 17320 bound_to 7965
  145.0695  139.3042  143.5839 LP  0  0  0  0  0  0  0  0  0  0  0  0  # atno 17321 bound_to 7965
  140.6200  143.2175  151.6713 LP  0  0  0  0  0  0  0  0  0  0  0  0  # atno 17342 bound_to 10162
  139.5117  144.3499  152.0662 LP  0  0  0  0  0  0  0  0  0  0  0  0  # atno 17343 bound_to 10162
  157.7013  130.9336  150.0795 LP  0  0  0  0  0  0  0  0  0  0  0  0  # atno 17370 bound_to 10713
  156.1807  130.3650  149.9040 LP  0  0  0  0  0  0  0  0  0  0  0  0  # atno 17371 bound_to 10713
  140.8559  133.8097  155.9215 LP  0  0  0  0  0  0  0  0  0  0  0  0  # atno 17394 bound_to 11000
  140.9098  134.2274  157.4992 LP  0  0  0  0  0  0  0  0  0  0  0  0  # atno 17395 bound_to 11000

$$$$
