AV-unprocessed.smi:2844|AV-procd|sdf|10940|dock4
  -GOLD-   2272015383D 1   1.00000     0.00000
 Structure written by MMmdl.
 38 40  0  0  0  0  0  0  0  0  1 V2000
  151.2239  144.3068  158.6054 C   0  0  0  0  0  0  0  0  0  0  0  0
  151.2800  143.0092  157.8186 C   0  0  0  0  0  0  0  0  0  0  0  0
  150.4786  142.8718  156.6629 C   0  0  0  0  0  0  0  0  0  0  0  0
  150.5028  141.6825  155.9022 C   0  0  0  0  0  0  0  0  0  0  0  0
  149.8140  141.3368  154.7520 N   0  0  0  0  0  0  0  0  0  0  0  0
  150.2647  140.1056  154.5299 C   0  0  0  0  0  0  0  0  0  0  0  0
  151.1645  139.6115  155.4021 N   0  0  0  0  0  0  0  0  0  0  0  0
  151.7942  138.3037  155.3684 C   0  0  0  0  0  0  0  0  0  0  0  0
  150.8656  137.2177  154.7925 C   0  0  1  0  0  0  0  0  0  0  0  0
  151.5957  136.3838  153.9109 O   0  0  0  0  0  0  0  0  0  0  0  0
  150.2197  136.3663  155.9026 C   0  0  0  0  0  0  0  0  0  0  0  0
  150.0780  134.9699  155.5295 N   0  0  0  0  0  0  0  0  0  0  0  0
  149.3678  134.4365  154.4711 C   0  0  0  0  0  0  0  0  0  0  0  0
  149.5506  133.0901  154.5542 C   0  0  0  0  0  0  0  0  0  0  0  0
  148.8992  131.8929  153.4971 Cl  0  0  0  0  0  0  0  0  0  0  0  0
  150.3829  132.8671  155.6804 C   0  0  0  0  0  0  0  0  0  0  0  0
  150.7015  134.0134  156.2643 N   0  0  0  0  0  0  0  0  0  0  0  0
  151.3561  140.6252  156.3339 C   0  0  0  0  0  0  0  0  0  0  0  0
  152.1567  140.7490  157.4832 C   0  0  0  0  0  0  0  0  0  0  0  0
  152.1221  141.9450  158.2305 C   0  0  0  0  0  0  0  0  0  0  0  0
  152.9924  142.0711  159.4684 C   0  0  0  0  0  0  0  0  0  0  0  0
  150.5540  145.0281  158.1366 H   0  0  0  0  0  0  0  0  0  0  0  0
  152.2131  144.7608  158.6661 H   0  0  0  0  0  0  0  0  0  0  0  0
  150.8631  144.1237  159.6177 H   0  0  0  0  0  0  0  0  0  0  0  0
  149.8366  143.6818  156.3493 H   0  0  0  0  0  0  0  0  0  0  0  0
  149.9192  139.5274  153.6853 H   0  0  0  0  0  0  0  0  0  0  0  0
  152.7133  138.3725  154.7846 H   0  0  0  0  0  0  0  0  0  0  0  0
  152.0902  138.0445  156.3855 H   0  0  0  0  0  0  0  0  0  0  0  0
  150.0770  137.6998  154.2130 H   0  0  0  0  0  0  0  0  0  0  0  0
  151.2363  136.4749  153.0419 H   0  0  0  0  0  0  0  0  0  0  0  0
  150.8118  136.4221  156.8172 H   0  0  0  0  0  0  0  0  0  0  0  0
  149.2306  136.7556  156.1482 H   0  0  0  0  0  0  0  0  0  0  0  0
  148.8099  135.0443  153.7744 H   0  0  0  0  0  0  0  0  0  0  0  0
  150.7584  131.9378  156.0828 H   0  0  0  0  0  0  0  0  0  0  0  0
  152.7921  139.9296  157.7857 H   0  0  0  0  0  0  0  0  0  0  0  0
  153.5646  141.1604  159.6473 H   0  0  0  0  0  0  0  0  0  0  0  0
  152.3794  142.2595  160.3500 H   0  0  0  0  0  0  0  0  0  0  0  0
  153.6993  142.8934  159.3552 H   0  0  0  0  0  0  0  0  0  0  0  0
  1  2  1  0  0  0  0
  1 22  1  0  0  0  0
  1 23  1  0  0  0  0
  1 24  1  0  0  0  0
  2 20  1  0  0  0  0
  2  3  2  0  0  0  0
  3  4  1  0  0  0  0
  3 25  1  0  0  0  0
  4 18  2  0  0  0  0
  4  5  1  0  0  0  0
  5  6  2  0  0  0  0
  6  7  1  0  0  0  0
  6 26  1  0  0  0  0
  7  8  1  0  0  0  0
  7 18  1  0  0  0  0
  8  9  1  0  0  0  0
  8 27  1  0  0  0  0
  8 28  1  0  0  0  0
  9 10  1  0  0  0  0
  9 11  1  0  0  0  0
  9 29  1  0  0  0  0
 10 30  1  0  0  0  0
 11 12  1  0  0  0  0
 11 31  1  0  0  0  0
 11 32  1  0  0  0  0
 12 17  1  0  0  0  0
 12 13  1  0  0  0  0
 13 14  2  0  0  0  0
 13 33  1  0  0  0  0
 14 15  1  0  0  0  0
 14 16  1  0  0  0  0
 16 17  2  0  0  0  0
 16 34  1  0  0  0  0
 18 19  1  0  0  0  0
 19 20  2  0  0  0  0
 19 35  1  0  0  0  0
 20 21  1  0  0  0  0
 21 36  1  0  0  0  0
 21 37  1  0  0  0  0
 21 38  1  0  0  0  0
M  END
> <s_m_source_file>
AV-unprocessed.smi

> <i_m_source_file_index>
2844

> <i_lp_mmshare_version>
43012

> <i_f3d_flags>
0

> <s_epik_input>
W0NIM11jKFtjSF0xKWMoW0NIM10pW2NIXWMoYzEyKW4oW2NIXW4yKVtDSDJdW0NASF0oW09IXSlbQ0gyXW4zW2NIXWMoQ2wpW2NIXW4z

> <s_epik_cmdline>
J2VwaWtfcHl0aG9uJywgJy1waCcsICc3LjAnLCAnLXRuJywgJzgnLCAnLW1hJywgJzIwMCcsICctbWV0YWxfYmluZGluZycsICctaW1hZScsICc8aW5maWxlLm1hZT4nLCAnLW9tYWUnLCAnPG91dGZpbGUubWFlPic=

> <r_lp_tautomer_probability>
1

> <r_epik_Ionization_Penalty>
0.1021

> <r_epik_Ionization_Penalty_Charging>
0

> <r_epik_Ionization_Penalty_Neutral>
0.1021

> <r_epik_State_Penalty>
0.0920694

> <r_epik_Charging_Adjusted_Penalty>
0.0920694

> <i_epik_Tot_Q>
0

> <i_epik_Tot_abs_Q>
0

> <r_epik_Metal_State_Penalty>
0.0784292

> <b_epik_Metal_Only>
0

> <s_lp_Force_Field>
OPLS_2005

> <r_lp_Energy>
10.226

> <b_lp_Chiralities_Consistent>
1

> <s_lp_Variant>
AV-unprocessed.smi:2844-2

> <Gold.Version>
5.8.1

> <Gold.Id.Protein>
6NUR|6NUR_protein|mol2

> <Gold.PLP.Fitness>
48.4724

> <Gold.PLP.PLP>
-39.8598

> <Gold.PLP.part.hbond>
-3.0209

> <Gold.PLP.part.metal>
0.0000

> <Gold.PLP.part.buried>
3.7825

> <Gold.PLP.part.nonpolar>
-39.2349

> <Gold.PLP.part.repulsive>
0.1451

> <Gold.PLP.ligand.clash>
0.0000

> <Gold.PLP.ligand.torsion>
1.4724

> <Gold.PLP.Chemscore.Hbond>
1.9920

> <Gold.PLP.Chemscore.CHOScore>
1.8495

> <Gold.PLP.Chemscore.Metal>
0.0000

> <Gold.Chemscore.Hbonds>
donor molecule, donor type, donor heavy atom, donor atom, acceptor molecule, acceptor atom, score
      L1  H    10    30       P1  7949  0.99
      P1  H 10752 10763       L1    10  1.00
      L1  C     6    26       P1  7957  0.85
      L1  C    13    33       P1  7948  1.00

> <Gold.PLP.Chemscore.Internal.Correction>
0.0328

> <Gold.Rescore>
     Score         DG    S(hbond)    S(metal)    S(lipo)     H(rot)  DE(clash)    DE(int)     intcor
     15.82     -17.16       1.58        0.00     101.94       2.15       0.12       1.22       ----

> <Gold.Chemscore.Fitness>
15.8171

> <Gold.Chemscore.DG>
-17.1580

> <Gold.Chemscore.ZeroCoef>
-5.4800

> <Gold.Chemscore.Hbond>
1.5760

> <Gold.Chemscore.Metal>
0.0000

> <Gold.Chemscore.Lipo>
101.9386

> <Gold.Chemscore.Internal_Hbond>
0.0000

> <Gold.Chemscore.DEClash>
0.1164

> <Gold.Chemscore.DEInternal>
1.2245

> <Gold.Chemscore.Rot>
2.1534

> <Gold.Chemscore.Internal.Correction>
   9.000000E+99

> <Gold.Chemscore.Hbonds>
donor molecule, donor type, donor heavy atom, donor atom, acceptor molecule, acceptor atom, score
      L1  H    10    30       P1  7949  0.56
      P1  H 10752 10763       L1    10  0.93

> <Gold.Chemscore.Hbond.Weighted>
-5.2639

> <Gold.Chemscore.Metal.Weighted>
-0.0000

> <Gold.Chemscore.Lipo.Weighted>
-11.9268

> <Gold.Chemscore.Internal_Hbond.Weighted>
0.0000

> <Gold.Chemscore.DEClash.Weighted>
0.1164

> <Gold.Chemscore.DEInternal.Weighted>
1.2245

> <Gold.Chemscore.Rot.Weighted>
5.5127

> <Gold.Chemscore.Internal.Correction.Weighted>
   9.000000E+99

> <Gold.Protein.RotatedTorsions>
[ 6907 6896 6895 6894 ] final   62.62 input  -60.11 | X-H torsion
[ 7974 7965 7964 7962 ] final  162.13 input  175.53 | X-H torsion
[ 8008 7997 7996 7995 ] final   -4.76 input   59.86 | X-H torsion
[ 10167 10162 10161 10158 ] final   52.25 input  -65.29 | X-H torsion
[ 10718 10713 10712 10709 ] final -176.39 input   66.30 | X-H torsion
[ 10763 10752 10751 10750 ] final   53.86 input  -60.55 | X-H torsion
[ 11005 11000 10999 10996 ] final  117.37 input  -57.11 | X-H torsion

> <Gold.Protein.ActiveResidues>
 VAL166  LYS551  ARG553  GLY616  TRP617  ASP618  TYR619  PRO620  LYS621  CYS622 
 ASP623  PHE694  ASN695  SER759  ASP760  ASP761  ALA762  ILE779  LEU786  VAL792 
 PHE793  MET794  SER795  GLU796  ALA797  LYS798  CYS799  TRP800  GLU811  SER814 

> <Gold.Protein.RotatedAtoms>
  152.4187  134.5995  159.9995 H   0  0  0  0  0  0  0  0  0  0  0  0  # atno 6907 bound_to 6896
  151.6151  133.3338  159.3084 H   0  0  0  0  0  0  0  0  0  0  0  0  # atno 6908 bound_to 6896
  150.8075  134.7248  159.6724 H   0  0  0  0  0  0  0  0  0  0  0  0  # atno 6909 bound_to 6896
  144.7651  139.7996  143.6318 H   0  0  0  0  0  0  0  0  0  0  0  0  # atno 7974 bound_to 7965
  154.6109  140.2475  155.7670 H   0  0  0  0  0  0  0  0  0  0  0  0  # atno 8008 bound_to 7997
  156.2370  140.2946  156.0289 H   0  0  0  0  0  0  0  0  0  0  0  0  # atno 8009 bound_to 7997
  155.2054  140.0395  157.2915 H   0  0  0  0  0  0  0  0  0  0  0  0  # atno 8010 bound_to 7997
  140.2533  144.3455  150.6341 H   0  0  0  0  0  0  0  0  0  0  0  0  # atno 10167 bound_to 10162
  156.8140  130.9596  151.3114 H   0  0  0  0  0  0  0  0  0  0  0  0  # atno 10718 bound_to 10713
  152.9799  135.5764  154.4810 H   0  0  0  0  0  0  0  0  0  0  0  0  # atno 10763 bound_to 10752
  154.4359  135.2774  155.1883 H   0  0  0  0  0  0  0  0  0  0  0  0  # atno 10764 bound_to 10752
  154.3571  135.6196  153.5725 H   0  0  0  0  0  0  0  0  0  0  0  0  # atno 10765 bound_to 10752
  139.9072  134.9609  156.7340 H   0  0  0  0  0  0  0  0  0  0  0  0  # atno 11005 bound_to 11000
  146.1752  139.4919  142.9902 LP  0  0  0  0  0  0  0  0  0  0  0  0  # atno 17320 bound_to 7965
  145.6495  141.0266  143.1768 LP  0  0  0  0  0  0  0  0  0  0  0  0  # atno 17321 bound_to 7965
  140.6023  143.2167  151.7048 LP  0  0  0  0  0  0  0  0  0  0  0  0  # atno 17342 bound_to 10162
  139.5039  144.3773  152.0411 LP  0  0  0  0  0  0  0  0  0  0  0  0  # atno 17343 bound_to 10162
  157.6491  130.8869  149.9597 LP  0  0  0  0  0  0  0  0  0  0  0  0  # atno 17370 bound_to 10713
  156.1027  130.3654  150.0188 LP  0  0  0  0  0  0  0  0  0  0  0  0  # atno 17371 bound_to 10713
  140.6902  133.9397  155.7962 LP  0  0  0  0  0  0  0  0  0  0  0  0  # atno 17394 bound_to 11000
  141.0447  134.0571  157.3859 LP  0  0  0  0  0  0  0  0  0  0  0  0  # atno 17395 bound_to 11000

$$$$
