AV-unprocessed.smi:2243|AV-procd|sdf|9067|dock5
  -GOLD-   2272012273D 1   1.00000     0.00000
 Structure written by MMmdl.
 34 35  0  0  0  0  0  0  0  0  1 V2000
  151.6375  140.6692  157.9476 C   0  0  0  0  0  0  0  0  0  0  0  0
  151.5421  142.1398  157.5067 C   0  0  1  0  0  0  0  0  0  0  0  0
  150.5040  142.2347  156.4790 N   0  0  0  0  0  0  0  0  0  0  0  0
  150.3379  141.4121  155.4311 C   0  0  0  0  0  0  0  0  0  0  0  0
  151.0909  140.4538  155.2315 O   0  0  0  0  0  0  0  0  0  0  0  0
  149.2472  141.8243  154.6794 N   0  0  0  0  0  0  0  0  0  0  0  0
  148.5300  140.9462  154.0492 C   0  0  0  0  0  0  0  0  0  0  0  0
  147.4166  141.1760  153.2566 N   0  0  0  0  0  0  0  0  0  0  0  0
  146.9715  139.9709  152.7880 C   0  0  0  0  0  0  0  0  0  0  0  0
  147.7699  139.0207  153.2654 C   0  0  0  0  0  0  0  0  0  0  0  0
  148.7357  139.5857  154.0423 O   0  0  0  0  0  0  0  0  0  0  0  0
  151.2388  143.1135  158.6767 C   0  0  0  0  0  0  0  0  0  0  0  0
  151.2570  144.5942  158.2389 C   0  0  0  0  0  0  0  0  0  0  0  0
  151.0272  145.5338  159.4335 C   0  0  0  0  0  0  0  0  0  0  0  0
  152.0057  145.2955  160.4374 O   0  0  0  0  0  0  0  0  0  0  0  0
  151.9398  143.9759  160.9631 C   0  0  0  0  0  0  0  0  0  0  0  0
  152.2236  142.9517  159.8524 C   0  0  0  0  0  0  0  0  0  0  0  0
  152.4877  140.4985  158.6072 H   0  0  0  0  0  0  0  0  0  0  0  0
  151.7691  140.0120  157.0874 H   0  0  0  0  0  0  0  0  0  0  0  0
  150.7356  140.3521  158.4721 H   0  0  0  0  0  0  0  0  0  0  0  0
  152.5097  142.4141  157.0834 H   0  0  0  0  0  0  0  0  0  0  0  0
  149.8482  142.9965  156.5759 H   0  0  0  0  0  0  0  0  0  0  0  0
  146.9768  142.0577  153.0360 H   0  0  0  0  0  0  0  0  0  0  0  0
  146.1058  139.9211  152.1442 H   0  0  0  0  0  0  0  0  0  0  0  0
  147.7837  137.9471  153.1505 H   0  0  0  0  0  0  0  0  0  0  0  0
  150.2370  142.8918  159.0485 H   0  0  0  0  0  0  0  0  0  0  0  0
  152.2147  144.8296  157.7729 H   0  0  0  0  0  0  0  0  0  0  0  0
  150.4910  144.7865  157.4874 H   0  0  0  0  0  0  0  0  0  0  0  0
  151.1021  146.5721  159.1104 H   0  0  0  0  0  0  0  0  0  0  0  0
  150.0259  145.4015  159.8462 H   0  0  0  0  0  0  0  0  0  0  0  0
  152.6784  143.8784  161.7587 H   0  0  0  0  0  0  0  0  0  0  0  0
  150.9620  143.8002  161.4144 H   0  0  0  0  0  0  0  0  0  0  0  0
  152.1601  141.9500  160.2764 H   0  0  0  0  0  0  0  0  0  0  0  0
  153.2474  143.0772  159.4975 H   0  0  0  0  0  0  0  0  0  0  0  0
  1  2  1  0  0  0  0
  1 18  1  0  0  0  0
  1 19  1  0  0  0  0
  1 20  1  0  0  0  0
  2  3  1  0  0  0  0
  2 12  1  0  0  0  0
  2 21  1  0  0  0  0
  3 22  1  0  0  0  0
  3  4  1  0  0  0  0
  4  6  1  0  0  0  0
  4  5  2  0  0  0  0
  6  7  2  0  0  0  0
  7 11  1  0  0  0  0
  7  8  1  0  0  0  0
  8 23  1  0  0  0  0
  8  9  1  0  0  0  0
  9 24  1  0  0  0  0
  9 10  2  0  0  0  0
 10 25  1  0  0  0  0
 10 11  1  0  0  0  0
 12 17  1  0  0  0  0
 12 13  1  0  0  0  0
 12 26  1  0  0  0  0
 13 14  1  0  0  0  0
 13 27  1  0  0  0  0
 13 28  1  0  0  0  0
 14 15  1  0  0  0  0
 14 29  1  0  0  0  0
 14 30  1  0  0  0  0
 15 16  1  0  0  0  0
 16 17  1  0  0  0  0
 16 31  1  0  0  0  0
 16 32  1  0  0  0  0
 17 33  1  0  0  0  0
 17 34  1  0  0  0  0
M  END
> <s_m_source_file>
AV-unprocessed.smi

> <i_m_source_file_index>
2243

> <i_lp_mmshare_version>
43012

> <i_f3d_flags>
0

> <s_epik_input>
W0NIMl0xW0NIMl1PW0NIMl1bQ0gyXVtDSF0xW0NASF0oW0NIM10pW05IXUMoPU8pW05IXWMybltjSF1bY0hdbzI=

> <s_epik_cmdline>
J2VwaWtfcHl0aG9uJywgJy1waCcsICc3LjAnLCAnLXRuJywgJzgnLCAnLW1hJywgJzIwMCcsICctbWV0YWxfYmluZGluZycsICctaW1hZScsICc8aW5maWxlLm1hZT4nLCAnLW9tYWUnLCAnPG91dGZpbGUubWFlPic=

> <r_lp_tautomer_probability>
0.107061

> <r_epik_Ionization_Penalty>
1.44639

> <r_epik_Ionization_Penalty_Charging>
1.44602

> <r_epik_Ionization_Penalty_Neutral>
0.000368208

> <r_epik_State_Penalty>
2.61815

> <r_epik_Charging_Adjusted_Penalty>
4.06418

> <i_epik_Tot_Q>
0

> <i_epik_Tot_abs_Q>
0

> <r_epik_Metal_State_Penalty>
3.54171

> <b_epik_Metal_Only>
0

> <s_lp_Force_Field>
OPLS_2005

> <r_lp_Energy>
34.6671

> <b_lp_Chiralities_Consistent>
1

> <s_lp_Variant>
AV-unprocessed.smi:2243-6

> <Gold.Version>
5.8.1

> <Gold.Id.Protein>
6NUR|6NUR_protein|mol2

> <Gold.PLP.Fitness>
41.4556

> <Gold.PLP.PLP>
-31.8509

> <Gold.PLP.part.hbond>
-2.0705

> <Gold.PLP.part.metal>
0.0000

> <Gold.PLP.part.buried>
-3.4868

> <Gold.PLP.part.nonpolar>
-27.2004

> <Gold.PLP.part.repulsive>
1.1682

> <Gold.PLP.ligand.clash>
0.0000

> <Gold.PLP.ligand.torsion>
0.3786

> <Gold.PLP.Chemscore.Hbond>
1.4493

> <Gold.PLP.Chemscore.CHOScore>
2.0000

> <Gold.PLP.Chemscore.Metal>
0.0000

> <Gold.Chemscore.Hbonds>
donor molecule, donor type, donor heavy atom, donor atom, acceptor molecule, acceptor atom, score
      L1  H     3    22       P1  8028  0.61
      P1  H  7989  7998       L1     5  0.94
      L1  C     9    24       P1 10175  1.00
      L1  C    10    25       P1  7948  1.00

> <Gold.PLP.Chemscore.Internal.Correction>
0.0140

> <Gold.Rescore>
     Score         DG    S(hbond)    S(metal)    S(lipo)     H(rot)  DE(clash)    DE(int)     intcor
     11.75     -14.89       0.94        0.00      82.42       1.32       0.12       3.02       ----

> <Gold.Chemscore.Fitness>
11.7452

> <Gold.Chemscore.DG>
-14.8880

> <Gold.Chemscore.ZeroCoef>
-5.4800

> <Gold.Chemscore.Hbond>
0.9414

> <Gold.Chemscore.Metal>
0.0000

> <Gold.Chemscore.Lipo>
82.4208

> <Gold.Chemscore.Internal_Hbond>
0.0000

> <Gold.Chemscore.DEClash>
0.1197

> <Gold.Chemscore.DEInternal>
3.0231

> <Gold.Chemscore.Rot>
1.3201

> <Gold.Chemscore.Internal.Correction>
   9.000000E+99

> <Gold.Chemscore.Hbonds>
donor molecule, donor type, donor heavy atom, donor atom, acceptor molecule, acceptor atom, score
      L1  H     3    22       P1  8028  0.60
      P1  H  7989  7998       L1     5  0.20

> <Gold.Chemscore.Hbond.Weighted>
-3.1441

> <Gold.Chemscore.Metal.Weighted>
-0.0000

> <Gold.Chemscore.Lipo.Weighted>
-9.6432

> <Gold.Chemscore.Internal_Hbond.Weighted>
0.0000

> <Gold.Chemscore.DEClash.Weighted>
0.1197

> <Gold.Chemscore.DEInternal.Weighted>
3.0231

> <Gold.Chemscore.Rot.Weighted>
3.3794

> <Gold.Chemscore.Internal.Correction.Weighted>
   9.000000E+99

> <Gold.Protein.RotatedTorsions>
[ 6907 6896 6895 6894 ] final  178.26 input  -60.11 | X-H torsion
[ 7974 7965 7964 7962 ] final    2.90 input  175.53 | X-H torsion
[ 8008 7997 7996 7995 ] final  -68.29 input   59.86 | X-H torsion
[ 10167 10162 10161 10158 ] final -123.08 input  -65.29 | X-H torsion
[ 10718 10713 10712 10709 ] final   54.85 input   66.30 | X-H torsion
[ 10763 10752 10751 10750 ] final  -30.05 input  -60.55 | X-H torsion
[ 11005 11000 10999 10996 ] final   -3.50 input  -57.11 | X-H torsion

> <Gold.Protein.ActiveResidues>
 VAL166  LYS551  ARG553  GLY616  TRP617  ASP618  TYR619  PRO620  LYS621  CYS622 
 ASP623  PHE694  ASN695  SER759  ASP760  ASP761  ALA762  ILE779  LEU786  VAL792 
 PHE793  MET794  SER795  GLU796  ALA797  LYS798  CYS799  TRP800  GLU811  SER814 

> <Gold.Protein.RotatedAtoms>
  151.6906  133.3311  159.3241 H   0  0  0  0  0  0  0  0  0  0  0  0  # atno 6907 bound_to 6896
  150.7780  134.6701  159.6396 H   0  0  0  0  0  0  0  0  0  0  0  0  # atno 6908 bound_to 6896
  152.3829  134.6565  160.0188 H   0  0  0  0  0  0  0  0  0  0  0  0  # atno 6909 bound_to 6896
  146.2444  140.0766  142.8359 H   0  0  0  0  0  0  0  0  0  0  0  0  # atno 7974 bound_to 7965
  154.4858  140.0876  156.7482 H   0  0  0  0  0  0  0  0  0  0  0  0  # atno 8008 bound_to 7997
  155.4355  140.3451  155.4266 H   0  0  0  0  0  0  0  0  0  0  0  0  # atno 8009 bound_to 7997
  156.1259  140.1487  156.9125 H   0  0  0  0  0  0  0  0  0  0  0  0  # atno 8010 bound_to 7997
  140.0074  143.5477  152.2278 H   0  0  0  0  0  0  0  0  0  0  0  0  # atno 10167 bound_to 10162
  157.5293  130.8619  149.8665 H   0  0  0  0  0  0  0  0  0  0  0  0  # atno 10718 bound_to 10713
  153.7746  135.6910  153.4900 H   0  0  0  0  0  0  0  0  0  0  0  0  # atno 10763 bound_to 10752
  153.1852  135.4491  155.0078 H   0  0  0  0  0  0  0  0  0  0  0  0  # atno 10764 bound_to 10752
  154.8105  135.3375  154.7253 H   0  0  0  0  0  0  0  0  0  0  0  0  # atno 10765 bound_to 10752
  140.6700  133.9245  155.8488 H   0  0  0  0  0  0  0  0  0  0  0  0  # atno 11005 bound_to 11000
  145.0769  140.9194  143.4848 LP  0  0  0  0  0  0  0  0  0  0  0  0  # atno 17320 bound_to 7965
  145.0911  139.2889  143.5734 LP  0  0  0  0  0  0  0  0  0  0  0  0  # atno 17321 bound_to 7965
  139.6229  144.7632  151.2701 LP  0  0  0  0  0  0  0  0  0  0  0  0  # atno 17342 bound_to 10162
  140.7395  143.6616  150.8159 LP  0  0  0  0  0  0  0  0  0  0  0  0  # atno 17343 bound_to 10162
  156.0410  130.3739  150.1435 LP  0  0  0  0  0  0  0  0  0  0  0  0  # atno 17370 bound_to 10713
  156.9620  130.9808  151.3477 LP  0  0  0  0  0  0  0  0  0  0  0  0  # atno 17371 bound_to 10713
  141.0399  134.0635  157.3914 LP  0  0  0  0  0  0  0  0  0  0  0  0  # atno 17394 bound_to 11000
  139.8985  135.0155  156.7150 LP  0  0  0  0  0  0  0  0  0  0  0  0  # atno 17395 bound_to 11000

$$$$
