AV-unprocessed.smi:511|AV-procd|sdf|2764|dock5
  -GOLD-   2262023233D 1   1.00000     0.00000
 Structure written by MMmdl.
 46 48  0  0  0  0  0  0  0  0  2 V2000
  148.9352  141.1857  156.7472 C   0  0  0  0  0  0  0  0  0  0  0  0
  150.0988  140.3938  156.9085 O   0  0  0  0  0  0  0  0  0  0  0  0
  150.6101  140.4440  158.2290 C   0  0  0  0  0  0  0  0  0  0  0  0
  151.9347  141.2163  158.2165 C   0  0  0  0  0  0  0  0  0  0  0  0
  152.2641  141.7330  159.5420 N   0  0  0  0  0  0  0  0  0  0  0  0
  151.8611  142.8913  160.1316 C   0  0  0  0  0  0  0  0  0  0  0  0
  150.9710  143.7671  159.5106 N   0  0  0  0  0  0  0  0  0  0  0  0
  149.8719  143.3626  158.6359 C   0  0  0  0  0  0  0  0  0  0  0  0
  148.5169  143.4346  159.3649 C   0  0  0  0  0  0  0  0  0  0  0  0
  148.2790  144.7894  159.9177 N   0  3  0  0  0  0  0  0  0  0  0  0
  146.9830  144.8993  160.6202 C   0  0  0  0  0  0  0  0  0  0  0  0
  149.4178  145.2543  160.7447 C   0  0  0  0  0  0  0  0  0  0  0  0
  150.7377  145.1351  159.9636 C   0  0  0  0  0  0  0  0  0  0  0  0
  152.4035  143.1269  161.3298 N   0  0  0  0  0  0  0  0  0  0  0  0
  153.1991  142.0102  161.5346 C   0  0  0  0  0  0  0  0  0  0  0  0
  153.1313  141.1651  160.4758 C   0  0  0  0  0  0  0  0  0  0  0  0
  153.8978  139.9142  160.4176 C   0  0  0  0  0  0  0  0  0  0  0  0
  153.8634  139.1427  159.4617 O   0  0  0  0  0  0  0  0  0  0  0  0
  154.6481  139.7002  161.5260 N   0  0  0  0  0  0  0  0  0  0  0  0
  154.7551  140.5046  162.6279 C   0  0  0  0  0  0  0  0  0  0  0  0
  155.4803  140.1649  163.5622 O   0  0  0  0  0  0  0  0  0  0  0  0
  154.0336  141.6729  162.6358 N   0  0  0  0  0  0  0  0  0  0  0  0
  154.0807  142.6047  163.7643 C   0  0  0  0  0  0  0  0  0  0  0  0
  155.1921  138.8497  161.5400 H   0  0  0  0  0  0  0  0  0  0  0  0
  148.5808  141.1113  155.7191 H   0  0  0  0  0  0  0  0  0  0  0  0
  149.1404  142.2362  156.9570 H   0  0  0  0  0  0  0  0  0  0  0  0
  148.1334  140.8469  157.4046 H   0  0  0  0  0  0  0  0  0  0  0  0
  149.8923  140.9320  158.8901 H   0  0  0  0  0  0  0  0  0  0  0  0
  150.7706  139.4324  158.6054 H   0  0  0  0  0  0  0  0  0  0  0  0
  152.7256  140.5642  157.8556 H   0  0  0  0  0  0  0  0  0  0  0  0
  151.8924  142.0447  157.5099 H   0  0  0  0  0  0  0  0  0  0  0  0
  149.8643  143.9956  157.7478 H   0  0  0  0  0  0  0  0  0  0  0  0
  150.0246  142.3394  158.2935 H   0  0  0  0  0  0  0  0  0  0  0  0
  147.7122  143.1726  158.6771 H   0  0  0  0  0  0  0  0  0  0  0  0
  148.4956  142.7036  160.1751 H   0  0  0  0  0  0  0  0  0  0  0  0
  146.9543  144.2487  161.4953 H   0  0  0  0  0  0  0  0  0  0  0  0
  146.1619  144.6202  159.9589 H   0  0  0  0  0  0  0  0  0  0  0  0
  146.8109  145.9244  160.9501 H   0  0  0  0  0  0  0  0  0  0  0  0
  149.2563  146.2909  161.0427 H   0  0  0  0  0  0  0  0  0  0  0  0
  149.4720  144.6628  161.6604 H   0  0  0  0  0  0  0  0  0  0  0  0
  151.5705  145.4577  160.5901 H   0  0  0  0  0  0  0  0  0  0  0  0
  150.7278  145.8007  159.0994 H   0  0  0  0  0  0  0  0  0  0  0  0
  154.8114  142.3392  164.5289 H   0  0  0  0  0  0  0  0  0  0  0  0
  153.1035  142.6539  164.2452 H   0  0  0  0  0  0  0  0  0  0  0  0
  154.3326  143.6059  163.4127 H   0  0  0  0  0  0  0  0  0  0  0  0
  148.2322  145.4138  159.1252 H   0  0  0  0  0  0  0  0  0  0  0  0
  1  2  1  0  0  0  0
  1 25  1  0  0  0  0
  1 26  1  0  0  0  0
  1 27  1  0  0  0  0
  2  3  1  0  0  0  0
  3  4  1  0  0  0  0
  3 28  1  0  0  0  0
  3 29  1  0  0  0  0
  4  5  1  0  0  0  0
  4 30  1  0  0  0  0
  4 31  1  0  0  0  0
  5 16  1  0  0  0  0
  5  6  1  0  0  0  0
  6  7  1  0  0  0  0
  6 14  2  0  0  0  0
  7 13  1  0  0  0  0
  7  8  1  0  0  0  0
  8  9  1  0  0  0  0
  8 32  1  0  0  0  0
  8 33  1  0  0  0  0
  9 10  1  0  0  0  0
  9 34  1  0  0  0  0
  9 35  1  0  0  0  0
 10 11  1  0  0  0  0
 10 12  1  0  0  0  0
 10 46  1  0  0  0  0
 11 36  1  0  0  0  0
 11 37  1  0  0  0  0
 11 38  1  0  0  0  0
 12 13  1  0  0  0  0
 12 39  1  0  0  0  0
 12 40  1  0  0  0  0
 13 41  1  0  0  0  0
 13 42  1  0  0  0  0
 14 15  1  0  0  0  0
 15 22  1  0  0  0  0
 15 16  2  0  0  0  0
 16 17  1  0  0  0  0
 17 18  2  0  0  0  0
 17 19  1  0  0  0  0
 19 24  1  0  0  0  0
 19 20  1  0  0  0  0
 20 21  2  0  0  0  0
 20 22  1  0  0  0  0
 22 23  1  0  0  0  0
 23 43  1  0  0  0  0
 23 44  1  0  0  0  0
 23 45  1  0  0  0  0
M  CHG  1  10   1
M  END
> <s_m_source_file>
AV-unprocessed.smi

> <i_m_source_file_index>
511

> <i_lp_mmshare_version>
43012

> <i_f3d_flags>
0

> <s_epik_input>
W0NIM11uMWMoPU8pW25IXWMoPU8pYyhjMTIpbihbQ0gyXVtDSDJdT1tDSDNdKWMobjIpTjNbQ0gyXVtDSDJdTihbQ0gzXSlbQ0gyXVtDSDJdMw==

> <s_epik_cmdline>
J2VwaWtfcHl0aG9uJywgJy1waCcsICc3LjAnLCAnLXRuJywgJzgnLCAnLW1hJywgJzIwMCcsICctbWV0YWxfYmluZGluZycsICctaW1hZScsICc8aW5maWxlLm1hZT4nLCAnLW9tYWUnLCAnPG91dGZpbGUubWFlPic=

> <r_epik_Ionization_Penalty>
0.064781

> <r_epik_Ionization_Penalty_Charging>
0.0647789

> <r_epik_Ionization_Penalty_Neutral>
2.1607e-06

> <r_epik_State_Penalty>
0.0564218

> <r_epik_Charging_Adjusted_Penalty>
0.121201

> <i_epik_Tot_Q>
1

> <i_epik_Tot_abs_Q>
1

> <r_epik_Metal_State_Penalty>
0.0833038

> <b_epik_Metal_Only>
0

> <s_lp_Force_Field>
OPLS_2005

> <r_lp_Energy>
49.4722

> <b_lp_Chiralities_Consistent>
1

> <s_lp_Variant>
AV-unprocessed.smi:511-1

> <Gold.Version>
5.8.1

> <Gold.Id.Protein>
6NUR|6NUR_protein|mol2

> <Gold.PLP.Fitness>
49.1315

> <Gold.PLP.PLP>
-41.6687

> <Gold.PLP.part.hbond>
-2.4496

> <Gold.PLP.part.metal>
0.0000

> <Gold.PLP.part.buried>
-2.3038

> <Gold.PLP.part.nonpolar>
-36.4030

> <Gold.PLP.part.repulsive>
0.2824

> <Gold.PLP.ligand.clash>
0.0000

> <Gold.PLP.ligand.torsion>
1.0481

> <Gold.PLP.Chemscore.Hbond>
3.0000

> <Gold.PLP.Chemscore.CHOScore>
0.0000

> <Gold.PLP.Chemscore.Metal>
0.0000

> <Gold.Chemscore.Hbonds>
donor molecule, donor type, donor heavy atom, donor atom, acceptor molecule, acceptor atom, score
      L1  H    10    46       P1  8029  2.00

> <Gold.PLP.Chemscore.Internal.Correction>
0.5589

> <Gold.Rescore>
     Score         DG    S(hbond)    S(metal)    S(lipo)     H(rot)  DE(clash)    DE(int)     intcor
     14.42     -15.95       1.99        0.00      65.74       1.51       0.16       1.37       ----

> <Gold.Chemscore.Fitness>
14.4169

> <Gold.Chemscore.DG>
-15.9495

> <Gold.Chemscore.ZeroCoef>
-5.4800

> <Gold.Chemscore.Hbond>
1.9879

> <Gold.Chemscore.Metal>
0.0000

> <Gold.Chemscore.Lipo>
65.7437

> <Gold.Chemscore.Internal_Hbond>
0.0000

> <Gold.Chemscore.DEClash>
0.1628

> <Gold.Chemscore.DEInternal>
1.3697

> <Gold.Chemscore.Rot>
1.5086

> <Gold.Chemscore.Internal.Correction>
   9.000000E+99

> <Gold.Chemscore.Hbonds>
donor molecule, donor type, donor heavy atom, donor atom, acceptor molecule, acceptor atom, score
      L1  H    10    46       P1  8029  0.98

> <Gold.Chemscore.Hbond.Weighted>
-6.6395

> <Gold.Chemscore.Metal.Weighted>
-0.0000

> <Gold.Chemscore.Lipo.Weighted>
-7.6920

> <Gold.Chemscore.Internal_Hbond.Weighted>
0.0000

> <Gold.Chemscore.DEClash.Weighted>
0.1628

> <Gold.Chemscore.DEInternal.Weighted>
1.3697

> <Gold.Chemscore.Rot.Weighted>
3.8620

> <Gold.Chemscore.Internal.Correction.Weighted>
   9.000000E+99

> <Gold.Protein.RotatedTorsions>
[ 6907 6896 6895 6894 ] final -155.40 input  -60.11 | X-H torsion
[ 7974 7965 7964 7962 ] final  -38.68 input  175.53 | X-H torsion
[ 8008 7997 7996 7995 ] final -111.48 input   59.86 | X-H torsion
[ 10167 10162 10161 10158 ] final   88.09 input  -65.29 | X-H torsion
[ 10718 10713 10712 10709 ] final    3.39 input   66.30 | X-H torsion
[ 10763 10752 10751 10750 ] final  -45.23 input  -60.55 | X-H torsion
[ 11005 11000 10999 10996 ] final    5.25 input  -57.11 | X-H torsion

> <Gold.Protein.ActiveResidues>
 VAL166  LYS551  ARG553  GLY616  TRP617  ASP618  TYR619  PRO620  LYS621  CYS622 
 ASP623  PHE694  ASN695  SER759  ASP760  ASP761  ALA762  ILE779  LEU786  VAL792 
 PHE793  MET794  SER795  GLU796  ALA797  LYS798  CYS799  TRP800  GLU811  SER814 

> <Gold.Protein.RotatedAtoms>
  151.2719  133.4251  159.2621 H   0  0  0  0  0  0  0  0  0  0  0  0  # atno 6907 bound_to 6896
  151.0437  134.9625  159.8185 H   0  0  0  0  0  0  0  0  0  0  0  0  # atno 6908 bound_to 6896
  152.5370  134.2676  159.9012 H   0  0  0  0  0  0  0  0  0  0  0  0  # atno 6909 bound_to 6896
  146.0465  140.6539  142.9062 H   0  0  0  0  0  0  0  0  0  0  0  0  # atno 7974 bound_to 7965
  154.9905  140.0395  157.2317 H   0  0  0  0  0  0  0  0  0  0  0  0  # atno 8008 bound_to 7997
  154.7633  140.2788  155.6174 H   0  0  0  0  0  0  0  0  0  0  0  0  # atno 8009 bound_to 7997
  156.2908  140.2624  156.2417 H   0  0  0  0  0  0  0  0  0  0  0  0  # atno 8010 bound_to 7997
  139.8708  144.6494  150.8952 H   0  0  0  0  0  0  0  0  0  0  0  0  # atno 10167 bound_to 10162
  156.8771  130.5640  149.5654 H   0  0  0  0  0  0  0  0  0  0  0  0  # atno 10718 bound_to 10713
  154.0252  135.6664  153.4776 H   0  0  0  0  0  0  0  0  0  0  0  0  # atno 10763 bound_to 10752
  153.0563  135.5054  154.7985 H   0  0  0  0  0  0  0  0  0  0  0  0  # atno 10764 bound_to 10752
  154.6913  135.3062  154.9440 H   0  0  0  0  0  0  0  0  0  0  0  0  # atno 10765 bound_to 10752
  140.5728  134.0086  155.8016 H   0  0  0  0  0  0  0  0  0  0  0  0  # atno 11005 bound_to 11000
  144.7100  140.4003  143.7088 LP  0  0  0  0  0  0  0  0  0  0  0  0  # atno 17320 bound_to 7965
  145.6797  139.1616  143.2708 LP  0  0  0  0  0  0  0  0  0  0  0  0  # atno 17321 bound_to 7965
  140.7761  143.3665  151.1728 LP  0  0  0  0  0  0  0  0  0  0  0  0  # atno 17342 bound_to 10162
  139.7286  143.9109  152.3011 LP  0  0  0  0  0  0  0  0  0  0  0  0  # atno 17343 bound_to 10162
  156.0696  130.5732  150.9357 LP  0  0  0  0  0  0  0  0  0  0  0  0  # atno 17370 bound_to 10713
  157.6162  131.0933  150.8706 LP  0  0  0  0  0  0  0  0  0  0  0  0  # atno 17371 bound_to 10713
  141.1045  133.9715  157.3021 LP  0  0  0  0  0  0  0  0  0  0  0  0  # atno 17394 bound_to 11000
  139.9353  135.0197  156.8537 LP  0  0  0  0  0  0  0  0  0  0  0  0  # atno 17395 bound_to 11000

$$$$
