AV-unprocessed.smi:2719|AV-procd|sdf|10497|dock1
  -GOLD-   2272014543D 1   1.00000     0.00000
 Structure written by MMmdl.
 20 20  0  0  0  0  0  0  0  0  2 V2000
  153.3724  141.2304  160.1917 C   0  0  0  0  0  0  0  0  0  0  0  0
  152.7353  142.2702  159.2867 C   0  0  0  0  0  0  0  0  0  0  0  0
  153.0052  143.6375  159.5049 C   0  0  0  0  0  0  0  0  0  0  0  0
  152.4126  144.5981  158.6656 C   0  0  0  0  0  0  0  0  0  0  0  0
  151.5665  144.1507  157.6348 C   0  0  0  0  0  0  0  0  0  0  0  0
  151.2950  142.8483  157.4153 N   0  0  0  0  0  0  0  0  0  0  0  0
  151.8695  141.9167  158.2165 C   0  0  0  0  0  0  0  0  0  0  0  0
  151.5156  140.4567  157.9086 C   0  0  1  0  0  0  0  0  0  0  0  0
  150.1457  140.1524  158.1056 O   0  0  0  0  0  0  0  0  0  0  0  0
  151.9111  140.1525  156.4548 C   0  0  0  0  0  0  0  0  0  0  0  0
  152.7981  139.2876  156.2788 O   0  0  0  0  0  0  0  0  0  0  0  0
  151.3236  140.7757  155.5419 O   0  5  0  0  0  0  0  0  0  0  0  0
  154.0495  141.6935  160.9097 H   0  0  0  0  0  0  0  0  0  0  0  0
  153.9491  140.5125  159.6091 H   0  0  0  0  0  0  0  0  0  0  0  0
  152.6087  140.6920  160.7528 H   0  0  0  0  0  0  0  0  0  0  0  0
  153.6590  143.9507  160.3058 H   0  0  0  0  0  0  0  0  0  0  0  0
  152.6020  145.6514  158.8081 H   0  0  0  0  0  0  0  0  0  0  0  0
  151.0926  144.8576  156.9699 H   0  0  0  0  0  0  0  0  0  0  0  0
  152.0706  139.7976  158.5760 H   0  0  0  0  0  0  0  0  0  0  0  0
  150.0493  139.7699  158.9634 H   0  0  0  0  0  0  0  0  0  0  0  0
  1  2  1  0  0  0  0
  1 13  1  0  0  0  0
  1 14  1  0  0  0  0
  1 15  1  0  0  0  0
  2  7  1  0  0  0  0
  2  3  2  0  0  0  0
  3  4  1  0  0  0  0
  3 16  1  0  0  0  0
  4  5  2  0  0  0  0
  4 17  1  0  0  0  0
  5  6  1  0  0  0  0
  5 18  1  0  0  0  0
  6  7  2  0  0  0  0
  7  8  1  0  0  0  0
  8  9  1  0  0  0  0
  8 10  1  0  0  0  0
  8 19  1  0  0  0  0
  9 20  1  0  0  0  0
 10 11  2  0  0  0  0
 10 12  1  0  0  0  0
M  CHG  1  12  -1
M  END
> <s_m_source_file>
AV-unprocessed.smi

> <i_m_source_file_index>
2719

> <i_lp_mmshare_version>
43012

> <i_f3d_flags>
0

> <s_epik_input>
W0NIM11jMVtjSF1bY0hdW2NIXW5jMVtDQEhdKFtPSF0pQyg9TylbT0hd

> <s_epik_cmdline>
J2VwaWtfcHl0aG9uJywgJy1waCcsICc3LjAnLCAnLXRuJywgJzgnLCAnLW1hJywgJzIwMCcsICctbWV0YWxfYmluZGluZycsICctaW1hZScsICc8aW5maWxlLm1hZT4nLCAnLW9tYWUnLCAnPG91dGZpbGUubWFlPic=

> <r_epik_Ionization_Penalty>
0.910943

> <r_epik_Ionization_Penalty_Charging>
0.000126384

> <r_epik_Ionization_Penalty_Neutral>
0.910816

> <r_epik_State_Penalty>
0.951599

> <r_epik_Charging_Adjusted_Penalty>
0.951725

> <i_epik_Tot_Q>
-1

> <i_epik_Tot_abs_Q>
1

> <r_epik_Metal_State_Penalty>
0.00235542

> <b_epik_Metal_Only>
0

> <s_lp_Force_Field>
OPLS_2005

> <r_lp_Energy>
12.5504

> <b_lp_Chiralities_Consistent>
1

> <s_lp_Variant>
AV-unprocessed.smi:2719-4

> <Gold.Version>
5.8.1

> <Gold.Id.Protein>
6NUR|6NUR_protein|mol2

> <Gold.PLP.Fitness>
40.2025

> <Gold.PLP.PLP>
-29.0777

> <Gold.PLP.part.hbond>
-2.0000

> <Gold.PLP.part.metal>
0.0000

> <Gold.PLP.part.buried>
-2.7957

> <Gold.PLP.part.nonpolar>
-24.2195

> <Gold.PLP.part.repulsive>
0.1267

> <Gold.PLP.ligand.clash>
0.0000

> <Gold.PLP.ligand.torsion>
0.0463

> <Gold.PLP.Chemscore.Hbond>
2.7296

> <Gold.PLP.Chemscore.CHOScore>
1.0000

> <Gold.PLP.Chemscore.Metal>
0.0000

> <Gold.Chemscore.Hbonds>
donor molecule, donor type, donor heavy atom, donor atom, acceptor molecule, acceptor atom, score
      P1  H  7989  7998       L1    12  0.69
      P1  H  7997  8009       L1    11  2.00
      L1  C     5    18       P1  8028  1.00

> <Gold.PLP.Chemscore.Internal.Correction>
0.0288

> <Gold.Rescore>
     Score         DG    S(hbond)    S(metal)    S(lipo)     H(rot)  DE(clash)    DE(int)     intcor
     14.70     -15.39       1.93        0.00      74.74       2.06       0.00       0.69       ----

> <Gold.Chemscore.Fitness>
14.7007

> <Gold.Chemscore.DG>
-15.3930

> <Gold.Chemscore.ZeroCoef>
-5.4800

> <Gold.Chemscore.Hbond>
1.9314

> <Gold.Chemscore.Metal>
0.0000

> <Gold.Chemscore.Lipo>
74.7359

> <Gold.Chemscore.Internal_Hbond>
0.0000

> <Gold.Chemscore.DEClash>
0.0000

> <Gold.Chemscore.DEInternal>
0.6924

> <Gold.Chemscore.Rot>
2.0633

> <Gold.Chemscore.Internal.Correction>
   9.000000E+99

> <Gold.Chemscore.Hbonds>
donor molecule, donor type, donor heavy atom, donor atom, acceptor molecule, acceptor atom, score
      P1  H  7989  7998       L1    12  0.66
      P1  H  7997  8009       L1    11  0.59

> <Gold.Chemscore.Hbond.Weighted>
-6.4510

> <Gold.Chemscore.Metal.Weighted>
-0.0000

> <Gold.Chemscore.Lipo.Weighted>
-8.7441

> <Gold.Chemscore.Internal_Hbond.Weighted>
0.0000

> <Gold.Chemscore.DEClash.Weighted>
0.0000

> <Gold.Chemscore.DEInternal.Weighted>
0.6924

> <Gold.Chemscore.Rot.Weighted>
5.2820

> <Gold.Chemscore.Internal.Correction.Weighted>
   9.000000E+99

> <Gold.Protein.RotatedTorsions>
[ 6907 6896 6895 6894 ] final  -29.19 input  -60.11 | X-H torsion
[ 7974 7965 7964 7962 ] final   -9.03 input  175.53 | X-H torsion
[ 8008 7997 7996 7995 ] final -148.45 input   59.86 | X-H torsion
[ 10167 10162 10161 10158 ] final   23.84 input  -65.29 | X-H torsion
[ 10718 10713 10712 10709 ] final  -98.13 input   66.30 | X-H torsion
[ 10763 10752 10751 10750 ] final  -56.74 input  -60.55 | X-H torsion
[ 11005 11000 10999 10996 ] final   47.12 input  -57.11 | X-H torsion

> <Gold.Protein.ActiveResidues>
 VAL166  LYS551  ARG553  GLY616  TRP617  ASP618  TYR619  PRO620  LYS621  CYS622 
 ASP623  PHE694  ASN695  SER759  ASP760  ASP761  ALA762  ILE779  LEU786  VAL792 
 PHE793  MET794  SER795  GLU796  ALA797  LYS798  CYS799  TRP800  GLU811  SER814 

> <Gold.Protein.RotatedAtoms>
  151.1225  135.0087  159.8545 H   0  0  0  0  0  0  0  0  0  0  0  0  # atno 6907 bound_to 6896
  152.5448  134.1705  159.8605 H   0  0  0  0  0  0  0  0  0  0  0  0  # atno 6908 bound_to 6896
  151.1765  133.4707  159.2627 H   0  0  0  0  0  0  0  0  0  0  0  0  # atno 6909 bound_to 6896
  146.2263  140.2556  142.8349 H   0  0  0  0  0  0  0  0  0  0  0  0  # atno 7974 bound_to 7965
  155.5918  140.0653  157.2756 H   0  0  0  0  0  0  0  0  0  0  0  0  # atno 8008 bound_to 7997
  154.4303  140.1834  156.1129 H   0  0  0  0  0  0  0  0  0  0  0  0  # atno 8009 bound_to 7997
  156.0227  140.3315  155.7059 H   0  0  0  0  0  0  0  0  0  0  0  0  # atno 8010 bound_to 7997
  140.5236  143.9960  150.6429 H   0  0  0  0  0  0  0  0  0  0  0  0  # atno 10167 bound_to 10162
  156.0100  130.5225  150.6478 H   0  0  0  0  0  0  0  0  0  0  0  0  # atno 10718 bound_to 10713
  154.2115  135.6393  153.5116 H   0  0  0  0  0  0  0  0  0  0  0  0  # atno 10763 bound_to 10752
  152.9989  135.5475  154.6210 H   0  0  0  0  0  0  0  0  0  0  0  0  # atno 10764 bound_to 10752
  154.5648  135.2912  155.0858 H   0  0  0  0  0  0  0  0  0  0  0  0  # atno 10765 bound_to 10752
  140.1308  134.4709  155.8523 H   0  0  0  0  0  0  0  0  0  0  0  0  # atno 11005 bound_to 11000
  144.9378  140.8046  143.5649 LP  0  0  0  0  0  0  0  0  0  0  0  0  # atno 17320 bound_to 7965
  145.2505  139.2034  143.4945 LP  0  0  0  0  0  0  0  0  0  0  0  0  # atno 17321 bound_to 7965
  140.3316  143.3074  152.0681 LP  0  0  0  0  0  0  0  0  0  0  0  0  # atno 17342 bound_to 10162
  139.4931  144.6505  151.6685 LP  0  0  0  0  0  0  0  0  0  0  0  0  # atno 17343 bound_to 10162
  157.4245  131.0841  151.1099 LP  0  0  0  0  0  0  0  0  0  0  0  0  # atno 17370 bound_to 10713
  157.1690  130.6259  149.5634 LP  0  0  0  0  0  0  0  0  0  0  0  0  # atno 17371 bound_to 10713
  141.2170  133.6795  156.7064 LP  0  0  0  0  0  0  0  0  0  0  0  0  # atno 17394 bound_to 11000
  140.2845  134.8290  157.3963 LP  0  0  0  0  0  0  0  0  0  0  0  0  # atno 17395 bound_to 11000

$$$$
