AV-unprocessed.smi:1254|AV-procd|sdf|5280|dock7
  -GOLD-   22720 4403D 1   1.00000     0.00000
 Structure written by MMmdl.
 44 45  0  0  0  0  0  0  0  0  2 V2000
  158.4820  136.5501  151.6885 C   0  0  0  0  0  0  0  0  0  0  0  0
  157.3987  136.9623  152.6250 C   0  0  0  0  0  0  0  0  0  0  0  0
  156.6905  138.1206  152.7758 C   0  0  0  0  0  0  0  0  0  0  0  0
  155.8113  137.8257  153.8535 C   0  0  0  0  0  0  0  0  0  0  0  0
  154.9124  138.6660  154.3889 N   0  5  0  0  0  0  0  0  0  0  0  0
  154.0139  138.2153  155.2950 C   0  0  0  0  0  0  0  0  0  0  0  0
  154.1269  137.2077  155.9967 O   0  0  0  0  0  0  0  0  0  0  0  0
  152.9166  138.9796  155.3903 N   0  0  0  0  0  0  0  0  0  0  0  0
  151.7849  138.7535  156.2837 C   0  0  0  0  0  0  0  0  0  0  0  0
  151.1853  140.0780  156.7847 C   0  0  1  0  0  0  0  0  0  0  0  0
  152.1363  140.8047  157.7559 C   0  0  0  0  0  0  0  0  0  0  0  0
  151.6002  142.0878  158.1992 N   0  0  0  0  0  0  0  0  0  0  0  0
  152.5227  142.7439  159.1275 C   0  0  0  0  0  0  0  0  0  0  0  0
  152.6923  142.0637  160.5030 C   0  0  0  0  0  0  0  0  0  0  0  0
  152.5555  143.0968  161.6311 C   0  0  0  0  0  0  0  0  0  0  0  0
  154.0357  141.3241  160.6111 C   0  0  0  0  0  0  0  0  0  0  0  0
  151.3009  142.9061  157.0260 C   0  0  0  0  0  0  0  0  0  0  0  0
  150.3671  142.1804  156.0429 C   0  0  0  0  0  0  0  0  0  0  0  0
  150.9456  140.9350  155.6710 O   0  0  0  0  0  0  0  0  0  0  0  0
  155.9838  136.6025  154.3265 N   0  0  0  0  0  0  0  0  0  0  0  0
  156.9957  136.0398  153.5395 O   0  0  0  0  0  0  0  0  0  0  0  0
  159.4416  136.5092  152.2037 H   0  0  0  0  0  0  0  0  0  0  0  0
  158.5709  137.2559  150.8624 H   0  0  0  0  0  0  0  0  0  0  0  0
  158.2787  135.5644  151.2699 H   0  0  0  0  0  0  0  0  0  0  0  0
  156.7822  139.0328  152.2052 H   0  0  0  0  0  0  0  0  0  0  0  0
  152.8714  139.7950  154.7971 H   0  0  0  0  0  0  0  0  0  0  0  0
  151.0327  138.2044  155.7170 H   0  0  0  0  0  0  0  0  0  0  0  0
  152.0636  138.1128  157.1220 H   0  0  0  0  0  0  0  0  0  0  0  0
  150.2399  139.8726  157.2908 H   0  0  0  0  0  0  0  0  0  0  0  0
  152.3206  140.1664  158.6208 H   0  0  0  0  0  0  0  0  0  0  0  0
  153.1018  140.9567  157.2703 H   0  0  0  0  0  0  0  0  0  0  0  0
  153.5088  142.8019  158.6640 H   0  0  0  0  0  0  0  0  0  0  0  0
  152.2057  143.7776  159.2741 H   0  0  0  0  0  0  0  0  0  0  0  0
  151.8933  141.3373  160.6478 H   0  0  0  0  0  0  0  0  0  0  0  0
  153.3317  143.8600  161.5667 H   0  0  0  0  0  0  0  0  0  0  0  0
  152.6343  142.6234  162.6101 H   0  0  0  0  0  0  0  0  0  0  0  0
  151.5895  143.6007  161.5877 H   0  0  0  0  0  0  0  0  0  0  0  0
  154.8758  142.0061  160.4762 H   0  0  0  0  0  0  0  0  0  0  0  0
  154.1191  140.5405  159.8575 H   0  0  0  0  0  0  0  0  0  0  0  0
  154.1454  140.8497  161.5867 H   0  0  0  0  0  0  0  0  0  0  0  0
  150.8284  143.8410  157.3240 H   0  0  0  0  0  0  0  0  0  0  0  0
  152.2268  143.1710  156.5132 H   0  0  0  0  0  0  0  0  0  0  0  0
  149.3857  142.0153  156.4901 H   0  0  0  0  0  0  0  0  0  0  0  0
  150.2146  142.7834  155.1478 H   0  0  0  0  0  0  0  0  0  0  0  0
  1  2  1  0  0  0  0
  1 22  1  0  0  0  0
  1 23  1  0  0  0  0
  1 24  1  0  0  0  0
  2 21  1  0  0  0  0
  2  3  2  0  0  0  0
  3  4  1  0  0  0  0
  3 25  1  0  0  0  0
  4  5  1  0  0  0  0
  4 20  2  0  0  0  0
  5  6  1  0  0  0  0
  6  7  2  0  0  0  0
  6  8  1  0  0  0  0
  8  9  1  0  0  0  0
  8 26  1  0  0  0  0
  9 10  1  0  0  0  0
  9 27  1  0  0  0  0
  9 28  1  0  0  0  0
 10 19  1  0  0  0  0
 10 11  1  0  0  0  0
 10 29  1  0  0  0  0
 11 12  1  0  0  0  0
 11 30  1  0  0  0  0
 11 31  1  0  0  0  0
 12 13  1  0  0  0  0
 12 17  1  0  0  0  0
 13 14  1  0  0  0  0
 13 32  1  0  0  0  0
 13 33  1  0  0  0  0
 14 15  1  0  0  0  0
 14 16  1  0  0  0  0
 14 34  1  0  0  0  0
 15 35  1  0  0  0  0
 15 36  1  0  0  0  0
 15 37  1  0  0  0  0
 16 38  1  0  0  0  0
 16 39  1  0  0  0  0
 16 40  1  0  0  0  0
 17 18  1  0  0  0  0
 17 41  1  0  0  0  0
 17 42  1  0  0  0  0
 18 19  1  0  0  0  0
 18 43  1  0  0  0  0
 18 44  1  0  0  0  0
 20 21  1  0  0  0  0
M  CHG  1   5  -1
M  END
> <s_m_source_file>
AV-unprocessed.smi

> <i_m_source_file_index>
1254

> <i_lp_mmshare_version>
43012

> <i_f3d_flags>
0

> <s_epik_input>
W0NIM11jMVtjSF1jKG5vMSlbTkhdQyg9TylbTkhdW0NIMl1bQ0BASF0yW0NIMl1OKFtDSDJdW0NIMl1PMilbQ0gyXVtDSF0oW0NIM10pW0NIM10=

> <s_epik_cmdline>
J2VwaWtfcHl0aG9uJywgJy1waCcsICc3LjAnLCAnLXRuJywgJzgnLCAnLW1hJywgJzIwMCcsICctbWV0YWxfYmluZGluZycsICctaW1hZScsICc8aW5maWxlLm1hZT4nLCAnLW9tYWUnLCAnPG91dGZpbGUubWFlPic=

> <r_epik_Ionization_Penalty>
7.56718

> <r_epik_Ionization_Penalty_Charging>
6.43435

> <r_epik_Ionization_Penalty_Neutral>
1.13283

> <r_epik_State_Penalty>
7.60314

> <r_epik_Charging_Adjusted_Penalty>
14.0375

> <i_epik_Tot_Q>
-1

> <i_epik_Tot_abs_Q>
1

> <r_epik_Metal_State_Penalty>
3.53636

> <b_epik_Metal_Only>
1

> <s_lp_Force_Field>
OPLS_2005

> <r_lp_Energy>
16.636

> <b_lp_Chiralities_Consistent>
1

> <s_lp_Variant>
AV-unprocessed.smi:1254-12

> <Gold.Version>
5.8.1

> <Gold.Id.Protein>
6NUR|6NUR_protein|mol2

> <Gold.PLP.Fitness>
42.1115

> <Gold.PLP.PLP>
-36.6467

> <Gold.PLP.part.hbond>
-3.9412

> <Gold.PLP.part.metal>
0.0000

> <Gold.PLP.part.buried>
1.2328

> <Gold.PLP.part.nonpolar>
-35.4873

> <Gold.PLP.part.repulsive>
1.3484

> <Gold.PLP.ligand.clash>
0.0000

> <Gold.PLP.ligand.torsion>
1.0587

> <Gold.PLP.Chemscore.Hbond>
2.4599

> <Gold.PLP.Chemscore.CHOScore>
0.0000

> <Gold.PLP.Chemscore.Metal>
0.0000

> <Gold.Chemscore.Hbonds>
donor molecule, donor type, donor heavy atom, donor atom, acceptor molecule, acceptor atom, score
      P1  H  7989  7998       L1    19  0.29
      P1  H  7997  8010       L1     5  0.89
      P1  H 10752 10763       L1    20  0.94
      P1  H 10752 10765       L1     7  0.30

> <Gold.PLP.Chemscore.Internal.Correction>
0.2025

> <Gold.Rescore>
     Score         DG    S(hbond)    S(metal)    S(lipo)     H(rot)  DE(clash)    DE(int)     intcor
     14.69     -19.54       1.31        0.00     118.94       1.65       2.06       2.79       ----

> <Gold.Chemscore.Fitness>
14.6944

> <Gold.Chemscore.DG>
-19.5449

> <Gold.Chemscore.ZeroCoef>
-5.4800

> <Gold.Chemscore.Hbond>
1.3113

> <Gold.Chemscore.Metal>
0.0000

> <Gold.Chemscore.Lipo>
118.9396

> <Gold.Chemscore.Internal_Hbond>
0.0000

> <Gold.Chemscore.DEClash>
2.0568

> <Gold.Chemscore.DEInternal>
2.7936

> <Gold.Chemscore.Rot>
1.6526

> <Gold.Chemscore.Internal.Correction>
   9.000000E+99

> <Gold.Chemscore.Hbonds>
donor molecule, donor type, donor heavy atom, donor atom, acceptor molecule, acceptor atom, score
      P1  H  7989  7998       L1    19  0.25
      P1  H  7997  8010       L1     5  0.06
      P1  H 10752 10763       L1    20  0.22
      P1  H 10752 10765       L1     7  0.29

> <Gold.Chemscore.Hbond.Weighted>
-4.3797

> <Gold.Chemscore.Metal.Weighted>
-0.0000

> <Gold.Chemscore.Lipo.Weighted>
-13.9159

> <Gold.Chemscore.Internal_Hbond.Weighted>
0.0000

> <Gold.Chemscore.DEClash.Weighted>
2.0568

> <Gold.Chemscore.DEInternal.Weighted>
2.7936

> <Gold.Chemscore.Rot.Weighted>
4.2308

> <Gold.Chemscore.Internal.Correction.Weighted>
   9.000000E+99

> <Gold.Protein.RotatedTorsions>
[ 6907 6896 6895 6894 ] final   -6.72 input  -60.11 | X-H torsion
[ 7974 7965 7964 7962 ] final  -25.81 input  175.53 | X-H torsion
[ 8008 7997 7996 7995 ] final  168.88 input   59.86 | X-H torsion
[ 10167 10162 10161 10158 ] final  173.69 input  -65.29 | X-H torsion
[ 10718 10713 10712 10709 ] final  -13.11 input   66.30 | X-H torsion
[ 10763 10752 10751 10750 ] final -117.85 input  -60.55 | X-H torsion
[ 11005 11000 10999 10996 ] final  139.47 input  -57.11 | X-H torsion

> <Gold.Protein.ActiveResidues>
 VAL166  LYS551  ARG553  GLY616  TRP617  ASP618  TYR619  PRO620  LYS621  CYS622 
 ASP623  PHE694  ASN695  SER759  ASP760  ASP761  ALA762  ILE779  LEU786  VAL792 
 PHE793  MET794  SER795  GLU796  ALA797  LYS798  CYS799  TRP800  GLU811  SER814 

> <Gold.Protein.RotatedAtoms>
  151.4610  135.1038  159.9724 H   0  0  0  0  0  0  0  0  0  0  0  0  # atno 6907 bound_to 6896
  152.4853  133.8352  159.7134 H   0  0  0  0  0  0  0  0  0  0  0  0  # atno 6908 bound_to 6896
  150.8957  133.7124  159.2919 H   0  0  0  0  0  0  0  0  0  0  0  0  # atno 6909 bound_to 6896
  146.1466  140.4937  142.8629 H   0  0  0  0  0  0  0  0  0  0  0  0  # atno 7974 bound_to 7965
  156.1508  140.1579  156.8773 H   0  0  0  0  0  0  0  0  0  0  0  0  # atno 8008 bound_to 7997
  154.5069  140.0811  156.7949 H   0  0  0  0  0  0  0  0  0  0  0  0  # atno 8009 bound_to 7997
  155.3900  140.3409  155.4253 H   0  0  0  0  0  0  0  0  0  0  0  0  # atno 8010 bound_to 7997
  139.5116  144.3232  152.0183 H   0  0  0  0  0  0  0  0  0  0  0  0  # atno 10167 bound_to 10162
  156.6350  130.4912  149.6115 H   0  0  0  0  0  0  0  0  0  0  0  0  # atno 10718 bound_to 10713
  154.8568  135.4295  154.2045 H   0  0  0  0  0  0  0  0  0  0  0  0  # atno 10763 bound_to 10752
  153.3084  135.6974  153.7144 H   0  0  0  0  0  0  0  0  0  0  0  0  # atno 10764 bound_to 10752
  153.6246  135.3496  155.2996 H   0  0  0  0  0  0  0  0  0  0  0  0  # atno 10765 bound_to 10752
  140.0257  134.9376  157.0563 H   0  0  0  0  0  0  0  0  0  0  0  0  # atno 11005 bound_to 11000
  144.7854  140.5926  143.6577 LP  0  0  0  0  0  0  0  0  0  0  0  0  # atno 17320 bound_to 7965
  145.4922  139.1488  143.3703 LP  0  0  0  0  0  0  0  0  0  0  0  0  # atno 17321 bound_to 7965
  140.2673  144.4002  150.6164 LP  0  0  0  0  0  0  0  0  0  0  0  0  # atno 17342 bound_to 10162
  140.6114  143.2170  151.6879 LP  0  0  0  0  0  0  0  0  0  0  0  0  # atno 17343 bound_to 10162
  156.2204  130.6734  151.1363 LP  0  0  0  0  0  0  0  0  0  0  0  0  # atno 17370 bound_to 10713
  157.7188  131.0694  150.6218 LP  0  0  0  0  0  0  0  0  0  0  0  0  # atno 17371 bound_to 10713
  140.4311  134.1780  155.7168 LP  0  0  0  0  0  0  0  0  0  0  0  0  # atno 17394 bound_to 11000
  141.1801  133.8432  157.1287 LP  0  0  0  0  0  0  0  0  0  0  0  0  # atno 17395 bound_to 11000

$$$$
