#       Name:                AV-unprocessed.smi:3121
#       Creating user name   scv26
#       Creation time:       Fri Mar 27 17:28:15 2020


#       File generated by GOLD software.
#

@<TRIPOS>MOLECULE
AV-unprocessed.smi:3121
    25    26     1
SMALL
NO_CHARGES


@<TRIPOS>ATOM
      1 ****        -3.6507  -0.3876   0.0031 C.ar           1 S1                 0.0000
      2 ****        -2.9648  -1.6169   0.0162 C.ar           1 S1                 0.0000
      3 ****        -1.5564  -1.6080   0.0183 C.ar           1 S1                 0.0000
      4 ****        -0.8889  -0.3639   0.0073 C.ar           1 S1                 0.0000
      5 ****         0.6321  -0.3019  -0.0001 C.3            1 S1                 0.0000
      6 ****         1.2669   0.3742  -1.2126 C.3            1 S1                 0.0000
      7 ****         2.6900   0.6889  -0.7296 C.3            1 S1                 0.0000
      8 ****         2.6497   0.7001   0.7501 N.4            1 S1                 1.0000
      9 ****         1.2609   0.4464   1.1745 C.3            1 S1                 0.0000
     10 ****        -1.5443   0.8199  -0.0062 N.ar           1 S1                 0.0000
     11 ****        -2.8949   0.8011  -0.0084 C.ar           1 S1                 0.0000
     12 ****        -4.7303  -0.3564   0.0003 H              1 S1                 0.0000
     13 ****        -3.5092  -2.5498   0.0232 H              1 S1                 0.0000
     14 ****        -1.0067  -2.5378   0.0263 H              1 S1                 0.0000
     15 ****         1.0049  -1.3276   0.0316 H              1 S1                 0.0000
     16 ****         1.2424  -0.2464  -2.1088 H              1 S1                 0.0000
     17 ****         0.7523   1.3090  -1.4392 H              1 S1                 0.0000
     18 ****         3.3861  -0.0862  -1.0515 H              1 S1                 0.0000
     19 ****         3.0466   1.6426  -1.1193 H              1 S1                 0.0000
     20 ****         3.2394  -0.0458   1.0911 H              1 S1                 0.0000
     21 ****         0.7742   1.4106   1.3279 H              1 S1                 0.0000
     22 ****         1.2137  -0.1102   2.1108 H              1 S1                 0.0000
     23 ****        -3.3882   1.7618  -0.0202 H              1 S1                 0.0000
     24 ****         2.9748   1.5841   1.1151 H              1 S1                 0.0000
     25 ****        -1.0425   1.6849  -0.0143 LP             1 S1                 0.0000
@<TRIPOS>BOND
    1    1   11 ar    
    2    1    2 ar    
    3    1   12 1     
    4    2    3 ar    
    5    2   13 1     
    6    3    4 ar    
    7    3   14 1     
    8    4    5 1     
    9    4   10 ar    
   10    5    9 1     
   11    5    6 1     
   12    5   15 1     
   13    6    7 1     
   14    6   16 1     
   15    6   17 1     
   16    7    8 1     
   17    7   18 1     
   18    7   19 1     
   19    8    9 1     
   20    8   20 1     
   21    8   24 1     
   22    9   21 1     
   23    9   22 1     
   24   10   11 ar    
   25   11   23 1     
   26   10   25 1     
@<TRIPOS>SUBSTRUCTURE
      1 S1             1
@<TRIPOS>SET
LONE_PAIRS      STATIC     ATOMS    <user>   **** ""
1 25
DONOR_HYDROGENS      STATIC     ATOMS    <user>   **** ""
2 20 24
ATOM$BLUE        STATIC     ATOMS    COLORGROUP SYSTEM
1 25
ATOM$RED        STATIC     ATOMS    COLORGROUP SYSTEM
2 20 24
