AV-unprocessed.smi:2774|AV-procd|sdf|10680|dock4
  -GOLD-   2272015123D 1   1.00000     0.00000
 Structure written by MMmdl.
 35 36  0  0  0  0  0  0  0  0  2 V2000
  149.4773  141.4309  154.0611 O   0  0  0  0  0  0  0  0  0  0  0  0
  149.9500  140.9130  155.2892 C   0  0  2  0  0  0  0  0  0  0  0  0
  150.9111  141.9366  155.9187 C   0  0  0  0  0  0  0  0  0  0  0  0
  150.2418  142.7309  156.9717 N   0  3  0  0  0  0  0  0  0  0  0  0
  151.1478  143.3766  157.9472 C   0  0  2  0  0  0  0  0  0  0  0  0
  151.8478  142.2917  158.7890 C   0  0  0  0  0  0  0  0  0  0  0  0
  152.8783  142.8703  159.7730 C   0  0  0  0  0  0  0  0  0  0  0  0
  152.2433  143.8264  160.7915 C   0  0  0  0  0  0  0  0  0  0  0  0
  151.4944  145.2554  159.9658 S   0  0  0  0  0  0  0  0  0  0  0  0
  150.3788  144.3687  158.8442 C   0  0  0  0  0  0  0  0  0  0  0  0
  150.6266  139.5644  155.1022 C   0  0  0  0  0  0  0  0  0  0  0  0
  151.9919  139.3855  155.4140 C   0  0  0  0  0  0  0  0  0  0  0  0
  152.5645  138.1114  155.2280 C   0  0  0  0  0  0  0  0  0  0  0  0
  151.8723  137.0485  154.7660 N   0  0  0  0  0  0  0  0  0  0  0  0
  150.5671  137.2249  154.4690 C   0  0  0  0  0  0  0  0  0  0  0  0
  149.8989  138.4568  154.6190 C   0  0  0  0  0  0  0  0  0  0  0  0
  149.6927  140.8172  153.3745 H   0  0  0  0  0  0  0  0  0  0  0  0
  149.0860  140.7806  155.9424 H   0  0  0  0  0  0  0  0  0  0  0  0
  151.7578  141.4142  156.3660 H   0  0  0  0  0  0  0  0  0  0  0  0
  151.3142  142.5939  155.1482 H   0  0  0  0  0  0  0  0  0  0  0  0
  149.6694  143.4403  156.5359 H   0  0  0  0  0  0  0  0  0  0  0  0
  151.9143  143.9168  157.3890 H   0  0  0  0  0  0  0  0  0  0  0  0
  151.1060  141.7109  159.3394 H   0  0  0  0  0  0  0  0  0  0  0  0
  152.3541  141.5883  158.1265 H   0  0  0  0  0  0  0  0  0  0  0  0
  153.3657  142.0527  160.3049 H   0  0  0  0  0  0  0  0  0  0  0  0
  153.6654  143.3878  159.2233 H   0  0  0  0  0  0  0  0  0  0  0  0
  151.4793  143.3109  161.3744 H   0  0  0  0  0  0  0  0  0  0  0  0
  152.9957  144.1835  161.4952 H   0  0  0  0  0  0  0  0  0  0  0  0
  149.8538  145.1153  158.2494 H   0  0  0  0  0  0  0  0  0  0  0  0
  149.6251  143.8469  159.4353 H   0  0  0  0  0  0  0  0  0  0  0  0
  152.5904  140.2029  155.7888 H   0  0  0  0  0  0  0  0  0  0  0  0
  153.6061  137.9418  155.4576 H   0  0  0  0  0  0  0  0  0  0  0  0
  150.0383  136.3578  154.1018 H   0  0  0  0  0  0  0  0  0  0  0  0
  148.8521  138.5421  154.3665 H   0  0  0  0  0  0  0  0  0  0  0  0
  149.6371  142.1025  157.4810 H   0  0  0  0  0  0  0  0  0  0  0  0
  1  2  1  0  0  0  0
  1 17  1  0  0  0  0
  2  3  1  0  0  0  0
  2 11  1  0  0  0  0
  2 18  1  0  0  0  0
  3  4  1  0  0  0  0
  3 19  1  0  0  0  0
  3 20  1  0  0  0  0
  4  5  1  0  0  0  0
  4 21  1  0  0  0  0
  4 35  1  0  0  0  0
  5 10  1  0  0  0  0
  5  6  1  0  0  0  0
  5 22  1  0  0  0  0
  6  7  1  0  0  0  0
  6 23  1  0  0  0  0
  6 24  1  0  0  0  0
  7  8  1  0  0  0  0
  7 25  1  0  0  0  0
  7 26  1  0  0  0  0
  8  9  1  0  0  0  0
  8 27  1  0  0  0  0
  8 28  1  0  0  0  0
  9 10  1  0  0  0  0
 10 29  1  0  0  0  0
 10 30  1  0  0  0  0
 11 16  1  0  0  0  0
 11 12  2  0  0  0  0
 12 13  1  0  0  0  0
 12 31  1  0  0  0  0
 13 14  2  0  0  0  0
 13 32  1  0  0  0  0
 14 15  1  0  0  0  0
 15 16  2  0  0  0  0
 15 33  1  0  0  0  0
 16 34  1  0  0  0  0
M  CHG  1   4   1
M  END
> <s_m_source_file>
AV-unprocessed.smi

> <i_m_source_file_index>
2774

> <i_lp_mmshare_version>
43012

> <i_f3d_flags>
0

> <s_epik_input>
W2NIXTFbY0hdbltjSF1bY0hdYzFbQ0BIXShbT0hdKVtDSDJdW05IXVtDQEBIXTJbQ0gyXVtDSDJdW0NIMl1TW0NIMl0y

> <s_epik_cmdline>
J2VwaWtfcHl0aG9uJywgJy1waCcsICc3LjAnLCAnLXRuJywgJzgnLCAnLW1hJywgJzIwMCcsICctbWV0YWxfYmluZGluZycsICctaW1hZScsICc8aW5maWxlLm1hZT4nLCAnLW9tYWUnLCAnPG91dGZpbGUubWFlPic=

> <r_epik_Ionization_Penalty>
0.0205977

> <r_epik_Ionization_Penalty_Charging>
0.0185619

> <r_epik_Ionization_Penalty_Neutral>
0.00203589

> <r_epik_State_Penalty>
0.0147768

> <r_epik_Charging_Adjusted_Penalty>
0.0333386

> <i_epik_Tot_Q>
1

> <i_epik_Tot_abs_Q>
1

> <r_epik_Metal_State_Penalty>
0.0152254

> <b_epik_Metal_Only>
0

> <s_lp_Force_Field>
OPLS_2005

> <r_lp_Energy>
9.96587

> <b_lp_Chiralities_Consistent>
1

> <s_lp_Variant>
AV-unprocessed.smi:2774-1

> <Gold.Version>
5.8.1

> <Gold.Id.Protein>
6NUR|6NUR_protein|mol2

> <Gold.PLP.Fitness>
50.3913

> <Gold.PLP.PLP>
-39.3647

> <Gold.PLP.part.hbond>
-4.4184

> <Gold.PLP.part.metal>
0.0000

> <Gold.PLP.part.buried>
-1.5466

> <Gold.PLP.part.nonpolar>
-32.3860

> <Gold.PLP.part.repulsive>
0.1477

> <Gold.PLP.ligand.clash>
0.0000

> <Gold.PLP.ligand.torsion>
0.7498

> <Gold.PLP.Chemscore.Hbond>
3.2600

> <Gold.PLP.Chemscore.CHOScore>
0.9115

> <Gold.PLP.Chemscore.Metal>
0.0000

> <Gold.Chemscore.Hbonds>
donor molecule, donor type, donor heavy atom, donor atom, acceptor molecule, acceptor atom, score
      L1  H     1    17       P1  7957  0.23
      L1  H     4    21       P1  8028  2.00
      P1  H 10752 10765       L1    14  1.00
      L1  C    15    33       P1  7948  0.87

> <Gold.PLP.Chemscore.Internal.Correction>
0.0118

> <Gold.Rescore>
     Score         DG    S(hbond)    S(metal)    S(lipo)     H(rot)  DE(clash)    DE(int)     intcor
     20.77     -21.46       2.23        0.00     116.04       1.97       0.04       0.64       ----

> <Gold.Chemscore.Fitness>
20.7662

> <Gold.Chemscore.DG>
-21.4552

> <Gold.Chemscore.ZeroCoef>
-5.4800

> <Gold.Chemscore.Hbond>
2.2272

> <Gold.Chemscore.Metal>
0.0000

> <Gold.Chemscore.Lipo>
116.0351

> <Gold.Chemscore.Internal_Hbond>
0.0000

> <Gold.Chemscore.DEClash>
0.0440

> <Gold.Chemscore.DEInternal>
0.6450

> <Gold.Chemscore.Rot>
1.9686

> <Gold.Chemscore.Internal.Correction>
   9.000000E+99

> <Gold.Chemscore.Hbonds>
donor molecule, donor type, donor heavy atom, donor atom, acceptor molecule, acceptor atom, score
      L1  H     1    17       P1  7957  0.22
      L1  H     4    21       P1  8028  1.00
      P1  H 10752 10765       L1    14  0.75

> <Gold.Chemscore.Hbond.Weighted>
-7.4387

> <Gold.Chemscore.Metal.Weighted>
-0.0000

> <Gold.Chemscore.Lipo.Weighted>
-13.5761

> <Gold.Chemscore.Internal_Hbond.Weighted>
0.0000

> <Gold.Chemscore.DEClash.Weighted>
0.0440

> <Gold.Chemscore.DEInternal.Weighted>
0.6450

> <Gold.Chemscore.Rot.Weighted>
5.0396

> <Gold.Chemscore.Internal.Correction.Weighted>
   9.000000E+99

> <Gold.Protein.RotatedTorsions>
[ 6907 6896 6895 6894 ] final   52.27 input  -60.11 | X-H torsion
[ 7974 7965 7964 7962 ] final  -49.66 input  175.53 | X-H torsion
[ 8008 7997 7996 7995 ] final -156.62 input   59.86 | X-H torsion
[ 10167 10162 10161 10158 ] final  134.51 input  -65.29 | X-H torsion
[ 10718 10713 10712 10709 ] final  -51.15 input   66.30 | X-H torsion
[ 10763 10752 10751 10750 ] final  177.87 input  -60.55 | X-H torsion
[ 11005 11000 10999 10996 ] final -112.49 input  -57.11 | X-H torsion

> <Gold.Protein.ActiveResidues>
 VAL166  LYS551  ARG553  GLY616  TRP617  ASP618  TYR619  PRO620  LYS621  CYS622 
 ASP623  PHE694  ASN695  SER759  ASP760  ASP761  ALA762  ILE779  LEU786  VAL792 
 PHE793  MET794  SER795  GLU796  ALA797  LYS798  CYS799  TRP800  GLU811  SER814 

> <Gold.Protein.RotatedAtoms>
  152.3216  134.7373  160.0312 H   0  0  0  0  0  0  0  0  0  0  0  0  # atno 6907 bound_to 6896
  151.7820  133.3345  159.3482 H   0  0  0  0  0  0  0  0  0  0  0  0  # atno 6908 bound_to 6896
  150.7373  134.5853  159.6004 H   0  0  0  0  0  0  0  0  0  0  0  0  # atno 6909 bound_to 6896
  145.9382  140.7686  142.9565 H   0  0  0  0  0  0  0  0  0  0  0  0  # atno 7974 bound_to 7965
  155.7200  140.0789  157.2335 H   0  0  0  0  0  0  0  0  0  0  0  0  # atno 8008 bound_to 7997
  154.4046  140.1614  156.2445 H   0  0  0  0  0  0  0  0  0  0  0  0  # atno 8009 bound_to 7997
  155.9205  140.3398  155.6172 H   0  0  0  0  0  0  0  0  0  0  0  0  # atno 8010 bound_to 7997
  139.5253  144.6564  151.5150 H   0  0  0  0  0  0  0  0  0  0  0  0  # atno 10167 bound_to 10162
  156.1736  130.4149  149.9610 H   0  0  0  0  0  0  0  0  0  0  0  0  # atno 10718 bound_to 10713
  154.5002  135.2783  155.1427 H   0  0  0  0  0  0  0  0  0  0  0  0  # atno 10763 bound_to 10752
  154.3063  135.6238  153.5450 H   0  0  0  0  0  0  0  0  0  0  0  0  # atno 10764 bound_to 10752
  152.9901  135.5709  154.5443 H   0  0  0  0  0  0  0  0  0  0  0  0  # atno 10765 bound_to 10752
  141.0672  133.9440  157.2556 H   0  0  0  0  0  0  0  0  0  0  0  0  # atno 11005 bound_to 11000
  144.6775  140.2238  143.7363 LP  0  0  0  0  0  0  0  0  0  0  0  0  # atno 17320 bound_to 7965
  145.8335  139.2097  143.1869 LP  0  0  0  0  0  0  0  0  0  0  0  0  # atno 17321 bound_to 7965
  140.6391  143.8925  150.6675 LP  0  0  0  0  0  0  0  0  0  0  0  0  # atno 17342 bound_to 10162
  140.2253  143.3777  152.1609 LP  0  0  0  0  0  0  0  0  0  0  0  0  # atno 17343 bound_to 10162
  156.7403  130.9077  151.3631 LP  0  0  0  0  0  0  0  0  0  0  0  0  # atno 17370 bound_to 10713
  157.6820  130.9149  150.0291 LP  0  0  0  0  0  0  0  0  0  0  0  0  # atno 17371 bound_to 10713
  139.9488  135.0179  156.8931 LP  0  0  0  0  0  0  0  0  0  0  0  0  # atno 17394 bound_to 11000
  140.5749  134.0407  155.7443 LP  0  0  0  0  0  0  0  0  0  0  0  0  # atno 17395 bound_to 11000

$$$$
