AV-unprocessed.smi:315|AV-procd|sdf|2319|dock2
  -GOLD-   2262022223D 1   1.00000     0.00000
 Structure written by MMmdl.
 47 49  0  0  0  0  0  0  0  0  2 V2000
  152.8439  139.1277  154.6929 C   0  0  0  0  0  0  0  0  0  0  0  0
  151.7208  138.3711  155.4060 C   0  0  0  0  0  0  0  0  0  0  0  0
  150.5986  138.2953  154.5333 O   0  0  0  0  0  0  0  0  0  0  0  0
  149.7639  139.3921  154.4278 C   0  0  0  0  0  0  0  0  0  0  0  0
  150.2596  140.6172  154.7319 N   0  0  0  0  0  0  0  0  0  0  0  0
  149.4415  141.6848  154.6244 C   0  0  0  0  0  0  0  0  0  0  0  0
  148.0973  141.5891  154.2183 C   0  0  0  0  0  0  0  0  0  0  0  0
  147.5807  140.3187  153.9031 C   0  0  0  0  0  0  0  0  0  0  0  0
  148.4321  139.1926  153.9980 C   0  0  0  0  0  0  0  0  0  0  0  0
  148.0119  137.8653  153.7241 N   0  0  0  0  0  0  0  0  0  0  0  0
  146.8120  137.3028  153.9596 C   0  0  0  0  0  0  0  0  0  0  0  0
  145.9004  137.8346  154.5886 O   0  0  0  0  0  0  0  0  0  0  0  0
  146.6634  136.0831  153.4104 N   0  0  0  0  0  0  0  0  0  0  0  0
  145.4970  135.1953  153.4678 C   0  0  1  0  0  0  0  0  0  0  0  0
  144.2047  135.8796  152.9832 C   0  0  0  0  0  0  0  0  0  0  0  0
  143.4702  134.7981  152.1853 C   0  0  0  0  0  0  0  0  0  0  0  0
  144.5688  134.0355  151.5821 N   0  3  2  0  0  0  0  0  0  0  0  0
  144.2585  132.7520  150.9208 C   0  0  0  0  0  0  0  0  0  0  0  0
  145.5323  132.2529  150.2063 C   0  0  0  0  0  0  0  0  0  0  0  0
  146.7533  132.2068  151.1522 C   0  0  0  0  0  0  0  0  0  0  0  0
  146.9446  133.5371  151.9125 C   0  0  0  0  0  0  0  0  0  0  0  0
  145.6217  133.9132  152.6056 C   0  0  1  0  0  0  0  0  0  0  0  0
  153.7311  139.1917  155.3232 H   0  0  0  0  0  0  0  0  0  0  0  0
  152.5358  140.1437  154.4474 H   0  0  0  0  0  0  0  0  0  0  0  0
  153.1267  138.6280  153.7660 H   0  0  0  0  0  0  0  0  0  0  0  0
  152.0638  137.3698  155.6712 H   0  0  0  0  0  0  0  0  0  0  0  0
  151.4550  138.8937  156.3263 H   0  0  0  0  0  0  0  0  0  0  0  0
  149.8701  142.6439  154.8748 H   0  0  0  0  0  0  0  0  0  0  0  0
  147.4754  142.4696  154.1544 H   0  0  0  0  0  0  0  0  0  0  0  0
  146.5460  140.2291  153.6100 H   0  0  0  0  0  0  0  0  0  0  0  0
  148.6428  137.3286  153.1471 H   0  0  0  0  0  0  0  0  0  0  0  0
  147.4414  135.7475  152.8607 H   0  0  0  0  0  0  0  0  0  0  0  0
  145.3284  134.8958  154.5039 H   0  0  0  0  0  0  0  0  0  0  0  0
  143.6034  136.2730  153.8036 H   0  0  0  0  0  0  0  0  0  0  0  0
  144.4423  136.7137  152.3210 H   0  0  0  0  0  0  0  0  0  0  0  0
  142.8939  134.1531  152.8505 H   0  0  0  0  0  0  0  0  0  0  0  0
  142.7983  135.2121  151.4330 H   0  0  0  0  0  0  0  0  0  0  0  0
  143.9111  132.0233  151.6547 H   0  0  0  0  0  0  0  0  0  0  0  0
  143.4541  132.8947  150.1983 H   0  0  0  0  0  0  0  0  0  0  0  0
  145.3569  131.2674  149.7739 H   0  0  0  0  0  0  0  0  0  0  0  0
  145.7563  132.9178  149.3710 H   0  0  0  0  0  0  0  0  0  0  0  0
  146.6153  131.3989  151.8714 H   0  0  0  0  0  0  0  0  0  0  0  0
  147.6551  131.9636  150.5893 H   0  0  0  0  0  0  0  0  0  0  0  0
  147.7463  133.4219  152.6414 H   0  0  0  0  0  0  0  0  0  0  0  0
  147.2505  134.3241  151.2218 H   0  0  0  0  0  0  0  0  0  0  0  0
  145.3464  133.0827  153.2598 H   0  0  0  0  0  0  0  0  0  0  0  0
  144.9483  134.6386  150.8663 H   0  0  0  0  0  0  0  0  0  0  0  0
  1  2  1  0  0  0  0
  1 23  1  0  0  0  0
  1 24  1  0  0  0  0
  1 25  1  0  0  0  0
  2  3  1  0  0  0  0
  2 26  1  0  0  0  0
  2 27  1  0  0  0  0
  3  4  1  0  0  0  0
  4  9  1  0  0  0  0
  4  5  2  0  0  0  0
  5  6  1  0  0  0  0
  6  7  2  0  0  0  0
  6 28  1  0  0  0  0
  7  8  1  0  0  0  0
  7 29  1  0  0  0  0
  8  9  2  0  0  0  0
  8 30  1  0  0  0  0
  9 10  1  0  0  0  0
 10 11  1  0  0  0  0
 10 31  1  0  0  0  0
 11 12  2  0  0  0  0
 11 13  1  0  0  0  0
 13 14  1  0  0  0  0
 13 32  1  0  0  0  0
 14 22  1  0  0  0  0
 14 15  1  0  0  0  0
 14 33  1  0  0  0  0
 15 16  1  0  0  0  0
 15 34  1  0  0  0  0
 15 35  1  0  0  0  0
 16 17  1  0  0  0  0
 16 36  1  0  0  0  0
 16 37  1  0  0  0  0
 17 22  1  0  0  0  0
 17 18  1  0  0  0  0
 17 47  1  0  0  0  0
 18 19  1  0  0  0  0
 18 38  1  0  0  0  0
 18 39  1  0  0  0  0
 19 20  1  0  0  0  0
 19 40  1  0  0  0  0
 19 41  1  0  0  0  0
 20 21  1  0  0  0  0
 20 42  1  0  0  0  0
 20 43  1  0  0  0  0
 21 22  1  0  0  0  0
 21 44  1  0  0  0  0
 21 45  1  0  0  0  0
 22 46  1  0  0  0  0
M  CHG  1  17   1
M  END
> <s_m_source_file>
AV-unprocessed.smi

> <i_m_source_file_index>
315

> <i_lp_mmshare_version>
43012

> <i_f3d_flags>
0

> <s_epik_input>
W0NIM11bQ0gyXU9jMW5bY0hdW2NIXVtjSF1jMVtOSF1DKD1PKVtOSF1bQ0BIXShbQ0gyXVtDSDJdMilbQ0BASF0oTjIzKVtDSDJdW0NIMl1bQ0gyXVtDSDJdMw==

> <s_epik_cmdline>
J2VwaWtfcHl0aG9uJywgJy1waCcsICc3LjAnLCAnLXRuJywgJzgnLCAnLW1hJywgJzIwMCcsICctbWV0YWxfYmluZGluZycsICctaW1hZScsICc8aW5maWxlLm1hZT4nLCAnLW9tYWUnLCAnPG91dGZpbGUubWFlPic=

> <r_lp_tautomer_probability>
1

> <r_epik_Ionization_Penalty>
0.00106455

> <r_epik_Ionization_Penalty_Charging>
0.000974069

> <r_epik_Ionization_Penalty_Neutral>
9.04821e-05

> <r_epik_State_Penalty>
0.000633842

> <r_epik_Charging_Adjusted_Penalty>
0.00160791

> <i_epik_Tot_Q>
1

> <i_epik_Tot_abs_Q>
1

> <r_epik_Metal_State_Penalty>
-0

> <b_epik_Metal_Only>
0

> <s_lp_Force_Field>
OPLS_2005

> <r_lp_Energy>
53.3224

> <b_lp_Chiralities_Consistent>
1

> <s_lp_Variant>
AV-unprocessed.smi:315-4

> <Gold.Version>
5.8.1

> <Gold.Id.Protein>
6NUR|6NUR_protein|mol2

> <Gold.PLP.Fitness>
46.3560

> <Gold.PLP.PLP>
-36.0466

> <Gold.PLP.part.hbond>
-3.0000

> <Gold.PLP.part.metal>
0.0000

> <Gold.PLP.part.buried>
-0.8895

> <Gold.PLP.part.nonpolar>
-30.6158

> <Gold.PLP.part.repulsive>
0.3900

> <Gold.PLP.ligand.clash>
0.0000

> <Gold.PLP.ligand.torsion>
0.7203

> <Gold.PLP.Chemscore.Hbond>
2.9200

> <Gold.PLP.Chemscore.CHOScore>
0.9926

> <Gold.PLP.Chemscore.Metal>
0.0000

> <Gold.Chemscore.Hbonds>
donor molecule, donor type, donor heavy atom, donor atom, acceptor molecule, acceptor atom, score
      L1  H    10    31       P1  7948  1.00
      L1  H    13    32       P1  7948  0.93
      P1  H  7989  7998       L1     5  0.90
      L1  C     6    28       P1  8028  1.00

> <Gold.PLP.Chemscore.Internal.Correction>
0.0122

> <Gold.Rescore>
     Score         DG    S(hbond)    S(metal)    S(lipo)     H(rot)  DE(clash)    DE(int)     intcor
     17.42     -19.44       2.14        0.00      88.34       1.38       0.52       1.49       ----

> <Gold.Chemscore.Fitness>
17.4225

> <Gold.Chemscore.DG>
-19.4370

> <Gold.Chemscore.ZeroCoef>
-5.4800

> <Gold.Chemscore.Hbond>
2.1397

> <Gold.Chemscore.Metal>
0.0000

> <Gold.Chemscore.Lipo>
88.3382

> <Gold.Chemscore.Internal_Hbond>
0.0000

> <Gold.Chemscore.DEClash>
0.5204

> <Gold.Chemscore.DEInternal>
1.4941

> <Gold.Chemscore.Rot>
1.3770

> <Gold.Chemscore.Internal.Correction>
   9.000000E+99

> <Gold.Chemscore.Hbonds>
donor molecule, donor type, donor heavy atom, donor atom, acceptor molecule, acceptor atom, score
      L1  H    10    31       P1  7948  0.97
      L1  H    13    32       P1  7948  0.91
      P1  H  7989  7998       L1     5  0.24

> <Gold.Chemscore.Hbond.Weighted>
-7.1466

> <Gold.Chemscore.Metal.Weighted>
-0.0000

> <Gold.Chemscore.Lipo.Weighted>
-10.3356

> <Gold.Chemscore.Internal_Hbond.Weighted>
0.0000

> <Gold.Chemscore.DEClash.Weighted>
0.5204

> <Gold.Chemscore.DEInternal.Weighted>
1.4941

> <Gold.Chemscore.Rot.Weighted>
3.5252

> <Gold.Chemscore.Internal.Correction.Weighted>
   9.000000E+99

> <Gold.Protein.RotatedTorsions>
[ 6907 6896 6895 6894 ] final   75.39 input  -60.11 | X-H torsion
[ 7974 7965 7964 7962 ] final   51.39 input  175.53 | X-H torsion
[ 8008 7997 7996 7995 ] final  145.57 input   59.86 | X-H torsion
[ 10167 10162 10161 10158 ] final  -29.94 input  -65.29 | X-H torsion
[ 10718 10713 10712 10709 ] final  111.85 input   66.30 | X-H torsion
[ 10763 10752 10751 10750 ] final  -35.54 input  -60.55 | X-H torsion
[ 11005 11000 10999 10996 ] final  163.00 input  -57.11 | X-H torsion

> <Gold.Protein.ActiveResidues>
 VAL166  LYS551  ARG553  GLY616  TRP617  ASP618  TYR619  PRO620  LYS621  CYS622 
 ASP623  PHE694  ASN695  SER759  ASP760  ASP761  ALA762  ILE779  LEU786  VAL792 
 PHE793  MET794  SER795  GLU796  ALA797  LYS798  CYS799  TRP800  GLU811  SER814 

> <Gold.Protein.RotatedAtoms>
  152.5023  134.4128  159.9454 H   0  0  0  0  0  0  0  0  0  0  0  0  # atno 6907 bound_to 6896
  151.4097  133.3725  159.2750 H   0  0  0  0  0  0  0  0  0  0  0  0  # atno 6908 bound_to 6896
  150.9301  134.8738  159.7605 H   0  0  0  0  0  0  0  0  0  0  0  0  # atno 6909 bound_to 6896
  145.9918  139.4347  143.0069 H   0  0  0  0  0  0  0  0  0  0  0  0  # atno 7974 bound_to 7965
  156.2879  140.2205  156.5237 H   0  0  0  0  0  0  0  0  0  0  0  0  # atno 8008 bound_to 7997
  154.7507  140.0480  157.0912 H   0  0  0  0  0  0  0  0  0  0  0  0  # atno 8009 bound_to 7997
  155.0114  140.3113  155.4831 H   0  0  0  0  0  0  0  0  0  0  0  0  # atno 8010 bound_to 7997
  140.7255  143.3888  151.1467 H   0  0  0  0  0  0  0  0  0  0  0  0  # atno 10167 bound_to 10162
  157.6423  131.0958  150.6810 H   0  0  0  0  0  0  0  0  0  0  0  0  # atno 10718 bound_to 10713
  153.8649  135.6836  153.4779 H   0  0  0  0  0  0  0  0  0  0  0  0  # atno 10763 bound_to 10752
  153.1320  135.4694  154.9362 H   0  0  0  0  0  0  0  0  0  0  0  0  # atno 10764 bound_to 10752
  154.7741  135.3248  154.8078 H   0  0  0  0  0  0  0  0  0  0  0  0  # atno 10765 bound_to 10752
  140.2313  134.8121  157.3320 H   0  0  0  0  0  0  0  0  0  0  0  0  # atno 11005 bound_to 11000
  145.7618  140.9932  143.1196 LP  0  0  0  0  0  0  0  0  0  0  0  0  # atno 17320 bound_to 7965
  144.6891  139.9340  143.7473 LP  0  0  0  0  0  0  0  0  0  0  0  0  # atno 17321 bound_to 7965
  139.7490  143.8808  152.3071 LP  0  0  0  0  0  0  0  0  0  0  0  0  # atno 17342 bound_to 10162
  139.8655  144.7095  150.9049 LP  0  0  0  0  0  0  0  0  0  0  0  0  # atno 17343 bound_to 10162
  156.7132  130.4658  149.5542 LP  0  0  0  0  0  0  0  0  0  0  0  0  # atno 17370 bound_to 10713
  156.1716  130.6440  151.0844 LP  0  0  0  0  0  0  0  0  0  0  0  0  # atno 17371 bound_to 10713
  140.1747  134.4564  155.7809 LP  0  0  0  0  0  0  0  0  0  0  0  0  # atno 17394 bound_to 11000
  141.2217  133.6957  156.7767 LP  0  0  0  0  0  0  0  0  0  0  0  0  # atno 17395 bound_to 11000

$$$$
