AV-unprocessed.smi:3222|AV-procd|sdf|12305|dock5
  -GOLD-   2272018153D 1   1.00000     0.00000
 Structure written by MMmdl.
 41 42  0  0  0  0  0  0  0  0  2 V2000
  150.0525  139.9701  154.7000 C   0  0  0  0  0  0  0  0  0  0  0  0
  149.1739  141.2212  154.5156 C   0  0  2  0  0  0  0  0  0  0  0  0
  149.6753  142.2888  155.4106 N   0  3  0  0  0  0  0  0  0  0  0  0
  149.7998  141.9030  156.8308 C   0  0  0  0  0  0  0  0  0  0  0  0
  151.2758  141.7663  157.2350 C   0  0  0  0  0  0  0  0  0  0  0  0
  151.6666  142.7895  158.2008 N   0  0  0  0  0  0  0  0  0  0  0  0
  151.4167  144.1964  157.9362 C   0  0  0  0  0  0  0  0  0  0  0  0
  152.1134  144.9485  159.0795 C   0  0  0  0  0  0  0  0  0  0  0  0
  152.4550  143.8879  160.1318 C   0  0  0  0  0  0  0  0  0  0  0  0
  152.2162  142.5771  159.4022 C   0  0  0  0  0  0  0  0  0  0  0  0
  152.5015  141.4818  159.8837 O   0  0  0  0  0  0  0  0  0  0  0  0
  147.6674  140.9501  154.7793 C   0  0  1  0  0  0  0  0  0  0  0  0
  146.8180  142.2352  154.8055 C   0  0  0  0  0  0  0  0  0  0  0  0
  147.1055  140.0041  153.8233 N   0  0  0  0  0  0  0  0  0  0  0  0
  147.0836  140.0918  152.4464 C   0  0  0  0  0  0  0  0  0  0  0  0
  146.4574  138.9735  151.9758 C   0  0  0  0  0  0  0  0  0  0  0  0
  146.1290  138.2478  153.1546 C   0  0  0  0  0  0  0  0  0  0  0  0
  146.5182  138.8658  154.2578 N   0  0  0  0  0  0  0  0  0  0  0  0
  149.7956  139.1840  153.9899 H   0  0  0  0  0  0  0  0  0  0  0  0
  149.9503  139.5579  155.7044 H   0  0  0  0  0  0  0  0  0  0  0  0
  151.1055  140.2065  154.5436 H   0  0  0  0  0  0  0  0  0  0  0  0
  149.2939  141.5419  153.4790 H   0  0  0  0  0  0  0  0  0  0  0  0
  150.5765  142.5944  155.0723 H   0  0  0  0  0  0  0  0  0  0  0  0
  149.3055  142.6583  157.4430 H   0  0  0  0  0  0  0  0  0  0  0  0
  149.2797  140.9598  157.0017 H   0  0  0  0  0  0  0  0  0  0  0  0
  151.4539  140.7791  157.6640 H   0  0  0  0  0  0  0  0  0  0  0  0
  151.9176  141.8400  156.3555 H   0  0  0  0  0  0  0  0  0  0  0  0
  151.8067  144.4926  156.9615 H   0  0  0  0  0  0  0  0  0  0  0  0
  150.3415  144.3804  157.9460 H   0  0  0  0  0  0  0  0  0  0  0  0
  153.0281  145.4195  158.7172 H   0  0  0  0  0  0  0  0  0  0  0  0
  151.4794  145.7363  159.4878 H   0  0  0  0  0  0  0  0  0  0  0  0
  153.4859  143.9683  160.4780 H   0  0  0  0  0  0  0  0  0  0  0  0
  151.7893  143.9515  160.9930 H   0  0  0  0  0  0  0  0  0  0  0  0
  147.5805  140.4832  155.7618 H   0  0  0  0  0  0  0  0  0  0  0  0
  147.1151  142.8958  155.6198 H   0  0  0  0  0  0  0  0  0  0  0  0
  145.7628  142.0022  154.9520 H   0  0  0  0  0  0  0  0  0  0  0  0
  146.9074  142.7940  153.8733 H   0  0  0  0  0  0  0  0  0  0  0  0
  147.5101  140.9333  151.9203 H   0  0  0  0  0  0  0  0  0  0  0  0
  146.2645  138.7125  150.9457 H   0  0  0  0  0  0  0  0  0  0  0  0
  145.6234  137.2973  153.2406 H   0  0  0  0  0  0  0  0  0  0  0  0
  149.0336  143.0670  155.3594 H   0  0  0  0  0  0  0  0  0  0  0  0
  1  2  1  0  0  0  0
  1 19  1  0  0  0  0
  1 20  1  0  0  0  0
  1 21  1  0  0  0  0
  2  3  1  0  0  0  0
  2 12  1  0  0  0  0
  2 22  1  0  0  0  0
  3  4  1  0  0  0  0
  3 23  1  0  0  0  0
  3 41  1  0  0  0  0
  4  5  1  0  0  0  0
  4 24  1  0  0  0  0
  4 25  1  0  0  0  0
  5  6  1  0  0  0  0
  5 26  1  0  0  0  0
  5 27  1  0  0  0  0
  6 10  1  0  0  0  0
  6  7  1  0  0  0  0
  7  8  1  0  0  0  0
  7 28  1  0  0  0  0
  7 29  1  0  0  0  0
  8  9  1  0  0  0  0
  8 30  1  0  0  0  0
  8 31  1  0  0  0  0
  9 10  1  0  0  0  0
  9 32  1  0  0  0  0
  9 33  1  0  0  0  0
 10 11  2  0  0  0  0
 12 13  1  0  0  0  0
 12 14  1  0  0  0  0
 12 34  1  0  0  0  0
 13 35  1  0  0  0  0
 13 36  1  0  0  0  0
 13 37  1  0  0  0  0
 14 18  1  0  0  0  0
 14 15  1  0  0  0  0
 15 16  2  0  0  0  0
 15 38  1  0  0  0  0
 16 17  1  0  0  0  0
 16 39  1  0  0  0  0
 17 18  2  0  0  0  0
 17 40  1  0  0  0  0
M  CHG  1   3   1
M  END
> <s_m_source_file>
AV-unprocessed.smi

> <i_m_source_file_index>
3222

> <i_lp_mmshare_version>
43012

> <i_f3d_flags>
0

> <s_epik_input>
bjFbY0hdW2NIXVtjSF1uMVtDQEBIXShbQ0gzXSlbQ0BIXShbQ0gzXSlbTkhdW0NIMl1bQ0gyXU4yW0NIMl1bQ0gyXVtDSDJdQzI9Tw==

> <s_epik_cmdline>
J2VwaWtfcHl0aG9uJywgJy1waCcsICc3LjAnLCAnLXRuJywgJzgnLCAnLW1hJywgJzIwMCcsICctbWV0YWxfYmluZGluZycsICctaW1hZScsICc8aW5maWxlLm1hZT4nLCAnLW9tYWUnLCAnPG91dGZpbGUubWFlPic=

> <r_lp_tautomer_probability>
1

> <r_epik_Ionization_Penalty>
0.0064019

> <r_epik_Ionization_Penalty_Charging>
0.00639164

> <r_epik_Ionization_Penalty_Neutral>
1.02567e-05

> <r_epik_State_Penalty>
0.00472531

> <r_epik_Charging_Adjusted_Penalty>
0.011117

> <i_epik_Tot_Q>
1

> <i_epik_Tot_abs_Q>
1

> <r_epik_Metal_State_Penalty>
-0

> <b_epik_Metal_Only>
0

> <s_lp_Force_Field>
OPLS_2005

> <r_lp_Energy>
25.0095

> <b_lp_Chiralities_Consistent>
1

> <s_lp_Variant>
AV-unprocessed.smi:3222-3

> <Gold.Version>
5.8.1

> <Gold.Id.Protein>
6NUR|6NUR_protein|mol2

> <Gold.PLP.Fitness>
46.5031

> <Gold.PLP.PLP>
-40.1400

> <Gold.PLP.part.hbond>
-1.0000

> <Gold.PLP.part.metal>
0.0000

> <Gold.PLP.part.buried>
-1.7327

> <Gold.PLP.part.nonpolar>
-38.7883

> <Gold.PLP.part.repulsive>
0.2993

> <Gold.PLP.ligand.clash>
0.0000

> <Gold.PLP.ligand.torsion>
0.9428

> <Gold.PLP.Chemscore.Hbond>
1.8560

> <Gold.PLP.Chemscore.CHOScore>
0.8457

> <Gold.PLP.Chemscore.Metal>
0.0000

> <Gold.Chemscore.Hbonds>
donor molecule, donor type, donor heavy atom, donor atom, acceptor molecule, acceptor atom, score
      L1  H     3    41       P1  8028  1.76
      L1  C    15    38       P1  7957  0.46

> <Gold.PLP.Chemscore.Internal.Correction>
0.1435

> <Gold.Rescore>
     Score         DG    S(hbond)    S(metal)    S(lipo)     H(rot)  DE(clash)    DE(int)     intcor
     12.97     -15.32       0.98        0.00      99.71       1.99       1.42       0.93       ----

> <Gold.Chemscore.Fitness>
12.9656

> <Gold.Chemscore.DG>
-15.3186

> <Gold.Chemscore.ZeroCoef>
-5.4800

> <Gold.Chemscore.Hbond>
0.9799

> <Gold.Chemscore.Metal>
0.0000

> <Gold.Chemscore.Lipo>
99.7072

> <Gold.Chemscore.Internal_Hbond>
0.0000

> <Gold.Chemscore.DEClash>
1.4205

> <Gold.Chemscore.DEInternal>
0.9325

> <Gold.Chemscore.Rot>
1.9922

> <Gold.Chemscore.Internal.Correction>
   9.000000E+99

> <Gold.Chemscore.Hbonds>
donor molecule, donor type, donor heavy atom, donor atom, acceptor molecule, acceptor atom, score
      L1  H     3    41       P1  8028  0.86

> <Gold.Chemscore.Hbond.Weighted>
-3.2730

> <Gold.Chemscore.Metal.Weighted>
-0.0000

> <Gold.Chemscore.Lipo.Weighted>
-11.6657

> <Gold.Chemscore.Internal_Hbond.Weighted>
0.0000

> <Gold.Chemscore.DEClash.Weighted>
1.4205

> <Gold.Chemscore.DEInternal.Weighted>
0.9325

> <Gold.Chemscore.Rot.Weighted>
5.1002

> <Gold.Chemscore.Internal.Correction.Weighted>
   9.000000E+99

> <Gold.Protein.RotatedTorsions>
[ 6907 6896 6895 6894 ] final -106.10 input  -60.11 | X-H torsion
[ 7974 7965 7964 7962 ] final   71.46 input  175.53 | X-H torsion
[ 8008 7997 7996 7995 ] final   42.69 input   59.86 | X-H torsion
[ 10167 10162 10161 10158 ] final    1.88 input  -65.29 | X-H torsion
[ 10718 10713 10712 10709 ] final  133.83 input   66.30 | X-H torsion
[ 10763 10752 10751 10750 ] final  -15.05 input  -60.55 | X-H torsion
[ 11005 11000 10999 10996 ] final  -64.95 input  -57.11 | X-H torsion

> <Gold.Protein.ActiveResidues>
 VAL166  LYS551  ARG553  GLY616  TRP617  ASP618  TYR619  PRO620  LYS621  CYS622 
 ASP623  PHE694  ASN695  SER759  ASP760  ASP761  ALA762  ILE779  LEU786  VAL792 
 PHE793  MET794  SER795  GLU796  ALA797  LYS798  CYS799  TRP800  GLU811  SER814 

> <Gold.Protein.RotatedAtoms>
  150.7371  134.0027  159.3643 H   0  0  0  0  0  0  0  0  0  0  0  0  # atno 6907 bound_to 6896
  151.7982  135.0714  160.0406 H   0  0  0  0  0  0  0  0  0  0  0  0  # atno 6908 bound_to 6896
  152.3159  133.5765  159.5748 H   0  0  0  0  0  0  0  0  0  0  0  0  # atno 6909 bound_to 6896
  145.7656  139.2820  143.1351 H   0  0  0  0  0  0  0  0  0  0  0  0  # atno 7974 bound_to 7965
  155.2903  140.3378  155.4253 H   0  0  0  0  0  0  0  0  0  0  0  0  # atno 8008 bound_to 7997
  156.2049  140.1747  156.7861 H   0  0  0  0  0  0  0  0  0  0  0  0  # atno 8009 bound_to 7997
  154.5607  140.0688  156.8799 H   0  0  0  0  0  0  0  0  0  0  0  0  # atno 8010 bound_to 7997
  140.6661  143.7174  150.7831 H   0  0  0  0  0  0  0  0  0  0  0  0  # atno 10167 bound_to 10162
  157.4734  131.1081  150.9774 H   0  0  0  0  0  0  0  0  0  0  0  0  # atno 10718 bound_to 10713
  153.5375  135.7014  153.5653 H   0  0  0  0  0  0  0  0  0  0  0  0  # atno 10763 bound_to 10752
  153.3633  135.3964  155.1734 H   0  0  0  0  0  0  0  0  0  0  0  0  # atno 10764 bound_to 10752
  154.8677  135.3794  154.4877 H   0  0  0  0  0  0  0  0  0  0  0  0  # atno 10765 bound_to 10752
  141.1440  133.6673  156.5911 H   0  0  0  0  0  0  0  0  0  0  0  0  # atno 11005 bound_to 11000
  146.0221  140.8338  142.9918 LP  0  0  0  0  0  0  0  0  0  0  0  0  # atno 17320 bound_to 7965
  144.6822  140.2644  143.7314 LP  0  0  0  0  0  0  0  0  0  0  0  0  # atno 17321 bound_to 7965
  140.0852  143.4931  152.2509 LP  0  0  0  0  0  0  0  0  0  0  0  0  # atno 17342 bound_to 10162
  139.5911  144.7550  151.3398 LP  0  0  0  0  0  0  0  0  0  0  0  0  # atno 17343 bound_to 10162
  157.0532  130.5795  149.5373 LP  0  0  0  0  0  0  0  0  0  0  0  0  # atno 17370 bound_to 10713
  156.0084  130.5174  150.7909 LP  0  0  0  0  0  0  0  0  0  0  0  0  # atno 17371 bound_to 10713
  140.3762  134.7563  157.4631 LP  0  0  0  0  0  0  0  0  0  0  0  0  # atno 17394 bound_to 11000
  140.0672  134.5913  155.8682 LP  0  0  0  0  0  0  0  0  0  0  0  0  # atno 17395 bound_to 11000

$$$$
