AV-unprocessed.smi:2226|AV-procd|sdf|9016|dock3
  -GOLD-   2272012223D 1   1.00000     0.00000
 Structure written by MMmdl.
 40 42  0  0  0  0  0  0  0  0  2 V2000
  146.4017  131.4980  148.8499 C   0  0  0  0  0  0  0  0  0  0  0  0
  146.5147  131.8870  150.2757 N   0  3  1  0  0  0  0  0  0  0  0  0
  146.4040  133.3431  150.5357 C   0  0  1  0  0  0  0  0  0  0  0  0
  144.9582  133.8498  150.3000 C   0  0  0  0  0  0  0  0  0  0  0  0
  143.8807  133.0409  151.0467 C   0  0  0  0  0  0  0  0  0  0  0  0
  144.1440  131.5238  150.9990 C   0  0  0  0  0  0  0  0  0  0  0  0
  145.6310  131.1350  151.1996 C   0  0  2  0  0  0  0  0  0  0  0  0
  146.1578  131.3060  152.6431 C   0  0  0  0  0  0  0  0  0  0  0  0
  146.3813  132.7756  153.0751 C   0  0  1  0  0  0  0  0  0  0  0  0
  147.2873  132.8033  154.2225 N   0  0  0  0  0  0  0  0  0  0  0  0
  148.5344  132.3099  154.2722 C   0  0  0  0  0  0  0  0  0  0  0  0
  149.0564  131.7579  153.2985 O   0  0  0  0  0  0  0  0  0  0  0  0
  149.0734  132.5271  155.5323 N   0  0  0  0  0  0  0  0  0  0  0  0
  150.1846  131.9506  155.8758 C   0  0  0  0  0  0  0  0  0  0  0  0
  151.0484  131.0809  155.2150 N   0  0  0  0  0  0  0  0  0  0  0  0
  152.0816  130.7832  156.0588 C   0  0  0  0  0  0  0  0  0  0  0  0
  151.8812  131.4341  157.2007 C   0  0  0  0  0  0  0  0  0  0  0  0
  150.7287  132.1564  157.1184 O   0  0  0  0  0  0  0  0  0  0  0  0
  146.9765  133.6436  151.9400 C   0  0  0  0  0  0  0  0  0  0  0  0
  145.4178  131.7185  148.4368 H   0  0  0  0  0  0  0  0  0  0  0  0
  146.5850  130.4296  148.7326 H   0  0  0  0  0  0  0  0  0  0  0  0
  147.1448  132.0267  148.2524 H   0  0  0  0  0  0  0  0  0  0  0  0
  147.0485  133.8593  149.8225 H   0  0  0  0  0  0  0  0  0  0  0  0
  144.8805  134.9036  150.5695 H   0  0  0  0  0  0  0  0  0  0  0  0
  144.7411  133.8084  149.2323 H   0  0  0  0  0  0  0  0  0  0  0  0
  143.7987  133.3789  152.0760 H   0  0  0  0  0  0  0  0  0  0  0  0
  142.9025  133.2531  150.6136 H   0  0  0  0  0  0  0  0  0  0  0  0
  143.5203  131.0183  151.7370 H   0  0  0  0  0  0  0  0  0  0  0  0
  143.8095  131.1469  150.0322 H   0  0  0  0  0  0  0  0  0  0  0  0
  145.7236  130.0745  150.9606 H   0  0  0  0  0  0  0  0  0  0  0  0
  145.4959  130.8050  153.3506 H   0  0  0  0  0  0  0  0  0  0  0  0
  147.1099  130.7757  152.7060 H   0  0  0  0  0  0  0  0  0  0  0  0
  145.4242  133.1986  153.3672 H   0  0  0  0  0  0  0  0  0  0  0  0
  146.9347  133.2394  155.0624 H   0  0  0  0  0  0  0  0  0  0  0  0
  150.9676  130.7090  154.2794 H   0  0  0  0  0  0  0  0  0  0  0  0
  152.8720  130.1186  155.7428 H   0  0  0  0  0  0  0  0  0  0  0  0
  152.4397  131.4853  158.1235 H   0  0  0  0  0  0  0  0  0  0  0  0
  148.0531  133.4689  151.8959 H   0  0  0  0  0  0  0  0  0  0  0  0
  146.8606  134.7015  152.1789 H   0  0  0  0  0  0  0  0  0  0  0  0
  147.4578  131.6346  150.5346 H   0  0  0  0  0  0  0  0  0  0  0  0
  1  2  1  0  0  0  0
  1 20  1  0  0  0  0
  1 21  1  0  0  0  0
  1 22  1  0  0  0  0
  2  7  1  0  0  0  0
  2  3  1  0  0  0  0
  2 40  1  0  0  0  0
  3 19  1  0  0  0  0
  3  4  1  0  0  0  0
  3 23  1  0  0  0  0
  4  5  1  0  0  0  0
  4 24  1  0  0  0  0
  4 25  1  0  0  0  0
  5  6  1  0  0  0  0
  5 26  1  0  0  0  0
  5 27  1  0  0  0  0
  6  7  1  0  0  0  0
  6 28  1  0  0  0  0
  6 29  1  0  0  0  0
  7  8  1  0  0  0  0
  7 30  1  0  0  0  0
  8  9  1  0  0  0  0
  8 31  1  0  0  0  0
  8 32  1  0  0  0  0
  9 10  1  0  0  0  0
  9 19  1  0  0  0  0
  9 33  1  0  0  0  0
 10 34  1  0  0  0  0
 10 11  1  0  0  0  0
 11 13  1  0  0  0  0
 11 12  2  0  0  0  0
 13 14  2  0  0  0  0
 14 18  1  0  0  0  0
 14 15  1  0  0  0  0
 15 35  1  0  0  0  0
 15 16  1  0  0  0  0
 16 36  1  0  0  0  0
 16 17  2  0  0  0  0
 17 37  1  0  0  0  0
 17 18  1  0  0  0  0
 19 38  1  0  0  0  0
 19 39  1  0  0  0  0
M  CHG  1   2   1
M  END
> <s_m_source_file>
AV-unprocessed.smi

> <i_m_source_file_index>
2226

> <i_lp_mmshare_version>
43012

> <i_f3d_flags>
0

> <s_epik_input>
W0NIMl0xW0NIMl1bQ0gyXVtDQEhdKE4oW0NIM10pW0NIXTEyKVtDSDJdW0NASF0oW0NIMl0yKVtOSF1DKD1PKVtOSF1jM25bY0hdW2NIXW8z

> <s_epik_cmdline>
J2VwaWtfcHl0aG9uJywgJy1waCcsICc3LjAnLCAnLXRuJywgJzgnLCAnLW1hJywgJzIwMCcsICctbWV0YWxfYmluZGluZycsICctaW1hZScsICc8aW5maWxlLm1hZT4nLCAnLW9tYWUnLCAnPG91dGZpbGUubWFlPic=

> <r_lp_tautomer_probability>
0.107061

> <r_epik_Ionization_Penalty>
1.08307

> <r_epik_Ionization_Penalty_Charging>
1.08272

> <r_epik_Ionization_Penalty_Neutral>
0.000345913

> <r_epik_State_Penalty>
2.5744

> <r_epik_Charging_Adjusted_Penalty>
3.65713

> <i_epik_Tot_Q>
1

> <i_epik_Tot_abs_Q>
1

> <r_epik_Metal_State_Penalty>
3.72133

> <b_epik_Metal_Only>
0

> <s_lp_Force_Field>
OPLS_2005

> <r_lp_Energy>
58.4837

> <b_lp_Chiralities_Consistent>
1

> <s_lp_Variant>
AV-unprocessed.smi:2226-16

> <Gold.Version>
5.8.1

> <Gold.Id.Protein>
6NUR|6NUR_protein|mol2

> <Gold.PLP.Fitness>
31.4343

> <Gold.PLP.PLP>
-28.5129

> <Gold.PLP.part.hbond>
-1.0000

> <Gold.PLP.part.metal>
0.0000

> <Gold.PLP.part.buried>
-0.2414

> <Gold.PLP.part.nonpolar>
-26.0282

> <Gold.PLP.part.repulsive>
0.2453

> <Gold.PLP.ligand.clash>
0.0000

> <Gold.PLP.ligand.torsion>
0.0422

> <Gold.PLP.Chemscore.Hbond>
1.0000

> <Gold.PLP.Chemscore.CHOScore>
0.0000

> <Gold.PLP.Chemscore.Metal>
0.0000

> <Gold.Chemscore.Hbonds>
donor molecule, donor type, donor heavy atom, donor atom, acceptor molecule, acceptor atom, score
      L1  H     2    40       P1 10747  1.00

> <Gold.PLP.Chemscore.Internal.Correction>
0.0058

> <Gold.Rescore>
     Score         DG    S(hbond)    S(metal)    S(lipo)     H(rot)  DE(clash)    DE(int)     intcor
     14.05     -15.94       0.94        0.00      84.32       1.00       0.90       0.99       ----

> <Gold.Chemscore.Fitness>
14.0454

> <Gold.Chemscore.DG>
-15.9382

> <Gold.Chemscore.ZeroCoef>
-5.4800

> <Gold.Chemscore.Hbond>
0.9440

> <Gold.Chemscore.Metal>
0.0000

> <Gold.Chemscore.Lipo>
84.3169

> <Gold.Chemscore.Internal_Hbond>
0.0000

> <Gold.Chemscore.DEClash>
0.9037

> <Gold.Chemscore.DEInternal>
0.9892

> <Gold.Chemscore.Rot>
1.0000

> <Gold.Chemscore.Internal.Correction>
   9.000000E+99

> <Gold.Chemscore.Hbonds>
donor molecule, donor type, donor heavy atom, donor atom, acceptor molecule, acceptor atom, score
      L1  H     2    40       P1 10747  0.97

> <Gold.Chemscore.Hbond.Weighted>
-3.1531

> <Gold.Chemscore.Metal.Weighted>
-0.0000

> <Gold.Chemscore.Lipo.Weighted>
-9.8651

> <Gold.Chemscore.Internal_Hbond.Weighted>
0.0000

> <Gold.Chemscore.DEClash.Weighted>
0.9037

> <Gold.Chemscore.DEInternal.Weighted>
0.9892

> <Gold.Chemscore.Rot.Weighted>
2.5600

> <Gold.Chemscore.Internal.Correction.Weighted>
   9.000000E+99

> <Gold.Protein.RotatedTorsions>
[ 6907 6896 6895 6894 ] final -170.39 input  -60.11 | X-H torsion
[ 7974 7965 7964 7962 ] final  -32.48 input  175.53 | X-H torsion
[ 8008 7997 7996 7995 ] final  -72.71 input   59.86 | X-H torsion
[ 10167 10162 10161 10158 ] final  -71.55 input  -65.29 | X-H torsion
[ 10718 10713 10712 10709 ] final  -69.35 input   66.30 | X-H torsion
[ 10763 10752 10751 10750 ] final   75.20 input  -60.55 | X-H torsion
[ 11005 11000 10999 10996 ] final -131.05 input  -57.11 | X-H torsion

> <Gold.Protein.ActiveResidues>
 VAL166  LYS551  ARG553  GLY616  TRP617  ASP618  TYR619  PRO620  LYS621  CYS622 
 ASP623  PHE694  ASN695  SER759  ASP760  ASP761  ALA762  ILE779  LEU786  VAL792 
 PHE793  MET794  SER795  GLU796  ALA797  LYS798  CYS799  TRP800  GLU811  SER814 

> <Gold.Protein.RotatedAtoms>
  151.5070  133.3492  159.2878 H   0  0  0  0  0  0  0  0  0  0  0  0  # atno 6907 bound_to 6896
  150.8736  134.8117  159.7184 H   0  0  0  0  0  0  0  0  0  0  0  0  # atno 6908 bound_to 6896
  152.4716  134.4957  159.9761 H   0  0  0  0  0  0  0  0  0  0  0  0  # atno 6909 bound_to 6896
  146.0987  140.5797  142.8831 H   0  0  0  0  0  0  0  0  0  0  0  0  # atno 7974 bound_to 7965
  154.5188  140.0792  156.8132 H   0  0  0  0  0  0  0  0  0  0  0  0  # atno 8008 bound_to 7997
  155.3622  140.3418  155.4223 H   0  0  0  0  0  0  0  0  0  0  0  0  # atno 8009 bound_to 7997
  156.1658  140.1603  156.8521 H   0  0  0  0  0  0  0  0  0  0  0  0  # atno 8010 bound_to 7997
  140.5264  143.2326  151.7340 H   0  0  0  0  0  0  0  0  0  0  0  0  # atno 10167 bound_to 10162
  156.0460  130.4311  150.2135 H   0  0  0  0  0  0  0  0  0  0  0  0  # atno 10718 bound_to 10713
  153.0639  135.4997  154.8155 H   0  0  0  0  0  0  0  0  0  0  0  0  # atno 10763 bound_to 10752
  154.6924  135.2987  154.9463 H   0  0  0  0  0  0  0  0  0  0  0  0  # atno 10764 bound_to 10752
  154.0213  135.6741  153.4825 H   0  0  0  0  0  0  0  0  0  0  0  0  # atno 10765 bound_to 10752
  140.9292  134.1342  157.4249 H   0  0  0  0  0  0  0  0  0  0  0  0  # atno 11005 bound_to 11000
  144.7415  140.4955  143.6866 LP  0  0  0  0  0  0  0  0  0  0  0  0  # atno 17320 bound_to 7965
  145.5898  139.1495  143.3189 LP  0  0  0  0  0  0  0  0  0  0  0  0  # atno 17321 bound_to 7965
  139.4939  144.4180  152.0009 LP  0  0  0  0  0  0  0  0  0  0  0  0  # atno 17342 bound_to 10162
  140.3279  144.3351  150.5994 LP  0  0  0  0  0  0  0  0  0  0  0  0  # atno 17343 bound_to 10162
  157.0224  130.9983  151.3336 LP  0  0  0  0  0  0  0  0  0  0  0  0  # atno 17370 bound_to 10713
  157.5335  130.8073  149.7944 LP  0  0  0  0  0  0  0  0  0  0  0  0  # atno 17371 bound_to 10713
  139.8792  134.9999  156.5980 LP  0  0  0  0  0  0  0  0  0  0  0  0  # atno 17394 bound_to 11000
  140.7885  133.8602  155.8626 LP  0  0  0  0  0  0  0  0  0  0  0  0  # atno 17395 bound_to 11000

$$$$
