#       Name:                AV-unprocessed.smi:3019
#       Creating user name   scv26
#       Creation time:       Fri Mar 27 16:42:57 2020


#       File generated by GOLD software.
#

@<TRIPOS>MOLECULE
AV-unprocessed.smi:3019
    35    36     1
SMALL
NO_CHARGES


@<TRIPOS>ATOM
      1 ****        -4.1449  -0.0026   1.1135 C.3            1 S1                 0.0000
      2 ****        -3.4546   0.9012   0.0812 C.3            1 S1                 0.0000
      3 ****        -3.8466   0.5677  -1.3658 C.3            1 S1                 0.0000
      4 ****        -1.9675   0.9158   0.2636 C.2            1 S1                 0.0000
      5 ****        -1.3235   2.0346   0.5937 N.2            1 S1                 0.0000
      6 ****        -0.0423   1.6161   0.6522 N.pl3          1 S1                 0.0000
      7 ****         0.0117   0.3115   0.3701 C.2            1 S1                 0.0000
      8 ****         1.2934  -0.4606   0.3212 C.3            1 S1                 0.0000
      9 ****         1.8712  -0.5483  -1.1043 C.3            1 S1                 0.0000
     10 ****         3.1696  -1.2496  -1.0794 N.4            1 S1                 1.0000
     11 ****         4.1084  -0.6162  -0.1321 C.3            1 S1                 0.0000
     12 ****         3.4652  -0.5122   1.2622 C.3            1 S1                 0.0000
     13 ****         2.2323   0.1953   1.1720 O.3            1 S1                 0.0000
     14 ****        -1.1865  -0.1966   0.1029 N.2            1 S1                 0.0000
     15 ****         0.7278   2.2275   0.8835 H              1 S1                 0.0000
     16 ****        -3.9045   0.3092   2.1305 H              1 S1                 0.0000
     17 ****        -3.8359  -1.0423   1.0015 H              1 S1                 0.0000
     18 ****        -5.2291   0.0344   1.0044 H              1 S1                 0.0000
     19 ****        -3.8147   1.9139   0.2707 H              1 S1                 0.0000
     20 ****        -3.3985   1.2740  -2.0657 H              1 S1                 0.0000
     21 ****        -4.9278   0.6123  -1.4994 H              1 S1                 0.0000
     22 ****        -3.5186  -0.4337  -1.6460 H              1 S1                 0.0000
     23 ****         1.0976  -1.4626   0.7086 H              1 S1                 0.0000
     24 ****         1.1871  -1.0796  -1.7667 H              1 S1                 0.0000
     25 ****         2.0132   0.4502  -1.5207 H              1 S1                 0.0000
     26 ****         3.0146  -2.2053  -0.7915 H              1 S1                 0.0000
     27 ****         5.0281  -1.1999  -0.0878 H              1 S1                 0.0000
     28 ****         4.3737   0.3760  -0.4996 H              1 S1                 0.0000
     29 ****         3.2982  -1.5027   1.6886 H              1 S1                 0.0000
     30 ****         4.1292   0.0197   1.9440 H              1 S1                 0.0000
     31 ****         3.5724  -1.2463  -2.0059 H              1 S1                 0.0000
     32 ****        -1.6943   2.9489   0.7562 LP             1 S1                 0.0000
     33 ****         1.8378   0.2721   2.0877 LP             1 S1                 0.0000
     34 ****         2.4119   1.1094   0.8086 LP             1 S1                 0.0000
     35 ****        -1.4451  -1.1300  -0.1458 LP             1 S1                 0.0000
@<TRIPOS>BOND
    1    1    2 1     
    2    1   16 1     
    3    1   17 1     
    4    1   18 1     
    5    2    3 1     
    6    2    4 1     
    7    2   19 1     
    8    3   20 1     
    9    3   21 1     
   10    3   22 1     
   11    4   14 1     
   12    4    5 2     
   13    5    6 1     
   14    6   15 1     
   15    6    7 1     
   16    7    8 1     
   17    7   14 2     
   18    8   13 1     
   19    8    9 1     
   20    8   23 1     
   21    9   10 1     
   22    9   24 1     
   23    9   25 1     
   24   10   11 1     
   25   10   26 1     
   26   10   31 1     
   27   11   12 1     
   28   11   27 1     
   29   11   28 1     
   30   12   13 1     
   31   12   29 1     
   32   12   30 1     
   33    5   32 1     
   34   13   33 1     
   35   13   34 1     
   36   14   35 1     
@<TRIPOS>SUBSTRUCTURE
      1 S1             1
@<TRIPOS>SET
LONE_PAIRS      STATIC     ATOMS    <user>   **** ""
4 32 33 34 35
DONOR_HYDROGENS      STATIC     ATOMS    <user>   **** ""
3 15 26 31
ATOM$BLUE        STATIC     ATOMS    COLORGROUP SYSTEM
4 32 33 34 35
ATOM$RED        STATIC     ATOMS    COLORGROUP SYSTEM
3 15 26 31
