AV-unprocessed.smi:1099|AV-procd|sdf|4755|dock9
  -GOLD-   22720 3293D 1   1.00000     0.00000
 Structure written by MMmdl.
 41 43  0  0  0  0  0  0  0  0  1 V2000
  144.9744  143.4899  156.6707 C   0  0  0  0  0  0  0  0  0  0  0  0
  146.2402  142.7051  157.0310 C   0  0  0  0  0  0  0  0  0  0  0  0
  146.9144  142.1248  155.8330 C   0  0  0  0  0  0  0  0  0  0  0  0
  148.0202  141.3781  155.8982 N   0  0  0  0  0  0  0  0  0  0  0  0
  148.4371  140.9224  154.6434 C   0  0  0  0  0  0  0  0  0  0  0  0
  149.6703  140.0798  154.5227 C   0  0  0  0  0  0  0  0  0  0  0  0
  150.4451  139.9895  155.8480 C   0  0  0  0  0  0  0  0  0  0  0  0
  150.4881  141.2763  156.5332 N   0  0  0  0  0  0  0  0  0  0  0  0
  151.0262  141.4858  157.7448 C   0  0  0  0  0  0  0  0  0  0  0  0
  151.5570  140.5914  158.4039 O   0  0  0  0  0  0  0  0  0  0  0  0
  150.9446  142.9246  158.2855 C   0  0  2  0  0  0  0  0  0  0  0  0
  151.6147  143.9702  157.3597 C   0  0  0  0  0  0  0  0  0  0  0  0
  152.6268  144.6682  158.2894 C   0  0  1  0  0  0  0  0  0  0  0  0
  151.8686  145.5095  159.3341 C   0  0  0  0  0  0  0  0  0  0  0  0
  151.2708  144.4365  160.2649 C   0  0  0  0  0  0  0  0  0  0  0  0
  151.7337  143.1234  159.6047 C   0  0  2  0  0  0  0  0  0  0  0  0
  153.1357  143.5081  159.1334 C   0  0  0  0  0  0  0  0  0  0  0  0
  147.6184  141.3305  153.6201 C   0  0  0  0  0  0  0  0  0  0  0  0
  146.2903  142.2990  154.1965 S   0  0  0  0  0  0  0  0  0  0  0  0
  144.5061  143.9031  157.5643 H   0  0  0  0  0  0  0  0  0  0  0  0
  144.2424  142.8508  156.1756 H   0  0  0  0  0  0  0  0  0  0  0  0
  145.2035  144.3190  156.0007 H   0  0  0  0  0  0  0  0  0  0  0  0
  146.9462  143.3559  157.5474 H   0  0  0  0  0  0  0  0  0  0  0  0
  145.9946  141.8990  157.7234 H   0  0  0  0  0  0  0  0  0  0  0  0
  149.4026  139.0763  154.1895 H   0  0  0  0  0  0  0  0  0  0  0  0
  150.3178  140.4882  153.7457 H   0  0  0  0  0  0  0  0  0  0  0  0
  150.0015  139.2341  156.4989 H   0  0  0  0  0  0  0  0  0  0  0  0
  151.4712  139.6721  155.6593 H   0  0  0  0  0  0  0  0  0  0  0  0
  150.0745  142.0632  156.0543 H   0  0  0  0  0  0  0  0  0  0  0  0
  149.8942  143.1794  158.4382 H   0  0  0  0  0  0  0  0  0  0  0  0
  152.1321  143.5071  156.5179 H   0  0  0  0  0  0  0  0  0  0  0  0
  150.8906  144.6732  156.9463 H   0  0  0  0  0  0  0  0  0  0  0  0
  153.3985  145.2246  157.7564 H   0  0  0  0  0  0  0  0  0  0  0  0
  152.5521  146.1564  159.8853 H   0  0  0  0  0  0  0  0  0  0  0  0
  151.1034  146.1402  158.8797 H   0  0  0  0  0  0  0  0  0  0  0  0
  151.6835  144.5299  161.2703 H   0  0  0  0  0  0  0  0  0  0  0  0
  150.1855  144.5077  160.3432 H   0  0  0  0  0  0  0  0  0  0  0  0
  151.7010  142.2657  160.2782 H   0  0  0  0  0  0  0  0  0  0  0  0
  153.6419  142.7384  158.5505 H   0  0  0  0  0  0  0  0  0  0  0  0
  153.7939  143.8216  159.9458 H   0  0  0  0  0  0  0  0  0  0  0  0
  147.7149  141.1186  152.5655 H   0  0  0  0  0  0  0  0  0  0  0  0
  1  2  1  0  0  0  0
  1 20  1  0  0  0  0
  1 21  1  0  0  0  0
  1 22  1  0  0  0  0
  2  3  1  0  0  0  0
  2 23  1  0  0  0  0
  2 24  1  0  0  0  0
  3 19  1  0  0  0  0
  3  4  2  0  0  0  0
  4  5  1  0  0  0  0
  5  6  1  0  0  0  0
  5 18  2  0  0  0  0
  6  7  1  0  0  0  0
  6 25  1  0  0  0  0
  6 26  1  0  0  0  0
  7  8  1  0  0  0  0
  7 27  1  0  0  0  0
  7 28  1  0  0  0  0
  8  9  1  0  0  0  0
  8 29  1  0  0  0  0
  9 10  2  0  0  0  0
  9 11  1  0  0  0  0
 11 16  1  0  0  0  0
 11 12  1  0  0  0  0
 11 30  1  0  0  0  0
 12 13  1  0  0  0  0
 12 31  1  0  0  0  0
 12 32  1  0  0  0  0
 13 17  1  0  0  0  0
 13 14  1  0  0  0  0
 13 33  1  0  0  0  0
 14 15  1  0  0  0  0
 14 34  1  0  0  0  0
 14 35  1  0  0  0  0
 15 16  1  0  0  0  0
 15 36  1  0  0  0  0
 15 37  1  0  0  0  0
 16 17  1  0  0  0  0
 16 38  1  0  0  0  0
 17 39  1  0  0  0  0
 17 40  1  0  0  0  0
 18 19  1  0  0  0  0
 18 41  1  0  0  0  0
M  END
> <s_m_source_file>
AV-unprocessed.smi

> <i_m_source_file_index>
1099

> <i_lp_mmshare_version>
43012

> <i_f3d_flags>
0

> <s_epik_input>
W0NIM11bQ0gyXWMxbmMoW2NIXXMxKVtDSDJdW0NIMl1bTkhdQyg9TylbQ0BIXShbQ0gyXVtDQEBIXTIzKVtDQEBIXShbQ0gyXTMpW0NIMl1bQ0gyXTI=

> <s_epik_cmdline>
J2VwaWtfcHl0aG9uJywgJy1waCcsICc3LjAnLCAnLXRuJywgJzgnLCAnLW1hJywgJzIwMCcsICctbWV0YWxfYmluZGluZycsICctaW1hZScsICc8aW5maWxlLm1hZT4nLCAnLW9tYWUnLCAnPG91dGZpbGUubWFlPic=

> <r_epik_Ionization_Penalty>
0.00110131

> <r_epik_Ionization_Penalty_Charging>
0

> <r_epik_Ionization_Penalty_Neutral>
0.00110131

> <r_epik_State_Penalty>
0.00072257

> <r_epik_Charging_Adjusted_Penalty>
0.00072257

> <i_epik_Tot_Q>
0

> <i_epik_Tot_abs_Q>
0

> <r_epik_Metal_State_Penalty>
-0

> <b_epik_Metal_Only>
0

> <s_lp_Force_Field>
OPLS_2005

> <r_lp_Energy>
37.6271

> <b_lp_Chiralities_Consistent>
1

> <s_lp_Variant>
AV-unprocessed.smi:1099-1

> <Gold.Version>
5.8.1

> <Gold.Id.Protein>
6NUR|6NUR_protein|mol2

> <Gold.PLP.Fitness>
46.9830

> <Gold.PLP.PLP>
-44.3586

> <Gold.PLP.part.hbond>
0.0000

> <Gold.PLP.part.metal>
0.0000

> <Gold.PLP.part.buried>
-3.6674

> <Gold.PLP.part.nonpolar>
-41.2868

> <Gold.PLP.part.repulsive>
0.1621

> <Gold.PLP.ligand.clash>
0.0000

> <Gold.PLP.ligand.torsion>
0.2113

> <Gold.PLP.Chemscore.Hbond>
0.0000

> <Gold.PLP.Chemscore.CHOScore>
1.0000

> <Gold.PLP.Chemscore.Metal>
0.0000

> <Gold.Chemscore.Hbonds>
donor molecule, donor type, donor heavy atom, donor atom, acceptor molecule, acceptor atom, score
      L1  C    18    41       P1  7957  0.90

> <Gold.PLP.Chemscore.Internal.Correction>
0.0471

> <Gold.Rescore>
     Score         DG    S(hbond)    S(metal)    S(lipo)     H(rot)  DE(clash)    DE(int)     intcor
     16.45     -16.64       0.00        0.00     126.37       1.42       0.05       0.13       ----

> <Gold.Chemscore.Fitness>
16.4537

> <Gold.Chemscore.DG>
-16.6388

> <Gold.Chemscore.ZeroCoef>
-5.4800

> <Gold.Chemscore.Hbond>
0.0000

> <Gold.Chemscore.Metal>
0.0000

> <Gold.Chemscore.Lipo>
126.3676

> <Gold.Chemscore.Internal_Hbond>
0.0000

> <Gold.Chemscore.DEClash>
0.0531

> <Gold.Chemscore.DEInternal>
0.1320

> <Gold.Chemscore.Rot>
1.4165

> <Gold.Chemscore.Internal.Correction>
   9.000000E+99

> <Gold.Chemscore.Hbond.Weighted>
-0.0000

> <Gold.Chemscore.Metal.Weighted>
-0.0000

> <Gold.Chemscore.Lipo.Weighted>
-14.7850

> <Gold.Chemscore.Internal_Hbond.Weighted>
0.0000

> <Gold.Chemscore.DEClash.Weighted>
0.0531

> <Gold.Chemscore.DEInternal.Weighted>
0.1320

> <Gold.Chemscore.Rot.Weighted>
3.6262

> <Gold.Chemscore.Internal.Correction.Weighted>
   9.000000E+99

> <Gold.Protein.RotatedTorsions>
[ 6907 6896 6895 6894 ] final   46.06 input  -60.11 | X-H torsion
[ 7974 7965 7964 7962 ] final  -44.24 input  175.53 | X-H torsion
[ 8008 7997 7996 7995 ] final  127.47 input   59.86 | X-H torsion
[ 10167 10162 10161 10158 ] final  -85.98 input  -65.29 | X-H torsion
[ 10718 10713 10712 10709 ] final  -82.46 input   66.30 | X-H torsion
[ 10763 10752 10751 10750 ] final   -7.86 input  -60.55 | X-H torsion
[ 11005 11000 10999 10996 ] final -152.62 input  -57.11 | X-H torsion

> <Gold.Protein.ActiveResidues>
 VAL166  LYS551  ARG553  GLY616  TRP617  ASP618  TYR619  PRO620  LYS621  CYS622 
 ASP623  PHE694  ASN695  SER759  ASP760  ASP761  ALA762  ILE779  LEU786  VAL792 
 PHE793  MET794  SER795  GLU796  ALA797  LYS798  CYS799  TRP800  GLU811  SER814 

> <Gold.Protein.RotatedAtoms>
  152.2520  134.8123  160.0444 H   0  0  0  0  0  0  0  0  0  0  0  0  # atno 6907 bound_to 6896
  151.8800  133.3488  159.3771 H   0  0  0  0  0  0  0  0  0  0  0  0  # atno 6908 bound_to 6896
  150.7087  134.4954  159.5580 H   0  0  0  0  0  0  0  0  0  0  0  0  # atno 6909 bound_to 6896
  145.9940  140.7149  142.9303 H   0  0  0  0  0  0  0  0  0  0  0  0  # atno 7974 bound_to 7965
  156.2891  140.2668  156.2279 H   0  0  0  0  0  0  0  0  0  0  0  0  # atno 8008 bound_to 7997
  155.0102  140.0387  157.2414 H   0  0  0  0  0  0  0  0  0  0  0  0  # atno 8009 bound_to 7997
  154.7525  140.2745  155.6286 H   0  0  0  0  0  0  0  0  0  0  0  0  # atno 8010 bound_to 7997
  140.3985  143.2673  151.9173 H   0  0  0  0  0  0  0  0  0  0  0  0  # atno 10167 bound_to 10162
  156.0033  130.4635  150.4108 H   0  0  0  0  0  0  0  0  0  0  0  0  # atno 10718 bound_to 10713
  153.4323  135.7012  153.6223 H   0  0  0  0  0  0  0  0  0  0  0  0  # atno 10763 bound_to 10752
  153.4632  135.3731  155.2350 H   0  0  0  0  0  0  0  0  0  0  0  0  # atno 10764 bound_to 10752
  154.8726  135.4025  154.3708 H   0  0  0  0  0  0  0  0  0  0  0  0  # atno 10765 bound_to 10752
  140.7170  134.3770  157.5189 H   0  0  0  0  0  0  0  0  0  0  0  0  # atno 11005 bound_to 11000
  144.6898  140.3118  143.7247 LP  0  0  0  0  0  0  0  0  0  0  0  0  # atno 17320 bound_to 7965
  145.7588  139.1817  143.2279 LP  0  0  0  0  0  0  0  0  0  0  0  0  # atno 17321 bound_to 7965
  139.4785  144.5657  151.8169 LP  0  0  0  0  0  0  0  0  0  0  0  0  # atno 17342 bound_to 10162
  140.4765  144.1512  150.5925 LP  0  0  0  0  0  0  0  0  0  0  0  0  # atno 17343 bound_to 10162
  157.2171  131.0474  151.2567 LP  0  0  0  0  0  0  0  0  0  0  0  0  # atno 17370 bound_to 10713
  157.3835  130.7244  149.6647 LP  0  0  0  0  0  0  0  0  0  0  0  0  # atno 17371 bound_to 10713
  139.8857  134.8929  156.2625 LP  0  0  0  0  0  0  0  0  0  0  0  0  # atno 17394 bound_to 11000
  141.0036  133.7137  156.0999 LP  0  0  0  0  0  0  0  0  0  0  0  0  # atno 17395 bound_to 11000

$$$$
