AV-unprocessed.smi:3241|AV-procd|sdf|12389|dock9
  -GOLD-   2272018263D 1   1.00000     0.00000
 Structure written by MMmdl.
 43 44  0  0  0  0  0  0  0  0  1 V2000
  147.6786  142.1616  154.3554 C   0  0  0  0  0  0  0  0  0  0  0  0
  148.5267  140.9833  154.8640 C   0  0  2  0  0  0  0  0  0  0  0  0
  149.9585  141.4456  155.2007 C   0  0  0  0  0  0  0  0  0  0  0  0
  150.8263  140.2845  155.7092 C   0  0  0  0  0  0  0  0  0  0  0  0
  150.8566  139.1328  154.6944 C   0  0  0  0  0  0  0  0  0  0  0  0
  149.4357  138.6569  154.3565 C   0  0  0  0  0  0  0  0  0  0  0  0
  148.5541  139.8175  153.8495 C   0  0  1  0  0  0  0  0  0  0  0  0
  147.2154  139.3711  153.6788 O   0  0  0  0  0  0  0  0  0  0  0  0
  146.9860  138.5886  152.5163 C   0  0  0  0  0  0  0  0  0  0  0  0
  145.5387  138.0910  152.5697 C   0  0  0  0  0  0  0  0  0  0  0  0
  145.2396  137.2798  151.3955 N   0  0  0  0  0  0  0  0  0  0  0  0
  144.5510  136.0298  151.6996 C   0  0  0  0  0  0  0  0  0  0  0  0
  144.1356  135.2938  150.4154 C   0  0  0  0  0  0  0  0  0  0  0  0
  144.2218  133.8504  150.5595 N   0  0  0  0  0  0  0  0  0  0  0  0
  143.2041  132.9514  150.8004 C   0  0  0  0  0  0  0  0  0  0  0  0
  143.7625  131.7058  150.8402 C   0  0  0  0  0  0  0  0  0  0  0  0
  145.1458  131.9481  150.6116 C   0  0  0  0  0  0  0  0  0  0  0  0
  145.4176  133.2321  150.4440 N   0  0  0  0  0  0  0  0  0  0  0  0
  148.0751  142.5632  153.4224 H   0  0  0  0  0  0  0  0  0  0  0  0
  147.6554  142.9724  155.0837 H   0  0  0  0  0  0  0  0  0  0  0  0
  146.6471  141.8590  154.1738 H   0  0  0  0  0  0  0  0  0  0  0  0
  148.0682  140.6198  155.7851 H   0  0  0  0  0  0  0  0  0  0  0  0
  150.4220  141.8839  154.3157 H   0  0  0  0  0  0  0  0  0  0  0  0
  149.9285  142.2337  155.9542 H   0  0  0  0  0  0  0  0  0  0  0  0
  151.8401  140.6353  155.9040 H   0  0  0  0  0  0  0  0  0  0  0  0
  150.4347  139.9240  156.6613 H   0  0  0  0  0  0  0  0  0  0  0  0
  151.3597  139.4599  153.7835 H   0  0  0  0  0  0  0  0  0  0  0  0
  151.4424  138.3030  155.0911 H   0  0  0  0  0  0  0  0  0  0  0  0
  149.4917  137.8647  153.6101 H   0  0  0  0  0  0  0  0  0  0  0  0
  148.9811  138.2138  155.2437 H   0  0  0  0  0  0  0  0  0  0  0  0
  148.9493  140.1935  152.9038 H   0  0  0  0  0  0  0  0  0  0  0  0
  147.1556  139.1651  151.6051 H   0  0  0  0  0  0  0  0  0  0  0  0
  147.6689  137.7392  152.5011 H   0  0  0  0  0  0  0  0  0  0  0  0
  145.3846  137.4990  153.4723 H   0  0  0  0  0  0  0  0  0  0  0  0
  144.8621  138.9441  152.6321 H   0  0  0  0  0  0  0  0  0  0  0  0
  144.6829  137.8227  150.7422 H   0  0  0  0  0  0  0  0  0  0  0  0
  145.1985  135.3870  152.2967 H   0  0  0  0  0  0  0  0  0  0  0  0
  143.6646  136.2268  152.3037 H   0  0  0  0  0  0  0  0  0  0  0  0
  143.1205  135.5696  150.1244 H   0  0  0  0  0  0  0  0  0  0  0  0
  144.7872  135.5905  149.5929 H   0  0  0  0  0  0  0  0  0  0  0  0
  142.1786  133.2694  150.9177 H   0  0  0  0  0  0  0  0  0  0  0  0
  143.2594  130.7647  151.0060 H   0  0  0  0  0  0  0  0  0  0  0  0
  145.9546  131.2342  150.5597 H   0  0  0  0  0  0  0  0  0  0  0  0
  1  2  1  0  0  0  0
  1 19  1  0  0  0  0
  1 20  1  0  0  0  0
  1 21  1  0  0  0  0
  2  7  1  0  0  0  0
  2  3  1  0  0  0  0
  2 22  1  0  0  0  0
  3  4  1  0  0  0  0
  3 23  1  0  0  0  0
  3 24  1  0  0  0  0
  4  5  1  0  0  0  0
  4 25  1  0  0  0  0
  4 26  1  0  0  0  0
  5  6  1  0  0  0  0
  5 27  1  0  0  0  0
  5 28  1  0  0  0  0
  6  7  1  0  0  0  0
  6 29  1  0  0  0  0
  6 30  1  0  0  0  0
  7  8  1  0  0  0  0
  7 31  1  0  0  0  0
  8  9  1  0  0  0  0
  9 10  1  0  0  0  0
  9 32  1  0  0  0  0
  9 33  1  0  0  0  0
 10 11  1  0  0  0  0
 10 34  1  0  0  0  0
 10 35  1  0  0  0  0
 11 12  1  0  0  0  0
 11 36  1  0  0  0  0
 12 13  1  0  0  0  0
 12 37  1  0  0  0  0
 12 38  1  0  0  0  0
 13 14  1  0  0  0  0
 13 39  1  0  0  0  0
 13 40  1  0  0  0  0
 14 18  1  0  0  0  0
 14 15  1  0  0  0  0
 15 16  2  0  0  0  0
 15 41  1  0  0  0  0
 16 17  1  0  0  0  0
 16 42  1  0  0  0  0
 17 18  2  0  0  0  0
 17 43  1  0  0  0  0
M  END
> <s_m_source_file>
AV-unprocessed.smi

> <i_m_source_file_index>
3241

> <i_lp_mmshare_version>
43012

> <i_f3d_flags>
0

> <s_epik_input>
W0NIM11bQ0BASF0xW0NIMl1bQ0gyXVtDSDJdW0NIMl1bQ0BIXTFPW0NIMl1bQ0gyXVtOSF1bQ0gyXVtDSDJdbjJbY0hdW2NIXVtjSF1uMg==

> <s_epik_cmdline>
J2VwaWtfcHl0aG9uJywgJy1waCcsICc3LjAnLCAnLXRuJywgJzgnLCAnLW1hJywgJzIwMCcsICctbWV0YWxfYmluZGluZycsICctaW1hZScsICc8aW5maWxlLm1hZT4nLCAnLW9tYWUnLCAnPG91dGZpbGUubWFlPic=

> <r_lp_tautomer_probability>
1

> <r_epik_Ionization_Penalty>
2.47055

> <r_epik_Ionization_Penalty_Charging>
0

> <r_epik_Ionization_Penalty_Neutral>
2.47055

> <r_epik_State_Penalty>
2.6322

> <r_epik_Charging_Adjusted_Penalty>
2.6322

> <i_epik_Tot_Q>
0

> <i_epik_Tot_abs_Q>
0

> <r_epik_Metal_State_Penalty>
2.63108

> <b_epik_Metal_Only>
0

> <s_lp_Force_Field>
OPLS_2005

> <r_lp_Energy>
15.2111

> <b_lp_Chiralities_Consistent>
1

> <s_lp_Variant>
AV-unprocessed.smi:3241-5

> <Gold.Version>
5.8.1

> <Gold.Id.Protein>
6NUR|6NUR_protein|mol2

> <Gold.PLP.Fitness>
44.9577

> <Gold.PLP.PLP>
-37.8928

> <Gold.PLP.part.hbond>
-1.0000

> <Gold.PLP.part.metal>
0.0000

> <Gold.PLP.part.buried>
-0.5217

> <Gold.PLP.part.nonpolar>
-37.6296

> <Gold.PLP.part.repulsive>
0.3529

> <Gold.PLP.ligand.clash>
0.0000

> <Gold.PLP.ligand.torsion>
1.0037

> <Gold.PLP.Chemscore.Hbond>
1.0000

> <Gold.PLP.Chemscore.CHOScore>
2.0000

> <Gold.PLP.Chemscore.Metal>
0.0000

> <Gold.Chemscore.Hbonds>
donor molecule, donor type, donor heavy atom, donor atom, acceptor molecule, acceptor atom, score
      L1  H    11    36       P1 10171  0.81
      L1  C    15    41       P1 10186  0.97

> <Gold.PLP.Chemscore.Internal.Correction>
0.0725

> <Gold.Rescore>
     Score         DG    S(hbond)    S(metal)    S(lipo)     H(rot)  DE(clash)    DE(int)     intcor
     14.37     -15.13       1.00        0.00      93.19       1.79       0.13       0.62       ----

> <Gold.Chemscore.Fitness>
14.3739

> <Gold.Chemscore.DG>
-15.1255

> <Gold.Chemscore.ZeroCoef>
-5.4800

> <Gold.Chemscore.Hbond>
0.9954

> <Gold.Chemscore.Metal>
0.0000

> <Gold.Chemscore.Lipo>
93.1923

> <Gold.Chemscore.Internal_Hbond>
0.0000

> <Gold.Chemscore.DEClash>
0.1290

> <Gold.Chemscore.DEInternal>
0.6226

> <Gold.Chemscore.Rot>
1.7901

> <Gold.Chemscore.Internal.Correction>
   9.000000E+99

> <Gold.Chemscore.Hbonds>
donor molecule, donor type, donor heavy atom, donor atom, acceptor molecule, acceptor atom, score
      L1  H    11    36       P1 10171  0.79

> <Gold.Chemscore.Hbond.Weighted>
-3.3247

> <Gold.Chemscore.Metal.Weighted>
-0.0000

> <Gold.Chemscore.Lipo.Weighted>
-10.9035

> <Gold.Chemscore.Internal_Hbond.Weighted>
0.0000

> <Gold.Chemscore.DEClash.Weighted>
0.1290

> <Gold.Chemscore.DEInternal.Weighted>
0.6226

> <Gold.Chemscore.Rot.Weighted>
4.5827

> <Gold.Chemscore.Internal.Correction.Weighted>
   9.000000E+99

> <Gold.Protein.RotatedTorsions>
[ 6907 6896 6895 6894 ] final  -32.70 input  -60.11 | X-H torsion
[ 7974 7965 7964 7962 ] final  -69.76 input  175.53 | X-H torsion
[ 8008 7997 7996 7995 ] final  101.55 input   59.86 | X-H torsion
[ 10167 10162 10161 10158 ] final   22.18 input  -65.29 | X-H torsion
[ 10718 10713 10712 10709 ] final   20.89 input   66.30 | X-H torsion
[ 10763 10752 10751 10750 ] final   68.76 input  -60.55 | X-H torsion
[ 11005 11000 10999 10996 ] final -173.53 input  -57.11 | X-H torsion

> <Gold.Protein.ActiveResidues>
 VAL166  LYS551  ARG553  GLY616  TRP617  ASP618  TYR619  PRO620  LYS621  CYS622 
 ASP623  PHE694  ASN695  SER759  ASP760  ASP761  ALA762  ILE779  LEU786  VAL792 
 PHE793  MET794  SER795  GLU796  ALA797  LYS798  CYS799  TRP800  GLU811  SER814 

> <Gold.Protein.RotatedAtoms>
  151.0753  134.9824  159.8328 H   0  0  0  0  0  0  0  0  0  0  0  0  # atno 6907 bound_to 6896
  152.5413  134.2248  159.8812 H   0  0  0  0  0  0  0  0  0  0  0  0  # atno 6908 bound_to 6896
  151.2275  133.4425  159.2636 H   0  0  0  0  0  0  0  0  0  0  0  0  # atno 6909 bound_to 6896
  145.6996  140.9121  143.0738 H   0  0  0  0  0  0  0  0  0  0  0  0  # atno 7974 bound_to 7965
  156.1309  140.3196  155.8348 H   0  0  0  0  0  0  0  0  0  0  0  0  # atno 8008 bound_to 7997
  155.4333  140.0520  157.3034 H   0  0  0  0  0  0  0  0  0  0  0  0  # atno 8009 bound_to 7997
  154.4899  140.2088  155.9585 H   0  0  0  0  0  0  0  0  0  0  0  0  # atno 8010 bound_to 7997
  140.5369  143.9745  150.6496 H   0  0  0  0  0  0  0  0  0  0  0  0  # atno 10167 bound_to 10162
  157.1308  130.6590  149.5951 H   0  0  0  0  0  0  0  0  0  0  0  0  # atno 10718 bound_to 10713
  153.0251  135.5236  154.7183 H   0  0  0  0  0  0  0  0  0  0  0  0  # atno 10763 bound_to 10752
  154.6246  135.2893  155.0289 H   0  0  0  0  0  0  0  0  0  0  0  0  # atno 10764 bound_to 10752
  154.1263  135.6600  153.4965 H   0  0  0  0  0  0  0  0  0  0  0  0  # atno 10765 bound_to 10752
  140.4847  134.6042  157.4932 H   0  0  0  0  0  0  0  0  0  0  0  0  # atno 11005 bound_to 11000
  144.6972  139.8930  143.7454 LP  0  0  0  0  0  0  0  0  0  0  0  0  # atno 17320 bound_to 7965
  146.0809  139.3797  143.0465 LP  0  0  0  0  0  0  0  0  0  0  0  0  # atno 17321 bound_to 7965
  140.3135  143.3183  152.0855 LP  0  0  0  0  0  0  0  0  0  0  0  0  # atno 17342 bound_to 10162
  139.4974  144.6621  151.6442 LP  0  0  0  0  0  0  0  0  0  0  0  0  # atno 17343 bound_to 10162
  155.9808  130.4812  150.6794 LP  0  0  0  0  0  0  0  0  0  0  0  0  # atno 17370 bound_to 10713
  157.4394  131.0859  151.0959 LP  0  0  0  0  0  0  0  0  0  0  0  0  # atno 17371 bound_to 10713
  139.9805  134.7145  155.9868 LP  0  0  0  0  0  0  0  0  0  0  0  0  # atno 17394 bound_to 11000
  141.1514  133.6548  156.4025 LP  0  0  0  0  0  0  0  0  0  0  0  0  # atno 17395 bound_to 11000

$$$$
