AV-unprocessed.smi:3062|AV-procd|sdf|11683|dock7
  -GOLD-   2272017 93D 1   1.00000     0.00000
 Structure written by MMmdl.
 39 40  0  0  0  0  0  0  0  0  1 V2000
  150.2294  136.0373  159.8319 C   0  0  0  0  0  0  0  0  0  0  0  0
  150.4508  135.9435  158.3463 C   0  0  0  0  0  0  0  0  0  0  0  0
  151.2253  136.8327  157.8172 N   0  0  0  0  0  0  0  0  0  0  0  0
  151.4954  136.8373  156.4634 N   0  0  0  0  0  0  0  0  0  0  0  0
  152.3983  137.9144  156.0411 C   0  0  0  0  0  0  0  0  0  0  0  0
  151.7125  138.8997  155.0700 C   0  0  2  0  0  0  0  0  0  0  0  0
  152.6784  139.6734  154.3869 O   0  0  0  0  0  0  0  0  0  0  0  0
  150.7463  139.8641  155.7771 C   0  0  0  0  0  0  0  0  0  0  0  0
  151.4744  140.7744  156.5929 O   0  0  0  0  0  0  0  0  0  0  0  0
  150.7278  141.3016  157.6813 C   0  0  0  0  0  0  0  0  0  0  0  0
  151.5741  142.2992  158.4111 C   0  0  0  0  0  0  0  0  0  0  0  0
  152.4447  142.0513  159.4417 C   0  0  0  0  0  0  0  0  0  0  0  0
  153.0879  143.2267  159.9302 C   0  0  0  0  0  0  0  0  0  0  0  0
  152.6943  144.3605  159.2709 C   0  0  0  0  0  0  0  0  0  0  0  0
  151.5173  144.0062  158.0365 S   0  0  0  0  0  0  0  0  0  0  0  0
  150.9975  135.9367  155.5684 C   0  0  0  0  0  0  0  0  0  0  0  0
  151.2739  135.9728  154.3684 O   0  0  0  0  0  0  0  0  0  0  0  0
  150.1185  134.9332  156.1735 C   0  0  0  0  0  0  0  0  0  0  0  0
  149.5729  133.9710  155.2714 C   0  0  0  0  0  0  0  0  0  0  0  0
  149.1498  133.1844  154.5348 N   0  0  0  0  0  0  0  0  0  0  0  0
  149.8441  134.9193  157.5020 C   0  0  0  0  0  0  0  0  0  0  0  0
  148.9405  133.8988  158.1805 C   0  0  0  0  0  0  0  0  0  0  0  0
  150.5156  135.1091  160.3270 H   0  0  0  0  0  0  0  0  0  0  0  0
  149.1797  136.2307  160.0545 H   0  0  0  0  0  0  0  0  0  0  0  0
  150.8150  136.8417  160.2802 H   0  0  0  0  0  0  0  0  0  0  0  0
  152.7405  138.4525  156.9272 H   0  0  0  0  0  0  0  0  0  0  0  0
  153.3073  137.5081  155.5929 H   0  0  0  0  0  0  0  0  0  0  0  0
  151.1440  138.3533  154.3169 H   0  0  0  0  0  0  0  0  0  0  0  0
  152.2747  140.4832  154.1147 H   0  0  0  0  0  0  0  0  0  0  0  0
  150.1315  140.4012  155.0529 H   0  0  0  0  0  0  0  0  0  0  0  0
  150.0664  139.2801  156.3992 H   0  0  0  0  0  0  0  0  0  0  0  0
  149.8442  141.8003  157.2832 H   0  0  0  0  0  0  0  0  0  0  0  0
  150.3773  140.5096  158.3450 H   0  0  0  0  0  0  0  0  0  0  0  0
  152.6420  141.0742  159.8573 H   0  0  0  0  0  0  0  0  0  0  0  0
  153.8048  143.1998  160.7375 H   0  0  0  0  0  0  0  0  0  0  0  0
  153.0183  145.3774  159.4370 H   0  0  0  0  0  0  0  0  0  0  0  0
  148.5077  133.1937  157.4715 H   0  0  0  0  0  0  0  0  0  0  0  0
  148.1154  134.3961  158.6914 H   0  0  0  0  0  0  0  0  0  0  0  0
  149.5022  133.3215  158.9155 H   0  0  0  0  0  0  0  0  0  0  0  0
  1  2  1  0  0  0  0
  1 23  1  0  0  0  0
  1 24  1  0  0  0  0
  1 25  1  0  0  0  0
  2 21  1  0  0  0  0
  2  3  2  0  0  0  0
  3  4  1  0  0  0  0
  4  5  1  0  0  0  0
  4 16  1  0  0  0  0
  5  6  1  0  0  0  0
  5 26  1  0  0  0  0
  5 27  1  0  0  0  0
  6  7  1  0  0  0  0
  6  8  1  0  0  0  0
  6 28  1  0  0  0  0
  7 29  1  0  0  0  0
  8  9  1  0  0  0  0
  8 30  1  0  0  0  0
  8 31  1  0  0  0  0
  9 10  1  0  0  0  0
 10 11  1  0  0  0  0
 10 32  1  0  0  0  0
 10 33  1  0  0  0  0
 11 15  1  0  0  0  0
 11 12  2  0  0  0  0
 12 13  1  0  0  0  0
 12 34  1  0  0  0  0
 13 14  2  0  0  0  0
 13 35  1  0  0  0  0
 14 15  1  0  0  0  0
 14 36  1  0  0  0  0
 16 17  2  0  0  0  0
 16 18  1  0  0  0  0
 18 19  1  0  0  0  0
 18 21  2  0  0  0  0
 19 20  3  0  0  0  0
 21 22  1  0  0  0  0
 22 37  1  0  0  0  0
 22 38  1  0  0  0  0
 22 39  1  0  0  0  0
M  END
> <s_m_source_file>
AV-unprocessed.smi

> <i_m_source_file_index>
3062

> <i_lp_mmshare_version>
43012

> <i_f3d_flags>
0

> <s_epik_input>
TiNDYyhjMVtDSDNdKWMoPU8pbihuYzFbQ0gzXSlbQ0gyXVtDQEhdKFtPSF0pW0NIMl1PW0NIMl1jMltjSF1bY0hdW2NIXXMy

> <s_epik_cmdline>
J2VwaWtfcHl0aG9uJywgJy1waCcsICc3LjAnLCAnLXRuJywgJzgnLCAnLW1hJywgJzIwMCcsICctbWV0YWxfYmluZGluZycsICctaW1hZScsICc8aW5maWxlLm1hZT4nLCAnLW9tYWUnLCAnPG91dGZpbGUubWFlPic=

> <r_lp_tautomer_probability>
1

> <r_epik_Ionization_Penalty>
6.86395e-08

> <r_epik_Ionization_Penalty_Charging>
2.24757e-10

> <r_epik_Ionization_Penalty_Neutral>
6.84147e-08

> <r_epik_State_Penalty>
-0

> <r_epik_Charging_Adjusted_Penalty>
2.24757e-10

> <i_epik_Tot_Q>
0

> <i_epik_Tot_abs_Q>
0

> <r_epik_Metal_State_Penalty>
-0

> <b_epik_Metal_Only>
0

> <s_lp_Force_Field>
OPLS_2005

> <r_lp_Energy>
26.0533

> <b_lp_Chiralities_Consistent>
1

> <s_lp_Variant>
AV-unprocessed.smi:3062-1

> <Gold.Version>
5.8.1

> <Gold.Id.Protein>
6NUR|6NUR_protein|mol2

> <Gold.PLP.Fitness>
43.3341

> <Gold.PLP.PLP>
-38.6344

> <Gold.PLP.part.hbond>
-3.0000

> <Gold.PLP.part.metal>
0.0000

> <Gold.PLP.part.buried>
-5.0870

> <Gold.PLP.part.nonpolar>
-31.5441

> <Gold.PLP.part.repulsive>
0.3784

> <Gold.PLP.ligand.clash>
0.0000

> <Gold.PLP.ligand.torsion>
0.6865

> <Gold.PLP.Chemscore.Hbond>
2.0000

> <Gold.PLP.Chemscore.CHOScore>
0.0000

> <Gold.PLP.Chemscore.Metal>
0.0000

> <Gold.Chemscore.Hbonds>
donor molecule, donor type, donor heavy atom, donor atom, acceptor molecule, acceptor atom, score
      P1  H  7997  8010       L1     7  0.15
      P1  H 10752 10764       L1    17  0.95

> <Gold.PLP.Chemscore.Internal.Correction>
0.0727

> <Gold.Rescore>
     Score         DG    S(hbond)    S(metal)    S(lipo)     H(rot)  DE(clash)    DE(int)     intcor
     15.04     -16.87       1.86        0.00      99.30       2.51       0.09       1.75       ----

> <Gold.Chemscore.Fitness>
15.0397

> <Gold.Chemscore.DG>
-16.8743

> <Gold.Chemscore.ZeroCoef>
-5.4800

> <Gold.Chemscore.Hbond>
1.8582

> <Gold.Chemscore.Metal>
0.0000

> <Gold.Chemscore.Lipo>
99.3032

> <Gold.Chemscore.Internal_Hbond>
0.0000

> <Gold.Chemscore.DEClash>
0.0879

> <Gold.Chemscore.DEInternal>
1.7466

> <Gold.Chemscore.Rot>
2.5119

> <Gold.Chemscore.Internal.Correction>
   9.000000E+99

> <Gold.Chemscore.Hbonds>
donor molecule, donor type, donor heavy atom, donor atom, acceptor molecule, acceptor atom, score
      P1  H  7997  8010       L1     7  0.08
      P1  H 10752 10764       L1    17  0.22

> <Gold.Chemscore.Hbond.Weighted>
-6.2063

> <Gold.Chemscore.Metal.Weighted>
-0.0000

> <Gold.Chemscore.Lipo.Weighted>
-11.6185

> <Gold.Chemscore.Internal_Hbond.Weighted>
0.0000

> <Gold.Chemscore.DEClash.Weighted>
0.0879

> <Gold.Chemscore.DEInternal.Weighted>
1.7466

> <Gold.Chemscore.Rot.Weighted>
6.4305

> <Gold.Chemscore.Internal.Correction.Weighted>
   9.000000E+99

> <Gold.Protein.RotatedTorsions>
[ 6907 6896 6895 6894 ] final -111.57 input  -60.11 | X-H torsion
[ 7974 7965 7964 7962 ] final  -35.70 input  175.53 | X-H torsion
[ 8008 7997 7996 7995 ] final  108.08 input   59.86 | X-H torsion
[ 10167 10162 10161 10158 ] final  156.21 input  -65.29 | X-H torsion
[ 10718 10713 10712 10709 ] final  145.74 input   66.30 | X-H torsion
[ 10763 10752 10751 10750 ] final  -65.48 input  -60.55 | X-H torsion
[ 11005 11000 10999 10996 ] final  -97.38 input  -57.11 | X-H torsion

> <Gold.Protein.ActiveResidues>
 VAL166  LYS551  ARG553  GLY616  TRP617  ASP618  TYR619  PRO620  LYS621  CYS622 
 ASP623  PHE694  ASN695  SER759  ASP760  ASP761  ALA762  ILE779  LEU786  VAL792 
 PHE793  MET794  SER795  GLU796  ALA797  LYS798  CYS799  TRP800  GLU811  SER814 

> <Gold.Protein.RotatedAtoms>
  150.7699  133.9215  159.3399 H   0  0  0  0  0  0  0  0  0  0  0  0  # atno 6907 bound_to 6896
  151.7104  135.0912  160.0276 H   0  0  0  0  0  0  0  0  0  0  0  0  # atno 6908 bound_to 6896
  152.3712  133.6384  159.6124 H   0  0  0  0  0  0  0  0  0  0  0  0  # atno 6909 bound_to 6896
  146.0724  140.6190  142.8946 H   0  0  0  0  0  0  0  0  0  0  0  0  # atno 7974 bound_to 7965
  156.1875  140.3083  155.9266 H   0  0  0  0  0  0  0  0  0  0  0  0  # atno 8008 bound_to 7997
  155.3249  140.0457  157.3057 H   0  0  0  0  0  0  0  0  0  0  0  0  # atno 8009 bound_to 7997
  154.5412  140.2262  155.8647 H   0  0  0  0  0  0  0  0  0  0  0  0  # atno 8010 bound_to 7997
  139.4821  144.5029  151.8141 H   0  0  0  0  0  0  0  0  0  0  0  0  # atno 10167 bound_to 10162
  157.3416  131.0936  151.1077 H   0  0  0  0  0  0  0  0  0  0  0  0  # atno 10718 bound_to 10713
  154.3457  135.6147  153.5618 H   0  0  0  0  0  0  0  0  0  0  0  0  # atno 10763 bound_to 10752
  152.9801  135.5780  154.4801 H   0  0  0  0  0  0  0  0  0  0  0  0  # atno 10764 bound_to 10752
  154.4513  135.2853  155.1756 H   0  0  0  0  0  0  0  0  0  0  0  0  # atno 10765 bound_to 10752
  141.1381  133.8167  157.0698 H   0  0  0  0  0  0  0  0  0  0  0  0  # atno 11005 bound_to 11000
  144.7240  140.4466  143.6987 LP  0  0  0  0  0  0  0  0  0  0  0  0  # atno 17320 bound_to 7965
  145.6367  139.1544  143.2939 LP  0  0  0  0  0  0  0  0  0  0  0  0  # atno 17321 bound_to 7965
  140.4524  144.1836  150.5898 LP  0  0  0  0  0  0  0  0  0  0  0  0  # atno 17342 bound_to 10162
  140.4571  143.2463  151.9270 LP  0  0  0  0  0  0  0  0  0  0  0  0  # atno 17343 bound_to 10162
  157.2287  130.6515  149.5841 LP  0  0  0  0  0  0  0  0  0  0  0  0  # atno 17370 bound_to 10713
  155.9708  130.4605  150.6077 LP  0  0  0  0  0  0  0  0  0  0  0  0  # atno 17371 bound_to 10713
  140.0518  134.9801  157.1150 LP  0  0  0  0  0  0  0  0  0  0  0  0  # atno 17394 bound_to 11000
  140.3978  134.2115  155.7164 LP  0  0  0  0  0  0  0  0  0  0  0  0  # atno 17395 bound_to 11000

$$$$
