AV-unprocessed.smi:2954|AV-procd|sdf|11297|dock8
  -GOLD-   2272016193D 1   1.00000     0.00000
 Structure written by MMmdl.
 42 44  0  0  0  0  0  0  0  0  1 V2000
  151.4627  135.4410  156.6462 C   0  0  0  0  0  0  0  0  0  0  0  0
  150.2718  135.0080  155.7708 C   0  0  2  0  0  0  0  0  0  0  0  0
  148.9756  135.4680  156.2747 N   0  0  0  0  0  0  0  0  0  0  0  0
  148.4652  135.2480  157.4949 C   0  0  0  0  0  0  0  0  0  0  0  0
  149.0563  134.6121  158.3639 O   0  0  0  0  0  0  0  0  0  0  0  0
  150.2298  133.5170  155.5301 C   0  0  0  0  0  0  0  0  0  0  0  0
  151.0294  132.6708  156.1854 N   0  0  0  0  0  0  0  0  0  0  0  0
  150.6821  131.4431  155.6605 C   0  0  0  0  0  0  0  0  0  0  0  0
  151.1812  130.1508  155.9398 C   0  0  0  0  0  0  0  0  0  0  0  0
  150.6705  129.0263  155.2592 C   0  0  0  0  0  0  0  0  0  0  0  0
  149.6556  129.1779  154.2926 C   0  0  0  0  0  0  0  0  0  0  0  0
  149.1424  130.4566  154.0026 C   0  0  0  0  0  0  0  0  0  0  0  0
  149.6549  131.5763  154.6858 C   0  0  0  0  0  0  0  0  0  0  0  0
  149.3812  132.9405  154.6374 N   0  0  0  0  0  0  0  0  0  0  0  0
  148.3944  133.5760  153.7739 C   0  0  0  0  0  0  0  0  0  0  0  0
  147.0247  132.8899  153.8729 C   0  0  0  0  0  0  0  0  0  0  0  0
  146.0648  133.6992  153.2075 O   0  0  0  0  0  0  0  0  0  0  0  0
  145.5670  133.2746  151.9948 C   0  0  0  0  0  0  0  0  0  0  0  0
  145.9686  132.0766  151.3512 C   0  0  0  0  0  0  0  0  0  0  0  0
  145.4110  131.7120  150.1103 C   0  0  0  0  0  0  0  0  0  0  0  0
  144.4498  132.5366  149.4977 C   0  0  0  0  0  0  0  0  0  0  0  0
  144.0464  133.7282  150.1275 C   0  0  0  0  0  0  0  0  0  0  0  0
  144.6019  134.0949  151.3691 C   0  0  0  0  0  0  0  0  0  0  0  0
  144.0856  135.5591  152.1275 Cl  0  0  0  0  0  0  0  0  0  0  0  0
  152.4067  135.1720  156.1713 H   0  0  0  0  0  0  0  0  0  0  0  0
  151.4458  134.9655  157.6274 H   0  0  0  0  0  0  0  0  0  0  0  0
  151.4671  136.5207  156.7979 H   0  0  0  0  0  0  0  0  0  0  0  0
  150.3974  135.5246  154.8222 H   0  0  0  0  0  0  0  0  0  0  0  0
  148.4149  136.0089  155.6328 H   0  0  0  0  0  0  0  0  0  0  0  0
  147.4713  135.7042  157.6178 H   0  0  0  0  0  0  0  0  0  0  0  0
  151.9608  130.0253  156.6765 H   0  0  0  0  0  0  0  0  0  0  0  0
  151.0609  128.0434  155.4785 H   0  0  0  0  0  0  0  0  0  0  0  0
  149.2719  128.3121  153.7729 H   0  0  0  0  0  0  0  0  0  0  0  0
  148.3689  130.5743  153.2584 H   0  0  0  0  0  0  0  0  0  0  0  0
  148.3002  134.6223  154.0662 H   0  0  0  0  0  0  0  0  0  0  0  0
  148.7581  133.5890  152.7468 H   0  0  0  0  0  0  0  0  0  0  0  0
  147.0727  131.9018  153.4130 H   0  0  0  0  0  0  0  0  0  0  0  0
  146.7507  132.7628  154.9212 H   0  0  0  0  0  0  0  0  0  0  0  0
  146.7054  131.4202  151.7885 H   0  0  0  0  0  0  0  0  0  0  0  0
  145.7224  130.7974  149.6279 H   0  0  0  0  0  0  0  0  0  0  0  0
  144.0227  132.2559  148.5462 H   0  0  0  0  0  0  0  0  0  0  0  0
  143.3083  134.3615  149.6575 H   0  0  0  0  0  0  0  0  0  0  0  0
  1  2  1  0  0  0  0
  1 25  1  0  0  0  0
  1 26  1  0  0  0  0
  1 27  1  0  0  0  0
  2  3  1  0  0  0  0
  2  6  1  0  0  0  0
  2 28  1  0  0  0  0
  3  4  1  0  0  0  0
  3 29  1  0  0  0  0
  4  5  2  0  0  0  0
  4 30  1  0  0  0  0
  6 14  1  0  0  0  0
  6  7  2  0  0  0  0
  7  8  1  0  0  0  0
  8 13  2  0  0  0  0
  8  9  1  0  0  0  0
  9 10  2  0  0  0  0
  9 31  1  0  0  0  0
 10 11  1  0  0  0  0
 10 32  1  0  0  0  0
 11 12  2  0  0  0  0
 11 33  1  0  0  0  0
 12 13  1  0  0  0  0
 12 34  1  0  0  0  0
 13 14  1  0  0  0  0
 14 15  1  0  0  0  0
 15 16  1  0  0  0  0
 15 35  1  0  0  0  0
 15 36  1  0  0  0  0
 16 17  1  0  0  0  0
 16 37  1  0  0  0  0
 16 38  1  0  0  0  0
 17 18  1  0  0  0  0
 18 23  1  0  0  0  0
 18 19  2  0  0  0  0
 19 20  1  0  0  0  0
 19 39  1  0  0  0  0
 20 21  2  0  0  0  0
 20 40  1  0  0  0  0
 21 22  1  0  0  0  0
 21 41  1  0  0  0  0
 22 23  2  0  0  0  0
 22 42  1  0  0  0  0
 23 24  1  0  0  0  0
M  END
> <s_m_source_file>
AV-unprocessed.smi

> <i_m_source_file_index>
2954

> <i_lp_mmshare_version>
43012

> <i_f3d_flags>
0

> <s_epik_input>
Tz1bQ0hdW05IXVtDQEBIXShbQ0gzXSljKG4xKW4oYyhjMTIpW2NIXVtjSF1bY0hdW2NIXTIpW0NIMl1bQ0gyXU9jM1tjSF1bY0hdW2NIXVtjSF1jM0Ns

> <s_epik_cmdline>
J2VwaWtfcHl0aG9uJywgJy1waCcsICc3LjAnLCAnLXRuJywgJzgnLCAnLW1hJywgJzIwMCcsICctbWV0YWxfYmluZGluZycsICctaW1hZScsICc8aW5maWxlLm1hZT4nLCAnLW9tYWUnLCAnPG91dGZpbGUubWFlPic=

> <r_lp_tautomer_probability>
1

> <r_epik_Ionization_Penalty>
0.0861383

> <r_epik_Ionization_Penalty_Charging>
0

> <r_epik_Ionization_Penalty_Neutral>
0.0861383

> <r_epik_State_Penalty>
0.0766841

> <r_epik_Charging_Adjusted_Penalty>
0.0766841

> <i_epik_Tot_Q>
0

> <i_epik_Tot_abs_Q>
0

> <r_epik_Metal_State_Penalty>
0.0668745

> <b_epik_Metal_Only>
0

> <s_lp_Force_Field>
OPLS_2005

> <r_lp_Energy>
13.8103

> <b_lp_Chiralities_Consistent>
1

> <s_lp_Variant>
AV-unprocessed.smi:2954-1

> <Gold.Version>
5.8.1

> <Gold.Id.Protein>
6NUR|6NUR_protein|mol2

> <Gold.PLP.Fitness>
42.3108

> <Gold.PLP.PLP>
-40.4607

> <Gold.PLP.part.hbond>
-1.0000

> <Gold.PLP.part.metal>
0.0000

> <Gold.PLP.part.buried>
-5.0651

> <Gold.PLP.part.nonpolar>
-34.8475

> <Gold.PLP.part.repulsive>
0.1077

> <Gold.PLP.ligand.clash>
0.0000

> <Gold.PLP.ligand.torsion>
0.6262

> <Gold.PLP.Chemscore.Hbond>
1.0000

> <Gold.PLP.Chemscore.CHOScore>
0.0000

> <Gold.PLP.Chemscore.Metal>
0.0000

> <Gold.Chemscore.Hbonds>
donor molecule, donor type, donor heavy atom, donor atom, acceptor molecule, acceptor atom, score
      P1  H  6896  6908       L1     5  1.00

> <Gold.PLP.Chemscore.Internal.Correction>
0.1026

> <Gold.Rescore>
     Score         DG    S(hbond)    S(metal)    S(lipo)     H(rot)  DE(clash)    DE(int)     intcor
     14.47     -15.07       0.98        0.00     103.91       2.28       0.00       0.60       ----

> <Gold.Chemscore.Fitness>
14.4740

> <Gold.Chemscore.DG>
-15.0706

> <Gold.Chemscore.ZeroCoef>
-5.4800

> <Gold.Chemscore.Hbond>
0.9827

> <Gold.Chemscore.Metal>
0.0000

> <Gold.Chemscore.Lipo>
103.9120

> <Gold.Chemscore.Internal_Hbond>
0.0000

> <Gold.Chemscore.DEClash>
0.0008

> <Gold.Chemscore.DEInternal>
0.5957

> <Gold.Chemscore.Rot>
2.2849

> <Gold.Chemscore.Internal.Correction>
   9.000000E+99

> <Gold.Chemscore.Hbonds>
donor molecule, donor type, donor heavy atom, donor atom, acceptor molecule, acceptor atom, score
      P1  H  6896  6908       L1     5  1.00

> <Gold.Chemscore.Hbond.Weighted>
-3.2823

> <Gold.Chemscore.Metal.Weighted>
-0.0000

> <Gold.Chemscore.Lipo.Weighted>
-12.1577

> <Gold.Chemscore.Internal_Hbond.Weighted>
0.0000

> <Gold.Chemscore.DEClash.Weighted>
0.0008

> <Gold.Chemscore.DEInternal.Weighted>
0.5957

> <Gold.Chemscore.Rot.Weighted>
5.8495

> <Gold.Chemscore.Internal.Correction.Weighted>
   9.000000E+99

> <Gold.Protein.RotatedTorsions>
[ 6907 6896 6895 6894 ] final  152.57 input  -60.11 | X-H torsion
[ 7974 7965 7964 7962 ] final  -12.23 input  175.53 | X-H torsion
[ 8008 7997 7996 7995 ] final   51.60 input   59.86 | X-H torsion
[ 10167 10162 10161 10158 ] final -131.20 input  -65.29 | X-H torsion
[ 10718 10713 10712 10709 ] final  119.92 input   66.30 | X-H torsion
[ 10763 10752 10751 10750 ] final   87.13 input  -60.55 | X-H torsion
[ 11005 11000 10999 10996 ] final  -21.14 input  -57.11 | X-H torsion

> <Gold.Protein.ActiveResidues>
 VAL166  LYS551  ARG553  GLY616  TRP617  ASP618  TYR619  PRO620  LYS621  CYS622 
 ASP623  PHE694  ASN695  SER759  ASP760  ASP761  ALA762  ILE779  LEU786  VAL792 
 PHE793  MET794  SER795  GLU796  ALA797  LYS798  CYS799  TRP800  GLU811  SER814 

> <Gold.Protein.RotatedAtoms>
  152.0849  133.4171  159.4517 H   0  0  0  0  0  0  0  0  0  0  0  0  # atno 6907 bound_to 6896
  150.6862  134.2939  159.4687 H   0  0  0  0  0  0  0  0  0  0  0  0  # atno 6908 bound_to 6896
  152.0785  134.9486  160.0624 H   0  0  0  0  0  0  0  0  0  0  0  0  # atno 6909 bound_to 6896
  146.2159  140.3027  142.8376 H   0  0  0  0  0  0  0  0  0  0  0  0  # atno 7974 bound_to 7965
  155.4379  140.3453  155.4287 H   0  0  0  0  0  0  0  0  0  0  0  0  # atno 8008 bound_to 7997
  156.1296  140.1510  156.9115 H   0  0  0  0  0  0  0  0  0  0  0  0  # atno 8009 bound_to 7997
  154.4885  140.0848  156.7520 H   0  0  0  0  0  0  0  0  0  0  0  0  # atno 8010 bound_to 7997
  139.9213  143.6378  152.2553 H   0  0  0  0  0  0  0  0  0  0  0  0  # atno 10167 bound_to 10162
  157.5927  131.1062  150.7964 H   0  0  0  0  0  0  0  0  0  0  0  0  # atno 10718 bound_to 10713
  153.1638  135.4555  154.9809 H   0  0  0  0  0  0  0  0  0  0  0  0  # atno 10763 bound_to 10752
  154.7917  135.3223  154.7765 H   0  0  0  0  0  0  0  0  0  0  0  0  # atno 10764 bound_to 10752
  153.8250  135.6943  153.4876 H   0  0  0  0  0  0  0  0  0  0  0  0  # atno 10765 bound_to 10752
  140.8532  133.7841  155.9989 H   0  0  0  0  0  0  0  0  0  0  0  0  # atno 11005 bound_to 11000
  144.9045  140.7683  143.5846 LP  0  0  0  0  0  0  0  0  0  0  0  0  # atno 17320 bound_to 7965
  145.2954  139.1869  143.4718 LP  0  0  0  0  0  0  0  0  0  0  0  0  # atno 17321 bound_to 7965
  139.6859  144.7651  151.1525 LP  0  0  0  0  0  0  0  0  0  0  0  0  # atno 17342 bound_to 10162
  140.7661  143.5658  150.9049 LP  0  0  0  0  0  0  0  0  0  0  0  0  # atno 17343 bound_to 10162
  156.8382  130.5039  149.5324 LP  0  0  0  0  0  0  0  0  0  0  0  0  # atno 17370 bound_to 10713
  156.0985  130.5950  150.9854 LP  0  0  0  0  0  0  0  0  0  0  0  0  # atno 17371 bound_to 10713
  140.8767  134.2661  157.5164 LP  0  0  0  0  0  0  0  0  0  0  0  0  # atno 17394 bound_to 11000
  139.8704  134.9594  156.4332 LP  0  0  0  0  0  0  0  0  0  0  0  0  # atno 17395 bound_to 11000

$$$$
