AV-unprocessed.smi:290|AV-procd|sdf|2236|dock2
  -GOLD-   2262022103D 1   1.00000     0.00000
 Structure written by MMmdl.
 59 62  0  0  0  0  0  0  0  0  2 V2000
  153.0577  144.6927  157.8292 C   0  0  0  0  0  0  0  0  0  0  0  0
  151.9742  143.9488  158.6250 C   0  0  1  0  0  0  0  0  0  0  0  0
  150.9182  144.8279  159.0086 O   0  0  0  0  0  0  0  0  0  0  0  0
  149.6535  144.2177  158.7790 C   0  0  0  0  0  0  0  0  0  0  0  0
  149.9467  142.7314  158.6013 C   0  0  0  0  0  0  0  0  0  0  0  0
  151.3109  142.7412  157.9251 C   0  0  1  0  0  0  0  0  0  0  0  0
  151.1273  143.0103  156.5450 O   0  0  0  0  0  0  0  0  0  0  0  0
  152.0941  141.4043  157.9999 C   0  0  0  0  0  0  0  0  0  0  0  0
  151.3517  140.2311  157.5652 N   0  0  0  0  0  0  0  0  0  0  0  0
  150.1459  139.7860  158.0592 C   0  0  0  0  0  0  0  0  0  0  0  0
  149.6790  138.7040  157.4986 N   0  0  0  0  0  0  0  0  0  0  0  0
  150.6278  138.3865  156.5344 C   0  0  0  0  0  0  0  0  0  0  0  0
  150.7599  137.3472  155.5710 C   0  0  0  0  0  0  0  0  0  0  0  0
  149.8739  136.3447  155.3886 N   0  0  0  0  0  0  0  0  0  0  0  0
  150.4076  134.9911  155.5027 C   0  0  0  0  0  0  0  0  0  0  0  0
  149.3345  134.1690  156.2186 C   0  0  0  0  0  0  0  0  0  0  0  0
  148.6279  135.2192  157.0820 C   0  0  2  0  0  0  0  0  0  0  0  0
  147.2901  134.8287  157.6183 N   0  3  1  0  0  0  0  0  0  0  0  0
  147.3347  133.5752  158.4141 C   0  0  0  0  0  0  0  0  0  0  0  0
  146.6349  135.9398  158.3631 C   0  0  0  0  0  0  0  0  0  0  0  0
  147.5384  136.5671  159.4415 C   0  0  0  0  0  0  0  0  0  0  0  0
  146.8757  137.6404  160.0750 O   0  0  0  0  0  0  0  0  0  0  0  0
  148.6287  136.4492  156.1448 C   0  0  2  0  0  0  0  0  0  0  0  0
  147.4426  136.5066  155.1637 C   0  0  0  0  0  0  0  0  0  0  0  0
  151.8468  137.3617  154.7623 N   0  0  0  0  0  0  0  0  0  0  0  0
  152.7586  138.3311  154.8870 C   0  0  0  0  0  0  0  0  0  0  0  0
  152.7734  139.3588  155.7389 N   0  0  0  0  0  0  0  0  0  0  0  0
  151.6794  139.3448  156.5538 C   0  0  0  0  0  0  0  0  0  0  0  0
  149.2742  135.4274  157.9359 H   0  0  0  0  0  0  0  0  0  0  0  0
  148.6226  137.3636  156.7406 H   0  0  0  0  0  0  0  0  0  0  0  0
  153.8611  144.0170  157.5356 H   0  0  0  0  0  0  0  0  0  0  0  0
  153.4979  145.4891  158.4294 H   0  0  0  0  0  0  0  0  0  0  0  0
  152.6530  145.1501  156.9262 H   0  0  0  0  0  0  0  0  0  0  0  0
  152.4100  143.6231  159.5681 H   0  0  0  0  0  0  0  0  0  0  0  0
  148.9619  144.4132  159.5986 H   0  0  0  0  0  0  0  0  0  0  0  0
  149.2238  144.6344  157.8673 H   0  0  0  0  0  0  0  0  0  0  0  0
  150.0028  142.2721  159.5876 H   0  0  0  0  0  0  0  0  0  0  0  0
  149.1777  142.2079  158.0321 H   0  0  0  0  0  0  0  0  0  0  0  0
  150.4937  143.7053  156.4551 H   0  0  0  0  0  0  0  0  0  0  0  0
  152.9992  141.4700  157.3944 H   0  0  0  0  0  0  0  0  0  0  0  0
  152.4290  141.2284  159.0232 H   0  0  0  0  0  0  0  0  0  0  0  0
  149.6236  140.2897  158.8598 H   0  0  0  0  0  0  0  0  0  0  0  0
  150.6283  134.5805  154.5172 H   0  0  0  0  0  0  0  0  0  0  0  0
  151.3350  134.9819  156.0773 H   0  0  0  0  0  0  0  0  0  0  0  0
  148.6440  133.7445  155.4884 H   0  0  0  0  0  0  0  0  0  0  0  0
  149.7645  133.3507  156.7970 H   0  0  0  0  0  0  0  0  0  0  0  0
  148.0135  133.6769  159.2619 H   0  0  0  0  0  0  0  0  0  0  0  0
  147.6665  132.7315  157.8096 H   0  0  0  0  0  0  0  0  0  0  0  0
  146.3542  133.3022  158.7997 H   0  0  0  0  0  0  0  0  0  0  0  0
  146.3119  136.7041  157.6548 H   0  0  0  0  0  0  0  0  0  0  0  0
  145.7281  135.5867  158.8537 H   0  0  0  0  0  0  0  0  0  0  0  0
  147.8647  135.8447  160.1882 H   0  0  0  0  0  0  0  0  0  0  0  0
  148.4434  136.9579  158.9757 H   0  0  0  0  0  0  0  0  0  0  0  0
  146.0978  137.3083  160.4980 H   0  0  0  0  0  0  0  0  0  0  0  0
  146.4953  136.6376  155.6837 H   0  0  0  0  0  0  0  0  0  0  0  0
  147.3711  135.6023  154.5593 H   0  0  0  0  0  0  0  0  0  0  0  0
  147.5499  137.3496  154.4802 H   0  0  0  0  0  0  0  0  0  0  0  0
  153.5972  138.2750  154.2086 H   0  0  0  0  0  0  0  0  0  0  0  0
  146.7083  134.6424  156.8136 H   0  0  0  0  0  0  0  0  0  0  0  0
  1  2  1  0  0  0  0
  1 31  1  0  0  0  0
  1 32  1  0  0  0  0
  1 33  1  0  0  0  0
  2  6  1  0  0  0  0
  2  3  1  0  0  0  0
  2 34  1  0  0  0  0
  3  4  1  0  0  0  0
  4  5  1  0  0  0  0
  4 35  1  0  0  0  0
  4 36  1  0  0  0  0
  5  6  1  0  0  0  0
  5 37  1  0  0  0  0
  5 38  1  0  0  0  0
  6  7  1  0  0  0  0
  6  8  1  0  0  0  0
  7 39  1  0  0  0  0
  8  9  1  0  0  0  0
  8 40  1  0  0  0  0
  8 41  1  0  0  0  0
  9 28  1  0  0  0  0
  9 10  1  0  0  0  0
 10 11  2  0  0  0  0
 10 42  1  0  0  0  0
 11 12  1  0  0  0  0
 12 28  2  0  0  0  0
 12 13  1  0  0  0  0
 13 14  1  0  0  0  0
 13 25  2  0  0  0  0
 14 23  1  0  0  0  0
 14 15  1  0  0  0  0
 15 16  1  0  0  0  0
 15 43  1  0  0  0  0
 15 44  1  0  0  0  0
 16 17  1  0  0  0  0
 16 45  1  0  0  0  0
 16 46  1  0  0  0  0
 17 29  1  0  0  0  0
 17 18  1  0  0  0  0
 17 23  1  0  0  0  0
 18 19  1  0  0  0  0
 18 20  1  0  0  0  0
 18 59  1  0  0  0  0
 19 47  1  0  0  0  0
 19 48  1  0  0  0  0
 19 49  1  0  0  0  0
 20 21  1  0  0  0  0
 20 50  1  0  0  0  0
 20 51  1  0  0  0  0
 21 22  1  0  0  0  0
 21 52  1  0  0  0  0
 21 53  1  0  0  0  0
 22 54  1  0  0  0  0
 23 30  1  0  0  0  0
 23 24  1  0  0  0  0
 24 55  1  0  0  0  0
 24 56  1  0  0  0  0
 24 57  1  0  0  0  0
 25 26  1  0  0  0  0
 26 27  2  0  0  0  0
 26 58  1  0  0  0  0
 27 28  1  0  0  0  0
M  CHG  1  18   1
M  END
> <s_m_source_file>
AV-unprocessed.smi

> <i_m_source_file_index>
290

> <i_lp_mmshare_version>
43012

> <i_f3d_flags>
0

> <s_epik_input>
W0NIMl0xW0NIMl1PW0NAQEhdKFtDSDNdKVtDQEBdMShbT0hdKVtDSDJdbihbY0hdbjIpYyhjMjMpbltjSF1uYzNONFtDSDJdW0NIMl1bQ0BIXShbQ0BIXTRbQ0gzXSlOKFtDSDNdKVtDSDJdW0NIMl1bT0hd

> <s_epik_cmdline>
J2VwaWtfcHl0aG9uJywgJy1waCcsICc3LjAnLCAnLXRuJywgJzgnLCAnLW1hJywgJzIwMCcsICctbWV0YWxfYmluZGluZycsICctaW1hZScsICc8aW5maWxlLm1hZT4nLCAnLW9tYWUnLCAnPG91dGZpbGUubWFlPic=

> <r_lp_tautomer_probability>
1

> <r_epik_Ionization_Penalty>
0.0036983

> <r_epik_Ionization_Penalty_Charging>
0.0032725

> <r_epik_Ionization_Penalty_Neutral>
0.000425798

> <r_epik_State_Penalty>
-0

> <r_epik_Charging_Adjusted_Penalty>
0.0032725

> <i_epik_Tot_Q>
1

> <i_epik_Tot_abs_Q>
1

> <r_epik_Metal_State_Penalty>
-0

> <b_epik_Metal_Only>
0

> <s_lp_Force_Field>
OPLS_2005

> <r_lp_Energy>
67.6637

> <b_lp_Chiralities_Consistent>
1

> <s_lp_Variant>
AV-unprocessed.smi:290-22

> <Gold.Version>
5.8.1

> <Gold.Id.Protein>
6NUR|6NUR_protein|mol2

> <Gold.PLP.Fitness>
46.0126

> <Gold.PLP.PLP>
-35.2668

> <Gold.PLP.part.hbond>
-4.0000

> <Gold.PLP.part.metal>
0.0000

> <Gold.PLP.part.buried>
-6.0022

> <Gold.PLP.part.nonpolar>
-25.5722

> <Gold.PLP.part.repulsive>
0.4308

> <Gold.PLP.ligand.clash>
0.0000

> <Gold.PLP.ligand.torsion>
0.2405

> <Gold.PLP.Chemscore.Hbond>
3.6497

> <Gold.PLP.Chemscore.CHOScore>
0.0000

> <Gold.PLP.Chemscore.Metal>
0.0000

> <Gold.Chemscore.Hbonds>
donor molecule, donor type, donor heavy atom, donor atom, acceptor molecule, acceptor atom, score
      L1  H     7    39       P1  8028  0.96
      P1  H  6934  6947       L1    22  1.00
      P1  H  7997  8010       L1    27  1.00
      P1  H 10752 10764       L1    25  0.55

> <Gold.PLP.Chemscore.Internal.Correction>
0.2775

> <Gold.Rescore>
     Score         DG    S(hbond)    S(metal)    S(lipo)     H(rot)  DE(clash)    DE(int)     intcor
     13.36     -15.21       2.97        0.00      78.65       3.67       0.21       1.63       ----

> <Gold.Chemscore.Fitness>
13.3599

> <Gold.Chemscore.DG>
-15.2052

> <Gold.Chemscore.ZeroCoef>
-5.4800

> <Gold.Chemscore.Hbond>
2.9665

> <Gold.Chemscore.Metal>
0.0000

> <Gold.Chemscore.Lipo>
78.6457

> <Gold.Chemscore.Internal_Hbond>
0.0000

> <Gold.Chemscore.DEClash>
0.2114

> <Gold.Chemscore.DEInternal>
1.6339

> <Gold.Chemscore.Rot>
3.6658

> <Gold.Chemscore.Internal.Correction>
   9.000000E+99

> <Gold.Chemscore.Hbonds>
donor molecule, donor type, donor heavy atom, donor atom, acceptor molecule, acceptor atom, score
      L1  H     7    39       P1  8028  0.90
      P1  H  6934  6947       L1    22  0.39
      P1  H  7997  8010       L1    27  0.97
      P1  H 10752 10764       L1    25  0.22

> <Gold.Chemscore.Hbond.Weighted>
-9.9081

> <Gold.Chemscore.Metal.Weighted>
-0.0000

> <Gold.Chemscore.Lipo.Weighted>
-9.2015

> <Gold.Chemscore.Internal_Hbond.Weighted>
0.0000

> <Gold.Chemscore.DEClash.Weighted>
0.2114

> <Gold.Chemscore.DEInternal.Weighted>
1.6339

> <Gold.Chemscore.Rot.Weighted>
9.3844

> <Gold.Chemscore.Internal.Correction.Weighted>
   9.000000E+99

> <Gold.Protein.RotatedTorsions>
[ 6907 6896 6895 6894 ] final  -39.95 input  -60.11 | X-H torsion
[ 7974 7965 7964 7962 ] final  -44.46 input  175.53 | X-H torsion
[ 8008 7997 7996 7995 ] final   83.09 input   59.86 | X-H torsion
[ 10167 10162 10161 10158 ] final   80.41 input  -65.29 | X-H torsion
[ 10718 10713 10712 10709 ] final  140.47 input   66.30 | X-H torsion
[ 10763 10752 10751 10750 ] final  -91.74 input  -60.55 | X-H torsion
[ 11005 11000 10999 10996 ] final  -36.06 input  -57.11 | X-H torsion

> <Gold.Protein.ActiveResidues>
 VAL166  LYS551  ARG553  GLY616  TRP617  ASP618  TYR619  PRO620  LYS621  CYS622 
 ASP623  PHE694  ASN695  SER759  ASP760  ASP761  ALA762  ILE779  LEU786  VAL792 
 PHE793  MET794  SER795  GLU796  ALA797  LYS798  CYS799  TRP800  GLU811  SER814 

> <Gold.Protein.RotatedAtoms>
  150.9842  134.9191  159.7861 H   0  0  0  0  0  0  0  0  0  0  0  0  # atno 6907 bound_to 6896
  152.5231  134.3369  159.9213 H   0  0  0  0  0  0  0  0  0  0  0  0  # atno 6908 bound_to 6896
  151.3376  133.3934  159.2702 H   0  0  0  0  0  0  0  0  0  0  0  0  # atno 6909 bound_to 6896
  145.9919  140.7171  142.9313 H   0  0  0  0  0  0  0  0  0  0  0  0  # atno 7974 bound_to 7965
  155.9193  140.3422  155.6160 H   0  0  0  0  0  0  0  0  0  0  0  0  # atno 8008 bound_to 7997
  155.7293  140.0793  157.2315 H   0  0  0  0  0  0  0  0  0  0  0  0  # atno 8009 bound_to 7997
  154.4067  140.1591  156.2477 H   0  0  0  0  0  0  0  0  0  0  0  0  # atno 8010 bound_to 7997
  139.9500  144.6032  150.8170 H   0  0  0  0  0  0  0  0  0  0  0  0  # atno 10167 bound_to 10162
  157.4029  131.1019  151.0533 H   0  0  0  0  0  0  0  0  0  0  0  0  # atno 10718 bound_to 10713
  154.6791  135.5257  153.8239 H   0  0  0  0  0  0  0  0  0  0  0  0  # atno 10763 bound_to 10752
  153.0552  135.6548  154.0604 H   0  0  0  0  0  0  0  0  0  0  0  0  # atno 10764 bound_to 10752
  154.0494  135.2970  155.3322 H   0  0  0  0  0  0  0  0  0  0  0  0  # atno 10765 bound_to 10752
  140.9845  133.7038  156.1741 H   0  0  0  0  0  0  0  0  0  0  0  0  # atno 11005 bound_to 11000
  144.6891  140.3084  143.7252 LP  0  0  0  0  0  0  0  0  0  0  0  0  # atno 17320 bound_to 7965
  145.7618  139.1827  143.2263 LP  0  0  0  0  0  0  0  0  0  0  0  0  # atno 17321 bound_to 7965
  140.7585  143.3110  151.2846 LP  0  0  0  0  0  0  0  0  0  0  0  0  # atno 17342 bound_to 10162
  139.6636  144.0145  152.2708 LP  0  0  0  0  0  0  0  0  0  0  0  0  # atno 17343 bound_to 10162
  157.1526  130.6190  149.5587 LP  0  0  0  0  0  0  0  0  0  0  0  0  # atno 17370 bound_to 10713
  155.9828  130.4844  150.6901 LP  0  0  0  0  0  0  0  0  0  0  0  0  # atno 17371 bound_to 10713
  140.7135  134.4435  157.5580 LP  0  0  0  0  0  0  0  0  0  0  0  0  # atno 17394 bound_to 11000
  139.8964  134.8659  156.2087 LP  0  0  0  0  0  0  0  0  0  0  0  0  # atno 17395 bound_to 11000

$$$$
