AV-unprocessed.smi:518|AV-procd|sdf|2792|dock3
  -GOLD-   2262023263D 1   1.00000     0.00000
 Structure written by MMmdl.
 41 43  0  0  0  0  0  0  0  0  2 V2000
  147.9582  142.6237  157.1081 O   0  0  0  0  0  0  0  0  0  0  0  0
  148.9909  141.8615  157.6920 C   0  0  0  0  0  0  0  0  0  0  0  0
  150.2483  141.9422  156.8153 C   0  0  0  0  0  0  0  0  0  0  0  0
  151.3523  141.1826  157.3822 N   0  0  0  0  0  0  0  0  0  0  0  0
  151.9670  140.0792  156.8828 C   0  0  0  0  0  0  0  0  0  0  0  0
  151.5647  139.4527  155.5723 C   0  0  0  0  0  0  0  0  0  0  0  0
  151.0272  138.1119  155.9225 N   0  3  0  0  0  0  0  0  0  0  0  0
  150.3056  137.4855  154.7853 C   0  0  0  0  0  0  0  0  0  0  0  0
  149.6312  136.1707  155.2119 C   0  0  0  0  0  0  0  0  0  0  0  0
  150.6536  135.1970  155.8125 C   0  0  0  0  0  0  0  0  0  0  0  0
  151.4099  135.8755  156.9621 C   0  0  0  0  0  0  0  0  0  0  0  0
  152.0490  137.1946  156.4979 C   0  0  0  0  0  0  0  0  0  0  0  0
  152.9458  139.5747  157.6391 N   0  0  0  0  0  0  0  0  0  0  0  0
  152.9820  140.4399  158.7144 C   0  0  0  0  0  0  0  0  0  0  0  0
  153.8129  140.4495  159.8574 C   0  0  0  0  0  0  0  0  0  0  0  0
  153.6642  141.4516  160.8384 C   0  0  0  0  0  0  0  0  0  0  0  0
  152.6852  142.4558  160.6906 C   0  0  0  0  0  0  0  0  0  0  0  0
  152.5137  143.6768  161.8969 Cl  0  0  0  0  0  0  0  0  0  0  0  0
  151.8466  142.4630  159.5593 C   0  0  0  0  0  0  0  0  0  0  0  0
  151.9988  141.4605  158.5831 C   0  0  0  0  0  0  0  0  0  0  0  0
  148.3450  143.3328  156.6171 H   0  0  0  0  0  0  0  0  0  0  0  0
  149.1857  142.2428  158.6938 H   0  0  0  0  0  0  0  0  0  0  0  0
  148.6575  140.8282  157.7929 H   0  0  0  0  0  0  0  0  0  0  0  0
  150.0334  141.5495  155.8208 H   0  0  0  0  0  0  0  0  0  0  0  0
  150.5595  142.9761  156.6652 H   0  0  0  0  0  0  0  0  0  0  0  0
  150.7983  140.0790  155.1138 H   0  0  0  0  0  0  0  0  0  0  0  0
  152.3930  139.3609  154.8708 H   0  0  0  0  0  0  0  0  0  0  0  0
  149.5454  138.1715  154.4097 H   0  0  0  0  0  0  0  0  0  0  0  0
  151.0033  137.3045  153.9658 H   0  0  0  0  0  0  0  0  0  0  0  0
  148.8511  136.3807  155.9449 H   0  0  0  0  0  0  0  0  0  0  0  0
  149.1357  135.7109  154.3561 H   0  0  0  0  0  0  0  0  0  0  0  0
  150.1533  134.2960  156.1691 H   0  0  0  0  0  0  0  0  0  0  0  0
  151.3585  134.8798  155.0427 H   0  0  0  0  0  0  0  0  0  0  0  0
  150.7244  136.0714  157.7880 H   0  0  0  0  0  0  0  0  0  0  0  0
  152.1779  135.2054  157.3496 H   0  0  0  0  0  0  0  0  0  0  0  0
  152.8195  136.9946  155.7514 H   0  0  0  0  0  0  0  0  0  0  0  0
  152.5469  137.6635  157.3471 H   0  0  0  0  0  0  0  0  0  0  0  0
  154.5662  139.6857  159.9810 H   0  0  0  0  0  0  0  0  0  0  0  0
  154.3046  141.4487  161.7085 H   0  0  0  0  0  0  0  0  0  0  0  0
  151.0959  143.2308  159.4442 H   0  0  0  0  0  0  0  0  0  0  0  0
  150.3363  138.2702  156.6426 H   0  0  0  0  0  0  0  0  0  0  0  0
  1  2  1  0  0  0  0
  1 21  1  0  0  0  0
  2  3  1  0  0  0  0
  2 22  1  0  0  0  0
  2 23  1  0  0  0  0
  3  4  1  0  0  0  0
  3 24  1  0  0  0  0
  3 25  1  0  0  0  0
  4 20  1  0  0  0  0
  4  5  1  0  0  0  0
  5  6  1  0  0  0  0
  5 13  2  0  0  0  0
  6  7  1  0  0  0  0
  6 26  1  0  0  0  0
  6 27  1  0  0  0  0
  7 12  1  0  0  0  0
  7  8  1  0  0  0  0
  7 41  1  0  0  0  0
  8  9  1  0  0  0  0
  8 28  1  0  0  0  0
  8 29  1  0  0  0  0
  9 10  1  0  0  0  0
  9 30  1  0  0  0  0
  9 31  1  0  0  0  0
 10 11  1  0  0  0  0
 10 32  1  0  0  0  0
 10 33  1  0  0  0  0
 11 12  1  0  0  0  0
 11 34  1  0  0  0  0
 11 35  1  0  0  0  0
 12 36  1  0  0  0  0
 12 37  1  0  0  0  0
 13 14  1  0  0  0  0
 14 20  2  0  0  0  0
 14 15  1  0  0  0  0
 15 16  2  0  0  0  0
 15 38  1  0  0  0  0
 16 17  1  0  0  0  0
 16 39  1  0  0  0  0
 17 18  1  0  0  0  0
 17 19  2  0  0  0  0
 19 20  1  0  0  0  0
 19 40  1  0  0  0  0
M  CHG  1   7   1
M  END
> <s_m_source_file>
AV-unprocessed.smi

> <i_m_source_file_index>
518

> <i_lp_mmshare_version>
43012

> <i_f3d_flags>
0

> <s_epik_input>
W2NIXTFbY0hdYyhDbClbY0hdYyhjMTIpbihbQ0gyXVtDSDJdW09IXSljKG4yKVtDSDJdTjNbQ0gyXVtDSDJdW0NIMl1bQ0gyXVtDSDJdMw==

> <s_epik_cmdline>
J2VwaWtfcHl0aG9uJywgJy1waCcsICc3LjAnLCAnLXRuJywgJzgnLCAnLW1hJywgJzIwMCcsICctbWV0YWxfYmluZGluZycsICctaW1hZScsICc8aW5maWxlLm1hZT4nLCAnLW9tYWUnLCAnPG91dGZpbGUubWFlPic=

> <r_epik_Ionization_Penalty>
0.173682

> <r_epik_Ionization_Penalty_Charging>
0.172202

> <r_epik_Ionization_Penalty_Neutral>
0.00148029

> <r_epik_State_Penalty>
0.185703

> <r_epik_Charging_Adjusted_Penalty>
0.357905

> <i_epik_Tot_Q>
1

> <i_epik_Tot_abs_Q>
1

> <r_epik_Metal_State_Penalty>
0.188036

> <b_epik_Metal_Only>
0

> <s_lp_Force_Field>
OPLS_2005

> <r_lp_Energy>
19.9694

> <b_lp_Chiralities_Consistent>
1

> <s_lp_Variant>
AV-unprocessed.smi:518-1

> <Gold.Version>
5.8.1

> <Gold.Id.Protein>
6NUR|6NUR_protein|mol2

> <Gold.PLP.Fitness>
43.8713

> <Gold.PLP.PLP>
-38.0384

> <Gold.PLP.part.hbond>
-2.0424

> <Gold.PLP.part.metal>
0.0000

> <Gold.PLP.part.buried>
-2.7490

> <Gold.PLP.part.nonpolar>
-32.9770

> <Gold.PLP.part.repulsive>
0.0542

> <Gold.PLP.ligand.clash>
0.0000

> <Gold.PLP.ligand.torsion>
0.0988

> <Gold.PLP.Chemscore.Hbond>
2.0000

> <Gold.PLP.Chemscore.CHOScore>
0.0000

> <Gold.PLP.Chemscore.Metal>
0.0000

> <Gold.Chemscore.Hbonds>
donor molecule, donor type, donor heavy atom, donor atom, acceptor molecule, acceptor atom, score
      L1  H     1    21       P1  8028  1.00
      P1  H  7997  8010       L1    13  0.90

> <Gold.PLP.Chemscore.Internal.Correction>
0.0305

> <Gold.Rescore>
     Score         DG    S(hbond)    S(metal)    S(lipo)     H(rot)  DE(clash)    DE(int)     intcor
     14.51     -16.04       0.96        0.00     108.61       2.09       0.02       1.51       ----

> <Gold.Chemscore.Fitness>
14.5075

> <Gold.Chemscore.DG>
-16.0397

> <Gold.Chemscore.ZeroCoef>
-5.4800

> <Gold.Chemscore.Hbond>
0.9611

> <Gold.Chemscore.Metal>
0.0000

> <Gold.Chemscore.Lipo>
108.6141

> <Gold.Chemscore.Internal_Hbond>
0.0000

> <Gold.Chemscore.DEClash>
0.0211

> <Gold.Chemscore.DEInternal>
1.5111

> <Gold.Chemscore.Rot>
2.0931

> <Gold.Chemscore.Internal.Correction>
   9.000000E+99

> <Gold.Chemscore.Hbonds>
donor molecule, donor type, donor heavy atom, donor atom, acceptor molecule, acceptor atom, score
      L1  H     1    21       P1  8028  0.35
      P1  H  7997  8010       L1    13  0.08

> <Gold.Chemscore.Hbond.Weighted>
-3.2101

> <Gold.Chemscore.Metal.Weighted>
-0.0000

> <Gold.Chemscore.Lipo.Weighted>
-12.7079

> <Gold.Chemscore.Internal_Hbond.Weighted>
0.0000

> <Gold.Chemscore.DEClash.Weighted>
0.0211

> <Gold.Chemscore.DEInternal.Weighted>
1.5111

> <Gold.Chemscore.Rot.Weighted>
5.3583

> <Gold.Chemscore.Internal.Correction.Weighted>
   9.000000E+99

> <Gold.Protein.RotatedTorsions>
[ 6907 6896 6895 6894 ] final  -25.64 input  -60.11 | X-H torsion
[ 7974 7965 7964 7962 ] final  -98.26 input  175.53 | X-H torsion
[ 8008 7997 7996 7995 ] final   63.94 input   59.86 | X-H torsion
[ 10167 10162 10161 10158 ] final -162.12 input  -65.29 | X-H torsion
[ 10718 10713 10712 10709 ] final  -19.31 input   66.30 | X-H torsion
[ 10763 10752 10751 10750 ] final -136.92 input  -60.55 | X-H torsion
[ 11005 11000 10999 10996 ] final -127.85 input  -57.11 | X-H torsion

> <Gold.Protein.ActiveResidues>
 VAL166  LYS551  ARG553  GLY616  TRP617  ASP618  TYR619  PRO620  LYS621  CYS622 
 ASP623  PHE694  ASN695  SER759  ASP760  ASP761  ALA762  ILE779  LEU786  VAL792 
 PHE793  MET794  SER795  GLU796  ALA797  LYS798  CYS799  TRP800  GLU811  SER814 

> <Gold.Protein.RotatedAtoms>
  151.1722  135.0323  159.8756 H   0  0  0  0  0  0  0  0  0  0  0  0  # atno 6907 bound_to 6896
  152.5448  134.1157  159.8387 H   0  0  0  0  0  0  0  0  0  0  0  0  # atno 6908 bound_to 6896
  151.1264  133.5021  159.2633 H   0  0  0  0  0  0  0  0  0  0  0  0  # atno 6909 bound_to 6896
  145.3229  140.9425  143.2705 H   0  0  0  0  0  0  0  0  0  0  0  0  # atno 7974 bound_to 7965
  155.6381  140.3496  155.4705 H   0  0  0  0  0  0  0  0  0  0  0  0  # atno 8008 bound_to 7997
  155.9948  140.1201  157.0627 H   0  0  0  0  0  0  0  0  0  0  0  0  # atno 8009 bound_to 7997
  154.4230  140.1112  156.5602 H   0  0  0  0  0  0  0  0  0  0  0  0  # atno 8010 bound_to 7997
  139.6415  144.0251  152.2095 H   0  0  0  0  0  0  0  0  0  0  0  0  # atno 10167 bound_to 10162
  156.5474  130.4693  149.6469 H   0  0  0  0  0  0  0  0  0  0  0  0  # atno 10718 bound_to 10713
  154.8673  135.3658  154.5140 H   0  0  0  0  0  0  0  0  0  0  0  0  # atno 10763 bound_to 10752
  153.5773  135.7019  153.5483 H   0  0  0  0  0  0  0  0  0  0  0  0  # atno 10764 bound_to 10752
  153.3488  135.4078  155.1592 H   0  0  0  0  0  0  0  0  0  0  0  0  # atno 10765 bound_to 10752
  140.9565  134.0994  157.4011 H   0  0  0  0  0  0  0  0  0  0  0  0  # atno 11005 bound_to 11000
  144.8925  139.4756  143.6671 LP  0  0  0  0  0  0  0  0  0  0  0  0  # atno 17320 bound_to 7965
  146.3075  139.7631  142.9045 LP  0  0  0  0  0  0  0  0  0  0  0  0  # atno 17321 bound_to 7965
  139.9942  144.6340  150.7787 LP  0  0  0  0  0  0  0  0  0  0  0  0  # atno 17342 bound_to 10162
  140.7493  143.2936  151.3263 LP  0  0  0  0  0  0  0  0  0  0  0  0  # atno 17343 bound_to 10162
  156.2916  130.7127  151.1977 LP  0  0  0  0  0  0  0  0  0  0  0  0  # atno 17370 bound_to 10713
  157.7394  131.0529  150.5234 LP  0  0  0  0  0  0  0  0  0  0  0  0  # atno 17371 bound_to 10713
  139.8864  135.0081  156.6495 LP  0  0  0  0  0  0  0  0  0  0  0  0  # atno 17394 bound_to 11000
  140.7528  133.8883  155.8360 LP  0  0  0  0  0  0  0  0  0  0  0  0  # atno 17395 bound_to 11000

$$$$
