AV-unprocessed.smi:2087|AV-procd|sdf|8525|dock3
  -GOLD-   2272011243D 1   1.00000     0.00000
 Structure written by MMmdl.
 50 51  0  0  0  0  0  0  0  0  1 V2000
  152.5130  140.1027  159.2991 C   0  0  0  0  0  0  0  0  0  0  0  0
  152.2951  141.4482  158.5862 C   0  0  0  0  0  0  0  0  0  0  0  0
  152.3865  142.6487  159.5443 C   0  0  0  0  0  0  0  0  0  0  0  0
  151.0484  141.4733  157.6672 C   0  0  0  0  0  0  0  0  0  0  0  0
  151.0359  140.5714  156.5108 N   0  0  0  0  0  0  0  0  0  0  0  0
  149.8991  140.8664  155.6444 C   0  0  0  0  0  0  0  0  0  0  0  0
  149.8516  139.9427  154.4173 C   0  0  0  0  0  0  0  0  0  0  0  0
  149.8147  138.5892  154.8521 O   0  0  0  0  0  0  0  0  0  0  0  0
  150.9401  138.2306  155.6500 C   0  0  2  0  0  0  0  0  0  0  0  0
  150.8143  136.7519  156.0546 C   0  0  0  0  0  0  0  0  0  0  0  0
  149.4596  136.4260  156.4878 N   0  0  0  0  0  0  0  0  0  0  0  0
  149.0823  136.1962  157.7547 C   0  0  0  0  0  0  0  0  0  0  0  0
  149.8580  136.2399  158.7108 O   0  0  0  0  0  0  0  0  0  0  0  0
  147.5926  135.8930  157.9656 C   0  0  0  0  0  0  0  0  0  0  0  0
  147.2752  135.4679  159.3356 N   0  0  0  0  0  0  0  0  0  0  0  0
  146.6440  134.2552  159.5465 C   0  0  0  0  0  0  0  0  0  0  0  0
  146.3086  133.7928  160.7705 C   0  0  0  0  0  0  0  0  0  0  0  0
  146.6048  134.5682  161.9685 C   0  0  0  0  0  0  0  0  0  0  0  0
  146.3095  134.1972  163.1056 O   0  0  0  0  0  0  0  0  0  0  0  0
  147.2581  135.7986  161.7272 N   0  0  0  0  0  0  0  0  0  0  0  0
  147.5592  136.6127  162.8866 C   0  0  0  0  0  0  0  0  0  0  0  0
  147.5955  136.2847  160.4423 C   0  0  0  0  0  0  0  0  0  0  0  0
  148.1432  137.3764  160.2720 O   0  0  0  0  0  0  0  0  0  0  0  0
  150.9911  139.1588  156.8810 C   0  0  0  0  0  0  0  0  0  0  0  0
  151.7368  139.9054  160.0387 H   0  0  0  0  0  0  0  0  0  0  0  0
  153.4717  140.0867  159.8182 H   0  0  0  0  0  0  0  0  0  0  0  0
  152.5120  139.2778  158.5860 H   0  0  0  0  0  0  0  0  0  0  0  0
  153.1450  141.5697  157.9129 H   0  0  0  0  0  0  0  0  0  0  0  0
  151.6427  142.6130  160.3377 H   0  0  0  0  0  0  0  0  0  0  0  0
  152.2575  143.5896  159.0086 H   0  0  0  0  0  0  0  0  0  0  0  0
  153.3647  142.6814  160.0249 H   0  0  0  0  0  0  0  0  0  0  0  0
  150.1458  141.3290  158.2629 H   0  0  0  0  0  0  0  0  0  0  0  0
  150.9759  142.4935  157.2870 H   0  0  0  0  0  0  0  0  0  0  0  0
  148.9692  140.7626  156.2062 H   0  0  0  0  0  0  0  0  0  0  0  0
  149.9466  141.9032  155.3097 H   0  0  0  0  0  0  0  0  0  0  0  0
  148.9629  140.1493  153.8208 H   0  0  0  0  0  0  0  0  0  0  0  0
  150.7173  140.1045  153.7734 H   0  0  0  0  0  0  0  0  0  0  0  0
  151.8510  138.3638  155.0629 H   0  0  0  0  0  0  0  0  0  0  0  0
  151.0412  136.1179  155.1969 H   0  0  0  0  0  0  0  0  0  0  0  0
  151.5451  136.4985  156.8249 H   0  0  0  0  0  0  0  0  0  0  0  0
  148.7532  136.3748  155.7683 H   0  0  0  0  0  0  0  0  0  0  0  0
  147.0264  136.7910  157.7147 H   0  0  0  0  0  0  0  0  0  0  0  0
  147.2662  135.1321  157.2540 H   0  0  0  0  0  0  0  0  0  0  0  0
  146.4003  133.6454  158.6886 H   0  0  0  0  0  0  0  0  0  0  0  0
  145.8126  132.8379  160.8644 H   0  0  0  0  0  0  0  0  0  0  0  0
  148.2586  137.4092  162.6343 H   0  0  0  0  0  0  0  0  0  0  0  0
  148.0211  135.9709  163.6390 H   0  0  0  0  0  0  0  0  0  0  0  0
  146.6126  137.0246  163.2397 H   0  0  0  0  0  0  0  0  0  0  0  0
  151.8757  138.8979  157.4573 H   0  0  0  0  0  0  0  0  0  0  0  0
  150.1268  138.9701  157.5198 H   0  0  0  0  0  0  0  0  0  0  0  0
  1  2  1  0  0  0  0
  1 25  1  0  0  0  0
  1 26  1  0  0  0  0
  1 27  1  0  0  0  0
  2  3  1  0  0  0  0
  2  4  1  0  0  0  0
  2 28  1  0  0  0  0
  3 29  1  0  0  0  0
  3 30  1  0  0  0  0
  3 31  1  0  0  0  0
  4  5  1  0  0  0  0
  4 32  1  0  0  0  0
  4 33  1  0  0  0  0
  5 24  1  0  0  0  0
  5  6  1  0  0  0  0
  6  7  1  0  0  0  0
  6 34  1  0  0  0  0
  6 35  1  0  0  0  0
  7  8  1  0  0  0  0
  7 36  1  0  0  0  0
  7 37  1  0  0  0  0
  8  9  1  0  0  0  0
  9 10  1  0  0  0  0
  9 24  1  0  0  0  0
  9 38  1  0  0  0  0
 10 11  1  0  0  0  0
 10 39  1  0  0  0  0
 10 40  1  0  0  0  0
 11 12  1  0  0  0  0
 11 41  1  0  0  0  0
 12 13  2  0  0  0  0
 12 14  1  0  0  0  0
 14 15  1  0  0  0  0
 14 42  1  0  0  0  0
 14 43  1  0  0  0  0
 15 22  1  0  0  0  0
 15 16  1  0  0  0  0
 16 17  2  0  0  0  0
 16 44  1  0  0  0  0
 17 18  1  0  0  0  0
 17 45  1  0  0  0  0
 18 19  2  0  0  0  0
 18 20  1  0  0  0  0
 20 21  1  0  0  0  0
 20 22  1  0  0  0  0
 21 46  1  0  0  0  0
 21 47  1  0  0  0  0
 21 48  1  0  0  0  0
 22 23  2  0  0  0  0
 24 49  1  0  0  0  0
 24 50  1  0  0  0  0
M  END
> <s_m_source_file>
AV-unprocessed.smi

> <i_m_source_file_index>
2087

> <i_lp_mmshare_version>
43012

> <i_f3d_flags>
0

> <s_epik_input>
W0NIM11bQ0hdKFtDSDNdKVtDSDJdTjFbQ0gyXVtDSDJdT1tDQEhdKFtDSDJdMSlbQ0gyXVtOSF1DKD1PKVtDSDJdbjJbY0hdW2NIXWMoPU8pbihbQ0gzXSljMj1P

> <s_epik_cmdline>
J2VwaWtfcHl0aG9uJywgJy1waCcsICc3LjAnLCAnLXRuJywgJzgnLCAnLW1hJywgJzIwMCcsICctbWV0YWxfYmluZGluZycsICctaW1hZScsICc8aW5maWxlLm1hZT4nLCAnLW9tYWUnLCAnPG91dGZpbGUubWFlPic=

> <r_lp_tautomer_probability>
1

> <r_epik_Ionization_Penalty>
1.11669

> <r_epik_Ionization_Penalty_Charging>
1.16423e-08

> <r_epik_Ionization_Penalty_Neutral>
1.11669

> <r_epik_State_Penalty>
1.17516

> <r_epik_Charging_Adjusted_Penalty>
1.17516

> <i_epik_Tot_Q>
0

> <i_epik_Tot_abs_Q>
0

> <r_epik_Metal_State_Penalty>
1.17513

> <b_epik_Metal_Only>
0

> <s_lp_Force_Field>
OPLS_2005

> <r_lp_Energy>
38.2596

> <b_lp_Chiralities_Consistent>
1

> <s_lp_Variant>
AV-unprocessed.smi:2087-6

> <Gold.Version>
5.8.1

> <Gold.Id.Protein>
6NUR|6NUR_protein|mol2

> <Gold.PLP.Fitness>
44.0936

> <Gold.PLP.PLP>
-38.0285

> <Gold.PLP.part.hbond>
-4.0000

> <Gold.PLP.part.metal>
0.0000

> <Gold.PLP.part.buried>
-4.4572

> <Gold.PLP.part.nonpolar>
-29.8284

> <Gold.PLP.part.repulsive>
0.1816

> <Gold.PLP.ligand.clash>
0.0000

> <Gold.PLP.ligand.torsion>
0.3662

> <Gold.PLP.Chemscore.Hbond>
2.2168

> <Gold.PLP.Chemscore.CHOScore>
0.0000

> <Gold.PLP.Chemscore.Metal>
0.0000

> <Gold.Chemscore.Hbonds>
donor molecule, donor type, donor heavy atom, donor atom, acceptor molecule, acceptor atom, score
      P1  H  6896  6907       L1    13  1.00
      P1  H  6931  6943       L1    23  0.59
      P1  H  6934  6947       L1    23  0.64

> <Gold.PLP.Chemscore.Internal.Correction>
0.1472

> <Gold.Rescore>
     Score         DG    S(hbond)    S(metal)    S(lipo)     H(rot)  DE(clash)    DE(int)     intcor
     15.52     -16.56       2.23        0.00      78.31       2.16       0.29       0.75       ----

> <Gold.Chemscore.Fitness>
15.5201

> <Gold.Chemscore.DG>
-16.5604

> <Gold.Chemscore.ZeroCoef>
-5.4800

> <Gold.Chemscore.Hbond>
2.2327

> <Gold.Chemscore.Metal>
0.0000

> <Gold.Chemscore.Lipo>
78.3116

> <Gold.Chemscore.Internal_Hbond>
0.0000

> <Gold.Chemscore.DEClash>
0.2901

> <Gold.Chemscore.DEInternal>
0.7502

> <Gold.Chemscore.Rot>
2.1638

> <Gold.Chemscore.Internal.Correction>
   9.000000E+99

> <Gold.Chemscore.Hbonds>
donor molecule, donor type, donor heavy atom, donor atom, acceptor molecule, acceptor atom, score
      P1  H  6896  6907       L1    13  0.95
      P1  H  6931  6943       L1    23  0.52
      P1  H  6934  6947       L1    23  0.60

> <Gold.Chemscore.Hbond.Weighted>
-7.4572

> <Gold.Chemscore.Metal.Weighted>
-0.0000

> <Gold.Chemscore.Lipo.Weighted>
-9.1625

> <Gold.Chemscore.Internal_Hbond.Weighted>
0.0000

> <Gold.Chemscore.DEClash.Weighted>
0.2901

> <Gold.Chemscore.DEInternal.Weighted>
0.7502

> <Gold.Chemscore.Rot.Weighted>
5.5393

> <Gold.Chemscore.Internal.Correction.Weighted>
   9.000000E+99

> <Gold.Protein.RotatedTorsions>
[ 6907 6896 6895 6894 ] final  -64.16 input  -60.11 | X-H torsion
[ 7974 7965 7964 7962 ] final  151.98 input  175.53 | X-H torsion
[ 8008 7997 7996 7995 ] final   70.64 input   59.86 | X-H torsion
[ 10167 10162 10161 10158 ] final -156.61 input  -65.29 | X-H torsion
[ 10718 10713 10712 10709 ] final  -75.41 input   66.30 | X-H torsion
[ 10763 10752 10751 10750 ] final  -95.82 input  -60.55 | X-H torsion
[ 11005 11000 10999 10996 ] final  147.29 input  -57.11 | X-H torsion

> <Gold.Protein.ActiveResidues>
 VAL166  LYS551  ARG553  GLY616  TRP617  ASP618  TYR619  PRO620  LYS621  CYS622 
 ASP623  PHE694  ASN695  SER759  ASP760  ASP761  ALA762  ILE779  LEU786  VAL792 
 PHE793  MET794  SER795  GLU796  ALA797  LYS798  CYS799  TRP800  GLU811  SER814 

> <Gold.Protein.RotatedAtoms>
  150.7603  134.6336  159.6199 H   0  0  0  0  0  0  0  0  0  0  0  0  # atno 6907 bound_to 6896
  152.3606  134.6874  160.0217 H   0  0  0  0  0  0  0  0  0  0  0  0  # atno 6908 bound_to 6896
  151.7266  133.3280  159.3365 H   0  0  0  0  0  0  0  0  0  0  0  0  # atno 6909 bound_to 6896
  144.8254  139.6609  143.6082 H   0  0  0  0  0  0  0  0  0  0  0  0  # atno 7974 bound_to 7965
  155.7418  140.3490  155.5108 H   0  0  0  0  0  0  0  0  0  0  0  0  # atno 8008 bound_to 7997
  155.9087  140.1046  157.1317 H   0  0  0  0  0  0  0  0  0  0  0  0  # atno 8009 bound_to 7997
  154.4053  140.1272  156.4516 H   0  0  0  0  0  0  0  0  0  0  0  0  # atno 8010 bound_to 7997
  139.6836  143.9538  152.2350 H   0  0  0  0  0  0  0  0  0  0  0  0  # atno 10167 bound_to 10162
  156.0208  130.4440  150.3039 H   0  0  0  0  0  0  0  0  0  0  0  0  # atno 10718 bound_to 10713
  154.7183  135.5106  153.8772 H   0  0  0  0  0  0  0  0  0  0  0  0  # atno 10763 bound_to 10752
  153.0840  135.6640  153.9996 H   0  0  0  0  0  0  0  0  0  0  0  0  # atno 10764 bound_to 10752
  153.9824  135.3027  155.3398 H   0  0  0  0  0  0  0  0  0  0  0  0  # atno 10765 bound_to 10752
  140.0863  134.9067  157.1581 H   0  0  0  0  0  0  0  0  0  0  0  0  # atno 11005 bound_to 11000
  146.2559  139.6302  142.9395 LP  0  0  0  0  0  0  0  0  0  0  0  0  # atno 17320 bound_to 7965
  145.5012  141.0437  143.2539 LP  0  0  0  0  0  0  0  0  0  0  0  0  # atno 17321 bound_to 7965
  139.9335  144.6726  150.8338 LP  0  0  0  0  0  0  0  0  0  0  0  0  # atno 17342 bound_to 10162
  140.7660  143.3292  151.2447 LP  0  0  0  0  0  0  0  0  0  0  0  0  # atno 17343 bound_to 10162
  157.1141  131.0229  151.3036 LP  0  0  0  0  0  0  0  0  0  0  0  0  # atno 17370 bound_to 10713
  157.4681  130.7692  149.7297 LP  0  0  0  0  0  0  0  0  0  0  0  0  # atno 17371 bound_to 10713
  140.3415  134.2699  155.7211 LP  0  0  0  0  0  0  0  0  0  0  0  0  # atno 17394 bound_to 11000
  141.2064  133.7835  157.0181 LP  0  0  0  0  0  0  0  0  0  0  0  0  # atno 17395 bound_to 11000

$$$$
