#       Name:                AV-unprocessed.smi:2837
#       Creating user name   scv26
#       Creation time:       Fri Mar 27 15:37:03 2020


#       File generated by GOLD software.
#

@<TRIPOS>MOLECULE
AV-unprocessed.smi:2837
    37    39     1
SMALL
NO_CHARGES


@<TRIPOS>ATOM
      1 ****        -6.6970   1.1419  -0.6625 F              1 S1                 0.0000
      2 ****        -5.4451   1.5877  -0.3988 C.3            1 S1                 0.0000
      3 ****        -5.5486   2.5771   0.5221 F              1 S1                 0.0000
      4 ****        -4.6864   0.5677   0.0830 O.3            1 S1                 0.0000
      5 ****        -3.3300   0.5723  -0.1494 C.ar           1 S1                 0.0000
      6 ****        -2.5616   1.7517  -0.2911 C.ar           1 S1                 0.0000
      7 ****        -1.1755   1.6424  -0.5136 C.ar           1 S1                 0.0000
      8 ****        -0.5956   0.3590  -0.5805 C.ar           1 S1                 0.0000
      9 ****         0.7841   0.2581  -0.8091 N.pl3          1 S1                 0.0000
     10 ****         1.4852  -1.0135  -0.6576 C.3            1 S1                 0.0000
     11 ****         2.9434  -0.9508  -1.1178 C.3            1 S1                 0.0000
     12 ****         3.6880  -1.4704   0.1199 C.3            1 S1                 0.0000
     13 ****         3.7233  -0.4199   1.2376 C.3            1 S1                 0.0000
     14 ****         2.2782  -0.4438   1.7318 C.3            1 S1                 0.0000
     15 ****         1.6408  -1.4898   0.8012 C.3            1 S1                 0.0000
     16 ****         2.7349  -2.3784   0.6470 O.3            1 S1                 0.0000
     17 ****        -1.3236  -0.7728  -0.4369 N.ar           1 S1                 0.0000
     18 ****        -2.6515  -0.6609  -0.2222 C.ar           1 S1                 0.0000
     19 ****        -5.0344   1.9935  -1.3237 H              1 S1                 0.0000
     20 ****        -3.0143   2.7300  -0.2275 H              1 S1                 0.0000
     21 ****        -0.5715   2.5310  -0.6268 H              1 S1                 0.0000
     22 ****         1.3345   1.1024  -0.8706 H              1 S1                 0.0000
     23 ****         0.9727  -1.7813  -1.2393 H              1 S1                 0.0000
     24 ****         3.0973  -1.6133  -1.9702 H              1 S1                 0.0000
     25 ****         3.2741   0.0488  -1.4039 H              1 S1                 0.0000
     26 ****         4.6594  -1.9130  -0.1016 H              1 S1                 0.0000
     27 ****         4.4048  -0.7206   2.0340 H              1 S1                 0.0000
     28 ****         4.0309   0.5617   0.8754 H              1 S1                 0.0000
     29 ****         2.2391  -0.7813   2.7681 H              1 S1                 0.0000
     30 ****         1.7921   0.5306   1.6798 H              1 S1                 0.0000
     31 ****         0.7458  -1.9568   1.2127 H              1 S1                 0.0000
     32 ****        -3.1932  -1.5884  -0.1089 H              1 S1                 0.0000
     33 ****        -5.0477  -0.2770  -0.3119 LP             1 S1                 0.0000
     34 ****        -4.8129   0.5526   1.0748 LP             1 S1                 0.0000
     35 ****         3.0293  -2.7653   1.5208 LP             1 S1                 0.0000
     36 ****         2.5289  -3.1188   0.0071 LP             1 S1                 0.0000
     37 ****        -0.8878  -1.6714  -0.4887 LP             1 S1                 0.0000
@<TRIPOS>BOND
    1    1    2 1     
    2    2    3 1     
    3    2    4 1     
    4    2   19 1     
    5    4    5 1     
    6    5   18 ar    
    7    5    6 ar    
    8    6    7 ar    
    9    6   20 1     
   10    7    8 ar    
   11    7   21 1     
   12    8    9 1     
   13    8   17 ar    
   14    9   10 1     
   15    9   22 1     
   16   10   15 1     
   17   10   11 1     
   18   10   23 1     
   19   11   12 1     
   20   11   24 1     
   21   11   25 1     
   22   12   16 1     
   23   12   13 1     
   24   12   26 1     
   25   13   14 1     
   26   13   27 1     
   27   13   28 1     
   28   14   15 1     
   29   14   29 1     
   30   14   30 1     
   31   15   16 1     
   32   15   31 1     
   33   17   18 ar    
   34   18   32 1     
   35    4   33 1     
   36    4   34 1     
   37   16   35 1     
   38   16   36 1     
   39   17   37 1     
@<TRIPOS>SUBSTRUCTURE
      1 S1             1
@<TRIPOS>SET
LONE_PAIRS      STATIC     ATOMS    <user>   **** ""
5 33 34 35 36 37
DONOR_HYDROGENS      STATIC     ATOMS    <user>   **** ""
1 22
ATOM$BLUE        STATIC     ATOMS    COLORGROUP SYSTEM
5 33 34 35 36 37
ATOM$RED        STATIC     ATOMS    COLORGROUP SYSTEM
1 22
