#       Name:                AV-unprocessed.smi:49
#       Creating user name   scv26
#       Creation time:       Thu Mar 26 16:34:46 2020


#       File generated by GOLD software.
#

@<TRIPOS>MOLECULE
AV-unprocessed.smi:49
    32    33     1
SMALL
NO_CHARGES


@<TRIPOS>ATOM
      1 ****        -4.4611   0.8726   0.9793 C.3            1 S1                 0.0000
      2 ****        -3.6133  -0.3931   1.1413 C.3            1 S1                 0.0000
      3 ****        -2.1405  -0.1249   0.9219 C.2            1 S1                 0.0000
      4 ****        -1.5058  -0.1701  -0.2453 N.2            1 S1                 0.0000
      5 ****        -0.2380   0.1764   0.0137 C.2            1 S1                 0.0000
      6 ****         0.8623   0.2219  -1.0290 C.3            1 S1                 0.0000
      7 ****         1.6241  -1.1077  -1.1296 C.3            1 S1                 0.0000
      8 ****         2.8703  -0.8769  -0.2799 C.3            1 S1                 0.0000
      9 ****         3.9372  -1.7207  -0.6584 O.3            1 S1                 0.0000
     10 ****         3.1794   0.5978  -0.5337 C.3            1 S1                 0.0000
     11 ****         1.8655   1.2507  -0.6795 N.4            1 S1                 1.0000
     12 ****        -0.0727   0.4266   1.3227 N.2            1 S1                 0.0000
     13 ****        -1.2589   0.2505   1.8654 N.pl3          1 S1                -1.0000
     14 ****         0.4131   0.4715  -1.9910 H              1 S1                 0.0000
     15 ****         2.6348  -1.0325   0.7740 H              1 S1                 0.0000
     16 ****        -5.5173   0.6566   1.1404 H              1 S1                 0.0000
     17 ****        -4.3543   1.2905  -0.0220 H              1 S1                 0.0000
     18 ****        -4.1633   1.6384   1.6961 H              1 S1                 0.0000
     19 ****        -3.7507  -0.8086   2.1401 H              1 S1                 0.0000
     20 ****        -3.9426  -1.1557   0.4350 H              1 S1                 0.0000
     21 ****         1.0373  -1.9735  -0.8193 H              1 S1                 0.0000
     22 ****         1.9194  -1.2674  -2.1681 H              1 S1                 0.0000
     23 ****         3.6862  -2.6167  -0.4909 H              1 S1                 0.0000
     24 ****         3.7711   1.0508   0.2620 H              1 S1                 0.0000
     25 ****         3.7229   0.7190  -1.4720 H              1 S1                 0.0000
     26 ****         1.9002   1.9759  -1.3810 H              1 S1                 0.0000
     27 ****         1.5955   1.6491   0.2090 H              1 S1                 0.0000
     28 ****        -1.8948  -0.4129  -1.1340 LP             1 S1                 0.0000
     29 ****         4.7521  -1.4936  -0.1252 LP             1 S1                 0.0000
     30 ****         4.1321  -1.6016  -1.6320 LP             1 S1                 0.0000
     31 ****         0.7727   0.6908   1.7869 LP             1 S1                 0.0000
     32 ****        -1.4725   0.3769   2.8341 LP             1 S1                 0.0000
@<TRIPOS>BOND
    1    1    2 1     
    2    1   16 1     
    3    1   17 1     
    4    1   18 1     
    5    2    3 1     
    6    2   19 1     
    7    2   20 1     
    8    3   13 1     
    9    3    4 2     
   10    4    5 1     
   11    5    6 1     
   12    5   12 2     
   13    6   14 1     
   14    6   11 1     
   15    6    7 1     
   16    7    8 1     
   17    7   21 1     
   18    7   22 1     
   19    8   15 1     
   20    8    9 1     
   21    8   10 1     
   22    9   23 1     
   23   10   11 1     
   24   10   24 1     
   25   10   25 1     
   26   11   26 1     
   27   11   27 1     
   28   12   13 1     
   29    4   28 1     
   30    9   29 1     
   31    9   30 1     
   32   12   31 1     
   33   13   32 1     
@<TRIPOS>SUBSTRUCTURE
      1 S1             1
@<TRIPOS>SET
LONE_PAIRS      STATIC     ATOMS    <user>   **** ""
5 28 29 30 31 32
DONOR_HYDROGENS      STATIC     ATOMS    <user>   **** ""
3 23 26 27
ATOM$BLUE        STATIC     ATOMS    COLORGROUP SYSTEM
5 28 29 30 31 32
ATOM$RED        STATIC     ATOMS    COLORGROUP SYSTEM
3 23 26 27
