AV-unprocessed.smi:82|AV-procd|sdf|794|dock6
  -GOLD-   2262017173D 1   1.00000     0.00000
 Structure written by MMmdl.
 59 62  0  0  0  0  0  0  0  0  2 V2000
  152.9138  138.4529  154.5770 C   0  0  0  0  0  0  0  0  0  0  0  0
  152.7035  139.7654  155.0682 O   0  0  0  0  0  0  0  0  0  0  0  0
  151.5683  139.8548  155.9133 C   0  0  0  0  0  0  0  0  0  0  0  0
  150.3017  139.8162  155.0445 C   0  0  0  0  0  0  0  0  0  0  0  0
  149.0945  139.4200  155.8239 N   0  3  2  0  0  0  0  0  0  0  0  0
  149.2272  138.0311  156.3499 C   0  0  0  0  0  0  0  0  0  0  0  0
  148.0208  137.6166  157.2033 C   0  0  0  0  0  0  0  0  0  0  0  0
  146.7899  137.7754  156.4426 N   0  0  0  0  0  0  0  0  0  0  0  0
  146.4120  136.7171  155.6767 C   0  0  0  0  0  0  0  0  0  0  0  0
  146.6756  135.4503  156.0947 N   0  0  0  0  0  0  0  0  0  0  0  0
  146.2994  134.4013  155.3581 C   0  0  0  0  0  0  0  0  0  0  0  0
  145.6611  134.3916  154.1872 N   0  0  0  0  0  0  0  0  0  0  0  0
  145.4026  135.6581  153.7522 C   0  0  0  0  0  0  0  0  0  0  0  0
  145.7409  136.8651  154.4287 C   0  0  0  0  0  0  0  0  0  0  0  0
  145.3341  137.9582  153.6728 N   0  0  0  0  0  0  0  0  0  0  0  0
  144.7821  137.4291  152.6153 C   0  0  0  0  0  0  0  0  0  0  0  0
  144.7734  136.0525  152.5829 N   0  0  0  0  0  0  0  0  0  0  0  0
  144.2478  135.2224  151.5359 C   0  0  0  0  0  0  0  0  0  0  0  0
  144.2422  133.6987  151.6796 C   0  0  0  0  0  0  0  0  0  0  0  0
  144.5688  133.5434  150.1767 C   0  0  0  0  0  0  0  0  0  0  0  0
  145.6911  132.5383  149.8740 C   0  0  0  0  0  0  0  0  0  0  0  0
  146.8419  132.7981  150.6522 O   0  0  0  0  0  0  0  0  0  0  0  0
  143.3808  133.1914  149.2541 C   0  0  0  0  0  0  0  0  0  0  0  0
  143.3601  133.9449  148.0588 O   0  0  0  0  0  0  0  0  0  0  0  0
  145.0096  135.0241  150.2225 C   0  0  0  0  0  0  0  0  0  0  0  0
  146.5954  139.1314  155.9389 C   0  0  0  0  0  0  0  0  0  0  0  0
  147.7979  139.6410  155.1051 C   0  0  1  0  0  0  0  0  0  0  0  0
  147.5467  141.1251  154.7679 C   0  0  0  0  0  0  0  0  0  0  0  0
  153.8004  138.4362  153.9430 H   0  0  0  0  0  0  0  0  0  0  0  0
  152.0665  138.1149  153.9789 H   0  0  0  0  0  0  0  0  0  0  0  0
  153.0710  137.7467  155.3933 H   0  0  0  0  0  0  0  0  0  0  0  0
  151.5590  139.0059  156.5987 H   0  0  0  0  0  0  0  0  0  0  0  0
  151.6127  140.7557  156.5254 H   0  0  0  0  0  0  0  0  0  0  0  0
  150.1949  140.8010  154.5978 H   0  0  0  0  0  0  0  0  0  0  0  0
  150.4374  139.1308  154.2066 H   0  0  0  0  0  0  0  0  0  0  0  0
  149.3353  137.3377  155.5140 H   0  0  0  0  0  0  0  0  0  0  0  0
  150.1290  137.9361  156.9531 H   0  0  0  0  0  0  0  0  0  0  0  0
  148.1543  136.5949  157.5561 H   0  0  0  0  0  0  0  0  0  0  0  0
  147.9619  138.2423  158.0946 H   0  0  0  0  0  0  0  0  0  0  0  0
  146.5440  133.4311  155.7652 H   0  0  0  0  0  0  0  0  0  0  0  0
  144.3671  138.0346  151.8225 H   0  0  0  0  0  0  0  0  0  0  0  0
  143.2402  135.5829  151.3263 H   0  0  0  0  0  0  0  0  0  0  0  0
  145.0417  133.3398  152.3296 H   0  0  0  0  0  0  0  0  0  0  0  0
  143.2816  133.2829  151.9861 H   0  0  0  0  0  0  0  0  0  0  0  0
  145.3698  131.5189  150.0916 H   0  0  0  0  0  0  0  0  0  0  0  0
  145.9652  132.5560  148.8186 H   0  0  0  0  0  0  0  0  0  0  0  0
  147.4134  132.0470  150.6054 H   0  0  0  0  0  0  0  0  0  0  0  0
  143.4024  132.1384  148.9729 H   0  0  0  0  0  0  0  0  0  0  0  0
  142.4325  133.3585  149.7661 H   0  0  0  0  0  0  0  0  0  0  0  0
  144.2510  134.1262  147.8006 H   0  0  0  0  0  0  0  0  0  0  0  0
  144.6418  135.6338  149.3965 H   0  0  0  0  0  0  0  0  0  0  0  0
  146.0887  135.1387  150.3353 H   0  0  0  0  0  0  0  0  0  0  0  0
  145.6706  139.1953  155.3636 H   0  0  0  0  0  0  0  0  0  0  0  0
  146.4513  139.7813  156.8029 H   0  0  0  0  0  0  0  0  0  0  0  0
  147.8382  139.0787  154.1714 H   0  0  0  0  0  0  0  0  0  0  0  0
  146.5315  141.2693  154.3971 H   0  0  0  0  0  0  0  0  0  0  0  0
  148.2054  141.5026  153.9881 H   0  0  0  0  0  0  0  0  0  0  0  0
  147.6657  141.7576  155.6483 H   0  0  0  0  0  0  0  0  0  0  0  0
  149.0630  140.0311  156.6275 H   0  0  0  0  0  0  0  0  0  0  0  0
  1  2  1  0  0  0  0
  1 29  1  0  0  0  0
  1 30  1  0  0  0  0
  1 31  1  0  0  0  0
  2  3  1  0  0  0  0
  3  4  1  0  0  0  0
  3 32  1  0  0  0  0
  3 33  1  0  0  0  0
  4  5  1  0  0  0  0
  4 34  1  0  0  0  0
  4 35  1  0  0  0  0
  5 27  1  0  0  0  0
  5  6  1  0  0  0  0
  5 59  1  0  0  0  0
  6  7  1  0  0  0  0
  6 36  1  0  0  0  0
  6 37  1  0  0  0  0
  7  8  1  0  0  0  0
  7 38  1  0  0  0  0
  7 39  1  0  0  0  0
  8  9  1  0  0  0  0
  8 26  1  0  0  0  0
  9 14  1  0  0  0  0
  9 10  2  0  0  0  0
 10 11  1  0  0  0  0
 11 12  2  0  0  0  0
 11 40  1  0  0  0  0
 12 13  1  0  0  0  0
 13 17  1  0  0  0  0
 13 14  2  0  0  0  0
 14 15  1  0  0  0  0
 15 16  2  0  0  0  0
 16 17  1  0  0  0  0
 16 41  1  0  0  0  0
 17 18  1  0  0  0  0
 18 25  1  0  0  0  0
 18 19  1  0  0  0  0
 18 42  1  0  0  0  0
 19 20  1  0  0  0  0
 19 43  1  0  0  0  0
 19 44  1  0  0  0  0
 20 21  1  0  0  0  0
 20 23  1  0  0  0  0
 20 25  1  0  0  0  0
 21 22  1  0  0  0  0
 21 45  1  0  0  0  0
 21 46  1  0  0  0  0
 22 47  1  0  0  0  0
 23 24  1  0  0  0  0
 23 48  1  0  0  0  0
 23 49  1  0  0  0  0
 24 50  1  0  0  0  0
 25 51  1  0  0  0  0
 25 52  1  0  0  0  0
 26 27  1  0  0  0  0
 26 53  1  0  0  0  0
 26 54  1  0  0  0  0
 27 28  1  0  0  0  0
 27 55  1  0  0  0  0
 28 56  1  0  0  0  0
 28 57  1  0  0  0  0
 28 58  1  0  0  0  0
M  CHG  1   5   1
M  END
> <s_m_source_file>
AV-unprocessed.smi

> <i_m_source_file_index>
82

> <i_lp_mmshare_version>
43012

> <i_f3d_flags>
0

> <s_epik_input>
W0NIM11PW0NIMl1bQ0gyXU4xW0NIMl1bQ0gyXU4oW0NIMl1bQ0BIXTFbQ0gzXSljKG5bY0hdbjIpYyhjMjMpbltjSF1uM1tDSF0oW0NIMl00KVtDSDJdQzQoW0NIMl1bT0hdKVtDSDJdW09IXQ==

> <s_epik_cmdline>
J2VwaWtfcHl0aG9uJywgJy1waCcsICc3LjAnLCAnLXRuJywgJzgnLCAnLW1hJywgJzIwMCcsICctbWV0YWxfYmluZGluZycsICctaW1hZScsICc8aW5maWxlLm1hZT4nLCAnLW9tYWUnLCAnPG91dGZpbGUubWFlPic=

> <r_lp_tautomer_probability>
1

> <r_epik_Ionization_Penalty>
0.304275

> <r_epik_Ionization_Penalty_Charging>
0.304214

> <r_epik_Ionization_Penalty_Neutral>
6.13137e-05

> <r_epik_State_Penalty>
0.300354

> <r_epik_Charging_Adjusted_Penalty>
0.604567

> <i_epik_Tot_Q>
1

> <i_epik_Tot_abs_Q>
1

> <r_epik_Metal_State_Penalty>
0.301147

> <b_epik_Metal_Only>
0

> <s_lp_Force_Field>
OPLS_2005

> <r_lp_Energy>
58.1086

> <b_lp_Chiralities_Consistent>
1

> <s_lp_Variant>
AV-unprocessed.smi:82-1

> <Gold.Version>
5.8.1

> <Gold.Id.Protein>
6NUR|6NUR_protein|mol2

> <Gold.PLP.Fitness>
48.6378

> <Gold.PLP.PLP>
-32.9163

> <Gold.PLP.part.hbond>
-6.8536

> <Gold.PLP.part.metal>
0.0000

> <Gold.PLP.part.buried>
1.6744

> <Gold.PLP.part.nonpolar>
-27.5693

> <Gold.PLP.part.repulsive>
0.2861

> <Gold.PLP.ligand.clash>
0.0000

> <Gold.PLP.ligand.torsion>
1.5646

> <Gold.PLP.Chemscore.Hbond>
4.3110

> <Gold.PLP.Chemscore.CHOScore>
1.6520

> <Gold.PLP.Chemscore.Metal>
0.0000

> <Gold.Chemscore.Hbonds>
donor molecule, donor type, donor heavy atom, donor atom, acceptor molecule, acceptor atom, score
      L1  H    22    47       P1 10747  1.00
      L1  H    24    50       P1  7921  1.00
      P1  H  7989  7998       L1     2  0.21
      P1  H  7997  8009       L1     2  1.00
      P1  H 10192 10197       L1    24  1.00
      L1  C    16    41       P1 10171  1.00
      L1  C    16    41       P1 10175  0.65

> <Gold.PLP.Chemscore.Internal.Correction>
0.9617

> <Gold.Rescore>
     Score         DG    S(hbond)    S(metal)    S(lipo)     H(rot)  DE(clash)    DE(int)     intcor
     10.68     -17.43       3.71        0.00      81.74       3.91       2.89       3.86       ----

> <Gold.Chemscore.Fitness>
10.6848

> <Gold.Chemscore.DG>
-17.4302

> <Gold.Chemscore.ZeroCoef>
-5.4800

> <Gold.Chemscore.Hbond>
3.7079

> <Gold.Chemscore.Metal>
0.0000

> <Gold.Chemscore.Lipo>
81.7407

> <Gold.Chemscore.Internal_Hbond>
0.0000

> <Gold.Chemscore.DEClash>
2.8899

> <Gold.Chemscore.DEInternal>
3.8554

> <Gold.Chemscore.Rot>
3.9055

> <Gold.Chemscore.Internal.Correction>
   9.000000E+99

> <Gold.Chemscore.Hbonds>
donor molecule, donor type, donor heavy atom, donor atom, acceptor molecule, acceptor atom, score
      L1  H    22    47       P1 10747  0.97
      L1  H    24    50       P1  7921  0.97
      P1  H  7989  7998       L1     2  0.01
      P1  H  7997  8009       L1     2  0.34
      P1  H 10192 10197       L1    24  0.80

> <Gold.Chemscore.Hbond.Weighted>
-12.3845

> <Gold.Chemscore.Metal.Weighted>
-0.0000

> <Gold.Chemscore.Lipo.Weighted>
-9.5637

> <Gold.Chemscore.Internal_Hbond.Weighted>
0.0000

> <Gold.Chemscore.DEClash.Weighted>
2.8899

> <Gold.Chemscore.DEInternal.Weighted>
3.8554

> <Gold.Chemscore.Rot.Weighted>
9.9980

> <Gold.Chemscore.Internal.Correction.Weighted>
   9.000000E+99

> <Gold.Protein.RotatedTorsions>
[ 6907 6896 6895 6894 ] final  -55.36 input  -60.11 | X-H torsion
[ 7974 7965 7964 7962 ] final   -2.96 input  175.53 | X-H torsion
[ 8008 7997 7996 7995 ] final -140.44 input   59.86 | X-H torsion
[ 10167 10162 10161 10158 ] final   -8.10 input  -65.29 | X-H torsion
[ 10718 10713 10712 10709 ] final -120.88 input   66.30 | X-H torsion
[ 10763 10752 10751 10750 ] final   -0.54 input  -60.55 | X-H torsion
[ 11005 11000 10999 10996 ] final    0.12 input  -57.11 | X-H torsion

> <Gold.Protein.ActiveResidues>
 VAL166  LYS551  ARG553  GLY616  TRP617  ASP618  TYR619  PRO620  LYS621  CYS622 
 ASP623  PHE694  ASN695  SER759  ASP760  ASP761  ALA762  ILE779  LEU786  VAL792 
 PHE793  MET794  SER795  GLU796  ALA797  LYS798  CYS799  TRP800  GLU811  SER814 

> <Gold.Protein.RotatedAtoms>
  150.8259  134.7489  159.6811 H   0  0  0  0  0  0  0  0  0  0  0  0  # atno 6907 bound_to 6896
  152.4369  134.5664  159.9918 H   0  0  0  0  0  0  0  0  0  0  0  0  # atno 6908 bound_to 6896
  151.5837  133.3337  159.3049 H   0  0  0  0  0  0  0  0  0  0  0  0  # atno 6909 bound_to 6896
  146.2397  140.1649  142.8332 H   0  0  0  0  0  0  0  0  0  0  0  0  # atno 7974 bound_to 7965
  155.4614  140.0546  157.2990 H   0  0  0  0  0  0  0  0  0  0  0  0  # atno 8008 bound_to 7997
  154.4736  140.2051  155.9889 H   0  0  0  0  0  0  0  0  0  0  0  0  # atno 8009 bound_to 7997
  156.1095  140.3206  155.8058 H   0  0  0  0  0  0  0  0  0  0  0  0  # atno 8010 bound_to 7997
  140.7049  143.6006  150.8801 H   0  0  0  0  0  0  0  0  0  0  0  0  # atno 10167 bound_to 10162
  156.1293  130.6383  150.9594 H   0  0  0  0  0  0  0  0  0  0  0  0  # atno 10718 bound_to 10713
  153.3332  135.6976  153.6930 H   0  0  0  0  0  0  0  0  0  0  0  0  # atno 10763 bound_to 10752
  153.5724  135.3513  155.2843 H   0  0  0  0  0  0  0  0  0  0  0  0  # atno 10764 bound_to 10752
  154.8622  135.4275  154.2526 H   0  0  0  0  0  0  0  0  0  0  0  0  # atno 10765 bound_to 10752
  140.6301  133.9583  155.8270 H   0  0  0  0  0  0  0  0  0  0  0  0  # atno 11005 bound_to 11000
  145.0059  140.8672  143.5254 LP  0  0  0  0  0  0  0  0  0  0  0  0  # atno 17320 bound_to 7965
  145.1675  139.2423  143.5359 LP  0  0  0  0  0  0  0  0  0  0  0  0  # atno 17321 bound_to 7965
  139.9731  143.6035  152.2967 LP  0  0  0  0  0  0  0  0  0  0  0  0  # atno 17342 bound_to 10162
  139.6629  144.7662  151.1929 LP  0  0  0  0  0  0  0  0  0  0  0  0  # atno 17343 bound_to 10162
  157.6472  131.0902  150.8128 LP  0  0  0  0  0  0  0  0  0  0  0  0  # atno 17370 bound_to 10713
  156.8215  130.4985  149.5342 LP  0  0  0  0  0  0  0  0  0  0  0  0  # atno 17371 bound_to 10713
  141.0681  134.0246  157.3564 LP  0  0  0  0  0  0  0  0  0  0  0  0  # atno 17394 bound_to 11000
  139.9119  135.0191  156.7728 LP  0  0  0  0  0  0  0  0  0  0  0  0  # atno 17395 bound_to 11000

$$$$
