AV-unprocessed.smi:2335|AV-procd|sdf|9324|dock9
  -GOLD-   2272012543D 1   1.00000     0.00000
 Structure written by MMmdl.
 42 43  0  0  0  0  0  0  0  0  1 V2000
  150.3280  141.9650  157.8566 C   0  0  0  0  0  0  0  0  0  0  0  0
  150.7623  142.1157  156.3949 C   0  0  0  0  0  0  0  0  0  0  0  0
  150.4328  140.9148  155.5728 C   0  0  0  0  0  0  0  0  0  0  0  0
  151.3706  140.1536  154.9950 N   0  0  0  0  0  0  0  0  0  0  0  0
  150.8255  139.0779  154.3077 N   0  0  0  0  0  0  0  0  0  0  0  0
  149.4890  139.0508  154.4013 C   0  0  0  0  0  0  0  0  0  0  0  0
  148.6747  138.0578  153.7959 N   0  0  0  0  0  0  0  0  0  0  0  0
  147.4130  137.7112  154.1051 C   0  0  0  0  0  0  0  0  0  0  0  0
  146.7289  138.2255  154.9900 O   0  0  0  0  0  0  0  0  0  0  0  0
  146.9808  136.7147  153.3201 N   0  0  0  0  0  0  0  0  0  0  0  0
  145.6669  136.0804  153.4098 C   0  0  1  0  0  0  0  0  0  0  0  0
  145.0465  135.8870  152.0403 C   0  0  0  0  0  0  0  0  0  0  0  0
  144.0559  134.7383  152.2660 C   0  0  0  0  0  0  0  0  0  0  0  0
  142.6679  135.2491  152.6891 C   0  0  0  0  0  0  0  0  0  0  0  0
  143.9525  133.8109  151.0456 C   0  0  0  0  0  0  0  0  0  0  0  0
  144.5844  133.9906  153.3602 O   0  0  0  0  0  0  0  0  0  0  0  0
  145.7022  134.6395  153.9655 C   0  0  0  0  0  0  0  0  0  0  0  0
  146.9508  133.8304  153.5562 C   0  0  0  0  0  0  0  0  0  0  0  0
  145.5033  134.5983  155.4888 C   0  0  0  0  0  0  0  0  0  0  0  0
  148.7816  140.3513  155.3441 S   0  0  0  0  0  0  0  0  0  0  0  0
  150.5814  142.8561  158.4311 H   0  0  0  0  0  0  0  0  0  0  0  0
  150.8204  141.1136  158.3272 H   0  0  0  0  0  0  0  0  0  0  0  0
  149.2510  141.8136  157.9331 H   0  0  0  0  0  0  0  0  0  0  0  0
  150.2775  142.9859  155.9515 H   0  0  0  0  0  0  0  0  0  0  0  0
  151.8365  142.2969  156.3423 H   0  0  0  0  0  0  0  0  0  0  0  0
  149.1065  137.5465  153.0407 H   0  0  0  0  0  0  0  0  0  0  0  0
  147.6106  136.3536  152.6189 H   0  0  0  0  0  0  0  0  0  0  0  0
  144.9879  136.6959  154.0034 H   0  0  0  0  0  0  0  0  0  0  0  0
  144.5742  136.7923  151.6568 H   0  0  0  0  0  0  0  0  0  0  0  0
  145.8131  135.5900  151.3223 H   0  0  0  0  0  0  0  0  0  0  0  0
  142.2114  135.8491  151.9014 H   0  0  0  0  0  0  0  0  0  0  0  0
  142.7245  135.8670  153.5857 H   0  0  0  0  0  0  0  0  0  0  0  0
  141.9940  134.4199  152.9068 H   0  0  0  0  0  0  0  0  0  0  0  0
  143.5773  134.3472  150.1735 H   0  0  0  0  0  0  0  0  0  0  0  0
  143.2764  132.9778  151.2404 H   0  0  0  0  0  0  0  0  0  0  0  0
  144.9239  133.3892  150.7853 H   0  0  0  0  0  0  0  0  0  0  0  0
  147.8567  134.2303  154.0126 H   0  0  0  0  0  0  0  0  0  0  0  0
  147.0935  133.8300  152.4755 H   0  0  0  0  0  0  0  0  0  0  0  0
  146.8619  132.7909  153.8722 H   0  0  0  0  0  0  0  0  0  0  0  0
  146.3351  135.0726  156.0096 H   0  0  0  0  0  0  0  0  0  0  0  0
  145.4301  133.5720  155.8497 H   0  0  0  0  0  0  0  0  0  0  0  0
  144.5889  135.1147  155.7823 H   0  0  0  0  0  0  0  0  0  0  0  0
  1  2  1  0  0  0  0
  1 21  1  0  0  0  0
  1 22  1  0  0  0  0
  1 23  1  0  0  0  0
  2  3  1  0  0  0  0
  2 24  1  0  0  0  0
  2 25  1  0  0  0  0
  3 20  1  0  0  0  0
  3  4  2  0  0  0  0
  4  5  1  0  0  0  0
  5  6  2  0  0  0  0
  6  7  1  0  0  0  0
  6 20  1  0  0  0  0
  7  8  1  0  0  0  0
  7 26  1  0  0  0  0
  8  9  2  0  0  0  0
  8 10  1  0  0  0  0
 10 11  1  0  0  0  0
 10 27  1  0  0  0  0
 11 17  1  0  0  0  0
 11 12  1  0  0  0  0
 11 28  1  0  0  0  0
 12 13  1  0  0  0  0
 12 29  1  0  0  0  0
 12 30  1  0  0  0  0
 13 14  1  0  0  0  0
 13 15  1  0  0  0  0
 13 16  1  0  0  0  0
 14 31  1  0  0  0  0
 14 32  1  0  0  0  0
 14 33  1  0  0  0  0
 15 34  1  0  0  0  0
 15 35  1  0  0  0  0
 15 36  1  0  0  0  0
 16 17  1  0  0  0  0
 17 18  1  0  0  0  0
 17 19  1  0  0  0  0
 18 37  1  0  0  0  0
 18 38  1  0  0  0  0
 18 39  1  0  0  0  0
 19 40  1  0  0  0  0
 19 41  1  0  0  0  0
 19 42  1  0  0  0  0
M  END
> <s_m_source_file>
AV-unprocessed.smi

> <i_m_source_file_index>
2335

> <i_lp_mmshare_version>
43012

> <i_f3d_flags>
0

> <s_epik_input>
W0NIM11bQ0gyXWMxbm5jKHMxKVtOSF1DKD1PKVtOSF1bQ0BASF0oQyhPMikoW0NIM10pW0NIM10pW0NIMl1DMihbQ0gzXSlbQ0gzXQ==

> <s_epik_cmdline>
J2VwaWtfcHl0aG9uJywgJy1waCcsICc3LjAnLCAnLXRuJywgJzgnLCAnLW1hJywgJzIwMCcsICctbWV0YWxfYmluZGluZycsICctaW1hZScsICc8aW5maWxlLm1hZT4nLCAnLW9tYWUnLCAnPG91dGZpbGUubWFlPic=

> <r_lp_tautomer_probability>
1

> <r_epik_Ionization_Penalty>
0.000542824

> <r_epik_Ionization_Penalty_Charging>
0

> <r_epik_Ionization_Penalty_Neutral>
0.000542824

> <r_epik_State_Penalty>
-0

> <r_epik_Charging_Adjusted_Penalty>
0

> <i_epik_Tot_Q>
0

> <i_epik_Tot_abs_Q>
0

> <r_epik_Metal_State_Penalty>
0.227439

> <b_epik_Metal_Only>
0

> <s_lp_Force_Field>
OPLS_2005

> <r_lp_Energy>
12.5908

> <b_lp_Chiralities_Consistent>
1

> <s_lp_Variant>
AV-unprocessed.smi:2335-2

> <Gold.Version>
5.8.1

> <Gold.Id.Protein>
6NUR|6NUR_protein|mol2

> <Gold.PLP.Fitness>
31.1146

> <Gold.PLP.PLP>
-24.4784

> <Gold.PLP.part.hbond>
-3.6316

> <Gold.PLP.part.metal>
0.0000

> <Gold.PLP.part.buried>
-4.6240

> <Gold.PLP.part.nonpolar>
-18.0910

> <Gold.PLP.part.repulsive>
0.3906

> <Gold.PLP.ligand.clash>
0.0000

> <Gold.PLP.ligand.torsion>
0.2532

> <Gold.PLP.Chemscore.Hbond>
2.3760

> <Gold.PLP.Chemscore.CHOScore>
0.0000

> <Gold.PLP.Chemscore.Metal>
0.0000

> <Gold.Chemscore.Hbonds>
donor molecule, donor type, donor heavy atom, donor atom, acceptor molecule, acceptor atom, score
      L1  H     7    26       P1  7948  0.98
      L1  H    10    27       P1  7948  1.00
      P1  H  7989  7998       L1     4  0.40

> <Gold.PLP.Chemscore.Internal.Correction>
0.0147

> <Gold.Rescore>
     Score         DG    S(hbond)    S(metal)    S(lipo)     H(rot)  DE(clash)    DE(int)     intcor
     14.80     -15.20       1.91        0.00      54.98       1.21       0.01       0.40       ----

> <Gold.Chemscore.Fitness>
14.7964

> <Gold.Chemscore.DG>
-15.2036

> <Gold.Chemscore.ZeroCoef>
-5.4800

> <Gold.Chemscore.Hbond>
1.9105

> <Gold.Chemscore.Metal>
0.0000

> <Gold.Chemscore.Lipo>
54.9759

> <Gold.Chemscore.Internal_Hbond>
0.0000

> <Gold.Chemscore.DEClash>
0.0107

> <Gold.Chemscore.DEInternal>
0.3965

> <Gold.Chemscore.Rot>
1.2068

> <Gold.Chemscore.Internal.Correction>
   9.000000E+99

> <Gold.Chemscore.Hbonds>
donor molecule, donor type, donor heavy atom, donor atom, acceptor molecule, acceptor atom, score
      L1  H     7    26       P1  7948  0.92
      L1  H    10    27       P1  7948  0.93
      P1  H  7989  7998       L1     4  0.01

> <Gold.Chemscore.Hbond.Weighted>
-6.3810

> <Gold.Chemscore.Metal.Weighted>
-0.0000

> <Gold.Chemscore.Lipo.Weighted>
-6.4322

> <Gold.Chemscore.Internal_Hbond.Weighted>
0.0000

> <Gold.Chemscore.DEClash.Weighted>
0.0107

> <Gold.Chemscore.DEInternal.Weighted>
0.3965

> <Gold.Chemscore.Rot.Weighted>
3.0895

> <Gold.Chemscore.Internal.Correction.Weighted>
   9.000000E+99

> <Gold.Protein.RotatedTorsions>
[ 6907 6896 6895 6894 ] final  155.44 input  -60.11 | X-H torsion
[ 7974 7965 7964 7962 ] final -136.18 input  175.53 | X-H torsion
[ 8008 7997 7996 7995 ] final   77.60 input   59.86 | X-H torsion
[ 10167 10162 10161 10158 ] final  164.39 input  -65.29 | X-H torsion
[ 10718 10713 10712 10709 ] final  -49.69 input   66.30 | X-H torsion
[ 10763 10752 10751 10750 ] final  140.11 input  -60.55 | X-H torsion
[ 11005 11000 10999 10996 ] final   86.36 input  -57.11 | X-H torsion

> <Gold.Protein.ActiveResidues>
 VAL166  LYS551  ARG553  GLY616  TRP617  ASP618  TYR619  PRO620  LYS621  CYS622 
 ASP623  PHE694  ASN695  SER759  ASP760  ASP761  ALA762  ILE779  LEU786  VAL792 
 PHE793  MET794  SER795  GLU796  ALA797  LYS798  CYS799  TRP800  GLU811  SER814 

> <Gold.Protein.RotatedAtoms>
  152.0441  133.3990  159.4349 H   0  0  0  0  0  0  0  0  0  0  0  0  # atno 6907 bound_to 6896
  150.6874  134.3381  159.4865 H   0  0  0  0  0  0  0  0  0  0  0  0  # atno 6908 bound_to 6896
  152.1183  134.9224  160.0614 H   0  0  0  0  0  0  0  0  0  0  0  0  # atno 6909 bound_to 6896
  144.8950  140.6694  143.5121 H   0  0  0  0  0  0  0  0  0  0  0  0  # atno 7974 bound_to 7965
  155.8439  140.3461  155.5649 H   0  0  0  0  0  0  0  0  0  0  0  0  # atno 8008 bound_to 7997
  155.8111  140.0899  157.1923 H   0  0  0  0  0  0  0  0  0  0  0  0  # atno 8009 bound_to 7997
  154.4005  140.1447  156.3375 H   0  0  0  0  0  0  0  0  0  0  0  0  # atno 8010 bound_to 7997
  139.4888  144.4240  151.9152 H   0  0  0  0  0  0  0  0  0  0  0  0  # atno 10167 bound_to 10162
  156.1870  130.4152  149.9425 H   0  0  0  0  0  0  0  0  0  0  0  0  # atno 10718 bound_to 10713
  153.9173  135.3004  155.3448 H   0  0  0  0  0  0  0  0  0  0  0  0  # atno 10763 bound_to 10752
  154.7593  135.4942  153.9437 H   0  0  0  0  0  0  0  0  0  0  0  0  # atno 10764 bound_to 10752
  153.1160  135.6771  153.9519 H   0  0  0  0  0  0  0  0  0  0  0  0  # atno 10765 bound_to 10752
  139.8947  134.8350  156.2709 H   0  0  0  0  0  0  0  0  0  0  0  0  # atno 11005 bound_to 11000
  145.3716  139.1657  143.4329 LP  0  0  0  0  0  0  0  0  0  0  0  0  # atno 17320 bound_to 7965
  146.3076  140.3789  142.8682 LP  0  0  0  0  0  0  0  0  0  0  0  0  # atno 17321 bound_to 7965
  140.3685  144.2885  150.5923 LP  0  0  0  0  0  0  0  0  0  0  0  0  # atno 17342 bound_to 10162
  140.5340  143.2237  151.8193 LP  0  0  0  0  0  0  0  0  0  0  0  0  # atno 17343 bound_to 10162
  156.7177  130.8995  151.3615 LP  0  0  0  0  0  0  0  0  0  0  0  0  # atno 17370 bound_to 10713
  157.6905  130.9229  150.0501 LP  0  0  0  0  0  0  0  0  0  0  0  0  # atno 17371 bound_to 10713
  141.0101  133.7100  156.1098 LP  0  0  0  0  0  0  0  0  0  0  0  0  # atno 17394 bound_to 11000
  140.7379  134.4182  157.5558 LP  0  0  0  0  0  0  0  0  0  0  0  0  # atno 17395 bound_to 11000

$$$$
