AV-unprocessed.smi:2635|AV-procd|sdf|10255|dock1
  -GOLD-   2272014263D 1   1.00000     0.00000
 Structure written by MMmdl.
 32 33  0  0  0  0  0  0  0  0  1 V2000
  146.7648  142.0396  153.9791 C   0  0  0  0  0  0  0  0  0  0  0  0
  147.8991  141.0347  154.0900 C   0  0  0  0  0  0  0  0  0  0  0  0
  149.0096  141.2709  154.8346 C   0  0  0  0  0  0  0  0  0  0  0  0
  150.0590  140.3739  154.9467 N   0  0  0  0  0  0  0  0  0  0  0  0
  151.2145  140.6186  155.7912 C   0  0  0  0  0  0  0  0  0  0  0  0
  150.8122  141.3409  156.9095 O   0  0  0  0  0  0  0  0  0  0  0  0
  151.0237  142.7369  156.7793 C   0  0  0  0  0  0  0  0  0  0  0  0
  151.3955  143.3599  158.1089 C   0  0  0  0  0  0  0  0  0  0  0  0
  152.3997  142.7761  158.9091 C   0  0  0  0  0  0  0  0  0  0  0  0
  152.7475  143.3588  160.1436 C   0  0  0  0  0  0  0  0  0  0  0  0
  152.0936  144.5270  160.5806 C   0  0  0  0  0  0  0  0  0  0  0  0
  151.0926  145.1138  159.7823 C   0  0  0  0  0  0  0  0  0  0  0  0
  150.7446  144.5319  158.5475 C   0  0  0  0  0  0  0  0  0  0  0  0
  149.9930  139.1293  154.2865 C   0  0  0  0  0  0  0  0  0  0  0  0
  150.8797  138.2786  154.3625 O   0  0  0  0  0  0  0  0  0  0  0  0
  148.8541  138.8886  153.5192 N   0  0  0  0  0  0  0  0  0  0  0  0
  147.7780  139.7671  153.3624 C   0  0  0  0  0  0  0  0  0  0  0  0
  146.8271  139.4413  152.6537 O   0  0  0  0  0  0  0  0  0  0  0  0
  148.7999  138.0019  153.0394 H   0  0  0  0  0  0  0  0  0  0  0  0
  146.9477  142.9239  154.5901 H   0  0  0  0  0  0  0  0  0  0  0  0
  145.8252  141.5948  154.3087 H   0  0  0  0  0  0  0  0  0  0  0  0
  146.6462  142.3662  152.9455 H   0  0  0  0  0  0  0  0  0  0  0  0
  149.0827  142.2079  155.3682 H   0  0  0  0  0  0  0  0  0  0  0  0
  151.6626  139.6617  156.0702 H   0  0  0  0  0  0  0  0  0  0  0  0
  151.9537  141.1884  155.2251 H   0  0  0  0  0  0  0  0  0  0  0  0
  151.8210  142.9297  156.0595 H   0  0  0  0  0  0  0  0  0  0  0  0
  150.1229  143.2194  156.3964 H   0  0  0  0  0  0  0  0  0  0  0  0
  152.9065  141.8814  158.5778 H   0  0  0  0  0  0  0  0  0  0  0  0
  153.5166  142.9099  160.7546 H   0  0  0  0  0  0  0  0  0  0  0  0
  152.3608  144.9738  161.5269 H   0  0  0  0  0  0  0  0  0  0  0  0
  150.5922  146.0106  160.1164 H   0  0  0  0  0  0  0  0  0  0  0  0
  149.9786  144.9878  157.9375 H   0  0  0  0  0  0  0  0  0  0  0  0
  1  2  1  0  0  0  0
  1 20  1  0  0  0  0
  1 21  1  0  0  0  0
  1 22  1  0  0  0  0
  2 17  1  0  0  0  0
  2  3  2  0  0  0  0
  3  4  1  0  0  0  0
  3 23  1  0  0  0  0
  4  5  1  0  0  0  0
  4 14  1  0  0  0  0
  5  6  1  0  0  0  0
  5 24  1  0  0  0  0
  5 25  1  0  0  0  0
  6  7  1  0  0  0  0
  7  8  1  0  0  0  0
  7 26  1  0  0  0  0
  7 27  1  0  0  0  0
  8 13  1  0  0  0  0
  8  9  2  0  0  0  0
  9 10  1  0  0  0  0
  9 28  1  0  0  0  0
 10 11  2  0  0  0  0
 10 29  1  0  0  0  0
 11 12  1  0  0  0  0
 11 30  1  0  0  0  0
 12 13  2  0  0  0  0
 12 31  1  0  0  0  0
 13 32  1  0  0  0  0
 14 15  2  0  0  0  0
 14 16  1  0  0  0  0
 16 19  1  0  0  0  0
 16 17  1  0  0  0  0
 17 18  2  0  0  0  0
M  END
> <s_m_source_file>
AV-unprocessed.smi

> <i_m_source_file_index>
2635

> <i_lp_mmshare_version>
43012

> <i_f3d_flags>
0

> <s_epik_input>
Tz1jMVtuSF1jKD1PKW4oW2NIXWMxW0NIM10pW0NIMl1PW0NIMl1jMltjSF1bY0hdW2NIXVtjSF1bY0hdMg==

> <s_epik_cmdline>
J2VwaWtfcHl0aG9uJywgJy1waCcsICc3LjAnLCAnLXRuJywgJzgnLCAnLW1hJywgJzIwMCcsICctbWV0YWxfYmluZGluZycsICctaW1hZScsICc8aW5maWxlLm1hZT4nLCAnLW9tYWUnLCAnPG91dGZpbGUubWFlPic=

> <r_lp_tautomer_probability>
0.999537

> <r_epik_Ionization_Penalty>
0.00186109

> <r_epik_Ionization_Penalty_Charging>
0.00186109

> <r_epik_Ionization_Penalty_Neutral>
6.96075e-13

> <r_epik_State_Penalty>
0.00126512

> <r_epik_Charging_Adjusted_Penalty>
0.00312622

> <i_epik_Tot_Q>
0

> <i_epik_Tot_abs_Q>
0

> <r_epik_Metal_State_Penalty>
0.842611

> <b_epik_Metal_Only>
0

> <s_epik_Chemistry_Notes>
This compound contains an acetal/aminal-like group ( X-CH(R)-Y where X, Y are N, S, or O) that may be acid/base labile, releasing an aldehyde.

> <s_lp_Force_Field>
OPLS_2005

> <r_lp_Energy>
3.09653

> <b_lp_Chiralities_Consistent>
1

> <s_lp_Variant>
AV-unprocessed.smi:2635-1

> <Gold.Version>
5.8.1

> <Gold.Id.Protein>
6NUR|6NUR_protein|mol2

> <Gold.PLP.Fitness>
46.7825

> <Gold.PLP.PLP>
-43.4423

> <Gold.PLP.part.hbond>
-1.6799

> <Gold.PLP.part.metal>
0.0000

> <Gold.PLP.part.buried>
-3.9261

> <Gold.PLP.part.nonpolar>
-38.7929

> <Gold.PLP.part.repulsive>
0.6752

> <Gold.PLP.ligand.clash>
0.0000

> <Gold.PLP.ligand.torsion>
0.9555

> <Gold.PLP.Chemscore.Hbond>
0.7475

> <Gold.PLP.Chemscore.CHOScore>
0.9834

> <Gold.PLP.Chemscore.Metal>
0.0000

> <Gold.Chemscore.Hbonds>
donor molecule, donor type, donor heavy atom, donor atom, acceptor molecule, acceptor atom, score
      L1  H    16    19       P1  7948  0.81
      L1  C     3    23       P1  8028  1.00

> <Gold.PLP.Chemscore.Internal.Correction>
0.0584

> <Gold.Rescore>
     Score         DG    S(hbond)    S(metal)    S(lipo)     H(rot)  DE(clash)    DE(int)     intcor
     13.86     -14.74       0.98        0.00      93.71       1.94       0.02       0.86       ----

> <Gold.Chemscore.Fitness>
13.8593

> <Gold.Chemscore.DG>
-14.7352

> <Gold.Chemscore.ZeroCoef>
-5.4800

> <Gold.Chemscore.Hbond>
0.9770

> <Gold.Chemscore.Metal>
0.0000

> <Gold.Chemscore.Lipo>
93.7052

> <Gold.Chemscore.Internal_Hbond>
0.0000

> <Gold.Chemscore.DEClash>
0.0186

> <Gold.Chemscore.DEInternal>
0.8573

> <Gold.Chemscore.Rot>
1.9420

> <Gold.Chemscore.Internal.Correction>
   9.000000E+99

> <Gold.Chemscore.Hbonds>
donor molecule, donor type, donor heavy atom, donor atom, acceptor molecule, acceptor atom, score
      L1  H    16    19       P1  7948  0.79

> <Gold.Chemscore.Hbond.Weighted>
-3.2633

> <Gold.Chemscore.Metal.Weighted>
-0.0000

> <Gold.Chemscore.Lipo.Weighted>
-10.9635

> <Gold.Chemscore.Internal_Hbond.Weighted>
0.0000

> <Gold.Chemscore.DEClash.Weighted>
0.0186

> <Gold.Chemscore.DEInternal.Weighted>
0.8573

> <Gold.Chemscore.Rot.Weighted>
4.9716

> <Gold.Chemscore.Internal.Correction.Weighted>
   9.000000E+99

> <Gold.Protein.RotatedTorsions>
[ 6907 6896 6895 6894 ] final  -14.37 input  -60.11 | X-H torsion
[ 7974 7965 7964 7962 ] final  -53.71 input  175.53 | X-H torsion
[ 8008 7997 7996 7995 ] final   26.92 input   59.86 | X-H torsion
[ 10167 10162 10161 10158 ] final  -22.92 input  -65.29 | X-H torsion
[ 10718 10713 10712 10709 ] final  -12.92 input   66.30 | X-H torsion
[ 10763 10752 10751 10750 ] final   22.22 input  -60.55 | X-H torsion
[ 11005 11000 10999 10996 ] final  142.30 input  -57.11 | X-H torsion

> <Gold.Protein.ActiveResidues>
 VAL166  LYS551  ARG553  GLY616  TRP617  ASP618  TYR619  PRO620  LYS621  CYS622 
 ASP623  PHE694  ASN695  SER759  ASP760  ASP761  ALA762  ILE779  LEU786  VAL792 
 PHE793  MET794  SER795  GLU796  ALA797  LYS798  CYS799  TRP800  GLU811  SER814 

> <Gold.Protein.RotatedAtoms>
  151.3404  135.0862  159.9368 H   0  0  0  0  0  0  0  0  0  0  0  0  # atno 6907 bound_to 6896
  152.5213  133.9453  159.7656 H   0  0  0  0  0  0  0  0  0  0  0  0  # atno 6908 bound_to 6896
  150.9808  133.6194  159.2752 H   0  0  0  0  0  0  0  0  0  0  0  0  # atno 6909 bound_to 6896
  145.8938  140.8049  142.9778 H   0  0  0  0  0  0  0  0  0  0  0  0  # atno 7974 bound_to 7965
  155.0348  140.3162  155.4745 H   0  0  0  0  0  0  0  0  0  0  0  0  # atno 8008 bound_to 7997
  156.2867  140.2174  156.5413 H   0  0  0  0  0  0  0  0  0  0  0  0  # atno 8009 bound_to 7997
  154.7340  140.0479  157.0740 H   0  0  0  0  0  0  0  0  0  0  0  0  # atno 8010 bound_to 7997
  140.7287  143.4490  151.0544 H   0  0  0  0  0  0  0  0  0  0  0  0  # atno 10167 bound_to 10162
  156.6377  130.4919  149.6106 H   0  0  0  0  0  0  0  0  0  0  0  0  # atno 10718 bound_to 10713
  153.0933  135.6653  153.9812 H   0  0  0  0  0  0  0  0  0  0  0  0  # atno 10763 bound_to 10752
  153.9403  135.2994  155.3444 H   0  0  0  0  0  0  0  0  0  0  0  0  # atno 10764 bound_to 10752
  154.7349  135.5106  153.9099 H   0  0  0  0  0  0  0  0  0  0  0  0  # atno 10765 bound_to 10752
  140.0466  134.9277  157.0942 H   0  0  0  0  0  0  0  0  0  0  0  0  # atno 11005 bound_to 11000
  144.6732  140.1571  143.7425 LP  0  0  0  0  0  0  0  0  0  0  0  0  # atno 17320 bound_to 7965
  145.8876  139.2357  143.1569 LP  0  0  0  0  0  0  0  0  0  0  0  0  # atno 17321 bound_to 7965
  139.8165  143.7879  152.3174 LP  0  0  0  0  0  0  0  0  0  0  0  0  # atno 17342 bound_to 10162
  139.7947  144.7397  150.9907 LP  0  0  0  0  0  0  0  0  0  0  0  0  # atno 17343 bound_to 10162
  156.2184  130.6722  151.1342 LP  0  0  0  0  0  0  0  0  0  0  0  0  # atno 17370 bound_to 10713
  157.7181  131.0698  150.6248 LP  0  0  0  0  0  0  0  0  0  0  0  0  # atno 17371 bound_to 10713
  140.3983  134.2110  155.7164 LP  0  0  0  0  0  0  0  0  0  0  0  0  # atno 17394 bound_to 11000
  141.1910  133.8204  157.0896 LP  0  0  0  0  0  0  0  0  0  0  0  0  # atno 17395 bound_to 11000

$$$$
