#       Name:                AV-unprocessed.smi:796
#       Creating user name   scv26
#       Creation time:       Fri Mar 27 01:20:04 2020


#       File generated by GOLD software.
#

@<TRIPOS>MOLECULE
AV-unprocessed.smi:796
    54    55     1
SMALL
NO_CHARGES


@<TRIPOS>ATOM
      1 ****        -4.1015   1.2724   2.9987 C.3            1 S1                 0.0000
      2 ****        -4.6821   0.4039   1.8692 C.3            1 S1                 0.0000
      3 ****        -4.0730  -1.0221   1.7320 C.3            1 S1                 0.0000
      4 ****        -4.6741  -1.7391   0.4992 C.3            1 S1                 0.0000
      5 ****        -4.3501  -1.8780   2.9942 C.3            1 S1                 0.0000
      6 ****        -5.7297  -1.9952   3.2795 O.3            1 S1                 0.0000
      7 ****        -2.6094  -0.9581   1.6010 N.am           1 S1                 0.0000
      8 ****        -1.8766  -0.3694   0.6404 C.2            1 S1                 0.0000
      9 ****        -2.3541   0.2561  -0.3053 O.2            1 S1                 0.0000
     10 ****        -0.5629  -0.5390   0.8688 N.am           1 S1                 0.0000
     11 ****         0.5359  -0.1435   0.0587 C.ar           1 S1                 0.0000
     12 ****         0.4468   0.1420  -1.3234 C.ar           1 S1                 0.0000
     13 ****         1.6149   0.4992  -2.0233 C.ar           1 S1                 0.0000
     14 ****         2.8490   0.5551  -1.3329 C.ar           1 S1                 0.0000
     15 ****         4.0335   0.9086  -2.0167 N.3            1 S1                 0.0000
     16 ****         4.3045   0.1716  -3.2491 C.3            1 S1                 0.0000
     17 ****         5.4282   0.8552  -4.0472 C.3            1 S1                 0.0000
     18 ****         6.5826   1.0017  -3.2273 O.3            1 S1                 0.0000
     19 ****         6.3231   1.8183  -2.0905 C.3            1 S1                 0.0000
     20 ****         5.2336   1.1663  -1.2223 C.3            1 S1                 0.0000
     21 ****         2.9297   0.2769  -0.0083 N.ar           1 S1                 0.0000
     22 ****         1.8081  -0.0669   0.6586 C.ar           1 S1                 0.0000
     23 ****        -4.5754   2.2539   3.0049 H              1 S1                 0.0000
     24 ****        -3.0299   1.4310   2.8784 H              1 S1                 0.0000
     25 ****        -4.2698   0.8262   3.9784 H              1 S1                 0.0000
     26 ****        -5.7607   0.3287   2.0098 H              1 S1                 0.0000
     27 ****        -4.5629   0.9455   0.9308 H              1 S1                 0.0000
     28 ****        -5.7517  -1.8697   0.6004 H              1 S1                 0.0000
     29 ****        -4.2368  -2.7287   0.3614 H              1 S1                 0.0000
     30 ****        -4.5147  -1.1792  -0.4220 H              1 S1                 0.0000
     31 ****        -3.9446  -2.8829   2.8683 H              1 S1                 0.0000
     32 ****        -3.8551  -1.4576   3.8697 H              1 S1                 0.0000
     33 ****        -5.8341  -2.5337   4.0490 H              1 S1                 0.0000
     34 ****        -2.0942  -1.4290   2.3302 H              1 S1                 0.0000
     35 ****        -0.3175  -0.9861   1.7399 H              1 S1                 0.0000
     36 ****        -0.4847   0.0838  -1.8640 H              1 S1                 0.0000
     37 ****         1.5454   0.7344  -3.0745 H              1 S1                 0.0000
     38 ****         4.5973  -0.8468  -2.9907 H              1 S1                 0.0000
     39 ****         3.4211   0.0955  -3.8809 H              1 S1                 0.0000
     40 ****         5.6871   0.2549  -4.9195 H              1 S1                 0.0000
     41 ****         5.1050   1.8299  -4.4167 H              1 S1                 0.0000
     42 ****         7.2429   1.9305  -1.5166 H              1 S1                 0.0000
     43 ****         6.0214   2.8178  -2.4078 H              1 S1                 0.0000
     44 ****         5.0002   1.8243  -0.3844 H              1 S1                 0.0000
     45 ****         5.5996   0.2258  -0.8079 H              1 S1                 0.0000
     46 ****         1.9337  -0.2854   1.7091 H              1 S1                 0.0000
     47 ****        -6.1988  -2.4197   2.5052 LP             1 S1                 0.0000
     48 ****        -6.1170  -1.0887   3.4477 LP             1 S1                 0.0000
     49 ****        -3.3458   0.3503  -0.3927 LP             1 S1                 0.0000
     50 ****        -1.7505   0.6704  -0.9865 LP             1 S1                 0.0000
     51 ****         3.7671   1.8271  -2.3090 LP             1 S1                 0.0000
     52 ****         7.3123   1.4211  -3.7674 LP             1 S1                 0.0000
     53 ****         6.8757   0.0976  -2.9163 LP             1 S1                 0.0000
     54 ****         3.8079   0.3258   0.4676 LP             1 S1                 0.0000
@<TRIPOS>BOND
    1    1    2 1     
    2    1   23 1     
    3    1   24 1     
    4    1   25 1     
    5    2    3 1     
    6    2   26 1     
    7    2   27 1     
    8    3    4 1     
    9    3    5 1     
   10    3    7 1     
   11    4   28 1     
   12    4   29 1     
   13    4   30 1     
   14    5    6 1     
   15    5   31 1     
   16    5   32 1     
   17    6   33 1     
   18    7    8 am    
   19    7   34 1     
   20    8    9 2     
   21    8   10 am    
   22   10   11 1     
   23   10   35 1     
   24   11   22 ar    
   25   11   12 ar    
   26   12   13 ar    
   27   12   36 1     
   28   13   14 ar    
   29   13   37 1     
   30   14   15 1     
   31   14   21 ar    
   32   15   20 1     
   33   15   16 1     
   34   16   17 1     
   35   16   38 1     
   36   16   39 1     
   37   17   18 1     
   38   17   40 1     
   39   17   41 1     
   40   18   19 1     
   41   19   20 1     
   42   19   42 1     
   43   19   43 1     
   44   20   44 1     
   45   20   45 1     
   46   21   22 ar    
   47   22   46 1     
   48    6   47 1     
   49    6   48 1     
   50    9   49 1     
   51    9   50 1     
   52   15   51 1     
   53   18   52 1     
   54   18   53 1     
   55   21   54 1     
@<TRIPOS>SUBSTRUCTURE
      1 S1             1
@<TRIPOS>SET
LONE_PAIRS      STATIC     ATOMS    <user>   **** ""
8 47 48 49 50 51 52 53 54
DONOR_HYDROGENS      STATIC     ATOMS    <user>   **** ""
3 33 34 35
ATOM$BLUE        STATIC     ATOMS    COLORGROUP SYSTEM
8 47 48 49 50 51 52 53 54
ATOM$RED        STATIC     ATOMS    COLORGROUP SYSTEM
3 33 34 35
