AV-unprocessed.smi:1180|AV-procd|sdf|4964|dock1
  -GOLD-   22720 3553D 1   1.00000     0.00000
 Structure written by MMmdl.
 37 38  0  0  0  0  0  0  0  0  2 V2000
  150.9384  142.8377  157.3979 C   0  0  0  0  0  0  0  0  0  0  0  0
  150.9140  141.6179  156.5018 C   0  0  0  0  0  0  0  0  0  0  0  0
  149.8959  141.4120  155.7563 N   0  0  0  0  0  0  0  0  0  0  0  0
  149.8643  140.2791  154.9256 C   0  0  0  0  0  0  0  0  0  0  0  0
  148.6145  140.1124  154.0794 C   0  0  0  0  0  0  0  0  0  0  0  0
  150.9020  139.3944  154.8994 C   0  0  0  0  0  0  0  0  0  0  0  0
  150.9181  138.1443  154.0190 C   0  0  0  0  0  0  0  0  0  0  0  0
  151.0227  136.8001  154.7446 C   0  0  0  0  0  0  0  0  0  0  0  0
  151.8389  136.6323  155.6513 O   0  0  0  0  0  0  0  0  0  0  0  0
  150.1813  135.8426  154.3269 N   0  0  0  0  0  0  0  0  0  0  0  0
  150.1048  134.4939  154.8778 C   0  0  0  0  0  0  0  0  0  0  0  0
  149.6399  133.4642  153.8300 C   0  0  2  0  0  0  0  0  0  0  0  0
  148.1601  133.5668  153.4770 C   0  0  0  0  0  0  0  0  0  0  0  0
  147.6939  132.1124  153.3528 C   0  0  0  0  0  0  0  0  0  0  0  0
  148.8785  131.3307  153.4079 O   0  0  0  0  0  0  0  0  0  0  0  0
  149.7866  132.0052  154.2613 C   0  0  0  0  0  0  0  0  0  0  0  0
  152.0598  139.6719  155.7678 C   0  0  0  0  0  0  0  0  0  0  0  0
  153.0291  138.9139  155.7699 O   0  0  0  0  0  0  0  0  0  0  0  0
  152.0111  140.7872  156.5512 N   0  5  0  0  0  0  0  0  0  0  0  0
  150.1873  143.5659  157.0888 H   0  0  0  0  0  0  0  0  0  0  0  0
  151.9150  143.3218  157.3605 H   0  0  0  0  0  0  0  0  0  0  0  0
  150.7342  142.5490  158.4291 H   0  0  0  0  0  0  0  0  0  0  0  0
  148.0583  139.2287  154.3922 H   0  0  0  0  0  0  0  0  0  0  0  0
  148.8736  140.0059  153.0259 H   0  0  0  0  0  0  0  0  0  0  0  0
  147.9551  140.9757  154.1749 H   0  0  0  0  0  0  0  0  0  0  0  0
  150.0390  138.1285  153.3732 H   0  0  0  0  0  0  0  0  0  0  0  0
  151.7618  138.2116  153.3324 H   0  0  0  0  0  0  0  0  0  0  0  0
  149.5435  136.0676  153.5774 H   0  0  0  0  0  0  0  0  0  0  0  0
  151.0940  134.2270  155.2507 H   0  0  0  0  0  0  0  0  0  0  0  0
  149.4374  134.4824  155.7411 H   0  0  0  0  0  0  0  0  0  0  0  0
  150.2118  133.6004  152.9104 H   0  0  0  0  0  0  0  0  0  0  0  0
  147.5878  134.0798  154.2509 H   0  0  0  0  0  0  0  0  0  0  0  0
  148.0221  134.1154  152.5447 H   0  0  0  0  0  0  0  0  0  0  0  0
  147.0492  131.8449  154.1912 H   0  0  0  0  0  0  0  0  0  0  0  0
  147.1446  131.9262  152.4296 H   0  0  0  0  0  0  0  0  0  0  0  0
  150.8034  131.6301  154.1415 H   0  0  0  0  0  0  0  0  0  0  0  0
  149.4857  131.8639  155.3009 H   0  0  0  0  0  0  0  0  0  0  0  0
  1  2  1  0  0  0  0
  1 20  1  0  0  0  0
  1 21  1  0  0  0  0
  1 22  1  0  0  0  0
  2 19  1  0  0  0  0
  2  3  2  0  0  0  0
  3  4  1  0  0  0  0
  4  5  1  0  0  0  0
  4  6  2  0  0  0  0
  5 23  1  0  0  0  0
  5 24  1  0  0  0  0
  5 25  1  0  0  0  0
  6  7  1  0  0  0  0
  6 17  1  0  0  0  0
  7  8  1  0  0  0  0
  7 26  1  0  0  0  0
  7 27  1  0  0  0  0
  8  9  2  0  0  0  0
  8 10  1  0  0  0  0
 10 11  1  0  0  0  0
 10 28  1  0  0  0  0
 11 12  1  0  0  0  0
 11 29  1  0  0  0  0
 11 30  1  0  0  0  0
 12 16  1  0  0  0  0
 12 13  1  0  0  0  0
 12 31  1  0  0  0  0
 13 14  1  0  0  0  0
 13 32  1  0  0  0  0
 13 33  1  0  0  0  0
 14 15  1  0  0  0  0
 14 34  1  0  0  0  0
 14 35  1  0  0  0  0
 15 16  1  0  0  0  0
 16 36  1  0  0  0  0
 16 37  1  0  0  0  0
 17 18  2  0  0  0  0
 17 19  1  0  0  0  0
M  CHG  1  19  -1
M  END
> <s_m_source_file>
AV-unprocessed.smi

> <i_m_source_file_index>
1180

> <i_lp_mmshare_version>
43012

> <i_f3d_flags>
0

> <s_epik_input>
W0NIM11jMW5jKFtDSDNdKWMoYyg9TylbbkhdMSlbQ0gyXUMoPU8pW05IXVtDSDJdW0NAQEhdMltDSDJdW0NIMl1PW0NIMl0y

> <s_epik_cmdline>
J2VwaWtfcHl0aG9uJywgJy1waCcsICc3LjAnLCAnLXRuJywgJzgnLCAnLW1hJywgJzIwMCcsICctbWV0YWxfYmluZGluZycsICctaW1hZScsICc8aW5maWxlLm1hZT4nLCAnLW9tYWUnLCAnPG91dGZpbGUubWFlPic=

> <r_lp_tautomer_probability>
0.839158

> <r_epik_Ionization_Penalty>
6.60319

> <r_epik_Ionization_Penalty_Charging>
6.85407e-08

> <r_epik_Ionization_Penalty_Neutral>
6.60319

> <r_epik_State_Penalty>
4.42883

> <r_epik_Charging_Adjusted_Penalty>
4.42883

> <i_epik_Tot_Q>
-1

> <i_epik_Tot_abs_Q>
1

> <r_epik_Metal_State_Penalty>
0.797578

> <b_epik_Metal_Only>
1

> <s_lp_Force_Field>
OPLS_2005

> <r_lp_Energy>
24.7937

> <b_lp_Chiralities_Consistent>
1

> <s_lp_Variant>
AV-unprocessed.smi:1180-5

> <Gold.Version>
5.8.1

> <Gold.Id.Protein>
6NUR|6NUR_protein|mol2

> <Gold.PLP.Fitness>
43.9832

> <Gold.PLP.PLP>
-36.1161

> <Gold.PLP.part.hbond>
-4.0878

> <Gold.PLP.part.metal>
0.0000

> <Gold.PLP.part.buried>
-0.0175

> <Gold.PLP.part.nonpolar>
-31.5106

> <Gold.PLP.part.repulsive>
0.2843

> <Gold.PLP.ligand.clash>
0.0000

> <Gold.PLP.ligand.torsion>
0.4290

> <Gold.PLP.Chemscore.Hbond>
2.9000

> <Gold.PLP.Chemscore.CHOScore>
0.0000

> <Gold.PLP.Chemscore.Metal>
0.0000

> <Gold.Chemscore.Hbonds>
donor molecule, donor type, donor heavy atom, donor atom, acceptor molecule, acceptor atom, score
      L1  H    10    28       P1  7948  1.00
      P1  H  7997  8008       L1    18  0.94
      P1  H 10752 10763       L1     9  1.00

> <Gold.PLP.Chemscore.Internal.Correction>
0.0251

> <Gold.Rescore>
     Score         DG    S(hbond)    S(metal)    S(lipo)     H(rot)  DE(clash)    DE(int)     intcor
     14.68     -16.30       2.55        0.00      58.30       1.76       0.05       1.57       ----

> <Gold.Chemscore.Fitness>
14.6789

> <Gold.Chemscore.DG>
-16.3017

> <Gold.Chemscore.ZeroCoef>
-5.4800

> <Gold.Chemscore.Hbond>
2.5451

> <Gold.Chemscore.Metal>
0.0000

> <Gold.Chemscore.Lipo>
58.2981

> <Gold.Chemscore.Internal_Hbond>
0.0000

> <Gold.Chemscore.DEClash>
0.0511

> <Gold.Chemscore.DEInternal>
1.5717

> <Gold.Chemscore.Rot>
1.7577

> <Gold.Chemscore.Internal.Correction>
   9.000000E+99

> <Gold.Chemscore.Hbonds>
donor molecule, donor type, donor heavy atom, donor atom, acceptor molecule, acceptor atom, score
      L1  H    10    28       P1  7948  0.44
      P1  H  7997  8008       L1    18  0.24
      P1  H 10752 10763       L1     9  0.67

> <Gold.Chemscore.Hbond.Weighted>
-8.5006

> <Gold.Chemscore.Metal.Weighted>
-0.0000

> <Gold.Chemscore.Lipo.Weighted>
-6.8209

> <Gold.Chemscore.Internal_Hbond.Weighted>
0.0000

> <Gold.Chemscore.DEClash.Weighted>
0.0511

> <Gold.Chemscore.DEInternal.Weighted>
1.5717

> <Gold.Chemscore.Rot.Weighted>
4.4998

> <Gold.Chemscore.Internal.Correction.Weighted>
   9.000000E+99

> <Gold.Protein.RotatedTorsions>
[ 6907 6896 6895 6894 ] final  130.14 input  -60.11 | X-H torsion
[ 7974 7965 7964 7962 ] final  132.18 input  175.53 | X-H torsion
[ 8008 7997 7996 7995 ] final  -53.38 input   59.86 | X-H torsion
[ 10167 10162 10161 10158 ] final -152.94 input  -65.29 | X-H torsion
[ 10718 10713 10712 10709 ] final  178.03 input   66.30 | X-H torsion
[ 10763 10752 10751 10750 ] final   91.54 input  -60.55 | X-H torsion
[ 11005 11000 10999 10996 ] final  -20.82 input  -57.11 | X-H torsion

> <Gold.Protein.ActiveResidues>
 VAL166  LYS551  ARG553  GLY616  TRP617  ASP618  TYR619  PRO620  LYS621  CYS622 
 ASP623  PHE694  ASN695  SER759  ASP760  ASP761  ALA762  ILE779  LEU786  VAL792 
 PHE793  MET794  SER795  GLU796  ALA797  LYS798  CYS799  TRP800  GLU811  SER814 

> <Gold.Protein.RotatedAtoms>
  152.3555  133.6232  159.5975 H   0  0  0  0  0  0  0  0  0  0  0  0  # atno 6907 bound_to 6896
  150.7566  133.9507  159.3493 H   0  0  0  0  0  0  0  0  0  0  0  0  # atno 6908 bound_to 6896
  151.7352  135.0867  160.0358 H   0  0  0  0  0  0  0  0  0  0  0  0  # atno 6909 bound_to 6896
  144.9995  139.4326  143.5299 H   0  0  0  0  0  0  0  0  0  0  0  0  # atno 7974 bound_to 7965
  154.4132  140.1201  156.5144 H   0  0  0  0  0  0  0  0  0  0  0  0  # atno 8008 bound_to 7997
  155.6766  140.3496  155.4819 H   0  0  0  0  0  0  0  0  0  0  0  0  # atno 8009 bound_to 7997
  155.9587  140.1119  157.0904 H   0  0  0  0  0  0  0  0  0  0  0  0  # atno 8010 bound_to 7997
  139.7139  143.9065  152.2478 H   0  0  0  0  0  0  0  0  0  0  0  0  # atno 10167 bound_to 10162
  156.8967  130.9865  151.3042 H   0  0  0  0  0  0  0  0  0  0  0  0  # atno 10718 bound_to 10713
  153.2093  135.4394  155.0361 H   0  0  0  0  0  0  0  0  0  0  0  0  # atno 10763 bound_to 10752
  154.8191  135.3329  154.7092 H   0  0  0  0  0  0  0  0  0  0  0  0  # atno 10764 bound_to 10752
  153.7531  135.6997  153.4997 H   0  0  0  0  0  0  0  0  0  0  0  0  # atno 10765 bound_to 10752
  140.8501  133.7863  155.9956 H   0  0  0  0  0  0  0  0  0  0  0  0  # atno 11005 bound_to 11000
  146.3449  139.9376  142.8745 LP  0  0  0  0  0  0  0  0  0  0  0  0  # atno 17320 bound_to 7965
  145.2172  140.9920  143.4066 LP  0  0  0  0  0  0  0  0  0  0  0  0  # atno 17321 bound_to 7965
  139.8942  144.6948  150.8737 LP  0  0  0  0  0  0  0  0  0  0  0  0  # atno 17342 bound_to 10162
  140.7739  143.3563  151.1915 LP  0  0  0  0  0  0  0  0  0  0  0  0  # atno 17343 bound_to 10162
  157.6051  130.8541  149.8863 LP  0  0  0  0  0  0  0  0  0  0  0  0  # atno 17370 bound_to 10713
  156.0602  130.3701  150.0999 LP  0  0  0  0  0  0  0  0  0  0  0  0  # atno 17371 bound_to 10713
  140.8799  134.2623  157.5149 LP  0  0  0  0  0  0  0  0  0  0  0  0  # atno 17394 bound_to 11000
  139.8704  134.9610  156.4382 LP  0  0  0  0  0  0  0  0  0  0  0  0  # atno 17395 bound_to 11000

$$$$
