AV-unprocessed.smi:54|AV-procd|sdf|532|dock7
  -GOLD-   2262016413D 1   1.00000     0.00000
 Structure written by MMmdl.
 44 46  0  0  0  0  0  0  0  0  1 V2000
  152.8548  144.8143  158.0217 C   0  0  0  0  0  0  0  0  0  0  0  0
  151.4297  144.2394  157.9983 C   0  0  0  0  0  0  0  0  0  0  0  0
  150.6540  144.6202  159.2701 C   0  0  0  0  0  0  0  0  0  0  0  0
  151.4645  142.7172  157.8207 C   0  0  0  0  0  0  0  0  0  0  0  0
  152.0373  141.9792  158.6232 O   0  0  0  0  0  0  0  0  0  0  0  0
  150.7821  142.2122  156.6425 N   0  0  0  0  0  0  0  0  0  0  0  0
  150.6502  140.9206  156.2607 C   0  0  0  0  0  0  0  0  0  0  0  0
  149.5103  140.4080  155.8196 N   0  0  0  0  0  0  0  0  0  0  0  0
  149.5778  139.0880  155.4705 C   0  0  0  0  0  0  0  0  0  0  0  0
  150.6910  138.2765  155.5327 C   0  0  0  0  0  0  0  0  0  0  0  0
  150.3748  136.9948  155.0967 N   0  0  0  0  0  0  0  0  0  0  0  0
  149.1093  137.0682  154.7907 C   0  0  0  0  0  0  0  0  0  0  0  0
  148.5460  138.3062  154.9965 N   0  0  0  0  0  0  0  0  0  0  0  0
  147.1374  138.7609  154.7613 C   0  0  1  0  0  0  0  0  0  0  0  0
  146.9543  139.9430  155.4826 O   0  0  0  0  0  0  0  0  0  0  0  0
  146.5999  141.0227  154.6185 C   0  0  1  0  0  0  0  0  0  0  0  0
  147.1627  142.3563  155.1407 C   0  0  0  0  0  0  0  0  0  0  0  0
  146.6519  142.6262  156.4284 O   0  0  0  0  0  0  0  0  0  0  0  0
  147.0891  140.5944  153.2273 C   0  0  1  0  0  0  0  0  0  0  0  0
  148.4454  140.9519  153.0164 O   0  0  0  0  0  0  0  0  0  0  0  0
  146.8798  139.0877  153.2787 C   0  0  1  0  0  0  0  0  0  0  0  0
  147.6786  138.3804  152.3456 O   0  0  0  0  0  0  0  0  0  0  0  0
  151.9339  138.8179  156.0011 C   0  0  0  0  0  0  0  0  0  0  0  0
  153.0166  138.2485  156.1195 O   0  0  0  0  0  0  0  0  0  0  0  0
  151.8231  140.1705  156.3489 N   0  0  0  0  0  0  0  0  0  0  0  0
  146.5149  137.9543  155.1501 H   0  0  0  0  0  0  0  0  0  0  0  0
  145.5098  141.0687  154.5821 H   0  0  0  0  0  0  0  0  0  0  0  0
  146.4956  141.0544  152.4363 H   0  0  0  0  0  0  0  0  0  0  0  0
  145.8299  138.8704  153.0777 H   0  0  0  0  0  0  0  0  0  0  0  0
  153.4063  144.5452  157.1199 H   0  0  0  0  0  0  0  0  0  0  0  0
  153.4208  144.4492  158.8799 H   0  0  0  0  0  0  0  0  0  0  0  0
  152.8344  145.9030  158.0791 H   0  0  0  0  0  0  0  0  0  0  0  0
  150.9051  144.6695  157.1438 H   0  0  0  0  0  0  0  0  0  0  0  0
  149.6478  144.1991  159.2633 H   0  0  0  0  0  0  0  0  0  0  0  0
  150.5543  145.7025  159.3560 H   0  0  0  0  0  0  0  0  0  0  0  0
  151.1578  144.2636  160.1694 H   0  0  0  0  0  0  0  0  0  0  0  0
  150.3819  142.9088  156.0317 H   0  0  0  0  0  0  0  0  0  0  0  0
  148.5578  136.2217  154.4092 H   0  0  0  0  0  0  0  0  0  0  0  0
  148.2528  142.3482  155.1605 H   0  0  0  0  0  0  0  0  0  0  0  0
  146.8538  143.1755  154.4905 H   0  0  0  0  0  0  0  0  0  0  0  0
  147.2226  142.2275  157.0674 H   0  0  0  0  0  0  0  0  0  0  0  0
  148.7393  140.5442  152.2159 H   0  0  0  0  0  0  0  0  0  0  0  0
  147.8097  137.5039  152.6746 H   0  0  0  0  0  0  0  0  0  0  0  0
  152.6615  140.6187  156.6878 H   0  0  0  0  0  0  0  0  0  0  0  0
  1  2  1  0  0  0  0
  1 30  1  0  0  0  0
  1 31  1  0  0  0  0
  1 32  1  0  0  0  0
  2  3  1  0  0  0  0
  2  4  1  0  0  0  0
  2 33  1  0  0  0  0
  3 34  1  0  0  0  0
  3 35  1  0  0  0  0
  3 36  1  0  0  0  0
  4  5  2  0  0  0  0
  4  6  1  0  0  0  0
  6 37  1  0  0  0  0
  6  7  1  0  0  0  0
  7 25  1  0  0  0  0
  7  8  2  0  0  0  0
  8  9  1  0  0  0  0
  9 13  1  0  0  0  0
  9 10  2  0  0  0  0
 10 11  1  0  0  0  0
 10 23  1  0  0  0  0
 11 12  2  0  0  0  0
 12 13  1  0  0  0  0
 12 38  1  0  0  0  0
 13 14  1  0  0  0  0
 14 26  1  0  0  0  0
 14 21  1  0  0  0  0
 14 15  1  0  0  0  0
 15 16  1  0  0  0  0
 16 27  1  0  0  0  0
 16 17  1  0  0  0  0
 16 19  1  0  0  0  0
 17 18  1  0  0  0  0
 17 39  1  0  0  0  0
 17 40  1  0  0  0  0
 18 41  1  0  0  0  0
 19 28  1  0  0  0  0
 19 20  1  0  0  0  0
 19 21  1  0  0  0  0
 20 42  1  0  0  0  0
 21 29  1  0  0  0  0
 21 22  1  0  0  0  0
 22 43  1  0  0  0  0
 23 24  2  0  0  0  0
 23 25  1  0  0  0  0
 25 44  1  0  0  0  0
M  END
> <s_m_source_file>
AV-unprocessed.smi

> <i_m_source_file_index>
54

> <i_lp_mmshare_version>
43012

> <i_f3d_flags>
0

> <s_epik_input>
W0NIM11bQ0hdKFtDSDNdKUMoPU8pW05IXWMobjEpW25IXWMoPU8pYyhjMTIpbltjSF1uMltDQEBIXTNPW0NASF0oW0NIMl1bT0hdKVtDQEBIXShbT0hdKVtDQEhdM1tPSF0=

> <s_epik_cmdline>
J2VwaWtfcHl0aG9uJywgJy1waCcsICc3LjAnLCAnLXRuJywgJzgnLCAnLW1hJywgJzIwMCcsICctbWV0YWxfYmluZGluZycsICctaW1hZScsICc8aW5maWxlLm1hZT4nLCAnLW9tYWUnLCAnPG91dGZpbGUubWFlPic=

> <r_lp_tautomer_probability>
0.85571

> <r_epik_Ionization_Penalty>
0.0316551

> <r_epik_Ionization_Penalty_Charging>
0.0316043

> <r_epik_Ionization_Penalty_Neutral>
5.07097e-05

> <r_epik_State_Penalty>
3.15494e-07

> <r_epik_Charging_Adjusted_Penalty>
0.0316047

> <i_epik_Tot_Q>
0

> <i_epik_Tot_abs_Q>
0

> <r_epik_Metal_State_Penalty>
0.421206

> <b_epik_Metal_Only>
0

> <s_epik_Chemistry_Notes>
This compound contains an acetal/aminal-like group ( X-CH(R)-Y where X, Y are N, S, or O) that may be acid/base labile, releasing an aldehyde.

> <s_lp_Force_Field>
OPLS_2005

> <r_lp_Energy>
45.6479

> <b_lp_Chiralities_Consistent>
1

> <s_lp_Variant>
AV-unprocessed.smi:54-4

> <Gold.Version>
5.8.1

> <Gold.Id.Protein>
6NUR|6NUR_protein|mol2

> <Gold.PLP.Fitness>
47.0399

> <Gold.PLP.PLP>
-34.5185

> <Gold.PLP.part.hbond>
-5.9507

> <Gold.PLP.part.metal>
0.0000

> <Gold.PLP.part.buried>
0.5305

> <Gold.PLP.part.nonpolar>
-29.6835

> <Gold.PLP.part.repulsive>
0.5535

> <Gold.PLP.ligand.clash>
0.0000

> <Gold.PLP.ligand.torsion>
0.9286

> <Gold.PLP.Chemscore.Hbond>
3.9260

> <Gold.PLP.Chemscore.CHOScore>
0.7185

> <Gold.PLP.Chemscore.Metal>
0.0000

> <Gold.Chemscore.Hbonds>
donor molecule, donor type, donor heavy atom, donor atom, acceptor molecule, acceptor atom, score
      L1  H     6    37       P1  8028  0.15
      L1  H    20    42       P1  7957  0.80
      L1  H    22    43       P1  7948  0.45
      P1  H  7997  8009       L1    24  0.26
      L1  C    12    38       P1  7948  0.46

> <Gold.PLP.Chemscore.Internal.Correction>
0.4449

> <Gold.Rescore>
     Score         DG    S(hbond)    S(metal)    S(lipo)     H(rot)  DE(clash)    DE(int)     intcor
      7.91     -13.43       3.40        0.00      59.45       4.05       2.21       3.30       ----

> <Gold.Chemscore.Fitness>
7.9077

> <Gold.Chemscore.DG>
-13.4252

> <Gold.Chemscore.ZeroCoef>
-5.4800

> <Gold.Chemscore.Hbond>
3.3998

> <Gold.Chemscore.Metal>
0.0000

> <Gold.Chemscore.Lipo>
59.4533

> <Gold.Chemscore.Internal_Hbond>
0.0000

> <Gold.Chemscore.DEClash>
2.2143

> <Gold.Chemscore.DEInternal>
3.3032

> <Gold.Chemscore.Rot>
4.0493

> <Gold.Chemscore.Internal.Correction>
   9.000000E+99

> <Gold.Chemscore.Hbonds>
donor molecule, donor type, donor heavy atom, donor atom, acceptor molecule, acceptor atom, score
      L1  H     6    37       P1  8028  0.15
      L1  H    20    42       P1  7957  0.78
      L1  H    22    43       P1  7948  0.46
      P1  H  7997  8009       L1    24  0.05

> <Gold.Chemscore.Hbond.Weighted>
-11.3554

> <Gold.Chemscore.Metal.Weighted>
-0.0000

> <Gold.Chemscore.Lipo.Weighted>
-6.9560

> <Gold.Chemscore.Internal_Hbond.Weighted>
0.0000

> <Gold.Chemscore.DEClash.Weighted>
2.2143

> <Gold.Chemscore.DEInternal.Weighted>
3.3032

> <Gold.Chemscore.Rot.Weighted>
10.3662

> <Gold.Chemscore.Internal.Correction.Weighted>
   9.000000E+99

> <Gold.Protein.RotatedTorsions>
[ 6907 6896 6895 6894 ] final -170.41 input  -60.11 | X-H torsion
[ 7974 7965 7964 7962 ] final -155.61 input  175.53 | X-H torsion
[ 8008 7997 7996 7995 ] final -154.19 input   59.86 | X-H torsion
[ 10167 10162 10161 10158 ] final -166.38 input  -65.29 | X-H torsion
[ 10718 10713 10712 10709 ] final  176.54 input   66.30 | X-H torsion
[ 10763 10752 10751 10750 ] final   64.89 input  -60.55 | X-H torsion
[ 11005 11000 10999 10996 ] final   99.38 input  -57.11 | X-H torsion

> <Gold.Protein.ActiveResidues>
 VAL166  LYS551  ARG553  GLY616  TRP617  ASP618  TYR619  PRO620  LYS621  CYS622 
 ASP623  PHE694  ASN695  SER759  ASP760  ASP761  ALA762  ILE779  LEU786  VAL792 
 PHE793  MET794  SER795  GLU796  ALA797  LYS798  CYS799  TRP800  GLU811  SER814 

> <Gold.Protein.RotatedAtoms>
  151.5072  133.3492  159.2878 H   0  0  0  0  0  0  0  0  0  0  0  0  # atno 6907 bound_to 6896
  150.8735  134.8115  159.7183 H   0  0  0  0  0  0  0  0  0  0  0  0  # atno 6908 bound_to 6896
  152.4714  134.4960  159.9762 H   0  0  0  0  0  0  0  0  0  0  0  0  # atno 6909 bound_to 6896
  144.7632  140.4225  143.5961 H   0  0  0  0  0  0  0  0  0  0  0  0  # atno 7974 bound_to 7965
  155.6825  140.0746  157.2479 H   0  0  0  0  0  0  0  0  0  0  0  0  # atno 8008 bound_to 7997
  154.4103  140.1679  156.2049 H   0  0  0  0  0  0  0  0  0  0  0  0  # atno 8009 bound_to 7997
  155.9523  140.3376  155.6421 H   0  0  0  0  0  0  0  0  0  0  0  0  # atno 8010 bound_to 7997
  139.6119  144.0798  152.1850 H   0  0  0  0  0  0  0  0  0  0  0  0  # atno 10167 bound_to 10162
  156.9186  130.9933  151.3008 H   0  0  0  0  0  0  0  0  0  0  0  0  # atno 10718 bound_to 10713
  153.0074  135.5376  154.6582 H   0  0  0  0  0  0  0  0  0  0  0  0  # atno 10763 bound_to 10752
  154.5797  135.2849  155.0747 H   0  0  0  0  0  0  0  0  0  0  0  0  # atno 10764 bound_to 10752
  154.1881  135.6505  153.5105 H   0  0  0  0  0  0  0  0  0  0  0  0  # atno 10765 bound_to 10752
  139.8771  134.9093  156.4597 H   0  0  0  0  0  0  0  0  0  0  0  0  # atno 11005 bound_to 11000
  145.6553  139.1572  143.2839 LP  0  0  0  0  0  0  0  0  0  0  0  0  # atno 17320 bound_to 7965
  146.1715  140.6639  142.9231 LP  0  0  0  0  0  0  0  0  0  0  0  0  # atno 17321 bound_to 7965
  140.0419  144.6001  150.7404 LP  0  0  0  0  0  0  0  0  0  0  0  0  # atno 17342 bound_to 10162
  140.7324  143.2706  151.3902 LP  0  0  0  0  0  0  0  0  0  0  0  0  # atno 17343 bound_to 10162
  157.5922  130.8452  149.8676 LP  0  0  0  0  0  0  0  0  0  0  0  0  # atno 17370 bound_to 10713
  156.0502  130.3719  150.1220 LP  0  0  0  0  0  0  0  0  0  0  0  0  # atno 17371 bound_to 10713
  140.8873  133.7874  155.9532 LP  0  0  0  0  0  0  0  0  0  0  0  0  # atno 17394 bound_to 11000
  140.8791  134.2633  157.5153 LP  0  0  0  0  0  0  0  0  0  0  0  0  # atno 17395 bound_to 11000

$$$$
