AV-unprocessed.smi:225|AV-procd|sdf|1724|dock6
  -GOLD-   2262020203D 1   1.00000     0.00000
 Structure written by MMmdl.
 56 59  0  0  0  0  0  0  0  0  1 V2000
  151.9730  137.2289  153.8664 O   0  0  0  0  0  0  0  0  0  0  0  0
  152.0534  138.5687  154.3004 C   0  0  0  0  0  0  0  0  0  0  0  0
  151.8751  138.6246  155.8270 C   0  0  0  0  0  0  0  0  0  0  0  0
  151.2421  139.8664  156.2808 N   0  0  0  0  0  0  0  0  0  0  0  0
  151.3499  140.1971  157.7025 C   0  0  0  0  0  0  0  0  0  0  0  0
  152.0038  141.5704  157.9641 C   0  0  0  0  0  0  0  0  0  0  0  0
  152.4217  141.6982  159.4427 C   0  0  0  0  0  0  0  0  0  0  0  0
  153.0822  143.0562  159.7323 C   0  0  0  0  0  0  0  0  0  0  0  0
  152.1621  144.2191  159.3314 C   0  0  0  0  0  0  0  0  0  0  0  0
  151.7349  144.1032  157.8604 C   0  0  0  0  0  0  0  0  0  0  0  0
  151.0773  142.7428  157.5774 C   0  0  0  0  0  0  0  0  0  0  0  0
  150.0316  140.1857  155.7535 C   0  0  0  0  0  0  0  0  0  0  0  0
  149.9416  140.6345  154.4728 N   0  0  0  0  0  0  0  0  0  0  0  0
  148.7516  140.9370  153.9458 C   0  0  0  0  0  0  0  0  0  0  0  0
  147.5454  140.8615  154.5110 N   0  0  0  0  0  0  0  0  0  0  0  0
  147.6274  140.4057  155.7937 C   0  0  0  0  0  0  0  0  0  0  0  0
  148.8194  140.0520  156.4867 C   0  0  0  0  0  0  0  0  0  0  0  0
  148.5124  139.6478  157.7797 N   0  0  0  0  0  0  0  0  0  0  0  0
  147.2134  139.7502  157.8458 C   0  0  0  0  0  0  0  0  0  0  0  0
  146.5985  140.1868  156.6938 N   0  0  0  0  0  0  0  0  0  0  0  0
  145.1718  140.3879  156.4874 C   0  0  0  0  0  0  0  0  0  0  0  0
  144.7959  141.8396  156.1012 C   0  0  2  0  0  0  0  0  0  0  0  0
  145.0915  142.0414  154.7315 O   0  0  0  0  0  0  0  0  0  0  0  0
  145.5521  142.8791  156.9322 C   0  0  0  0  0  0  0  0  0  0  0  0
  144.4779  143.4628  157.8421 C   0  0  0  0  0  0  0  0  0  0  0  0
  143.3282  143.4419  157.0160 O   0  0  0  0  0  0  0  0  0  0  0  0
  143.3146  142.1856  156.3543 C   0  0  0  0  0  0  0  0  0  0  0  0
  151.5526  137.2122  153.0203 H   0  0  0  0  0  0  0  0  0  0  0  0
  153.0234  138.9761  154.0143 H   0  0  0  0  0  0  0  0  0  0  0  0
  151.2898  139.1499  153.7835 H   0  0  0  0  0  0  0  0  0  0  0  0
  151.2952  137.7673  156.1717 H   0  0  0  0  0  0  0  0  0  0  0  0
  152.8530  138.5252  156.2965 H   0  0  0  0  0  0  0  0  0  0  0  0
  150.3751  140.1656  158.1915 H   0  0  0  0  0  0  0  0  0  0  0  0
  151.9451  139.4173  158.1791 H   0  0  0  0  0  0  0  0  0  0  0  0
  152.9119  141.6477  157.3664 H   0  0  0  0  0  0  0  0  0  0  0  0
  151.5483  141.5749  160.0846 H   0  0  0  0  0  0  0  0  0  0  0  0
  153.1121  140.8959  159.7052 H   0  0  0  0  0  0  0  0  0  0  0  0
  153.3337  143.1293  160.7907 H   0  0  0  0  0  0  0  0  0  0  0  0
  154.0230  143.1289  159.1850 H   0  0  0  0  0  0  0  0  0  0  0  0
  151.2776  144.2224  159.9698 H   0  0  0  0  0  0  0  0  0  0  0  0
  152.6688  145.1699  159.4990 H   0  0  0  0  0  0  0  0  0  0  0  0
  151.0444  144.9088  157.6094 H   0  0  0  0  0  0  0  0  0  0  0  0
  152.6053  144.2291  157.2155 H   0  0  0  0  0  0  0  0  0  0  0  0
  150.8140  142.6840  156.5208 H   0  0  0  0  0  0  0  0  0  0  0  0
  150.1421  142.6718  158.1339 H   0  0  0  0  0  0  0  0  0  0  0  0
  148.7680  141.2863  152.9241 H   0  0  0  0  0  0  0  0  0  0  0  0
  146.6656  139.5056  158.7442 H   0  0  0  0  0  0  0  0  0  0  0  0
  144.8419  139.6976  155.7100 H   0  0  0  0  0  0  0  0  0  0  0  0
  144.6492  140.0921  157.3981 H   0  0  0  0  0  0  0  0  0  0  0  0
  144.6642  141.3638  154.2302 H   0  0  0  0  0  0  0  0  0  0  0  0
  146.3885  142.4629  157.4946 H   0  0  0  0  0  0  0  0  0  0  0  0
  145.9490  143.6743  156.2990 H   0  0  0  0  0  0  0  0  0  0  0  0
  144.3168  142.8299  158.7164 H   0  0  0  0  0  0  0  0  0  0  0  0
  144.7143  144.4712  158.1821 H   0  0  0  0  0  0  0  0  0  0  0  0
  142.7110  142.2190  155.4463 H   0  0  0  0  0  0  0  0  0  0  0  0
  142.8517  141.4666  157.0307 H   0  0  0  0  0  0  0  0  0  0  0  0
  1  2  1  0  0  0  0
  1 28  1  0  0  0  0
  2  3  1  0  0  0  0
  2 29  1  0  0  0  0
  2 30  1  0  0  0  0
  3  4  1  0  0  0  0
  3 31  1  0  0  0  0
  3 32  1  0  0  0  0
  4  5  1  0  0  0  0
  4 12  1  0  0  0  0
  5  6  1  0  0  0  0
  5 33  1  0  0  0  0
  5 34  1  0  0  0  0
  6 11  1  0  0  0  0
  6  7  1  0  0  0  0
  6 35  1  0  0  0  0
  7  8  1  0  0  0  0
  7 36  1  0  0  0  0
  7 37  1  0  0  0  0
  8  9  1  0  0  0  0
  8 38  1  0  0  0  0
  8 39  1  0  0  0  0
  9 10  1  0  0  0  0
  9 40  1  0  0  0  0
  9 41  1  0  0  0  0
 10 11  1  0  0  0  0
 10 42  1  0  0  0  0
 10 43  1  0  0  0  0
 11 44  1  0  0  0  0
 11 45  1  0  0  0  0
 12 17  1  0  0  0  0
 12 13  2  0  0  0  0
 13 14  1  0  0  0  0
 14 15  2  0  0  0  0
 14 46  1  0  0  0  0
 15 16  1  0  0  0  0
 16 20  1  0  0  0  0
 16 17  2  0  0  0  0
 17 18  1  0  0  0  0
 18 19  2  0  0  0  0
 19 20  1  0  0  0  0
 19 47  1  0  0  0  0
 20 21  1  0  0  0  0
 21 22  1  0  0  0  0
 21 48  1  0  0  0  0
 21 49  1  0  0  0  0
 22 27  1  0  0  0  0
 22 23  1  0  0  0  0
 22 24  1  0  0  0  0
 23 50  1  0  0  0  0
 24 25  1  0  0  0  0
 24 51  1  0  0  0  0
 24 52  1  0  0  0  0
 25 26  1  0  0  0  0
 25 53  1  0  0  0  0
 25 54  1  0  0  0  0
 26 27  1  0  0  0  0
 27 55  1  0  0  0  0
 27 56  1  0  0  0  0
M  END
> <s_m_source_file>
AV-unprocessed.smi

> <i_m_source_file_index>
225

> <i_lp_mmshare_version>
43012

> <i_f3d_flags>
0

> <s_epik_input>
W0NIMl0xW0NIMl1bQ0gyXVtDSDJdW0NIMl1bQ0hdMVtDSDJdTihbQ0gyXVtDSDJdW09IXSljKG5bY0hdbjIpYyhjMjMpbltjSF1uM1tDSDJdW0NAQF00KFtPSF0pW0NIMl1bQ0gyXU9bQ0gyXTQ=

> <s_epik_cmdline>
J2VwaWtfcHl0aG9uJywgJy1waCcsICc3LjAnLCAnLXRuJywgJzgnLCAnLW1hJywgJzIwMCcsICctbWV0YWxfYmluZGluZycsICctaW1hZScsICc8aW5maWxlLm1hZT4nLCAnLW9tYWUnLCAnPG91dGZpbGUubWFlPic=

> <r_lp_tautomer_probability>
1

> <r_epik_Ionization_Penalty>
0.00405109

> <r_epik_Ionization_Penalty_Charging>
0

> <r_epik_Ionization_Penalty_Neutral>
0.00405109

> <r_epik_State_Penalty>
0.00270467

> <r_epik_Charging_Adjusted_Penalty>
0.00270467

> <i_epik_Tot_Q>
0

> <i_epik_Tot_abs_Q>
0

> <r_epik_Metal_State_Penalty>
-0

> <b_epik_Metal_Only>
0

> <s_lp_Force_Field>
OPLS_2005

> <r_lp_Energy>
36.6988

> <b_lp_Chiralities_Consistent>
1

> <s_lp_Variant>
AV-unprocessed.smi:225-2

> <Gold.Version>
5.8.1

> <Gold.Id.Protein>
6NUR|6NUR_protein|mol2

> <Gold.PLP.Fitness>
52.0150

> <Gold.PLP.PLP>
-39.9466

> <Gold.PLP.part.hbond>
-4.0000

> <Gold.PLP.part.metal>
0.0000

> <Gold.PLP.part.buried>
-5.1391

> <Gold.PLP.part.nonpolar>
-32.0403

> <Gold.PLP.part.repulsive>
0.2707

> <Gold.PLP.ligand.clash>
0.0000

> <Gold.PLP.ligand.torsion>
1.7171

> <Gold.PLP.Chemscore.Hbond>
3.8233

> <Gold.PLP.Chemscore.CHOScore>
0.9956

> <Gold.PLP.Chemscore.Metal>
0.0000

> <Gold.Chemscore.Hbonds>
donor molecule, donor type, donor heavy atom, donor atom, acceptor molecule, acceptor atom, score
      L1  H     1    28       P1  7949  0.83
      L1  H    23    50       P1 10175  0.65
      P1  H  7989  7998       L1    13  0.78
      P1  H 10752 10763       L1     1  1.00
      L1  C    14    46       P1  7957  0.89

> <Gold.PLP.Chemscore.Internal.Correction>
1.0461

> <Gold.Rescore>
     Score         DG    S(hbond)    S(metal)    S(lipo)     H(rot)  DE(clash)    DE(int)     intcor
     12.70     -16.18       2.74        0.00      95.70       3.76       0.32       3.16       ----

> <Gold.Chemscore.Fitness>
12.7039

> <Gold.Chemscore.DG>
-16.1822

> <Gold.Chemscore.ZeroCoef>
-5.4800

> <Gold.Chemscore.Hbond>
2.7370

> <Gold.Chemscore.Metal>
0.0000

> <Gold.Chemscore.Lipo>
95.7039

> <Gold.Chemscore.Internal_Hbond>
0.0000

> <Gold.Chemscore.DEClash>
0.3199

> <Gold.Chemscore.DEInternal>
3.1584

> <Gold.Chemscore.Rot>
3.7644

> <Gold.Chemscore.Internal.Correction>
   9.000000E+99

> <Gold.Chemscore.Hbonds>
donor molecule, donor type, donor heavy atom, donor atom, acceptor molecule, acceptor atom, score
      L1  H     1    28       P1  7949  0.75
      L1  H    23    50       P1 10175  0.35
      P1  H  7989  7998       L1    13  0.73
      P1  H 10752 10763       L1     1  0.68

> <Gold.Chemscore.Hbond.Weighted>
-9.1417

> <Gold.Chemscore.Metal.Weighted>
-0.0000

> <Gold.Chemscore.Lipo.Weighted>
-11.1974

> <Gold.Chemscore.Internal_Hbond.Weighted>
0.0000

> <Gold.Chemscore.DEClash.Weighted>
0.3199

> <Gold.Chemscore.DEInternal.Weighted>
3.1584

> <Gold.Chemscore.Rot.Weighted>
9.6369

> <Gold.Chemscore.Internal.Correction.Weighted>
   9.000000E+99

> <Gold.Protein.RotatedTorsions>
[ 6907 6896 6895 6894 ] final  170.38 input  -60.11 | X-H torsion
[ 7974 7965 7964 7962 ] final   62.72 input  175.53 | X-H torsion
[ 8008 7997 7996 7995 ] final   -5.39 input   59.86 | X-H torsion
[ 10167 10162 10161 10158 ] final  -82.82 input  -65.29 | X-H torsion
[ 10718 10713 10712 10709 ] final  160.71 input   66.30 | X-H torsion
[ 10763 10752 10751 10750 ] final   26.14 input  -60.55 | X-H torsion
[ 11005 11000 10999 10996 ] final   43.26 input  -57.11 | X-H torsion

> <Gold.Protein.ActiveResidues>
 VAL166  LYS551  ARG553  GLY616  TRP617  ASP618  TYR619  PRO620  LYS621  CYS622 
 ASP623  PHE694  ASN695  SER759  ASP760  ASP761  ALA762  ILE779  LEU786  VAL792 
 PHE793  MET794  SER795  GLU796  ALA797  LYS798  CYS799  TRP800  GLU811  SER814 

> <Gold.Protein.RotatedAtoms>
  151.8171  133.3389  159.3572 H   0  0  0  0  0  0  0  0  0  0  0  0  # atno 6907 bound_to 6896
  150.7307  134.5609  159.5851 H   0  0  0  0  0  0  0  0  0  0  0  0  # atno 6908 bound_to 6896
  152.3033  134.7586  160.0404 H   0  0  0  0  0  0  0  0  0  0  0  0  # atno 6909 bound_to 6896
  145.8701  139.3372  143.0768 H   0  0  0  0  0  0  0  0  0  0  0  0  # atno 7974 bound_to 7965
  154.6044  140.2459  155.7750 H   0  0  0  0  0  0  0  0  0  0  0  0  # atno 8008 bound_to 7997
  156.2331  140.2959  156.0193 H   0  0  0  0  0  0  0  0  0  0  0  0  # atno 8009 bound_to 7997
  155.2157  140.0398  157.2931 H   0  0  0  0  0  0  0  0  0  0  0  0  # atno 8010 bound_to 7997
  140.4284  143.2558  151.8793 H   0  0  0  0  0  0  0  0  0  0  0  0  # atno 10167 bound_to 10162
  157.1466  131.0553  151.2301 H   0  0  0  0  0  0  0  0  0  0  0  0  # atno 10718 bound_to 10713
  153.0643  135.6567  154.0391 H   0  0  0  0  0  0  0  0  0  0  0  0  # atno 10763 bound_to 10752
  154.0052  135.2933  155.3400 H   0  0  0  0  0  0  0  0  0  0  0  0  # atno 10764 bound_to 10752
  154.6994  135.5251  153.8573 H   0  0  0  0  0  0  0  0  0  0  0  0  # atno 10765 bound_to 10752
  140.1661  134.4280  155.8286 H   0  0  0  0  0  0  0  0  0  0  0  0  # atno 11005 bound_to 11000
  145.9147  140.9156  143.0436 LP  0  0  0  0  0  0  0  0  0  0  0  0  # atno 17320 bound_to 7965
  144.6726  140.1208  143.7450 LP  0  0  0  0  0  0  0  0  0  0  0  0  # atno 17321 bound_to 7965
  139.4784  144.5361  151.8596 LP  0  0  0  0  0  0  0  0  0  0  0  0  # atno 17342 bound_to 10162
  140.4455  144.1928  150.5894 LP  0  0  0  0  0  0  0  0  0  0  0  0  # atno 17343 bound_to 10162
  157.4259  130.7463  149.6950 LP  0  0  0  0  0  0  0  0  0  0  0  0  # atno 17370 bound_to 10713
  155.9778  130.4058  150.3687 LP  0  0  0  0  0  0  0  0  0  0  0  0  # atno 17371 bound_to 10713
  141.2214  133.6935  156.7681 LP  0  0  0  0  0  0  0  0  0  0  0  0  # atno 17394 bound_to 11000
  140.2432  134.8598  157.3594 LP  0  0  0  0  0  0  0  0  0  0  0  0  # atno 17395 bound_to 11000

$$$$
