AV-unprocessed.smi:1816|AV-procd|sdf|7366|dock8
  -GOLD-   22720 9 33D 1   1.00000     0.00000
 Structure written by MMmdl.
 35 36  0  0  0  0  0  0  0  0  3 V2000
  153.6381  139.7439  159.8798 C   0  0  0  0  0  0  0  0  0  0  0  0
  152.2212  140.1852  159.4502 C   0  0  2  0  0  0  0  0  0  0  0  0
  151.5799  139.1119  158.5364 C   0  0  0  0  0  0  0  0  0  0  0  0
  151.1356  137.9356  159.2830 N   0  0  0  0  0  0  0  0  0  0  0  0
  149.8836  137.4647  159.3691 C   0  0  0  0  0  0  0  0  0  0  0  0
  148.9571  138.0698  158.8270 O   0  0  0  0  0  0  0  0  0  0  0  0
  149.7867  136.3105  160.0643 N   0  5  0  0  0  0  0  0  0  0  0  0
  148.7489  136.1121  160.8933 C   0  0  0  0  0  0  0  0  0  0  0  0
  147.9600  137.1039  161.3222 N   0  0  0  0  0  0  0  0  0  0  0  0
  146.9392  136.6728  162.1715 C   0  0  0  0  0  0  0  0  0  0  0  0
  146.9483  135.3207  162.3900 C   0  0  0  0  0  0  0  0  0  0  0  0
  148.2452  134.5432  161.5278 S   0  0  0  0  0  0  0  0  0  0  0  0
  152.2166  141.5267  158.7966 N   0  3  0  0  0  0  0  0  0  0  0  0
  150.8917  141.9896  158.3344 C   0  0  0  0  0  0  0  0  0  0  0  0
  151.0831  143.4712  158.0212 C   0  0  0  0  0  0  0  0  0  0  0  0
  152.1725  143.9337  158.9925 C   0  0  0  0  0  0  0  0  0  0  0  0
  152.7615  142.6494  159.5919 C   0  0  0  0  0  0  0  0  0  0  0  0
  153.6252  138.7279  160.2749 H   0  0  0  0  0  0  0  0  0  0  0  0
  154.0445  140.3794  160.6663 H   0  0  0  0  0  0  0  0  0  0  0  0
  154.3372  139.7621  159.0427 H   0  0  0  0  0  0  0  0  0  0  0  0
  151.6205  140.2566  160.3583 H   0  0  0  0  0  0  0  0  0  0  0  0
  150.7019  139.5341  158.0469 H   0  0  0  0  0  0  0  0  0  0  0  0
  152.2515  138.8257  157.7263 H   0  0  0  0  0  0  0  0  0  0  0  0
  151.8531  137.4063  159.7573 H   0  0  0  0  0  0  0  0  0  0  0  0
  146.2492  137.3985  162.5757 H   0  0  0  0  0  0  0  0  0  0  0  0
  146.2750  134.7375  162.9996 H   0  0  0  0  0  0  0  0  0  0  0  0
  150.5238  141.4358  157.4717 H   0  0  0  0  0  0  0  0  0  0  0  0
  150.1630  141.8761  159.1387 H   0  0  0  0  0  0  0  0  0  0  0  0
  151.4350  143.5852  156.9950 H   0  0  0  0  0  0  0  0  0  0  0  0
  150.1584  144.0408  158.1204 H   0  0  0  0  0  0  0  0  0  0  0  0
  152.9341  144.5120  158.4676 H   0  0  0  0  0  0  0  0  0  0  0  0
  151.7599  144.5687  159.7775 H   0  0  0  0  0  0  0  0  0  0  0  0
  152.4347  142.5573  160.6289 H   0  0  0  0  0  0  0  0  0  0  0  0
  153.8520  142.6542  159.5785 H   0  0  0  0  0  0  0  0  0  0  0  0
  152.7994  141.4561  157.9736 H   0  0  0  0  0  0  0  0  0  0  0  0
  1  2  1  0  0  0  0
  1 18  1  0  0  0  0
  1 19  1  0  0  0  0
  1 20  1  0  0  0  0
  2  3  1  0  0  0  0
  2 13  1  0  0  0  0
  2 21  1  0  0  0  0
  3  4  1  0  0  0  0
  3 22  1  0  0  0  0
  3 23  1  0  0  0  0
  4  5  1  0  0  0  0
  4 24  1  0  0  0  0
  5  6  2  0  0  0  0
  5  7  1  0  0  0  0
  7  8  1  0  0  0  0
  8 12  1  0  0  0  0
  8  9  2  0  0  0  0
  9 10  1  0  0  0  0
 10 11  2  0  0  0  0
 10 25  1  0  0  0  0
 11 12  1  0  0  0  0
 11 26  1  0  0  0  0
 13 17  1  0  0  0  0
 13 14  1  0  0  0  0
 13 35  1  0  0  0  0
 14 15  1  0  0  0  0
 14 27  1  0  0  0  0
 14 28  1  0  0  0  0
 15 16  1  0  0  0  0
 15 29  1  0  0  0  0
 15 30  1  0  0  0  0
 16 17  1  0  0  0  0
 16 31  1  0  0  0  0
 16 32  1  0  0  0  0
 17 33  1  0  0  0  0
 17 34  1  0  0  0  0
M  CHG  1   7  -1
M  CHG  1  13   1
M  END
> <s_m_source_file>
AV-unprocessed.smi

> <i_m_source_file_index>
1816

> <i_lp_mmshare_version>
43012

> <i_f3d_flags>
0

> <s_epik_input>
W0NIMl0xW0NIMl1bQ0gyXVtDSDJdTjFbQ0BIXShbQ0gzXSlbQ0gyXVtOSF1DKD1PKVtOSF1jMm5bY0hdW2NIXXMy

> <s_epik_cmdline>
J2VwaWtfcHl0aG9uJywgJy1waCcsICc3LjAnLCAnLXRuJywgJzgnLCAnLW1hJywgJzIwMCcsICctbWV0YWxfYmluZGluZycsICctaW1hZScsICc8aW5maWxlLm1hZT4nLCAnLW9tYWUnLCAnPG91dGZpbGUubWFlPic=

> <r_lp_tautomer_probability>
0.999

> <r_epik_Ionization_Penalty>
6.21769

> <r_epik_Ionization_Penalty_Charging>
5.38662

> <r_epik_Ionization_Penalty_Neutral>
0.831074

> <r_epik_State_Penalty>
5.38626

> <r_epik_Charging_Adjusted_Penalty>
10.7729

> <i_epik_Tot_Q>
0

> <i_epik_Tot_abs_Q>
2

> <r_epik_Metal_State_Penalty>
1.41347

> <b_epik_Metal_Only>
1

> <s_lp_Force_Field>
OPLS_2005

> <r_lp_Energy>
25.8125

> <b_lp_Chiralities_Consistent>
1

> <s_lp_Variant>
AV-unprocessed.smi:1816-3

> <Gold.Version>
5.8.1

> <Gold.Id.Protein>
6NUR|6NUR_protein|mol2

> <Gold.PLP.Fitness>
42.6719

> <Gold.PLP.PLP>
-32.7816

> <Gold.PLP.part.hbond>
-3.7482

> <Gold.PLP.part.metal>
0.0000

> <Gold.PLP.part.buried>
-4.3451

> <Gold.PLP.part.nonpolar>
-25.1175

> <Gold.PLP.part.repulsive>
0.2333

> <Gold.PLP.ligand.clash>
0.0000

> <Gold.PLP.ligand.torsion>
0.5332

> <Gold.PLP.Chemscore.Hbond>
3.6312

> <Gold.PLP.Chemscore.CHOScore>
0.0000

> <Gold.PLP.Chemscore.Metal>
0.0000

> <Gold.Chemscore.Hbonds>
donor molecule, donor type, donor heavy atom, donor atom, acceptor molecule, acceptor atom, score
      P1  H  6896  6908       L1     7  2.00
      P1  H  6931  6943       L1     9  1.00
      P1  H  6934  6947       L1     9  0.51

> <Gold.PLP.Chemscore.Internal.Correction>
0.0631

> <Gold.Rescore>
     Score         DG    S(hbond)    S(metal)    S(lipo)     H(rot)  DE(clash)    DE(int)     intcor
     15.30     -17.36       1.86        0.00      82.69       1.57       0.02       2.05       ----

> <Gold.Chemscore.Fitness>
15.2957

> <Gold.Chemscore.DG>
-17.3562

> <Gold.Chemscore.ZeroCoef>
-5.4800

> <Gold.Chemscore.Hbond>
1.8632

> <Gold.Chemscore.Metal>
0.0000

> <Gold.Chemscore.Lipo>
82.6933

> <Gold.Chemscore.Internal_Hbond>
0.0000

> <Gold.Chemscore.DEClash>
0.0154

> <Gold.Chemscore.DEInternal>
2.0450

> <Gold.Chemscore.Rot>
1.5710

> <Gold.Chemscore.Internal.Correction>
   9.000000E+99

> <Gold.Chemscore.Hbonds>
donor molecule, donor type, donor heavy atom, donor atom, acceptor molecule, acceptor atom, score
      P1  H  6896  6908       L1     7  0.92
      P1  H  6931  6943       L1     9  0.42
      P1  H  6934  6947       L1     9  0.08

> <Gold.Chemscore.Hbond.Weighted>
-6.2230

> <Gold.Chemscore.Metal.Weighted>
-0.0000

> <Gold.Chemscore.Lipo.Weighted>
-9.6751

> <Gold.Chemscore.Internal_Hbond.Weighted>
0.0000

> <Gold.Chemscore.DEClash.Weighted>
0.0154

> <Gold.Chemscore.DEInternal.Weighted>
2.0450

> <Gold.Chemscore.Rot.Weighted>
4.0219

> <Gold.Chemscore.Internal.Correction.Weighted>
   9.000000E+99

> <Gold.Protein.RotatedTorsions>
[ 6907 6896 6895 6894 ] final -167.49 input  -60.11 | X-H torsion
[ 7974 7965 7964 7962 ] final   64.25 input  175.53 | X-H torsion
[ 8008 7997 7996 7995 ] final  -65.79 input   59.86 | X-H torsion
[ 10167 10162 10161 10158 ] final -132.06 input  -65.29 | X-H torsion
[ 10718 10713 10712 10709 ] final -160.65 input   66.30 | X-H torsion
[ 10763 10752 10751 10750 ] final  137.91 input  -60.55 | X-H torsion
[ 11005 11000 10999 10996 ] final   -3.13 input  -57.11 | X-H torsion

> <Gold.Protein.ActiveResidues>
 VAL166  LYS551  ARG553  GLY616  TRP617  ASP618  TYR619  PRO620  LYS621  CYS622 
 ASP623  PHE694  ASN695  SER759  ASP760  ASP761  ALA762  ILE779  LEU786  VAL792 
 PHE793  MET794  SER795  GLU796  ALA797  LYS798  CYS799  TRP800  GLU811  SER814 

> <Gold.Protein.RotatedAtoms>
  151.4604  133.3594  159.2807 H   0  0  0  0  0  0  0  0  0  0  0  0  # atno 6907 bound_to 6896
  150.9030  134.8445  159.7384 H   0  0  0  0  0  0  0  0  0  0  0  0  # atno 6908 bound_to 6896
  152.4890  134.4526  159.9631 H   0  0  0  0  0  0  0  0  0  0  0  0  # atno 6909 bound_to 6896
  145.8524  139.3262  143.0867 H   0  0  0  0  0  0  0  0  0  0  0  0  # atno 7974 bound_to 7965
  154.4693  140.0926  156.7104 H   0  0  0  0  0  0  0  0  0  0  0  0  # atno 8008 bound_to 7997
  155.4768  140.3466  155.4315 H   0  0  0  0  0  0  0  0  0  0  0  0  # atno 8009 bound_to 7997
  156.1012  140.1422  156.9453 H   0  0  0  0  0  0  0  0  0  0  0  0  # atno 8010 bound_to 7997
  139.9124  143.6478  152.2572 H   0  0  0  0  0  0  0  0  0  0  0  0  # atno 10167 bound_to 10162
  156.5851  130.8746  151.2875 H   0  0  0  0  0  0  0  0  0  0  0  0  # atno 10718 bound_to 10713
  153.8808  135.3044  155.3445 H   0  0  0  0  0  0  0  0  0  0  0  0  # atno 10763 bound_to 10752
  154.7762  135.4860  153.9752 H   0  0  0  0  0  0  0  0  0  0  0  0  # atno 10764 bound_to 10752
  153.1352  135.6812  153.9211 H   0  0  0  0  0  0  0  0  0  0  0  0  # atno 10765 bound_to 10752
  140.6659  133.9279  155.8464 H   0  0  0  0  0  0  0  0  0  0  0  0  # atno 11005 bound_to 11000
  145.9342  140.9026  143.0341 LP  0  0  0  0  0  0  0  0  0  0  0  0  # atno 17320 bound_to 7965
  144.6728  140.1460  143.7433 LP  0  0  0  0  0  0  0  0  0  0  0  0  # atno 17321 bound_to 7965
  139.6931  144.7644  151.1404 LP  0  0  0  0  0  0  0  0  0  0  0  0  # atno 17342 bound_to 10162
  140.7682  143.5561  150.9150 LP  0  0  0  0  0  0  0  0  0  0  0  0  # atno 17343 bound_to 10162
  157.7317  130.9704  150.1893 LP  0  0  0  0  0  0  0  0  0  0  0  0  # atno 17370 bound_to 10713
  156.2598  130.3709  149.8143 LP  0  0  0  0  0  0  0  0  0  0  0  0  # atno 17371 bound_to 10713
  141.0429  134.0595  157.3879 LP  0  0  0  0  0  0  0  0  0  0  0  0  # atno 17394 bound_to 11000
  139.8997  135.0160  156.7209 LP  0  0  0  0  0  0  0  0  0  0  0  0  # atno 17395 bound_to 11000

$$$$
