#       Name:                AV-unprocessed.smi:565
#       Creating user name   scv26
#       Creation time:       Thu Mar 26 23:45:15 2020


#       File generated by GOLD software.
#

@<TRIPOS>MOLECULE
AV-unprocessed.smi:565
    53    54     1
SMALL
NO_CHARGES


@<TRIPOS>ATOM
      1 ****        -0.3596   3.5850  -3.5178 C.3            1 S1                 0.0000
      2 ****        -1.4411   3.2221  -2.5404 C.2            1 S1                 0.0000
      3 ****        -1.8307   4.1181  -1.6494 N.2            1 S1                 0.0000
      4 ****        -2.7948   3.5008  -0.9381 N.pl3          1 S1                 0.0000
      5 ****        -3.4506   4.2140   0.1407 C.3            1 S1                 0.0000
      6 ****        -3.0149   2.2109  -1.3801 C.2            1 S1                 0.0000
      7 ****        -4.0352   1.3193  -0.7484 C.3            1 S1                 0.0000
      8 ****        -2.1521   1.9911  -2.4212 C.2            1 S1                 0.0000
      9 ****        -1.9756   0.7469  -3.2557 C.3            1 S1                 0.0000
     10 ****        -0.8460  -0.1034  -2.6742 C.2            1 S1                 0.0000
     11 ****         0.2444  -0.1535  -3.2426 O.2            1 S1                 0.0000
     12 ****        -1.1127  -0.7562  -1.5324 N.am           1 S1                 0.0000
     13 ****        -0.1533  -1.5623  -0.7887 C.3            1 S1                 0.0000
     14 ****         0.7666  -0.6756   0.0730 C.3            1 S1                 0.0000
     15 ****         1.7966  -1.4592   0.8005 N.4            1 S1                 1.0000
     16 ****         2.9617  -0.6229   1.1898 C.3            1 S1                 0.0000
     17 ****         4.0756  -1.4794   1.8123 C.3            1 S1                 0.0000
     18 ****         3.5502  -2.2733   3.0147 C.3            1 S1                 0.0000
     19 ****         2.3272  -3.1115   2.6065 C.3            1 S1                 0.0000
     20 ****         1.7634  -3.8976   3.7987 C.3            1 S1                 0.0000
     21 ****         1.2527  -2.2115   1.9635 C.3            1 S1                 0.0000
     22 ****         0.2165   2.7086  -3.8142 H              1 S1                 0.0000
     23 ****         0.3393   4.3061  -3.0924 H              1 S1                 0.0000
     24 ****        -0.7831   4.0249  -4.4207 H              1 S1                 0.0000
     25 ****        -3.3182   3.6684   1.0752 H              1 S1                 0.0000
     26 ****        -4.5159   4.3023  -0.0732 H              1 S1                 0.0000
     27 ****        -3.0296   5.2139   0.2547 H              1 S1                 0.0000
     28 ****        -4.0132   0.3196  -1.1814 H              1 S1                 0.0000
     29 ****        -5.0387   1.7220  -0.8878 H              1 S1                 0.0000
     30 ****        -3.8548   1.2210   0.3222 H              1 S1                 0.0000
     31 ****        -2.8882   0.1513  -3.2947 H              1 S1                 0.0000
     32 ****        -1.7379   0.9967  -4.2904 H              1 S1                 0.0000
     33 ****        -2.0373  -0.6613  -1.1377 H              1 S1                 0.0000
     34 ****        -0.7247  -2.2518  -0.1689 H              1 S1                 0.0000
     35 ****         0.4348  -2.1741  -1.4748 H              1 S1                 0.0000
     36 ****         1.2663   0.0373  -0.5845 H              1 S1                 0.0000
     37 ****         0.1836  -0.0830   0.7797 H              1 S1                 0.0000
     38 ****         3.3580  -0.1078   0.3137 H              1 S1                 0.0000
     39 ****         2.6400   0.1474   1.8927 H              1 S1                 0.0000
     40 ****         4.4728  -2.1660   1.0635 H              1 S1                 0.0000
     41 ****         4.9064  -0.8436   2.1202 H              1 S1                 0.0000
     42 ****         4.3378  -2.9180   3.4064 H              1 S1                 0.0000
     43 ****         3.2810  -1.5864   3.8185 H              1 S1                 0.0000
     44 ****         2.6494  -3.8378   1.8587 H              1 S1                 0.0000
     45 ****         1.4174  -3.2292   4.5879 H              1 S1                 0.0000
     46 ****         2.5202  -4.5551   4.2280 H              1 S1                 0.0000
     47 ****         0.9209  -4.5201   3.4963 H              1 S1                 0.0000
     48 ****         0.8596  -1.5077   2.6993 H              1 S1                 0.0000
     49 ****         0.4168  -2.8347   1.6482 H              1 S1                 0.0000
     50 ****         2.1496  -2.1425   0.1455 H              1 S1                 0.0000
     51 ****        -1.4858   5.0490  -1.5297 LP             1 S1                 0.0000
     52 ****         0.3926   0.3625  -4.0863 LP             1 S1                 0.0000
     53 ****         0.9822  -0.7103  -2.8608 LP             1 S1                 0.0000
@<TRIPOS>BOND
    1    1    2 1     
    2    1   22 1     
    3    1   23 1     
    4    1   24 1     
    5    2    8 1     
    6    2    3 2     
    7    3    4 1     
    8    4    5 1     
    9    4    6 1     
   10    5   25 1     
   11    5   26 1     
   12    5   27 1     
   13    6    7 1     
   14    6    8 2     
   15    7   28 1     
   16    7   29 1     
   17    7   30 1     
   18    8    9 1     
   19    9   10 1     
   20    9   31 1     
   21    9   32 1     
   22   10   11 2     
   23   10   12 am    
   24   12   13 1     
   25   12   33 1     
   26   13   14 1     
   27   13   34 1     
   28   13   35 1     
   29   14   15 1     
   30   14   36 1     
   31   14   37 1     
   32   15   21 1     
   33   15   16 1     
   34   15   50 1     
   35   16   17 1     
   36   16   38 1     
   37   16   39 1     
   38   17   18 1     
   39   17   40 1     
   40   17   41 1     
   41   18   19 1     
   42   18   42 1     
   43   18   43 1     
   44   19   20 1     
   45   19   21 1     
   46   19   44 1     
   47   20   45 1     
   48   20   46 1     
   49   20   47 1     
   50   21   48 1     
   51   21   49 1     
   52    3   51 1     
   53   11   52 1     
   54   11   53 1     
@<TRIPOS>SUBSTRUCTURE
      1 S1             1
@<TRIPOS>SET
LONE_PAIRS      STATIC     ATOMS    <user>   **** ""
3 51 52 53
DONOR_HYDROGENS      STATIC     ATOMS    <user>   **** ""
2 33 50
ATOM$BLUE        STATIC     ATOMS    COLORGROUP SYSTEM
3 51 52 53
ATOM$RED        STATIC     ATOMS    COLORGROUP SYSTEM
2 33 50
