AV-unprocessed.smi:310|AV-procd|sdf|2296|dock5
  -GOLD-   2262022193D 1   1.00000     0.00000
 Structure written by MMmdl.
 40 42  0  0  0  0  0  0  0  0  2 V2000
  145.7153  134.5426  162.7314 C   0  0  0  0  0  0  0  0  0  0  0  0
  146.6826  135.2126  161.8166 C   0  0  0  0  0  0  0  0  0  0  0  0
  147.5591  134.7356  160.8839 C   0  0  0  0  0  0  0  0  0  0  0  0
  148.1753  135.9151  160.3833 C   0  0  0  0  0  0  0  0  0  0  0  0
  149.1149  135.9695  159.4268 N   0  5  0  0  0  0  0  0  0  0  0  0
  149.6458  137.1593  159.0610 C   0  0  0  0  0  0  0  0  0  0  0  0
  149.1028  138.2624  159.1591 O   0  0  0  0  0  0  0  0  0  0  0  0
  150.8820  137.0650  158.5493 N   0  0  0  0  0  0  0  0  0  0  0  0
  151.7006  138.1751  158.0689 C   0  0  0  0  0  0  0  0  0  0  0  0
  152.1997  139.0378  159.2519 C   0  0  0  0  0  0  0  0  0  0  0  0
  152.8875  140.3192  158.7503 C   0  0  0  0  0  0  0  0  0  0  0  0
  151.9492  141.0564  157.8928 N   0  0  0  0  0  0  0  0  0  0  0  0
  151.3466  142.2340  158.1941 C   0  0  0  0  0  0  0  0  0  0  0  0
  150.6228  142.8236  157.3898 O   0  0  0  0  0  0  0  0  0  0  0  0
  151.5744  142.7878  159.5688 C   0  0  0  0  0  0  0  0  0  0  0  0
  152.0336  144.2293  159.7005 C   0  0  0  0  0  0  0  0  0  0  0  0
  153.0047  143.1053  159.9506 C   0  0  0  0  0  0  0  0  0  0  0  0
  151.6464  140.3032  156.6698 C   0  0  0  0  0  0  0  0  0  0  0  0
  150.8927  139.0178  157.0584 C   0  0  0  0  0  0  0  0  0  0  0  0
  147.7020  137.0121  160.9505 N   0  0  0  0  0  0  0  0  0  0  0  0
  146.7490  136.5699  161.8758 O   0  0  0  0  0  0  0  0  0  0  0  0
  144.9766  133.9776  162.1633 H   0  0  0  0  0  0  0  0  0  0  0  0
  145.1846  135.2706  163.3455 H   0  0  0  0  0  0  0  0  0  0  0  0
  146.2315  133.8514  163.3977 H   0  0  0  0  0  0  0  0  0  0  0  0
  147.7362  133.7074  160.6064 H   0  0  0  0  0  0  0  0  0  0  0  0
  151.2863  136.1420  158.4885 H   0  0  0  0  0  0  0  0  0  0  0  0
  152.5695  137.7765  157.5416 H   0  0  0  0  0  0  0  0  0  0  0  0
  151.3610  139.3078  159.8952 H   0  0  0  0  0  0  0  0  0  0  0  0
  152.8913  138.4648  159.8704 H   0  0  0  0  0  0  0  0  0  0  0  0
  153.2696  140.9006  159.5883 H   0  0  0  0  0  0  0  0  0  0  0  0
  153.7705  140.0559  158.1664 H   0  0  0  0  0  0  0  0  0  0  0  0
  150.9065  142.4386  160.3540 H   0  0  0  0  0  0  0  0  0  0  0  0
  152.1883  144.8252  158.8029 H   0  0  0  0  0  0  0  0  0  0  0  0
  151.6659  144.7859  160.5599 H   0  0  0  0  0  0  0  0  0  0  0  0
  153.2980  142.9003  160.9780 H   0  0  0  0  0  0  0  0  0  0  0  0
  153.7831  142.9421  159.2071 H   0  0  0  0  0  0  0  0  0  0  0  0
  151.0551  140.8740  155.9528 H   0  0  0  0  0  0  0  0  0  0  0  0
  152.5754  140.0533  156.1552 H   0  0  0  0  0  0  0  0  0  0  0  0
  150.6773  138.4281  156.1669 H   0  0  0  0  0  0  0  0  0  0  0  0
  149.9278  139.2886  157.4905 H   0  0  0  0  0  0  0  0  0  0  0  0
  1  2  1  0  0  0  0
  1 22  1  0  0  0  0
  1 23  1  0  0  0  0
  1 24  1  0  0  0  0
  2 21  1  0  0  0  0
  2  3  2  0  0  0  0
  3  4  1  0  0  0  0
  3 25  1  0  0  0  0
  4  5  1  0  0  0  0
  4 20  2  0  0  0  0
  5  6  1  0  0  0  0
  6  7  2  0  0  0  0
  6  8  1  0  0  0  0
  8  9  1  0  0  0  0
  8 26  1  0  0  0  0
  9 19  1  0  0  0  0
  9 10  1  0  0  0  0
  9 27  1  0  0  0  0
 10 11  1  0  0  0  0
 10 28  1  0  0  0  0
 10 29  1  0  0  0  0
 11 12  1  0  0  0  0
 11 30  1  0  0  0  0
 11 31  1  0  0  0  0
 12 13  1  0  0  0  0
 12 18  1  0  0  0  0
 13 14  2  0  0  0  0
 13 15  1  0  0  0  0
 15 17  1  0  0  0  0
 15 16  1  0  0  0  0
 15 32  1  0  0  0  0
 16 17  1  0  0  0  0
 16 33  1  0  0  0  0
 16 34  1  0  0  0  0
 17 35  1  0  0  0  0
 17 36  1  0  0  0  0
 18 19  1  0  0  0  0
 18 37  1  0  0  0  0
 18 38  1  0  0  0  0
 19 39  1  0  0  0  0
 19 40  1  0  0  0  0
 20 21  1  0  0  0  0
M  CHG  1   5  -1
M  END
> <s_m_source_file>
AV-unprocessed.smi

> <i_m_source_file_index>
310

> <i_lp_mmshare_version>
43012

> <i_f3d_flags>
0

> <s_epik_input>
W0NIM11jMVtjSF1jKG5vMSlbTkhdQyg9TylbTkhdW0NIXTJbQ0gyXVtDSDJdTihbQ0gyXVtDSDJdMilDKD1PKVtDSF0zW0NIMl1bQ0gyXTM=

> <s_epik_cmdline>
J2VwaWtfcHl0aG9uJywgJy1waCcsICc3LjAnLCAnLXRuJywgJzgnLCAnLW1hJywgJzIwMCcsICctbWV0YWxfYmluZGluZycsICctaW1hZScsICc8aW5maWxlLm1hZT4nLCAnLW9tYWUnLCAnPG91dGZpbGUubWFlPic=

> <r_lp_tautomer_probability>
1

> <r_epik_Ionization_Penalty>
6.54503

> <r_epik_Ionization_Penalty_Charging>
6.5449

> <r_epik_Ionization_Penalty_Neutral>
0.000132868

> <r_epik_State_Penalty>
6.54489

> <r_epik_Charging_Adjusted_Penalty>
13.0898

> <i_epik_Tot_Q>
-1

> <i_epik_Tot_abs_Q>
1

> <r_epik_Metal_State_Penalty>
2.47073

> <b_epik_Metal_Only>
1

> <s_lp_Force_Field>
OPLS_2005

> <r_lp_Energy>
23.2172

> <b_lp_Chiralities_Consistent>
1

> <s_lp_Variant>
AV-unprocessed.smi:310-2

> <Gold.Version>
5.8.1

> <Gold.Id.Protein>
6NUR|6NUR_protein|mol2

> <Gold.PLP.Fitness>
46.8688

> <Gold.PLP.PLP>
-36.1778

> <Gold.PLP.part.hbond>
-5.0000

> <Gold.PLP.part.metal>
0.0000

> <Gold.PLP.part.buried>
-4.9074

> <Gold.PLP.part.nonpolar>
-28.5996

> <Gold.PLP.part.repulsive>
0.3319

> <Gold.PLP.ligand.clash>
0.0000

> <Gold.PLP.ligand.torsion>
0.3256

> <Gold.PLP.Chemscore.Hbond>
3.7376

> <Gold.PLP.Chemscore.CHOScore>
0.0000

> <Gold.PLP.Chemscore.Metal>
0.0000

> <Gold.Chemscore.Hbonds>
donor molecule, donor type, donor heavy atom, donor atom, acceptor molecule, acceptor atom, score
      P1  H  6896  6908       L1     5  1.89
      P1  H  6931  6943       L1    20  0.90
      P1  H  6934  6947       L1    20  0.75

> <Gold.PLP.Chemscore.Internal.Correction>
0.1293

> <Gold.Rescore>
     Score         DG    S(hbond)    S(metal)    S(lipo)     H(rot)  DE(clash)    DE(int)     intcor
     14.23     -17.78       1.69        0.00      84.35       1.25       0.19       3.37       ----

> <Gold.Chemscore.Fitness>
14.2290

> <Gold.Chemscore.DG>
-17.7830

> <Gold.Chemscore.ZeroCoef>
-5.4800

> <Gold.Chemscore.Hbond>
1.6862

> <Gold.Chemscore.Metal>
0.0000

> <Gold.Chemscore.Lipo>
84.3532

> <Gold.Chemscore.Internal_Hbond>
0.0000

> <Gold.Chemscore.DEClash>
0.1866

> <Gold.Chemscore.DEInternal>
3.3674

> <Gold.Chemscore.Rot>
1.2493

> <Gold.Chemscore.Internal.Correction>
   9.000000E+99

> <Gold.Chemscore.Hbonds>
donor molecule, donor type, donor heavy atom, donor atom, acceptor molecule, acceptor atom, score
      P1  H  6896  6908       L1     5  0.42
      P1  H  6931  6943       L1    20  0.56
      P1  H  6934  6947       L1    20  0.14

> <Gold.Chemscore.Hbond.Weighted>
-5.6318

> <Gold.Chemscore.Metal.Weighted>
-0.0000

> <Gold.Chemscore.Lipo.Weighted>
-9.8693

> <Gold.Chemscore.Internal_Hbond.Weighted>
0.0000

> <Gold.Chemscore.DEClash.Weighted>
0.1866

> <Gold.Chemscore.DEInternal.Weighted>
3.3674

> <Gold.Chemscore.Rot.Weighted>
3.1981

> <Gold.Chemscore.Internal.Correction.Weighted>
   9.000000E+99

> <Gold.Protein.RotatedTorsions>
[ 6907 6896 6895 6894 ] final  176.75 input  -60.11 | X-H torsion
[ 7974 7965 7964 7962 ] final -139.18 input  175.53 | X-H torsion
[ 8008 7997 7996 7995 ] final   36.62 input   59.86 | X-H torsion
[ 10167 10162 10161 10158 ] final  175.81 input  -65.29 | X-H torsion
[ 10718 10713 10712 10709 ] final  -82.08 input   66.30 | X-H torsion
[ 10763 10752 10751 10750 ] final -106.28 input  -60.55 | X-H torsion
[ 11005 11000 10999 10996 ] final  -38.59 input  -57.11 | X-H torsion

> <Gold.Protein.ActiveResidues>
 VAL166  LYS551  ARG553  GLY616  TRP617  ASP618  TYR619  PRO620  LYS621  CYS622 
 ASP623  PHE694  ASN695  SER759  ASP760  ASP761  ALA762  ILE779  LEU786  VAL792 
 PHE793  MET794  SER795  GLU796  ALA797  LYS798  CYS799  TRP800  GLU811  SER814 

> <Gold.Protein.RotatedAtoms>
  151.7151  133.3313  159.3300 H   0  0  0  0  0  0  0  0  0  0  0  0  # atno 6907 bound_to 6896
  150.7677  134.6498  159.6291 H   0  0  0  0  0  0  0  0  0  0  0  0  # atno 6908 bound_to 6896
  152.3687  134.6768  160.0235 H   0  0  0  0  0  0  0  0  0  0  0  0  # atno 6909 bound_to 6896
  144.8698  140.6349  143.5274 H   0  0  0  0  0  0  0  0  0  0  0  0  # atno 7974 bound_to 7965
  155.1904  140.3307  155.4359 H   0  0  0  0  0  0  0  0  0  0  0  0  # atno 8008 bound_to 7997
  156.2444  140.1911  156.6947 H   0  0  0  0  0  0  0  0  0  0  0  0  # atno 8009 bound_to 7997
  154.6210  140.0595  156.9600 H   0  0  0  0  0  0  0  0  0  0  0  0  # atno 8010 bound_to 7997
  139.5191  144.2989  152.0397 H   0  0  0  0  0  0  0  0  0  0  0  0  # atno 10167 bound_to 10162
  156.0039  130.4623  150.4050 H   0  0  0  0  0  0  0  0  0  0  0  0  # atno 10718 bound_to 10713
  154.8002  135.4717  154.0257 H   0  0  0  0  0  0  0  0  0  0  0  0  # atno 10763 bound_to 10752
  153.1769  135.6834  153.8538 H   0  0  0  0  0  0  0  0  0  0  0  0  # atno 10764 bound_to 10752
  153.8101  135.3218  155.3377 H   0  0  0  0  0  0  0  0  0  0  0  0  # atno 10765 bound_to 10752
  141.0039  133.6941  156.2074 H   0  0  0  0  0  0  0  0  0  0  0  0  # atno 11005 bound_to 11000
  145.4152  139.1573  143.4104 LP  0  0  0  0  0  0  0  0  0  0  0  0  # atno 17320 bound_to 7965
  146.2922  140.4259  142.8735 LP  0  0  0  0  0  0  0  0  0  0  0  0  # atno 17321 bound_to 7965
  140.2437  144.4242  150.6249 LP  0  0  0  0  0  0  0  0  0  0  0  0  # atno 17342 bound_to 10162
  140.6273  143.2183  151.6570 LP  0  0  0  0  0  0  0  0  0  0  0  0  # atno 17343 bound_to 10162
  157.2117  131.0462  151.2595 LP  0  0  0  0  0  0  0  0  0  0  0  0  # atno 17370 bound_to 10713
  157.3883  130.7268  149.6679 LP  0  0  0  0  0  0  0  0  0  0  0  0  # atno 17371 bound_to 10713
  140.6844  134.4732  157.5589 LP  0  0  0  0  0  0  0  0  0  0  0  0  # atno 17394 bound_to 11000
  139.9053  134.8463  156.1731 LP  0  0  0  0  0  0  0  0  0  0  0  0  # atno 17395 bound_to 11000

$$$$
