AV-unprocessed.smi:3259|AV-procd|sdf|12473|dock10
  -GOLD-   2272018373D 1   1.00000     0.00000
 Structure written by MMmdl.
 39 40  0  0  0  0  0  0  0  0  1 V2000
  147.6444  137.2943  154.7121 C   0  0  0  0  0  0  0  0  0  0  0  0
  147.1753  138.5932  155.0524 O   0  0  0  0  0  0  0  0  0  0  0  0
  147.6014  139.6849  154.2254 C   0  0  2  0  0  0  0  0  0  0  0  0
  147.0648  139.5204  152.7978 C   0  0  0  0  0  0  0  0  0  0  0  0
  149.1017  139.9625  154.4405 C   0  0  0  0  0  0  0  0  0  0  0  0
  148.6987  140.7815  155.6652 C   0  0  1  0  0  0  0  0  0  0  0  0
  149.5099  141.9810  155.8317 N   0  0  0  0  0  0  0  0  0  0  0  0
  150.7049  142.0112  156.4407 C   0  0  0  0  0  0  0  0  0  0  0  0
  151.2851  141.0041  156.8451 O   0  0  0  0  0  0  0  0  0  0  0  0
  151.3344  143.3912  156.6396 C   0  0  0  0  0  0  0  0  0  0  0  0
  151.8127  143.5587  158.0018 N   0  0  0  0  0  0  0  0  0  0  0  0
  152.2407  144.7133  158.6241 C   0  0  0  0  0  0  0  0  0  0  0  0
  152.5697  144.3858  159.9082 C   0  0  0  0  0  0  0  0  0  0  0  0
  152.3080  142.9889  159.9783 C   0  0  0  0  0  0  0  0  0  0  0  0
  151.8560  142.4966  158.8361 N   0  0  0  0  0  0  0  0  0  0  0  0
  147.3236  141.0211  154.9890 C   0  0  0  0  0  0  0  0  0  0  0  0
  147.1919  142.2838  154.1140 C   0  0  0  0  0  0  0  0  0  0  0  0
  146.1116  141.0379  155.9268 C   0  0  0  0  0  0  0  0  0  0  0  0
  147.3773  136.6007  155.5093 H   0  0  0  0  0  0  0  0  0  0  0  0
  148.7270  137.2596  154.5939 H   0  0  0  0  0  0  0  0  0  0  0  0
  147.1796  136.9259  153.7977 H   0  0  0  0  0  0  0  0  0  0  0  0
  147.2924  140.3862  152.1769 H   0  0  0  0  0  0  0  0  0  0  0  0
  145.9823  139.3909  152.7938 H   0  0  0  0  0  0  0  0  0  0  0  0
  147.5074  138.6628  152.2918 H   0  0  0  0  0  0  0  0  0  0  0  0
  149.7238  139.0972  154.6663 H   0  0  0  0  0  0  0  0  0  0  0  0
  149.5405  140.5603  153.6396 H   0  0  0  0  0  0  0  0  0  0  0  0
  148.6325  140.1616  156.5624 H   0  0  0  0  0  0  0  0  0  0  0  0
  149.1078  142.8541  155.5234 H   0  0  0  0  0  0  0  0  0  0  0  0
  152.1659  143.5314  155.9469 H   0  0  0  0  0  0  0  0  0  0  0  0
  150.5986  144.1663  156.4222 H   0  0  0  0  0  0  0  0  0  0  0  0
  152.2696  145.6620  158.1087 H   0  0  0  0  0  0  0  0  0  0  0  0
  152.9400  145.0439  160.6802 H   0  0  0  0  0  0  0  0  0  0  0  0
  152.4320  142.3227  160.8192 H   0  0  0  0  0  0  0  0  0  0  0  0
  147.1793  143.1931  154.7161 H   0  0  0  0  0  0  0  0  0  0  0  0
  146.2690  142.2721  153.5335 H   0  0  0  0  0  0  0  0  0  0  0  0
  148.0154  142.3839  153.4068 H   0  0  0  0  0  0  0  0  0  0  0  0
  146.0345  141.9828  156.4659 H   0  0  0  0  0  0  0  0  0  0  0  0
  146.1685  140.2532  156.6814 H   0  0  0  0  0  0  0  0  0  0  0  0
  145.1808  140.8937  155.3775 H   0  0  0  0  0  0  0  0  0  0  0  0
  1  2  1  0  0  0  0
  1 19  1  0  0  0  0
  1 20  1  0  0  0  0
  1 21  1  0  0  0  0
  2  3  1  0  0  0  0
  3 16  1  0  0  0  0
  3  4  1  0  0  0  0
  3  5  1  0  0  0  0
  4 22  1  0  0  0  0
  4 23  1  0  0  0  0
  4 24  1  0  0  0  0
  5  6  1  0  0  0  0
  5 25  1  0  0  0  0
  5 26  1  0  0  0  0
  6  7  1  0  0  0  0
  6 16  1  0  0  0  0
  6 27  1  0  0  0  0
  7  8  1  0  0  0  0
  7 28  1  0  0  0  0
  8  9  2  0  0  0  0
  8 10  1  0  0  0  0
 10 11  1  0  0  0  0
 10 29  1  0  0  0  0
 10 30  1  0  0  0  0
 11 15  1  0  0  0  0
 11 12  1  0  0  0  0
 12 13  2  0  0  0  0
 12 31  1  0  0  0  0
 13 14  1  0  0  0  0
 13 32  1  0  0  0  0
 14 15  2  0  0  0  0
 14 33  1  0  0  0  0
 16 17  1  0  0  0  0
 16 18  1  0  0  0  0
 17 34  1  0  0  0  0
 17 35  1  0  0  0  0
 17 36  1  0  0  0  0
 18 37  1  0  0  0  0
 18 38  1  0  0  0  0
 18 39  1  0  0  0  0
M  END
> <s_m_source_file>
AV-unprocessed.smi

> <i_m_source_file_index>
3259

> <i_lp_mmshare_version>
43012

> <i_f3d_flags>
0

> <s_epik_input>
W0NIM11PW0NAQF0xKFtDSDNdKVtDSDJdW0NASF0oQzEoW0NIM10pW0NIM10pW05IXUMoPU8pW0NIMl1uMltjSF1bY0hdW2NIXW4y

> <s_epik_cmdline>
J2VwaWtfcHl0aG9uJywgJy1waCcsICc3LjAnLCAnLXRuJywgJzgnLCAnLW1hJywgJzIwMCcsICctbWV0YWxfYmluZGluZycsICctaW1hZScsICc8aW5maWxlLm1hZT4nLCAnLW9tYWUnLCAnPG91dGZpbGUubWFlPic=

> <r_lp_tautomer_probability>
1

> <r_epik_Ionization_Penalty>
1.78399e-05

> <r_epik_Ionization_Penalty_Charging>
0

> <r_epik_Ionization_Penalty_Neutral>
1.78399e-05

> <r_epik_State_Penalty>
-0

> <r_epik_Charging_Adjusted_Penalty>
0

> <i_epik_Tot_Q>
0

> <i_epik_Tot_abs_Q>
0

> <r_epik_Metal_State_Penalty>
-0

> <b_epik_Metal_Only>
0

> <s_lp_Force_Field>
OPLS_2005

> <r_lp_Energy>
22.327

> <b_lp_Chiralities_Consistent>
1

> <s_lp_Variant>
AV-unprocessed.smi:3259-2

> <Gold.Version>
5.8.1

> <Gold.Id.Protein>
6NUR|6NUR_protein|mol2

> <Gold.PLP.Fitness>
34.8628

> <Gold.PLP.PLP>
-32.4963

> <Gold.PLP.part.hbond>
-1.0000

> <Gold.PLP.part.metal>
0.0000

> <Gold.PLP.part.buried>
-1.8732

> <Gold.PLP.part.nonpolar>
-29.7527

> <Gold.PLP.part.repulsive>
0.2002

> <Gold.PLP.ligand.clash>
0.0000

> <Gold.PLP.ligand.torsion>
0.5093

> <Gold.PLP.Chemscore.Hbond>
1.0000

> <Gold.PLP.Chemscore.CHOScore>
0.0000

> <Gold.PLP.Chemscore.Metal>
0.0000

> <Gold.Chemscore.Hbonds>
donor molecule, donor type, donor heavy atom, donor atom, acceptor molecule, acceptor atom, score
      L1  H     7    28       P1  8028  1.00

> <Gold.PLP.Chemscore.Internal.Correction>
0.3850

> <Gold.Rescore>
     Score         DG    S(hbond)    S(metal)    S(lipo)     H(rot)  DE(clash)    DE(int)     intcor
     12.26     -14.39       1.00        0.00      82.61       1.60       0.05       2.08       ----

> <Gold.Chemscore.Fitness>
12.2631

> <Gold.Chemscore.DG>
-14.3930

> <Gold.Chemscore.ZeroCoef>
-5.4800

> <Gold.Chemscore.Hbond>
0.9983

> <Gold.Chemscore.Metal>
0.0000

> <Gold.Chemscore.Lipo>
82.6051

> <Gold.Chemscore.Internal_Hbond>
0.0000

> <Gold.Chemscore.DEClash>
0.0498

> <Gold.Chemscore.DEInternal>
2.0801

> <Gold.Chemscore.Rot>
1.5962

> <Gold.Chemscore.Internal.Correction>
   9.000000E+99

> <Gold.Chemscore.Hbonds>
donor molecule, donor type, donor heavy atom, donor atom, acceptor molecule, acceptor atom, score
      L1  H     7    28       P1  8028  0.97

> <Gold.Chemscore.Hbond.Weighted>
-3.3344

> <Gold.Chemscore.Metal.Weighted>
-0.0000

> <Gold.Chemscore.Lipo.Weighted>
-9.6648

> <Gold.Chemscore.Internal_Hbond.Weighted>
0.0000

> <Gold.Chemscore.DEClash.Weighted>
0.0498

> <Gold.Chemscore.DEInternal.Weighted>
2.0801

> <Gold.Chemscore.Rot.Weighted>
4.0862

> <Gold.Chemscore.Internal.Correction.Weighted>
   9.000000E+99

> <Gold.Protein.RotatedTorsions>
[ 6907 6896 6895 6894 ] final  -71.09 input  -60.11 | X-H torsion
[ 7974 7965 7964 7962 ] final  -93.77 input  175.53 | X-H torsion
[ 8008 7997 7996 7995 ] final   79.70 input   59.86 | X-H torsion
[ 10167 10162 10161 10158 ] final  -28.74 input  -65.29 | X-H torsion
[ 10718 10713 10712 10709 ] final  159.24 input   66.30 | X-H torsion
[ 10763 10752 10751 10750 ] final   80.93 input  -60.55 | X-H torsion
[ 11005 11000 10999 10996 ] final  130.47 input  -57.11 | X-H torsion

> <Gold.Protein.ActiveResidues>
 VAL166  LYS551  ARG553  GLY616  TRP617  ASP618  TYR619  PRO620  LYS621  CYS622 
 ASP623  PHE694  ASN695  SER759  ASP760  ASP761  ALA762  ILE779  LEU786  VAL792 
 PHE793  MET794  SER795  GLU796  ALA797  LYS798  CYS799  TRP800  GLU811  SER814 

> <Gold.Protein.RotatedAtoms>
  150.7228  134.5359  159.5722 H   0  0  0  0  0  0  0  0  0  0  0  0  # atno 6907 bound_to 6896
  152.2881  134.7750  160.0392 H   0  0  0  0  0  0  0  0  0  0  0  0  # atno 6908 bound_to 6896
  151.8373  133.3382  159.3668 H   0  0  0  0  0  0  0  0  0  0  0  0  # atno 6909 bound_to 6896
  145.3821  140.9519  143.2388 H   0  0  0  0  0  0  0  0  0  0  0  0  # atno 7974 bound_to 7965
  155.8733  140.3448  155.5836 H   0  0  0  0  0  0  0  0  0  0  0  0  # atno 8008 bound_to 7997
  155.7802  140.0857  157.2082 H   0  0  0  0  0  0  0  0  0  0  0  0  # atno 8009 bound_to 7997
  154.4019  140.1502  156.3031 H   0  0  0  0  0  0  0  0  0  0  0  0  # atno 8010 bound_to 7997
  140.7267  143.3985  151.1305 H   0  0  0  0  0  0  0  0  0  0  0  0  # atno 10167 bound_to 10162
  157.1670  131.0601  151.2203 H   0  0  0  0  0  0  0  0  0  0  0  0  # atno 10718 bound_to 10713
  153.1074  135.4784  154.8975 H   0  0  0  0  0  0  0  0  0  0  0  0  # atno 10763 bound_to 10752
  154.7445  135.3090  154.8672 H   0  0  0  0  0  0  0  0  0  0  0  0  # atno 10764 bound_to 10752
  153.9271  135.6848  153.4800 H   0  0  0  0  0  0  0  0  0  0  0  0  # atno 10765 bound_to 10752
  139.9674  134.9587  156.9298 H   0  0  0  0  0  0  0  0  0  0  0  0  # atno 11005 bound_to 11000
  144.8500  139.5337  143.6861 LP  0  0  0  0  0  0  0  0  0  0  0  0  # atno 17320 bound_to 7965
  146.2837  139.6946  142.9211 LP  0  0  0  0  0  0  0  0  0  0  0  0  # atno 17321 bound_to 7965
  139.7601  143.8648  152.3098 LP  0  0  0  0  0  0  0  0  0  0  0  0  # atno 17342 bound_to 10162
  139.8531  144.7155  150.9190 LP  0  0  0  0  0  0  0  0  0  0  0  0  # atno 17343 bound_to 10162
  157.4079  130.7369  149.6817 LP  0  0  0  0  0  0  0  0  0  0  0  0  # atno 17370 bound_to 10713
  155.9744  130.4103  150.3923 LP  0  0  0  0  0  0  0  0  0  0  0  0  # atno 17371 bound_to 10713
  140.5367  134.0760  155.7330 LP  0  0  0  0  0  0  0  0  0  0  0  0  # atno 17394 bound_to 11000
  141.1354  133.9231  157.2446 LP  0  0  0  0  0  0  0  0  0  0  0  0  # atno 17395 bound_to 11000

$$$$
