AV-unprocessed.smi:767|AV-procd|sdf|3663|dock2
  -GOLD-   22720 1 73D 1   1.00000     0.00000
 Structure written by MMmdl.
 47 49  0  0  0  0  0  0  0  0  1 V2000
  145.9185  130.0391  151.6667 C   0  0  0  0  0  0  0  0  0  0  0  0
  145.6233  131.5069  151.4384 C   0  0  0  0  0  0  0  0  0  0  0  0
  144.3799  131.9169  150.9133 C   0  0  0  0  0  0  0  0  0  0  0  0
  144.1589  133.2926  150.7087 C   0  0  0  0  0  0  0  0  0  0  0  0
  145.1867  134.2017  151.0320 C   0  0  0  0  0  0  0  0  0  0  0  0
  145.0100  135.6933  150.8031 C   0  0  0  0  0  0  0  0  0  0  0  0
  145.0747  136.5269  152.0992 C   0  0  0  0  0  0  0  0  0  0  0  0
  146.4346  136.6848  152.6066 N   0  0  0  0  0  0  0  0  0  0  0  0
  146.7626  136.8290  153.8973 C   0  0  0  0  0  0  0  0  0  0  0  0
  145.9451  136.8820  154.8161 O   0  0  0  0  0  0  0  0  0  0  0  0
  148.0896  136.8857  154.0681 N   0  0  0  0  0  0  0  0  0  0  0  0
  148.7540  137.0003  155.3702 C   0  0  2  0  0  0  0  0  0  0  0  0
  150.0021  137.8857  155.3213 C   0  0  2  0  0  0  0  0  0  0  0  0
  150.5474  138.9085  154.3913 C   0  0  0  0  0  0  0  0  0  0  0  0
  152.0298  138.4486  154.4462 C   0  0  0  0  0  0  0  0  0  0  0  0
  152.0278  137.1749  155.1412 O   0  0  0  0  0  0  0  0  0  0  0  0
  150.7453  136.6444  154.8726 C   0  0  1  0  0  0  0  0  0  0  0  0
  149.7527  135.8287  155.7300 C   0  0  0  0  0  0  0  0  0  0  0  0
  150.1019  135.6336  157.2162 C   0  0  0  0  0  0  0  0  0  0  0  0
  149.4179  134.4335  155.1917 C   0  0  0  0  0  0  0  0  0  0  0  0
  146.3914  133.6880  151.5579 C   0  0  0  0  0  0  0  0  0  0  0  0
  146.6128  132.3708  151.7560 N   0  0  0  0  0  0  0  0  0  0  0  0
  145.0018  129.4885  151.8811 H   0  0  0  0  0  0  0  0  0  0  0  0
  146.5987  129.9021  152.5081 H   0  0  0  0  0  0  0  0  0  0  0  0
  146.3792  129.6063  150.7786 H   0  0  0  0  0  0  0  0  0  0  0  0
  143.6141  131.1955  150.6687 H   0  0  0  0  0  0  0  0  0  0  0  0
  143.2210  133.6416  150.3023 H   0  0  0  0  0  0  0  0  0  0  0  0
  145.7747  136.0366  150.1057 H   0  0  0  0  0  0  0  0  0  0  0  0
  144.0535  135.8643  150.3073 H   0  0  0  0  0  0  0  0  0  0  0  0
  144.6889  137.5277  151.9035 H   0  0  0  0  0  0  0  0  0  0  0  0
  144.4303  136.0935  152.8655 H   0  0  0  0  0  0  0  0  0  0  0  0
  147.1799  136.6498  151.9266 H   0  0  0  0  0  0  0  0  0  0  0  0
  148.6821  136.8304  153.2528 H   0  0  0  0  0  0  0  0  0  0  0  0
  148.0816  137.2635  156.1886 H   0  0  0  0  0  0  0  0  0  0  0  0
  150.2505  138.1803  156.3439 H   0  0  0  0  0  0  0  0  0  0  0  0
  150.1288  138.8208  153.3879 H   0  0  0  0  0  0  0  0  0  0  0  0
  150.4096  139.9282  154.7514 H   0  0  0  0  0  0  0  0  0  0  0  0
  152.4371  138.3321  153.4412 H   0  0  0  0  0  0  0  0  0  0  0  0
  152.6577  139.1577  154.9863 H   0  0  0  0  0  0  0  0  0  0  0  0
  150.6421  136.4231  153.8053 H   0  0  0  0  0  0  0  0  0  0  0  0
  150.9920  135.0147  157.3340 H   0  0  0  0  0  0  0  0  0  0  0  0
  149.2896  135.1400  157.7506 H   0  0  0  0  0  0  0  0  0  0  0  0
  150.2974  136.5658  157.7432 H   0  0  0  0  0  0  0  0  0  0  0  0
  150.2043  133.7134  155.4193 H   0  0  0  0  0  0  0  0  0  0  0  0
  149.3013  134.4345  154.1083 H   0  0  0  0  0  0  0  0  0  0  0  0
  148.4885  134.0536  155.6171 H   0  0  0  0  0  0  0  0  0  0  0  0
  147.2061  134.3490  151.8147 H   0  0  0  0  0  0  0  0  0  0  0  0
  1  2  1  0  0  0  0
  1 23  1  0  0  0  0
  1 24  1  0  0  0  0
  1 25  1  0  0  0  0
  2 22  1  0  0  0  0
  2  3  2  0  0  0  0
  3  4  1  0  0  0  0
  3 26  1  0  0  0  0
  4  5  2  0  0  0  0
  4 27  1  0  0  0  0
  5  6  1  0  0  0  0
  5 21  1  0  0  0  0
  6  7  1  0  0  0  0
  6 28  1  0  0  0  0
  6 29  1  0  0  0  0
  7  8  1  0  0  0  0
  7 30  1  0  0  0  0
  7 31  1  0  0  0  0
  8  9  1  0  0  0  0
  8 32  1  0  0  0  0
  9 10  2  0  0  0  0
  9 11  1  0  0  0  0
 11 12  1  0  0  0  0
 11 33  1  0  0  0  0
 12 18  1  0  0  0  0
 12 13  1  0  0  0  0
 12 34  1  0  0  0  0
 13 17  1  0  0  0  0
 13 14  1  0  0  0  0
 13 35  1  0  0  0  0
 14 15  1  0  0  0  0
 14 36  1  0  0  0  0
 14 37  1  0  0  0  0
 15 16  1  0  0  0  0
 15 38  1  0  0  0  0
 15 39  1  0  0  0  0
 16 17  1  0  0  0  0
 17 18  1  0  0  0  0
 17 40  1  0  0  0  0
 18 19  1  0  0  0  0
 18 20  1  0  0  0  0
 19 41  1  0  0  0  0
 19 42  1  0  0  0  0
 19 43  1  0  0  0  0
 20 44  1  0  0  0  0
 20 45  1  0  0  0  0
 20 46  1  0  0  0  0
 21 22  2  0  0  0  0
 21 47  1  0  0  0  0
M  END
> <s_m_source_file>
AV-unprocessed.smi

> <i_m_source_file_index>
767

> <i_lp_mmshare_version>
43012

> <i_f3d_flags>
0

> <s_epik_input>
W0NIM11jMVtjSF1bY0hdYyhbY0hdbjEpW0NIMl1bQ0gyXVtOSF1DKD1PKVtOSF1bQ0BIXTJDKFtDSDNdKShbQ0gzXSlbQ0BIXShbQ0BASF0yMylPW0NIMl1bQ0gyXTM=

> <s_epik_cmdline>
J2VwaWtfcHl0aG9uJywgJy1waCcsICc3LjAnLCAnLXRuJywgJzgnLCAnLW1hJywgJzIwMCcsICctbWV0YWxfYmluZGluZycsICctaW1hZScsICc8aW5maWxlLm1hZT4nLCAnLW9tYWUnLCAnPG91dGZpbGUubWFlPic=

> <r_epik_Ionization_Penalty>
0.0567523

> <r_epik_Ionization_Penalty_Charging>
0

> <r_epik_Ionization_Penalty_Neutral>
0.0567523

> <r_epik_State_Penalty>
0.0489186

> <r_epik_Charging_Adjusted_Penalty>
0.0489186

> <i_epik_Tot_Q>
0

> <i_epik_Tot_abs_Q>
0

> <r_epik_Metal_State_Penalty>
0.044622

> <b_epik_Metal_Only>
0

> <s_lp_Force_Field>
OPLS_2005

> <r_lp_Energy>
58.7335

> <b_lp_Chiralities_Consistent>
1

> <s_lp_Variant>
AV-unprocessed.smi:767-7

> <Gold.Version>
5.8.1

> <Gold.Id.Protein>
6NUR|6NUR_protein|mol2

> <Gold.PLP.Fitness>
47.6505

> <Gold.PLP.PLP>
-37.3994

> <Gold.PLP.part.hbond>
-2.7684

> <Gold.PLP.part.metal>
0.0000

> <Gold.PLP.part.buried>
-5.8836

> <Gold.PLP.part.nonpolar>
-29.2225

> <Gold.PLP.part.repulsive>
0.2779

> <Gold.PLP.ligand.clash>
0.0000

> <Gold.PLP.ligand.torsion>
0.4195

> <Gold.PLP.Chemscore.Hbond>
2.6080

> <Gold.PLP.Chemscore.CHOScore>
0.9908

> <Gold.PLP.Chemscore.Metal>
0.0000

> <Gold.Chemscore.Hbonds>
donor molecule, donor type, donor heavy atom, donor atom, acceptor molecule, acceptor atom, score
      L1  H     8    32       P1  7948  0.80
      L1  H    11    33       P1  7948  0.99
      P1  H 10752 10763       L1    16  0.73
      L1  C    21    47       P1  7948  1.00

> <Gold.PLP.Chemscore.Internal.Correction>
0.2936

> <Gold.Rescore>
     Score         DG    S(hbond)    S(metal)    S(lipo)     H(rot)  DE(clash)    DE(int)     intcor
     20.78     -21.45       2.49        0.00      97.02       1.45       0.24       0.43       ----

> <Gold.Chemscore.Fitness>
20.7810

> <Gold.Chemscore.DG>
-21.4483

> <Gold.Chemscore.ZeroCoef>
-5.4800

> <Gold.Chemscore.Hbond>
2.4934

> <Gold.Chemscore.Metal>
0.0000

> <Gold.Chemscore.Lipo>
97.0214

> <Gold.Chemscore.Internal_Hbond>
0.0000

> <Gold.Chemscore.DEClash>
0.2410

> <Gold.Chemscore.DEInternal>
0.4263

> <Gold.Chemscore.Rot>
1.4497

> <Gold.Chemscore.Internal.Correction>
   9.000000E+99

> <Gold.Chemscore.Hbonds>
donor molecule, donor type, donor heavy atom, donor atom, acceptor molecule, acceptor atom, score
      L1  H     8    32       P1  7948  0.80
      L1  H    11    33       P1  7948  0.88
      P1  H 10752 10763       L1    16  0.12

> <Gold.Chemscore.Hbond.Weighted>
-8.3280

> <Gold.Chemscore.Metal.Weighted>
-0.0000

> <Gold.Chemscore.Lipo.Weighted>
-11.3515

> <Gold.Chemscore.Internal_Hbond.Weighted>
0.0000

> <Gold.Chemscore.DEClash.Weighted>
0.2410

> <Gold.Chemscore.DEInternal.Weighted>
0.4263

> <Gold.Chemscore.Rot.Weighted>
3.7112

> <Gold.Chemscore.Internal.Correction.Weighted>
   9.000000E+99

> <Gold.Protein.RotatedTorsions>
[ 6907 6896 6895 6894 ] final -162.36 input  -60.11 | X-H torsion
[ 7974 7965 7964 7962 ] final   27.82 input  175.53 | X-H torsion
[ 8008 7997 7996 7995 ] final  119.95 input   59.86 | X-H torsion
[ 10167 10162 10161 10158 ] final   31.08 input  -65.29 | X-H torsion
[ 10718 10713 10712 10709 ] final   96.49 input   66.30 | X-H torsion
[ 10763 10752 10751 10750 ] final   72.05 input  -60.55 | X-H torsion
[ 11005 11000 10999 10996 ] final  -51.84 input  -57.11 | X-H torsion

> <Gold.Protein.ActiveResidues>
 VAL166  LYS551  ARG553  GLY616  TRP617  ASP618  TYR619  PRO620  LYS621  CYS622 
 ASP623  PHE694  ASN695  SER759  ASP760  ASP761  ALA762  ILE779  LEU786  VAL792 
 PHE793  MET794  SER795  GLU796  ALA797  LYS798  CYS799  TRP800  GLU811  SER814 

> <Gold.Protein.RotatedAtoms>
  151.3791  133.3827  159.2707 H   0  0  0  0  0  0  0  0  0  0  0  0  # atno 6907 bound_to 6896
  150.9591  134.8983  159.7730 H   0  0  0  0  0  0  0  0  0  0  0  0  # atno 6908 bound_to 6896
  152.5142  134.3749  159.9383 H   0  0  0  0  0  0  0  0  0  0  0  0  # atno 6909 bound_to 6896
  146.1763  139.7139  142.8932 H   0  0  0  0  0  0  0  0  0  0  0  0  # atno 7974 bound_to 7965
  156.2620  140.2841  156.1073 H   0  0  0  0  0  0  0  0  0  0  0  0  # atno 8008 bound_to 7997
  155.1296  140.0393  157.2789 H   0  0  0  0  0  0  0  0  0  0  0  0  # atno 8009 bound_to 7997
  154.6610  140.2566  155.7115 H   0  0  0  0  0  0  0  0  0  0  0  0  # atno 8010 bound_to 7997
  140.4621  144.0891  150.6215 H   0  0  0  0  0  0  0  0  0  0  0  0  # atno 10167 bound_to 10162
  157.6926  131.0579  150.4499 H   0  0  0  0  0  0  0  0  0  0  0  0  # atno 10718 bound_to 10713
  153.0435  135.5114  154.7686 H   0  0  0  0  0  0  0  0  0  0  0  0  # atno 10763 bound_to 10752
  154.6604  135.2938  154.9876 H   0  0  0  0  0  0  0  0  0  0  0  0  # atno 10764 bound_to 10752
  154.0729  135.6675  153.4879 H   0  0  0  0  0  0  0  0  0  0  0  0  # atno 10765 bound_to 10752
  141.0892  133.6636  156.3936 H   0  0  0  0  0  0  0  0  0  0  0  0  # atno 11005 bound_to 11000
  145.4202  141.0405  143.2968 LP  0  0  0  0  0  0  0  0  0  0  0  0  # atno 17320 bound_to 7965
  144.8242  139.5739  143.6973 LP  0  0  0  0  0  0  0  0  0  0  0  0  # atno 17321 bound_to 7965
  140.4081  143.2670  151.9866 LP  0  0  0  0  0  0  0  0  0  0  0  0  # atno 17342 bound_to 10162
  139.4807  144.5939  151.7724 LP  0  0  0  0  0  0  0  0  0  0  0  0  # atno 17343 bound_to 10162
  156.4851  130.4082  149.6439 LP  0  0  0  0  0  0  0  0  0  0  0  0  # atno 17370 bound_to 10713
  156.3470  130.7412  151.2366 LP  0  0  0  0  0  0  0  0  0  0  0  0  # atno 17371 bound_to 10713
  140.5291  134.6230  157.5344 LP  0  0  0  0  0  0  0  0  0  0  0  0  # atno 17394 bound_to 11000
  139.9715  134.7284  156.0032 LP  0  0  0  0  0  0  0  0  0  0  0  0  # atno 17395 bound_to 11000

$$$$
