AV-unprocessed.smi:1830|AV-procd|sdf|7451|dock8
  -GOLD-   22720 9143D 1   1.00000     0.00000
 Structure written by MMmdl.
 54 57  0  0  0  0  0  0  0  0  3 V2000
  149.9611  134.5287  157.6088 O   0  0  0  0  0  0  0  0  0  0  0  0
  148.9693  133.8216  157.4353 C   0  0  0  0  0  0  0  0  0  0  0  0
  148.7528  133.1146  156.3175 N   0  0  0  0  0  0  0  0  0  0  0  0
  149.6153  133.1313  155.1399 C   0  0  0  0  0  0  0  0  0  0  0  0
  148.9002  132.6529  153.8619 C   0  0  1  0  0  0  0  0  0  0  0  0
  148.5949  131.1336  153.8691 C   0  0  0  0  0  0  0  0  0  0  0  0
  147.7818  130.8163  152.6805 N   0  3  1  0  0  0  0  0  0  0  0  0
  147.3707  129.4179  152.4671 C   0  0  0  0  0  0  0  0  0  0  0  0
  146.1165  129.5080  151.5745 C   0  0  0  0  0  0  0  0  0  0  0  0
  145.7770  131.0069  151.4799 C   0  0  0  0  0  0  0  0  0  0  0  0
  146.5518  131.6105  152.6471 C   0  0  2  0  0  0  0  0  0  0  0  0
  146.9207  133.0974  152.5812 C   0  0  0  0  0  0  0  0  0  0  0  0
  147.6844  133.4007  153.7497 O   0  0  0  0  0  0  0  0  0  0  0  0
  147.9629  133.6695  158.3128 N   0  0  0  0  0  0  0  0  0  0  0  0
  147.7879  134.3179  159.5691 C   0  0  0  0  0  0  0  0  0  0  0  0
  148.2555  135.6396  159.7872 C   0  0  0  0  0  0  0  0  0  0  0  0
  148.0462  136.2644  161.0308 C   0  0  0  0  0  0  0  0  0  0  0  0
  147.3751  135.5571  162.0424 C   0  0  0  0  0  0  0  0  0  0  0  0
  146.9608  134.2944  161.8120 N   0  3  0  0  0  0  0  0  0  0  0  0
  147.1455  133.6326  160.6422 C   0  0  0  0  0  0  0  0  0  0  0  0
  146.6667  132.3050  160.5553 N   0  0  0  0  0  0  0  0  0  0  0  0
  145.6090  131.8408  161.4460 C   0  0  0  0  0  0  0  0  0  0  0  0
  145.6148  130.3206  161.3107 C   0  0  0  0  0  0  0  0  0  0  0  0
  147.0964  130.0148  161.1136 C   0  0  0  0  0  0  0  0  0  0  0  0
  147.6141  131.2198  160.3209 C   0  0  0  0  0  0  0  0  0  0  0  0
  147.9118  132.5592  156.2568 H   0  0  0  0  0  0  0  0  0  0  0  0
  149.9782  134.1501  155.0007 H   0  0  0  0  0  0  0  0  0  0  0  0
  150.4976  132.5169  155.3274 H   0  0  0  0  0  0  0  0  0  0  0  0
  149.5206  132.8897  152.9956 H   0  0  0  0  0  0  0  0  0  0  0  0
  149.5165  130.5511  153.8434 H   0  0  0  0  0  0  0  0  0  0  0  0
  148.0552  130.8525  154.7748 H   0  0  0  0  0  0  0  0  0  0  0  0
  148.1720  128.8389  152.0077 H   0  0  0  0  0  0  0  0  0  0  0  0
  147.1182  128.9538  153.4217 H   0  0  0  0  0  0  0  0  0  0  0  0
  146.2950  129.0871  150.5845 H   0  0  0  0  0  0  0  0  0  0  0  0
  145.2943  128.9506  152.0245 H   0  0  0  0  0  0  0  0  0  0  0  0
  146.1425  131.4116  150.5350 H   0  0  0  0  0  0  0  0  0  0  0  0
  144.7060  131.2030  151.5387 H   0  0  0  0  0  0  0  0  0  0  0  0
  145.9893  131.4240  153.5647 H   0  0  0  0  0  0  0  0  0  0  0  0
  147.4913  133.3307  151.6808 H   0  0  0  0  0  0  0  0  0  0  0  0
  146.0228  133.7153  152.5688 H   0  0  0  0  0  0  0  0  0  0  0  0
  147.1745  133.1280  157.9904 H   0  0  0  0  0  0  0  0  0  0  0  0
  148.7789  136.1869  159.0180 H   0  0  0  0  0  0  0  0  0  0  0  0
  148.3938  137.2724  161.2043 H   0  0  0  0  0  0  0  0  0  0  0  0
  147.1657  135.9556  163.0246 H   0  0  0  0  0  0  0  0  0  0  0  0
  145.8299  132.1165  162.4778 H   0  0  0  0  0  0  0  0  0  0  0  0
  144.6426  132.2669  161.1743 H   0  0  0  0  0  0  0  0  0  0  0  0
  145.1839  129.8148  162.1750 H   0  0  0  0  0  0  0  0  0  0  0  0
  145.0518  130.0210  160.4255 H   0  0  0  0  0  0  0  0  0  0  0  0
  147.5928  129.9722  162.0840 H   0  0  0  0  0  0  0  0  0  0  0  0
  147.2721  129.0661  160.6057 H   0  0  0  0  0  0  0  0  0  0  0  0
  147.6236  130.9874  159.2557 H   0  0  0  0  0  0  0  0  0  0  0  0
  148.6284  131.4858  160.6221 H   0  0  0  0  0  0  0  0  0  0  0  0
  148.3168  131.0852  151.8670 H   0  0  0  0  0  0  0  0  0  0  0  0
  146.4853  133.8041  162.5698 H   0  0  0  0  0  0  0  0  0  0  0  0
  1  2  2  0  0  0  0
  2  3  1  0  0  0  0
  2 14  1  0  0  0  0
  3  4  1  0  0  0  0
  3 26  1  0  0  0  0
  4  5  1  0  0  0  0
  4 27  1  0  0  0  0
  4 28  1  0  0  0  0
  5 13  1  0  0  0  0
  5  6  1  0  0  0  0
  5 29  1  0  0  0  0
  6  7  1  0  0  0  0
  6 30  1  0  0  0  0
  6 31  1  0  0  0  0
  7 11  1  0  0  0  0
  7  8  1  0  0  0  0
  7 53  1  0  0  0  0
  8  9  1  0  0  0  0
  8 32  1  0  0  0  0
  8 33  1  0  0  0  0
  9 10  1  0  0  0  0
  9 34  1  0  0  0  0
  9 35  1  0  0  0  0
 10 11  1  0  0  0  0
 10 36  1  0  0  0  0
 10 37  1  0  0  0  0
 11 12  1  0  0  0  0
 11 38  1  0  0  0  0
 12 13  1  0  0  0  0
 12 39  1  0  0  0  0
 12 40  1  0  0  0  0
 14 15  1  0  0  0  0
 14 41  1  0  0  0  0
 15 20  1  0  0  0  0
 15 16  2  0  0  0  0
 16 17  1  0  0  0  0
 16 42  1  0  0  0  0
 17 18  2  0  0  0  0
 17 43  1  0  0  0  0
 18 19  1  0  0  0  0
 18 44  1  0  0  0  0
 19 20  2  0  0  0  0
 19 54  1  0  0  0  0
 20 21  1  0  0  0  0
 21 25  1  0  0  0  0
 21 22  1  0  0  0  0
 22 23  1  0  0  0  0
 22 45  1  0  0  0  0
 22 46  1  0  0  0  0
 23 24  1  0  0  0  0
 23 47  1  0  0  0  0
 23 48  1  0  0  0  0
 24 25  1  0  0  0  0
 24 49  1  0  0  0  0
 24 50  1  0  0  0  0
 25 51  1  0  0  0  0
 25 52  1  0  0  0  0
M  CHG  1   7   1
M  CHG  1  19   1
M  END
> <s_m_source_file>
AV-unprocessed.smi

> <i_m_source_file_index>
1830

> <i_lp_mmshare_version>
43012

> <i_f3d_flags>
0

> <s_epik_input>
W0NIMl0xW0NIMl1bQ0gyXVtDQEhdKE4xMilbQ0gyXU9bQ0BASF0oW0NIMl0yKVtDSDJdW05IXUMoPU8pW05IXWMzW2NIXVtjSF1bY0hdbmMzTjRbQ0gyXVtDSDJdW0NIMl1bQ0gyXTQ=

> <s_epik_cmdline>
J2VwaWtfcHl0aG9uJywgJy1waCcsICc3LjAnLCAnLXRuJywgJzgnLCAnLW1hJywgJzIwMCcsICctbWV0YWxfYmluZGluZycsICctaW1hZScsICc8aW5maWxlLm1hZT4nLCAnLW9tYWUnLCAnPG91dGZpbGUubWFlPic=

> <r_lp_tautomer_probability>
0.999994

> <r_epik_Ionization_Penalty>
1.29113

> <r_epik_Ionization_Penalty_Charging>
1.29111

> <r_epik_Ionization_Penalty_Neutral>
1.88144e-05

> <r_epik_State_Penalty>
1.32676

> <r_epik_Charging_Adjusted_Penalty>
2.61787

> <i_epik_Tot_Q>
2

> <i_epik_Tot_abs_Q>
2

> <r_epik_Metal_State_Penalty>
1.40425

> <b_epik_Metal_Only>
0

> <s_lp_Force_Field>
OPLS_2005

> <r_lp_Energy>
72.9797

> <b_lp_Chiralities_Consistent>
1

> <s_lp_Variant>
AV-unprocessed.smi:1830-20

> <Gold.Version>
5.8.1

> <Gold.Id.Protein>
6NUR|6NUR_protein|mol2

> <Gold.PLP.Fitness>
42.2673

> <Gold.PLP.PLP>
-37.7045

> <Gold.PLP.part.hbond>
-2.0000

> <Gold.PLP.part.metal>
0.0000

> <Gold.PLP.part.buried>
-5.8396

> <Gold.PLP.part.nonpolar>
-30.7051

> <Gold.PLP.part.repulsive>
0.2490

> <Gold.PLP.ligand.clash>
0.0000

> <Gold.PLP.ligand.torsion>
0.7362

> <Gold.PLP.Chemscore.Hbond>
1.8800

> <Gold.PLP.Chemscore.CHOScore>
0.0000

> <Gold.PLP.Chemscore.Metal>
0.0000

> <Gold.Chemscore.Hbonds>
donor molecule, donor type, donor heavy atom, donor atom, acceptor molecule, acceptor atom, score
      L1  H     7    53       P1 10747  1.00
      P1  H  6896  6909       L1     1  0.88

> <Gold.PLP.Chemscore.Internal.Correction>
0.3951

> <Gold.Rescore>
     Score         DG    S(hbond)    S(metal)    S(lipo)     H(rot)  DE(clash)    DE(int)     intcor
     17.94     -19.56       1.95        0.00      95.88       1.43       0.01       1.61       ----

> <Gold.Chemscore.Fitness>
17.9444

> <Gold.Chemscore.DG>
-19.5637

> <Gold.Chemscore.ZeroCoef>
-5.4800

> <Gold.Chemscore.Hbond>
1.9525

> <Gold.Chemscore.Metal>
0.0000

> <Gold.Chemscore.Lipo>
95.8767

> <Gold.Chemscore.Internal_Hbond>
0.0000

> <Gold.Chemscore.DEClash>
0.0089

> <Gold.Chemscore.DEInternal>
1.6104

> <Gold.Chemscore.Rot>
1.4278

> <Gold.Chemscore.Internal.Correction>
   9.000000E+99

> <Gold.Chemscore.Hbonds>
donor molecule, donor type, donor heavy atom, donor atom, acceptor molecule, acceptor atom, score
      L1  H     7    53       P1 10747  0.98
      P1  H  6896  6909       L1     1  0.52

> <Gold.Chemscore.Hbond.Weighted>
-6.5213

> <Gold.Chemscore.Metal.Weighted>
-0.0000

> <Gold.Chemscore.Lipo.Weighted>
-11.2176

> <Gold.Chemscore.Internal_Hbond.Weighted>
0.0000

> <Gold.Chemscore.DEClash.Weighted>
0.0089

> <Gold.Chemscore.DEInternal.Weighted>
1.6104

> <Gold.Chemscore.Rot.Weighted>
3.6551

> <Gold.Chemscore.Internal.Correction.Weighted>
   9.000000E+99

> <Gold.Protein.RotatedTorsions>
[ 6907 6896 6895 6894 ] final   13.62 input  -60.11 | X-H torsion
[ 7974 7965 7964 7962 ] final  -56.83 input  175.53 | X-H torsion
[ 8008 7997 7996 7995 ] final  -22.29 input   59.86 | X-H torsion
[ 10167 10162 10161 10158 ] final  161.67 input  -65.29 | X-H torsion
[ 10718 10713 10712 10709 ] final -135.44 input   66.30 | X-H torsion
[ 10763 10752 10751 10750 ] final   95.99 input  -60.55 | X-H torsion
[ 11005 11000 10999 10996 ] final  110.66 input  -57.11 | X-H torsion

> <Gold.Protein.ActiveResidues>
 VAL166  LYS551  ARG553  GLY616  TRP617  ASP618  TYR619  PRO620  LYS621  CYS622 
 ASP623  PHE694  ASN695  SER759  ASP760  ASP761  ALA762  ILE779  LEU786  VAL792 
 PHE793  MET794  SER795  GLU796  ALA797  LYS798  CYS799  TRP800  GLU811  SER814 

> <Gold.Protein.RotatedAtoms>
  151.7893  135.0740  160.0384 H   0  0  0  0  0  0  0  0  0  0  0  0  # atno 6907 bound_to 6896
  152.3168  133.5806  159.5726 H   0  0  0  0  0  0  0  0  0  0  0  0  # atno 6908 bound_to 6896
  150.7348  133.9987  159.3673 H   0  0  0  0  0  0  0  0  0  0  0  0  # atno 6909 bound_to 6896
  145.8582  140.8304  142.9951 H   0  0  0  0  0  0  0  0  0  0  0  0  # atno 7974 bound_to 7965
  154.4653  140.2012  156.0134 H   0  0  0  0  0  0  0  0  0  0  0  0  # atno 8008 bound_to 7997
  156.0916  140.3257  155.7794 H   0  0  0  0  0  0  0  0  0  0  0  0  # atno 8009 bound_to 7997
  155.4947  140.0549  157.2939 H   0  0  0  0  0  0  0  0  0  0  0  0  # atno 8010 bound_to 7997
  139.4852  144.4513  151.8826 H   0  0  0  0  0  0  0  0  0  0  0  0  # atno 10167 bound_to 10162
  156.2662  130.7239  151.1190 H   0  0  0  0  0  0  0  0  0  0  0  0  # atno 10718 bound_to 10713
  153.2597  135.4234  155.0881 H   0  0  0  0  0  0  0  0  0  0  0  0  # atno 10763 bound_to 10752
  154.8415  135.3446  154.6395 H   0  0  0  0  0  0  0  0  0  0  0  0  # atno 10764 bound_to 10752
  153.6815  135.7038  153.5173 H   0  0  0  0  0  0  0  0  0  0  0  0  # atno 10765 bound_to 10752
  139.8886  134.9489  156.6313 H   0  0  0  0  0  0  0  0  0  0  0  0  # atno 11005 bound_to 11000
  144.6727  140.1055  143.7458 LP  0  0  0  0  0  0  0  0  0  0  0  0  # atno 17320 bound_to 7965
  145.9279  139.2587  143.1342 LP  0  0  0  0  0  0  0  0  0  0  0  0  # atno 17321 bound_to 7965
  140.3970  144.2542  150.5895 LP  0  0  0  0  0  0  0  0  0  0  0  0  # atno 17342 bound_to 10162
  140.5092  143.2295  151.8561 LP  0  0  0  0  0  0  0  0  0  0  0  0  # atno 17343 bound_to 10162
  157.7268  131.0644  150.5893 LP  0  0  0  0  0  0  0  0  0  0  0  0  # atno 17370 bound_to 10713
  156.5986  130.4348  149.5907 LP  0  0  0  0  0  0  0  0  0  0  0  0  # atno 17371 bound_to 10713
  140.7664  133.8775  155.8458 LP  0  0  0  0  0  0  0  0  0  0  0  0  # atno 17394 bound_to 11000
  140.9879  134.1318  157.4435 LP  0  0  0  0  0  0  0  0  0  0  0  0  # atno 17395 bound_to 11000

$$$$
