AV-unprocessed.smi:1705|AV-procd|sdf|6884|dock5
  -GOLD-   22720 8 93D 1   1.00000     0.00000
 Structure written by MMmdl.
 38 39  0  0  0  0  0  0  0  0  1 V2000
  151.6286  137.6399  154.7120 C   0  0  0  0  0  0  0  0  0  0  0  0
  150.1180  137.5248  154.9593 C   0  0  2  0  0  0  0  0  0  0  0  0
  149.6494  136.2025  154.5650 N   0  0  0  0  0  0  0  0  0  0  0  0
  149.8662  134.9342  155.1042 C   0  0  0  0  0  0  0  0  0  0  0  0
  150.6267  134.7073  156.2168 C   0  0  0  0  0  0  0  0  0  0  0  0
  151.2625  135.7255  156.9925 C   0  0  0  0  0  0  0  0  0  0  0  0
  151.7673  136.5213  157.6666 N   0  0  0  0  0  0  0  0  0  0  0  0
  150.8407  133.3615  156.7489 C   0  0  0  0  0  0  0  0  0  0  0  0
  151.4990  133.1242  157.7648 O   0  0  0  0  0  0  0  0  0  0  0  0
  150.2243  132.3274  156.0170 N   0  0  0  0  0  0  0  0  0  0  0  0
  150.3969  130.9734  156.5074 C   0  0  0  0  0  0  0  0  0  0  0  0
  149.4164  132.5332  154.8822 C   0  0  0  0  0  0  0  0  0  0  0  0
  148.8762  131.5896  154.2963 O   0  0  0  0  0  0  0  0  0  0  0  0
  149.2403  133.8689  154.4446 N   0  0  0  0  0  0  0  0  0  0  0  0
  148.3917  134.0052  153.2753 C   0  0  0  0  0  0  0  0  0  0  0  0
  149.3293  138.6366  154.2349 C   0  0  1  0  0  0  0  0  0  0  0  0
  147.8495  138.7701  154.6156 C   0  0  0  0  0  0  0  0  0  0  0  0
  147.5865  140.2293  154.3210 C   0  0  0  0  0  0  0  0  0  0  0  0
  148.8936  140.8699  154.7742 C   0  0  0  0  0  0  0  0  0  0  0  0
  149.9085  139.9182  154.4715 O   0  0  0  0  0  0  0  0  0  0  0  0
  152.0017  138.6181  155.0167 H   0  0  0  0  0  0  0  0  0  0  0  0
  151.8758  137.5022  153.6589 H   0  0  0  0  0  0  0  0  0  0  0  0
  152.1756  136.8877  155.2813 H   0  0  0  0  0  0  0  0  0  0  0  0
  149.9906  137.6528  156.0305 H   0  0  0  0  0  0  0  0  0  0  0  0
  149.2851  136.1943  153.6232 H   0  0  0  0  0  0  0  0  0  0  0  0
  150.2398  130.2530  155.7041 H   0  0  0  0  0  0  0  0  0  0  0  0
  149.6731  130.8334  157.3118 H   0  0  0  0  0  0  0  0  0  0  0  0
  151.4207  130.8544  156.8656 H   0  0  0  0  0  0  0  0  0  0  0  0
  148.9269  133.5599  152.4350 H   0  0  0  0  0  0  0  0  0  0  0  0
  148.1731  135.0508  153.0721 H   0  0  0  0  0  0  0  0  0  0  0  0
  147.4514  133.4885  153.4777 H   0  0  0  0  0  0  0  0  0  0  0  0
  149.3913  138.4703  153.1582 H   0  0  0  0  0  0  0  0  0  0  0  0
  147.2037  138.0977  154.0507 H   0  0  0  0  0  0  0  0  0  0  0  0
  147.6911  138.5791  155.6775 H   0  0  0  0  0  0  0  0  0  0  0  0
  147.4445  140.3778  153.2498 H   0  0  0  0  0  0  0  0  0  0  0  0
  146.7142  140.6236  154.8427 H   0  0  0  0  0  0  0  0  0  0  0  0
  149.0839  141.8269  154.2877 H   0  0  0  0  0  0  0  0  0  0  0  0
  148.8826  141.0330  155.8527 H   0  0  0  0  0  0  0  0  0  0  0  0
  1  2  1  0  0  0  0
  1 21  1  0  0  0  0
  1 22  1  0  0  0  0
  1 23  1  0  0  0  0
  2  3  1  0  0  0  0
  2 16  1  0  0  0  0
  2 24  1  0  0  0  0
  3  4  1  0  0  0  0
  3 25  1  0  0  0  0
  4 14  1  0  0  0  0
  4  5  2  0  0  0  0
  5  6  1  0  0  0  0
  5  8  1  0  0  0  0
  6  7  3  0  0  0  0
  8  9  2  0  0  0  0
  8 10  1  0  0  0  0
 10 11  1  0  0  0  0
 10 12  1  0  0  0  0
 11 26  1  0  0  0  0
 11 27  1  0  0  0  0
 11 28  1  0  0  0  0
 12 13  2  0  0  0  0
 12 14  1  0  0  0  0
 14 15  1  0  0  0  0
 15 29  1  0  0  0  0
 15 30  1  0  0  0  0
 15 31  1  0  0  0  0
 16 20  1  0  0  0  0
 16 17  1  0  0  0  0
 16 32  1  0  0  0  0
 17 18  1  0  0  0  0
 17 33  1  0  0  0  0
 17 34  1  0  0  0  0
 18 19  1  0  0  0  0
 18 35  1  0  0  0  0
 18 36  1  0  0  0  0
 19 20  1  0  0  0  0
 19 37  1  0  0  0  0
 19 38  1  0  0  0  0
M  END
> <s_m_source_file>
AV-unprocessed.smi

> <i_m_source_file_index>
1705

> <i_lp_mmshare_version>
43012

> <i_f3d_flags>
0

> <s_epik_input>
TzFbQ0gyXVtDSDJdW0NIMl1bQ0BIXTFbQ0BIXShbQ0gzXSlbTkhdYzJjKEMjTiljKD1PKW4oW0NIM10pYyg9TyluMltDSDNd

> <s_epik_cmdline>
J2VwaWtfcHl0aG9uJywgJy1waCcsICc3LjAnLCAnLXRuJywgJzgnLCAnLW1hJywgJzIwMCcsICctbWV0YWxfYmluZGluZycsICctaW1hZScsICc8aW5maWxlLm1hZT4nLCAnLW9tYWUnLCAnPG91dGZpbGUubWFlPic=

> <r_epik_Ionization_Penalty>
0.000446268

> <r_epik_Ionization_Penalty_Charging>
9.41922e-10

> <r_epik_Ionization_Penalty_Neutral>
0.000446267

> <r_epik_State_Penalty>
0.000275531

> <r_epik_Charging_Adjusted_Penalty>
0.000275532

> <i_epik_Tot_Q>
0

> <i_epik_Tot_abs_Q>
0

> <r_epik_Metal_State_Penalty>
-0

> <b_epik_Metal_Only>
0

> <s_lp_Force_Field>
OPLS_2005

> <r_lp_Energy>
40.5078

> <b_lp_Chiralities_Consistent>
1

> <s_lp_Variant>
AV-unprocessed.smi:1705-3

> <Gold.Version>
5.8.1

> <Gold.Id.Protein>
6NUR|6NUR_protein|mol2

> <Gold.PLP.Fitness>
35.3551

> <Gold.PLP.PLP>
-27.6980

> <Gold.PLP.part.hbond>
-3.3178

> <Gold.PLP.part.metal>
0.0000

> <Gold.PLP.part.buried>
1.0988

> <Gold.PLP.part.nonpolar>
-25.7596

> <Gold.PLP.part.repulsive>
0.2462

> <Gold.PLP.ligand.clash>
1.7724

> <Gold.PLP.ligand.torsion>
0.2109

> <Gold.PLP.Chemscore.Hbond>
2.6880

> <Gold.PLP.Chemscore.CHOScore>
0.0000

> <Gold.PLP.Chemscore.Metal>
0.0000

> <Gold.Chemscore.Hbonds>
donor molecule, donor type, donor heavy atom, donor atom, acceptor molecule, acceptor atom, score
      L1  H     3    25       P1  7948  1.00
      P1  H  6896  6908       L1     9  0.68
      P1  H  7989  7998       L1    20  0.60

> <Gold.PLP.Chemscore.Internal.Correction>
1.7873

> <Gold.Rescore>
     Score         DG    S(hbond)    S(metal)    S(lipo)     H(rot)  DE(clash)    DE(int)     intcor
     12.28     -16.14       2.34        0.00      52.44       1.28       1.76       2.10       ----

> <Gold.Chemscore.Fitness>
12.2803

> <Gold.Chemscore.DG>
-16.1427

> <Gold.Chemscore.ZeroCoef>
-5.4800

> <Gold.Chemscore.Hbond>
2.3351

> <Gold.Chemscore.Metal>
0.0000

> <Gold.Chemscore.Lipo>
52.4358

> <Gold.Chemscore.Internal_Hbond>
0.0000

> <Gold.Chemscore.DEClash>
1.7580

> <Gold.Chemscore.DEInternal>
2.1044

> <Gold.Chemscore.Rot>
1.2780

> <Gold.Chemscore.Internal.Correction>
   9.000000E+99

> <Gold.Chemscore.Hbonds>
donor molecule, donor type, donor heavy atom, donor atom, acceptor molecule, acceptor atom, score
      L1  H     3    25       P1  7948  0.85
      P1  H  6896  6908       L1     9  0.64
      P1  H  7989  7998       L1    20  0.46

> <Gold.Chemscore.Hbond.Weighted>
-7.7993

> <Gold.Chemscore.Metal.Weighted>
-0.0000

> <Gold.Chemscore.Lipo.Weighted>
-6.1350

> <Gold.Chemscore.Internal_Hbond.Weighted>
0.0000

> <Gold.Chemscore.DEClash.Weighted>
1.7580

> <Gold.Chemscore.DEInternal.Weighted>
2.1044

> <Gold.Chemscore.Rot.Weighted>
3.2717

> <Gold.Chemscore.Internal.Correction.Weighted>
   9.000000E+99

> <Gold.Protein.RotatedTorsions>
[ 6907 6896 6895 6894 ] final   61.94 input  -60.11 | X-H torsion
[ 7974 7965 7964 7962 ] final -134.04 input  175.53 | X-H torsion
[ 8008 7997 7996 7995 ] final   83.26 input   59.86 | X-H torsion
[ 10167 10162 10161 10158 ] final -109.23 input  -65.29 | X-H torsion
[ 10718 10713 10712 10709 ] final  163.90 input   66.30 | X-H torsion
[ 10763 10752 10751 10750 ] final  -72.14 input  -60.55 | X-H torsion
[ 11005 11000 10999 10996 ] final  162.54 input  -57.11 | X-H torsion

> <Gold.Protein.ActiveResidues>
 VAL166  LYS551  ARG553  GLY616  TRP617  ASP618  TYR619  PRO620  LYS621  CYS622 
 ASP623  PHE694  ASN695  SER759  ASP760  ASP761  ALA762  ILE779  LEU786  VAL792 
 PHE793  MET794  SER795  GLU796  ALA797  LYS798  CYS799  TRP800  GLU811  SER814 

> <Gold.Protein.RotatedAtoms>
  152.4130  134.6090  160.0020 H   0  0  0  0  0  0  0  0  0  0  0  0  # atno 6907 bound_to 6896
  151.6262  133.3330  159.3106 H   0  0  0  0  0  0  0  0  0  0  0  0  # atno 6908 bound_to 6896
  150.8020  134.7160  159.6676 H   0  0  0  0  0  0  0  0  0  0  0  0  # atno 6909 bound_to 6896
  144.9139  140.6929  143.5008 H   0  0  0  0  0  0  0  0  0  0  0  0  # atno 7974 bound_to 7965
  155.9215  140.3421  155.6177 H   0  0  0  0  0  0  0  0  0  0  0  0  # atno 8008 bound_to 7997
  155.7267  140.0790  157.2325 H   0  0  0  0  0  0  0  0  0  0  0  0  # atno 8009 bound_to 7997
  154.4070  140.1595  156.2450 H   0  0  0  0  0  0  0  0  0  0  0  0  # atno 8010 bound_to 7997
  140.1576  143.4147  152.1449 H   0  0  0  0  0  0  0  0  0  0  0  0  # atno 10167 bound_to 10162
  157.1020  131.0445  151.2494 H   0  0  0  0  0  0  0  0  0  0  0  0  # atno 10718 bound_to 10713
  154.4415  135.5939  153.6132 H   0  0  0  0  0  0  0  0  0  0  0  0  # atno 10763 bound_to 10752
  152.9806  135.5999  154.3716 H   0  0  0  0  0  0  0  0  0  0  0  0  # atno 10764 bound_to 10752
  154.3567  135.2841  155.2321 H   0  0  0  0  0  0  0  0  0  0  0  0  # atno 10765 bound_to 10752
  140.2268  134.8154  157.3276 H   0  0  0  0  0  0  0  0  0  0  0  0  # atno 11005 bound_to 11000
  145.3409  139.1732  143.4486 LP  0  0  0  0  0  0  0  0  0  0  0  0  # atno 17320 bound_to 7965
  146.3172  140.3450  142.8651 LP  0  0  0  0  0  0  0  0  0  0  0  0  # atno 17321 bound_to 7965
  139.5396  144.7244  151.4777 LP  0  0  0  0  0  0  0  0  0  0  0  0  # atno 17342 bound_to 10162
  140.6663  143.8390  150.6946 LP  0  0  0  0  0  0  0  0  0  0  0  0  # atno 17343 bound_to 10162
  157.4633  130.7666  149.7256 LP  0  0  0  0  0  0  0  0  0  0  0  0  # atno 17370 bound_to 10713
  155.9871  130.3969  150.3180 LP  0  0  0  0  0  0  0  0  0  0  0  0  # atno 17371 bound_to 10713
  140.1792  134.4511  155.7782 LP  0  0  0  0  0  0  0  0  0  0  0  0  # atno 17394 bound_to 11000
  141.2220  133.6976  156.7840 LP  0  0  0  0  0  0  0  0  0  0  0  0  # atno 17395 bound_to 11000

$$$$
