#       Name:                AV-unprocessed.smi:3057
#       Creating user name   scv26
#       Creation time:       Fri Mar 27 17:07:15 2020


#       File generated by GOLD software.
#

@<TRIPOS>MOLECULE
AV-unprocessed.smi:3057
    45    47     1
SMALL
NO_CHARGES


@<TRIPOS>ATOM
      1 ****        -5.2281   0.1204  -0.0716 C.3            1 S1                 0.0000
      2 ****        -3.9597   0.8353   0.4388 C.3            1 S1                 0.0000
      3 ****        -3.9990   1.0198   1.9644 C.3            1 S1                 0.0000
      4 ****        -3.3008  -0.2360   2.5088 C.3            1 S1                 0.0000
      5 ****        -2.4296  -0.6627   1.3363 C.2            1 S1                 0.0000
      6 ****        -1.5049  -1.4673   1.4417 O.2            1 S1                 0.0000
      7 ****        -2.7829   0.0122   0.2305 N.am           1 S1                 0.0000
      8 ****        -2.0444   0.2142  -1.0256 C.3            1 S1                 0.0000
      9 ****        -0.5495   0.5158  -0.8116 C.2            1 S1                 0.0000
     10 ****        -0.1992   1.4004  -0.0290 O.2            1 S1                 0.0000
     11 ****         0.3193  -0.2223  -1.5194 N.am           1 S1                 0.0000
     12 ****         1.7699  -0.1101  -1.4295 C.3            1 S1                 0.0000
     13 ****         2.3114  -0.8169  -0.1748 C.3            1 S1                 0.0000
     14 ****         3.8170  -0.6934  -0.0501 C.ar           1 S1                 0.0000
     15 ****         4.6924  -1.7346  -0.4281 C.ar           1 S1                 0.0000
     16 ****         6.0838  -1.5489  -0.2884 C.ar           1 S1                 0.0000
     17 ****         6.5696  -0.3285   0.2252 C.ar           1 S1                 0.0000
     18 ****         5.6503   0.6777   0.5860 C.ar           1 S1                 0.0000
     19 ****         4.3248   0.4622   0.4365 N.pl3          1 S1                 1.0000
     20 ****        -2.7640   1.3522  -1.7827 C.3            1 S1                 0.0000
     21 ****        -3.6175   2.3286  -0.5145 S.3            1 S1                 0.0000
     22 ****        -5.4066  -0.8117   0.4657 H              1 S1                 0.0000
     23 ****        -5.1595  -0.1247  -1.1314 H              1 S1                 0.0000
     24 ****        -6.1088   0.7490   0.0626 H              1 S1                 0.0000
     25 ****        -3.4352   1.9067   2.2584 H              1 S1                 0.0000
     26 ****        -5.0126   1.1339   2.3502 H              1 S1                 0.0000
     27 ****        -2.7112  -0.0284   3.4022 H              1 S1                 0.0000
     28 ****        -4.0169  -1.0271   2.7329 H              1 S1                 0.0000
     29 ****        -2.1293  -0.7038  -1.6095 H              1 S1                 0.0000
     30 ****        -0.0498  -0.9227  -2.1466 H              1 S1                 0.0000
     31 ****         2.2035  -0.5573  -2.3244 H              1 S1                 0.0000
     32 ****         2.0605   0.9418  -1.4353 H              1 S1                 0.0000
     33 ****         1.8548  -0.4000   0.7242 H              1 S1                 0.0000
     34 ****         2.0379  -1.8727  -0.1946 H              1 S1                 0.0000
     35 ****         4.3052  -2.6639  -0.8203 H              1 S1                 0.0000
     36 ****         6.7698  -2.3334  -0.5724 H              1 S1                 0.0000
     37 ****         7.6316  -0.1669   0.3404 H              1 S1                 0.0000
     38 ****         5.9322   1.6405   0.9865 H              1 S1                 0.0000
     39 ****        -2.0920   1.9782  -2.3714 H              1 S1                 0.0000
     40 ****        -3.5078   0.9411  -2.4653 H              1 S1                 0.0000
     41 ****         3.6770   1.2043   0.7034 H              1 S1                 0.0000
     42 ****        -1.2956  -1.8748   2.3306 LP             1 S1                 0.0000
     43 ****        -0.9626  -1.7138   0.6385 LP             1 S1                 0.0000
     44 ****        -0.8870   1.9267   0.4711 LP             1 S1                 0.0000
     45 ****         0.7728   1.5921   0.1063 LP             1 S1                 0.0000
@<TRIPOS>BOND
    1    1    2 1     
    2    1   22 1     
    3    1   23 1     
    4    1   24 1     
    5    2    7 1     
    6    2   21 1     
    7    2    3 1     
    8    3    4 1     
    9    3   25 1     
   10    3   26 1     
   11    4    5 1     
   12    4   27 1     
   13    4   28 1     
   14    5    6 2     
   15    5    7 am    
   16    7    8 1     
   17    8    9 1     
   18    8   20 1     
   19    8   29 1     
   20    9   10 2     
   21    9   11 am    
   22   11   12 1     
   23   11   30 1     
   24   12   13 1     
   25   12   31 1     
   26   12   32 1     
   27   13   14 1     
   28   13   33 1     
   29   13   34 1     
   30   14   19 ar    
   31   14   15 ar    
   32   15   16 ar    
   33   15   35 1     
   34   16   17 ar    
   35   16   36 1     
   36   17   18 ar    
   37   17   37 1     
   38   18   19 ar    
   39   18   38 1     
   40   19   41 1     
   41   20   21 1     
   42   20   39 1     
   43   20   40 1     
   44    6   42 1     
   45    6   43 1     
   46   10   44 1     
   47   10   45 1     
@<TRIPOS>SUBSTRUCTURE
      1 S1             1
@<TRIPOS>SET
LONE_PAIRS      STATIC     ATOMS    <user>   **** ""
4 42 43 44 45
DONOR_HYDROGENS      STATIC     ATOMS    <user>   **** ""
2 30 41
ATOM$BLUE        STATIC     ATOMS    COLORGROUP SYSTEM
4 42 43 44 45
ATOM$RED        STATIC     ATOMS    COLORGROUP SYSTEM
2 30 41
