AV-unprocessed.smi:2923|AV-procd|sdf|11205|dock3
  -GOLD-   2272016 93D 1   1.00000     0.00000
 Structure written by MMmdl.
 47 49  0  0  0  0  0  0  0  0  2 V2000
  144.6273  133.7223  162.5742 C   0  0  0  0  0  0  0  0  0  0  0  0
  145.7675  133.8705  161.6768 N   0  0  0  0  0  0  0  0  0  0  0  0
  147.0824  134.2052  162.2079 C   0  0  0  0  0  0  0  0  0  0  0  0
  145.5802  133.7630  160.2817 C   0  0  0  0  0  0  0  0  0  0  0  0
  146.5756  134.1104  159.3361 C   0  0  0  0  0  0  0  0  0  0  0  0
  146.3102  133.9776  157.9578 C   0  0  0  0  0  0  0  0  0  0  0  0
  145.0538  133.5053  157.5247 C   0  0  0  0  0  0  0  0  0  0  0  0
  144.8430  133.3879  156.1233 N   0  0  0  0  0  0  0  0  0  0  0  0
  145.5517  133.9215  155.1133 C   0  0  0  0  0  0  0  0  0  0  0  0
  146.5525  134.6267  155.2365 O   0  0  0  0  0  0  0  0  0  0  0  0
  145.0308  133.5834  153.9266 N   0  0  0  0  0  0  0  0  0  0  0  0
  145.5608  134.0125  152.6311 C   0  0  1  0  0  0  0  0  0  0  0  0
  146.6632  133.0743  152.0905 C   0  0  1  0  0  0  0  0  0  0  0  0
  147.2978  131.9856  152.9220 C   0  0  0  0  0  0  0  0  0  0  0  0
  146.5130  130.7389  152.5037 C   0  0  0  0  0  0  0  0  0  0  0  0
  145.2937  131.2412  151.9612 O   0  0  0  0  0  0  0  0  0  0  0  0
  145.5986  132.4226  151.2233 C   0  0  1  0  0  0  0  0  0  0  0  0
  144.6526  133.6231  151.4333 C   0  0  0  0  0  0  0  0  0  0  0  0
  143.1781  133.2840  151.6928 C   0  0  0  0  0  0  0  0  0  0  0  0
  144.6633  134.6371  150.2858 C   0  0  0  0  0  0  0  0  0  0  0  0
  144.0963  133.1604  158.5085 C   0  0  0  0  0  0  0  0  0  0  0  0
  144.3929  133.3026  159.8183 N   0  3  0  0  0  0  0  0  0  0  0  0
  144.2001  132.7226  162.4880 H   0  0  0  0  0  0  0  0  0  0  0  0
  143.8532  134.4523  162.3356 H   0  0  0  0  0  0  0  0  0  0  0  0
  144.9176  133.8731  163.6139 H   0  0  0  0  0  0  0  0  0  0  0  0
  147.4072  135.1789  161.8403 H   0  0  0  0  0  0  0  0  0  0  0  0
  147.8175  133.4562  161.9121 H   0  0  0  0  0  0  0  0  0  0  0  0
  147.0715  134.2467  163.2972 H   0  0  0  0  0  0  0  0  0  0  0  0
  147.5423  134.4789  159.6443 H   0  0  0  0  0  0  0  0  0  0  0  0
  147.0713  134.2430  157.2385 H   0  0  0  0  0  0  0  0  0  0  0  0
  144.0720  132.7955  155.8516 H   0  0  0  0  0  0  0  0  0  0  0  0
  144.2037  133.0048  153.9096 H   0  0  0  0  0  0  0  0  0  0  0  0
  145.8733  135.0584  152.6107 H   0  0  0  0  0  0  0  0  0  0  0  0
  147.3764  133.6294  151.4792 H   0  0  0  0  0  0  0  0  0  0  0  0
  148.3604  131.8693  152.7072 H   0  0  0  0  0  0  0  0  0  0  0  0
  147.2028  132.1745  153.9910 H   0  0  0  0  0  0  0  0  0  0  0  0
  147.0483  130.1935  151.7252 H   0  0  0  0  0  0  0  0  0  0  0  0
  146.3303  130.0573  153.3348 H   0  0  0  0  0  0  0  0  0  0  0  0
  145.9144  132.2298  150.1970 H   0  0  0  0  0  0  0  0  0  0  0  0
  142.6895  132.9125  150.7915 H   0  0  0  0  0  0  0  0  0  0  0  0
  142.6212  134.1580  152.0319 H   0  0  0  0  0  0  0  0  0  0  0  0
  143.0599  132.5114  152.4527 H   0  0  0  0  0  0  0  0  0  0  0  0
  144.2096  134.2269  149.3829 H   0  0  0  0  0  0  0  0  0  0  0  0
  145.6778  134.9402  150.0251 H   0  0  0  0  0  0  0  0  0  0  0  0
  144.1156  135.5426  150.5490 H   0  0  0  0  0  0  0  0  0  0  0  0
  143.1094  132.7700  158.3137 H   0  0  0  0  0  0  0  0  0  0  0  0
  143.6783  133.0461  160.4996 H   0  0  0  0  0  0  0  0  0  0  0  0
  1  2  1  0  0  0  0
  1 23  1  0  0  0  0
  1 24  1  0  0  0  0
  1 25  1  0  0  0  0
  2  3  1  0  0  0  0
  2  4  1  0  0  0  0
  3 26  1  0  0  0  0
  3 27  1  0  0  0  0
  3 28  1  0  0  0  0
  4 22  1  0  0  0  0
  4  5  2  0  0  0  0
  5  6  1  0  0  0  0
  5 29  1  0  0  0  0
  6  7  2  0  0  0  0
  6 30  1  0  0  0  0
  7  8  1  0  0  0  0
  7 21  1  0  0  0  0
  8  9  1  0  0  0  0
  8 31  1  0  0  0  0
  9 10  2  0  0  0  0
  9 11  1  0  0  0  0
 11 12  1  0  0  0  0
 11 32  1  0  0  0  0
 12 18  1  0  0  0  0
 12 13  1  0  0  0  0
 12 33  1  0  0  0  0
 13 17  1  0  0  0  0
 13 14  1  0  0  0  0
 13 34  1  0  0  0  0
 14 15  1  0  0  0  0
 14 35  1  0  0  0  0
 14 36  1  0  0  0  0
 15 16  1  0  0  0  0
 15 37  1  0  0  0  0
 15 38  1  0  0  0  0
 16 17  1  0  0  0  0
 17 18  1  0  0  0  0
 17 39  1  0  0  0  0
 18 19  1  0  0  0  0
 18 20  1  0  0  0  0
 19 40  1  0  0  0  0
 19 41  1  0  0  0  0
 19 42  1  0  0  0  0
 20 43  1  0  0  0  0
 20 44  1  0  0  0  0
 20 45  1  0  0  0  0
 21 22  2  0  0  0  0
 21 46  1  0  0  0  0
 22 47  1  0  0  0  0
M  CHG  1  22   1
M  END
> <s_m_source_file>
AV-unprocessed.smi

> <i_m_source_file_index>
2923

> <i_lp_mmshare_version>
43012

> <i_f3d_flags>
0

> <s_epik_input>
W0NIM11OKFtDSDNdKWMxW2NIXVtjSF1jKFtjSF1uMSlbTkhdQyg9TylbTkhdW0NASF0yQyhbQ0gzXSkoW0NIM10pW0NAQEhdKFtDQEhdMjMpT1tDSDJdW0NIMl0z

> <s_epik_cmdline>
J2VwaWtfcHl0aG9uJywgJy1waCcsICc3LjAnLCAnLXRuJywgJzgnLCAnLW1hJywgJzIwMCcsICctbWV0YWxfYmluZGluZycsICctaW1hZScsICc8aW5maWxlLm1hZT4nLCAnLW9tYWUnLCAnPG91dGZpbGUubWFlPic=

> <r_lp_tautomer_probability>
0.999994

> <r_epik_Ionization_Penalty>
0.252205

> <r_epik_Ionization_Penalty_Charging>
0.252185

> <r_epik_Ionization_Penalty_Neutral>
1.99479e-05

> <r_epik_State_Penalty>
0.243573

> <r_epik_Charging_Adjusted_Penalty>
0.495758

> <i_epik_Tot_Q>
1

> <i_epik_Tot_abs_Q>
1

> <r_epik_Metal_State_Penalty>
0.534372

> <b_epik_Metal_Only>
0

> <s_lp_Force_Field>
OPLS_2005

> <r_lp_Energy>
46.5408

> <b_lp_Chiralities_Consistent>
1

> <s_lp_Variant>
AV-unprocessed.smi:2923-4

> <Gold.Version>
5.8.1

> <Gold.Id.Protein>
6NUR|6NUR_protein|mol2

> <Gold.PLP.Fitness>
33.7272

> <Gold.PLP.PLP>
-28.9974

> <Gold.PLP.part.hbond>
-1.7999

> <Gold.PLP.part.metal>
0.0000

> <Gold.PLP.part.buried>
-2.5294

> <Gold.PLP.part.nonpolar>
-24.1321

> <Gold.PLP.part.repulsive>
0.2015

> <Gold.PLP.ligand.clash>
0.0000

> <Gold.PLP.ligand.torsion>
0.3015

> <Gold.PLP.Chemscore.Hbond>
1.7150

> <Gold.PLP.Chemscore.CHOScore>
0.0000

> <Gold.PLP.Chemscore.Metal>
0.0000

> <Gold.Chemscore.Hbonds>
donor molecule, donor type, donor heavy atom, donor atom, acceptor molecule, acceptor atom, score
      L1  H     8    31       P1 10957  1.00
      L1  H    11    32       P1 10957  0.68

> <Gold.PLP.Chemscore.Internal.Correction>
0.1877

> <Gold.Rescore>
     Score         DG    S(hbond)    S(metal)    S(lipo)     H(rot)  DE(clash)    DE(int)     intcor
     16.04     -17.73       1.91        0.00      72.02       1.00       0.01       1.69       ----

> <Gold.Chemscore.Fitness>
16.0354

> <Gold.Chemscore.DG>
-17.7339

> <Gold.Chemscore.ZeroCoef>
-5.4800

> <Gold.Chemscore.Hbond>
1.9126

> <Gold.Chemscore.Metal>
0.0000

> <Gold.Chemscore.Lipo>
72.0154

> <Gold.Chemscore.Internal_Hbond>
0.0000

> <Gold.Chemscore.DEClash>
0.0112

> <Gold.Chemscore.DEInternal>
1.6873

> <Gold.Chemscore.Rot>
1.0000

> <Gold.Chemscore.Internal.Correction>
   9.000000E+99

> <Gold.Chemscore.Hbonds>
donor molecule, donor type, donor heavy atom, donor atom, acceptor molecule, acceptor atom, score
      L1  H     8    31       P1 10957  0.94
      L1  H    11    32       P1 10957  0.64

> <Gold.Chemscore.Hbond.Weighted>
-6.3881

> <Gold.Chemscore.Metal.Weighted>
-0.0000

> <Gold.Chemscore.Lipo.Weighted>
-8.4258

> <Gold.Chemscore.Internal_Hbond.Weighted>
0.0000

> <Gold.Chemscore.DEClash.Weighted>
0.0112

> <Gold.Chemscore.DEInternal.Weighted>
1.6873

> <Gold.Chemscore.Rot.Weighted>
2.5600

> <Gold.Chemscore.Internal.Correction.Weighted>
   9.000000E+99

> <Gold.Protein.RotatedTorsions>
[ 6907 6896 6895 6894 ] final -133.89 input  -60.11 | X-H torsion
[ 7974 7965 7964 7962 ] final  112.90 input  175.53 | X-H torsion
[ 8008 7997 7996 7995 ] final    6.53 input   59.86 | X-H torsion
[ 10167 10162 10161 10158 ] final -117.74 input  -65.29 | X-H torsion
[ 10718 10713 10712 10709 ] final  174.42 input   66.30 | X-H torsion
[ 10763 10752 10751 10750 ] final  -93.55 input  -60.55 | X-H torsion
[ 11005 11000 10999 10996 ] final -128.30 input  -57.11 | X-H torsion

> <Gold.Protein.ActiveResidues>
 VAL166  LYS551  ARG553  GLY616  TRP617  ASP618  TYR619  PRO620  LYS621  CYS622 
 ASP623  PHE694  ASN695  SER759  ASP760  ASP761  ALA762  ILE779  LEU786  VAL792 
 PHE793  MET794  SER795  GLU796  ALA797  LYS798  CYS799  TRP800  GLU811  SER814 

> <Gold.Protein.RotatedAtoms>
  150.9793  133.6262  159.2724 H   0  0  0  0  0  0  0  0  0  0  0  0  # atno 6907 bound_to 6896
  151.3523  135.0886  159.9416 H   0  0  0  0  0  0  0  0  0  0  0  0  # atno 6908 bound_to 6896
  152.5210  133.9383  159.7668 H   0  0  0  0  0  0  0  0  0  0  0  0  # atno 6909 bound_to 6896
  145.2237  139.2850  143.4204 H   0  0  0  0  0  0  0  0  0  0  0  0  # atno 7974 bound_to 7965
  154.7421  140.2751  155.6364 H   0  0  0  0  0  0  0  0  0  0  0  0  # atno 8008 bound_to 7997
  156.2876  140.2695  156.2078 H   0  0  0  0  0  0  0  0  0  0  0  0  # atno 8009 bound_to 7997
  155.0244  140.0371  157.2440 H   0  0  0  0  0  0  0  0  0  0  0  0  # atno 8010 bound_to 7997
  140.0651  143.4931  152.2011 H   0  0  0  0  0  0  0  0  0  0  0  0  # atno 10167 bound_to 10162
  156.9498  131.0027  151.2951 H   0  0  0  0  0  0  0  0  0  0  0  0  # atno 10718 bound_to 10713
  154.6970  135.5190  153.8472 H   0  0  0  0  0  0  0  0  0  0  0  0  # atno 10763 bound_to 10752
  153.0674  135.6589  154.0332 H   0  0  0  0  0  0  0  0  0  0  0  0  # atno 10764 bound_to 10752
  154.0197  135.2994  155.3362 H   0  0  0  0  0  0  0  0  0  0  0  0  # atno 10765 bound_to 10752
  140.9528  134.1043  157.4046 H   0  0  0  0  0  0  0  0  0  0  0  0  # atno 11005 bound_to 11000
  146.3370  140.2551  142.8600 LP  0  0  0  0  0  0  0  0  0  0  0  0  # atno 17320 bound_to 7965
  144.9741  140.8397  143.5437 LP  0  0  0  0  0  0  0  0  0  0  0  0  # atno 17321 bound_to 7965
  139.5870  144.7535  151.3495 LP  0  0  0  0  0  0  0  0  0  0  0  0  # atno 17342 bound_to 10162
  140.7153  143.7282  150.7643 LP  0  0  0  0  0  0  0  0  0  0  0  0  # atno 17343 bound_to 10162
  157.5729  130.8323  149.8416 LP  0  0  0  0  0  0  0  0  0  0  0  0  # atno 17370 bound_to 10713
  156.0367  130.3749  150.1541 LP  0  0  0  0  0  0  0  0  0  0  0  0  # atno 17371 bound_to 10713
  139.8853  135.0071  156.6423 LP  0  0  0  0  0  0  0  0  0  0  0  0  # atno 17394 bound_to 11000
  140.7579  133.8842  155.8395 LP  0  0  0  0  0  0  0  0  0  0  0  0  # atno 17395 bound_to 11000

$$$$
