#       Name:                AV-unprocessed.smi:2546
#       Creating user name   scv26
#       Creation time:       Fri Mar 27 14:04:51 2020


#       File generated by GOLD software.
#

@<TRIPOS>MOLECULE
AV-unprocessed.smi:2546
    19    19     1
SMALL
NO_CHARGES


@<TRIPOS>ATOM
      1 ****        -1.6497   2.1006   0.1386 N.4            1 S1                 1.0000
      2 ****        -1.1631   0.7108   0.1302 C.3            1 S1                 0.0000
      3 ****         0.3678   0.6532   0.0342 C.3            1 S1                 0.0000
      4 ****         0.8875  -0.7473   0.0364 C.2            1 S1                 0.0000
      5 ****         1.2486  -1.3795  -1.0820 N.pl3          1 S1                 0.0000
      6 ****         1.6616  -2.6268  -0.7745 N.2            1 S1                 0.0000
      7 ****         1.5118  -2.6529   0.5484 C.2            1 S1                 0.0000
      8 ****         1.0272  -1.5077   1.1167 N.2            1 S1                 0.0000
      9 ****         1.2341  -1.0216  -2.0266 H              1 S1                 0.0000
     10 ****        -2.6577   2.1033   0.2038 H              1 S1                 0.0000
     11 ****        -1.3671   2.5643  -0.7130 H              1 S1                 0.0000
     12 ****        -1.5051   0.2172   1.0407 H              1 S1                 0.0000
     13 ****        -1.6163   0.1857  -0.7112 H              1 S1                 0.0000
     14 ****         0.7071   1.1551  -0.8732 H              1 S1                 0.0000
     15 ****         0.8169   1.1882   0.8721 H              1 S1                 0.0000
     16 ****         1.7582  -3.5311   1.1270 H              1 S1                 0.0000
     17 ****        -1.2612   2.5887   0.9331 H              1 S1                 0.0000
     18 ****         1.9946  -3.3466  -1.3836 LP             1 S1                 0.0000
     19 ****         0.8327  -1.3008   2.0755 LP             1 S1                 0.0000
@<TRIPOS>BOND
    1    1    2 1     
    2    1   10 1     
    3    1   11 1     
    4    1   17 1     
    5    2    3 1     
    6    2   12 1     
    7    2   13 1     
    8    3   14 1     
    9    3   15 1     
   10    3    4 1     
   11    4    8 2     
   12    4    5 1     
   13    5    9 1     
   14    5    6 1     
   15    6    7 2     
   16    7    8 1     
   17    7   16 1     
   18    6   18 1     
   19    8   19 1     
@<TRIPOS>SUBSTRUCTURE
      1 S1             1
@<TRIPOS>SET
LONE_PAIRS      STATIC     ATOMS    <user>   **** ""
2 18 19
DONOR_HYDROGENS      STATIC     ATOMS    <user>   **** ""
4 10 11 17 9
ATOM$BLUE        STATIC     ATOMS    COLORGROUP SYSTEM
2 18 19
ATOM$RED        STATIC     ATOMS    COLORGROUP SYSTEM
4 10 11 17 9
