#       Name:                AV-unprocessed.smi:1601
#       Creating user name   scv26
#       Creation time:       Fri Mar 27 07:08:30 2020


#       File generated by GOLD software.
#

@<TRIPOS>MOLECULE
AV-unprocessed.smi:1601
    47    48     1
SMALL
NO_CHARGES


@<TRIPOS>ATOM
      1 ****        -0.3932   2.1603   0.4858 C.3            1 S1                 0.0000
      2 ****        -1.0270   1.0567  -0.3971 C.3            1 S1                 0.0000
      3 ****        -0.4584  -0.3387  -0.0265 C.3            1 S1                 0.0000
      4 ****         0.9981  -0.4068  -0.1215 N.am           1 S1                 0.0000
      5 ****         1.8486  -0.4544   0.9170 C.2            1 S1                 0.0000
      6 ****         1.4785  -0.4348   2.0915 O.2            1 S1                 0.0000
      7 ****         3.3429  -0.5273   0.5655 C.3            1 S1                 0.0000
      8 ****         4.2482  -0.0021   1.6947 C.3            1 S1                 0.0000
      9 ****         3.7144  -1.8850   0.1895 N.pl3          1 S1                 0.0000
     10 ****         3.6123  -3.0495   0.9263 C.2            1 S1                 0.0000
     11 ****         4.1005  -4.0654   0.1560 C.2            1 S1                 0.0000
     12 ****         4.4889  -3.4180  -1.0496 C.2            1 S1                 0.0000
     13 ****         4.2581  -2.1154  -1.0261 N.2            1 S1                 0.0000
     14 ****        -2.5267   1.0370  -0.3350 N.4            1 S1                 1.0000
     15 ****        -3.1826   2.3664  -0.1857 C.3            1 S1                 0.0000
     16 ****        -4.7127   2.2275  -0.1033 C.3            1 S1                 0.0000
     17 ****        -5.1991   1.5486  -1.2510 O.3            1 S1                 0.0000
     18 ****        -4.6689   0.2348  -1.3388 C.3            1 S1                 0.0000
     19 ****        -3.1397   0.3076  -1.4794 C.3            1 S1                 0.0000
     20 ****         0.6945   2.1531   0.4270 H              1 S1                 0.0000
     21 ****        -0.6647   2.0361   1.5346 H              1 S1                 0.0000
     22 ****        -0.6886   3.1607   0.1700 H              1 S1                 0.0000
     23 ****        -0.7423   1.2812  -1.4263 H              1 S1                 0.0000
     24 ****        -0.8003  -0.6261   0.9692 H              1 S1                 0.0000
     25 ****        -0.8308  -1.1072  -0.7008 H              1 S1                 0.0000
     26 ****         1.3932  -0.4311  -1.0509 H              1 S1                 0.0000
     27 ****         3.4992   0.1188  -0.3008 H              1 S1                 0.0000
     28 ****         3.9876   1.0213   1.9665 H              1 S1                 0.0000
     29 ****         5.2933  -0.0008   1.3839 H              1 S1                 0.0000
     30 ****         4.1733  -0.6158   2.5932 H              1 S1                 0.0000
     31 ****         3.2049  -3.0570   1.9267 H              1 S1                 0.0000
     32 ****         4.1727  -5.1109   0.4156 H              1 S1                 0.0000
     33 ****         4.9300  -3.8524  -1.9346 H              1 S1                 0.0000
     34 ****        -2.8547   2.8622   0.7275 H              1 S1                 0.0000
     35 ****        -2.9090   3.0071  -1.0256 H              1 S1                 0.0000
     36 ****        -5.0073   1.6944   0.8022 H              1 S1                 0.0000
     37 ****        -5.1759   3.2132  -0.0547 H              1 S1                 0.0000
     38 ****        -4.9550  -0.3501  -0.4631 H              1 S1                 0.0000
     39 ****        -5.1018  -0.2610  -2.2077 H              1 S1                 0.0000
     40 ****        -2.8802   0.8102  -2.4127 H              1 S1                 0.0000
     41 ****        -2.7566  -0.7083  -1.5520 H              1 S1                 0.0000
     42 ****        -2.7648   0.5221   0.5009 H              1 S1                 0.0000
     43 ****         0.5037  -0.3812   2.3077 LP             1 S1                 0.0000
     44 ****         2.1529  -0.4725   2.8289 LP             1 S1                 0.0000
     45 ****         4.4447  -1.4490  -1.7480 LP             1 S1                 0.0000
     46 ****        -4.9356   2.0611  -2.0683 LP             1 S1                 0.0000
     47 ****        -6.1962   1.4942  -1.1987 LP             1 S1                 0.0000
@<TRIPOS>BOND
    1    1    2 1     
    2    1   20 1     
    3    1   21 1     
    4    1   22 1     
    5    2    3 1     
    6    2   14 1     
    7    2   23 1     
    8    3    4 1     
    9    3   24 1     
   10    3   25 1     
   11    4    5 am    
   12    4   26 1     
   13    5    6 2     
   14    5    7 1     
   15    7    8 1     
   16    7    9 1     
   17    7   27 1     
   18    8   28 1     
   19    8   29 1     
   20    8   30 1     
   21    9   13 1     
   22    9   10 1     
   23   10   11 2     
   24   10   31 1     
   25   11   12 1     
   26   11   32 1     
   27   12   13 2     
   28   12   33 1     
   29   14   19 1     
   30   14   15 1     
   31   14   42 1     
   32   15   16 1     
   33   15   34 1     
   34   15   35 1     
   35   16   17 1     
   36   16   36 1     
   37   16   37 1     
   38   17   18 1     
   39   18   19 1     
   40   18   38 1     
   41   18   39 1     
   42   19   40 1     
   43   19   41 1     
   44    6   43 1     
   45    6   44 1     
   46   13   45 1     
   47   17   46 1     
   48   17   47 1     
@<TRIPOS>SUBSTRUCTURE
      1 S1             1
@<TRIPOS>SET
LONE_PAIRS      STATIC     ATOMS    <user>   **** ""
5 43 44 45 46 47
DONOR_HYDROGENS      STATIC     ATOMS    <user>   **** ""
2 26 42
ATOM$BLUE        STATIC     ATOMS    COLORGROUP SYSTEM
5 43 44 45 46 47
ATOM$RED        STATIC     ATOMS    COLORGROUP SYSTEM
2 26 42
