AV-unprocessed.smi:2760|AV-procd|sdf|10631|dock8
  -GOLD-   2272015 83D 1   1.00000     0.00000
 Structure written by MMmdl.
 32 33  0  0  0  0  0  0  0  0  1 V2000
  154.3075  139.9527  159.1769 O   0  0  0  0  0  0  0  0  0  0  0  0
  153.1028  140.5394  158.9252 C   0  0  0  0  0  0  0  0  0  0  0  0
  152.8990  141.8936  159.2653 C   0  0  0  0  0  0  0  0  0  0  0  0
  151.6275  142.4356  158.9746 C   0  0  0  0  0  0  0  0  0  0  0  0
  151.2675  143.8568  159.2738 C   0  0  0  0  0  0  0  0  0  0  0  0
  152.0685  145.0052  158.7013 C   0  0  0  0  0  0  0  0  0  0  0  0
  152.1364  144.7011  160.1775 C   0  0  0  0  0  0  0  0  0  0  0  0
  150.6622  141.6940  158.3879 N   0  0  0  0  0  0  0  0  0  0  0  0
  150.9722  140.4255  158.1112 C   0  0  0  0  0  0  0  0  0  0  0  0
  149.7109  139.4458  157.3290 S   0  0  0  0  0  0  0  0  0  0  0  0
  149.5015  138.1137  158.5474 C   0  0  0  0  0  0  0  0  0  0  0  0
  148.0665  137.5726  158.5671 C   0  0  0  0  0  0  0  0  0  0  0  0
  147.6653  137.3705  159.9112 O   0  0  0  0  0  0  0  0  0  0  0  0
  147.6022  135.9961  160.2604 C   0  0  0  0  0  0  0  0  0  0  0  0
  146.7751  135.8256  161.5402 C   0  0  0  0  0  0  0  0  0  0  0  0
  147.2800  136.6052  162.4957 F   0  0  0  0  0  0  0  0  0  0  0  0
  145.5096  136.1819  161.3219 F   0  0  0  0  0  0  0  0  0  0  0  0
  146.8195  134.5593  161.9538 F   0  0  0  0  0  0  0  0  0  0  0  0
  152.1284  139.8037  158.3477 N   0  0  0  0  0  0  0  0  0  0  0  0
  154.7355  140.3029  159.9426 H   0  0  0  0  0  0  0  0  0  0  0  0
  153.6756  142.4872  159.7253 H   0  0  0  0  0  0  0  0  0  0  0  0
  150.1886  143.9804  159.3480 H   0  0  0  0  0  0  0  0  0  0  0  0
  152.9503  144.7738  158.1072 H   0  0  0  0  0  0  0  0  0  0  0  0
  151.5304  145.9048  158.4099 H   0  0  0  0  0  0  0  0  0  0  0  0
  151.6429  145.4024  160.8473 H   0  0  0  0  0  0  0  0  0  0  0  0
  153.0572  144.2608  160.5551 H   0  0  0  0  0  0  0  0  0  0  0  0
  150.1940  137.3113  158.2925 H   0  0  0  0  0  0  0  0  0  0  0  0
  149.7887  138.4737  159.5356 H   0  0  0  0  0  0  0  0  0  0  0  0
  147.3869  138.2752  158.0830 H   0  0  0  0  0  0  0  0  0  0  0  0
  148.0152  136.6315  158.0171 H   0  0  0  0  0  0  0  0  0  0  0  0
  147.1502  135.4251  159.4475 H   0  0  0  0  0  0  0  0  0  0  0  0
  148.6087  135.6033  160.4146 H   0  0  0  0  0  0  0  0  0  0  0  0
  1  2  1  0  0  0  0
  1 20  1  0  0  0  0
  2 19  1  0  0  0  0
  2  3  2  0  0  0  0
  3  4  1  0  0  0  0
  3 21  1  0  0  0  0
  4  5  1  0  0  0  0
  4  8  2  0  0  0  0
  5  7  1  0  0  0  0
  5  6  1  0  0  0  0
  5 22  1  0  0  0  0
  6  7  1  0  0  0  0
  6 23  1  0  0  0  0
  6 24  1  0  0  0  0
  7 25  1  0  0  0  0
  7 26  1  0  0  0  0
  8  9  1  0  0  0  0
  9 10  1  0  0  0  0
  9 19  2  0  0  0  0
 10 11  1  0  0  0  0
 11 12  1  0  0  0  0
 11 27  1  0  0  0  0
 11 28  1  0  0  0  0
 12 13  1  0  0  0  0
 12 29  1  0  0  0  0
 12 30  1  0  0  0  0
 13 14  1  0  0  0  0
 14 15  1  0  0  0  0
 14 31  1  0  0  0  0
 14 32  1  0  0  0  0
 15 16  1  0  0  0  0
 15 17  1  0  0  0  0
 15 18  1  0  0  0  0
M  END
> <s_m_source_file>
AV-unprocessed.smi

> <i_m_source_file_index>
2760

> <i_lp_mmshare_version>
43012

> <i_f3d_flags>
0

> <s_epik_input>
W09IXWMxW2NIXWMoW0NIXTJbQ0gyXVtDSDJdMiluYyhuMSlTW0NIMl1bQ0gyXU9bQ0gyXUMoRikoRilG

> <s_epik_cmdline>
J2VwaWtfcHl0aG9uJywgJy1waCcsICc3LjAnLCAnLXRuJywgJzgnLCAnLW1hJywgJzIwMCcsICctbWV0YWxfYmluZGluZycsICctaW1hZScsICc8aW5maWxlLm1hZT4nLCAnLW9tYWUnLCAnPG91dGZpbGUubWFlPic=

> <r_lp_tautomer_probability>
0.0660145

> <r_epik_Ionization_Penalty>
3.02064

> <r_epik_Ionization_Penalty_Charging>
0

> <r_epik_Ionization_Penalty_Neutral>
3.02064

> <r_epik_State_Penalty>
2.51658

> <r_epik_Charging_Adjusted_Penalty>
2.51658

> <i_epik_Tot_Q>
0

> <i_epik_Tot_abs_Q>
0

> <r_epik_Metal_State_Penalty>
3.1674

> <b_epik_Metal_Only>
0

> <s_lp_Force_Field>
OPLS_2005

> <r_lp_Energy>
-0.868617

> <b_lp_Chiralities_Consistent>
1

> <s_lp_Variant>
AV-unprocessed.smi:2760-4

> <Gold.Version>
5.8.1

> <Gold.Id.Protein>
6NUR|6NUR_protein|mol2

> <Gold.PLP.Fitness>
48.3821

> <Gold.PLP.PLP>
-43.1889

> <Gold.PLP.part.hbond>
-3.0000

> <Gold.PLP.part.metal>
0.0000

> <Gold.PLP.part.buried>
-4.2495

> <Gold.PLP.part.nonpolar>
-34.6393

> <Gold.PLP.part.repulsive>
0.0169

> <Gold.PLP.ligand.clash>
0.0000

> <Gold.PLP.ligand.torsion>
1.0863

> <Gold.PLP.Chemscore.Hbond>
2.3846

> <Gold.PLP.Chemscore.CHOScore>
0.0000

> <Gold.PLP.Chemscore.Metal>
0.0000

> <Gold.Chemscore.Hbonds>
donor molecule, donor type, donor heavy atom, donor atom, acceptor molecule, acceptor atom, score
      P1  H  6934  6947       L1    13  0.82
      P1  H  7997  8010       L1     1  0.98

> <Gold.PLP.Chemscore.Internal.Correction>
0.2118

> <Gold.Rescore>
     Score         DG    S(hbond)    S(metal)    S(lipo)     H(rot)  DE(clash)    DE(int)     intcor
      9.55     -10.70       1.12        0.00      81.58       3.16       0.19       0.96       ----

> <Gold.Chemscore.Fitness>
9.5493

> <Gold.Chemscore.DG>
-10.6997

> <Gold.Chemscore.ZeroCoef>
-5.4800

> <Gold.Chemscore.Hbond>
1.1237

> <Gold.Chemscore.Metal>
0.0000

> <Gold.Chemscore.Lipo>
81.5816

> <Gold.Chemscore.Internal_Hbond>
0.0000

> <Gold.Chemscore.DEClash>
0.1875

> <Gold.Chemscore.DEInternal>
0.9629

> <Gold.Chemscore.Rot>
3.1557

> <Gold.Chemscore.Internal.Correction>
   9.000000E+99

> <Gold.Chemscore.Hbonds>
donor molecule, donor type, donor heavy atom, donor atom, acceptor molecule, acceptor atom, score
      P1  H  6934  6947       L1    13  0.71
      P1  H  7997  8010       L1     1  0.26

> <Gold.Chemscore.Hbond.Weighted>
-3.7532

> <Gold.Chemscore.Metal.Weighted>
-0.0000

> <Gold.Chemscore.Lipo.Weighted>
-9.5451

> <Gold.Chemscore.Internal_Hbond.Weighted>
0.0000

> <Gold.Chemscore.DEClash.Weighted>
0.1875

> <Gold.Chemscore.DEInternal.Weighted>
0.9629

> <Gold.Chemscore.Rot.Weighted>
8.0785

> <Gold.Chemscore.Internal.Correction.Weighted>
   9.000000E+99

> <Gold.Protein.RotatedTorsions>
[ 6907 6896 6895 6894 ] final   94.83 input  -60.11 | X-H torsion
[ 7974 7965 7964 7962 ] final  -22.19 input  175.53 | X-H torsion
[ 8008 7997 7996 7995 ] final   -4.84 input   59.86 | X-H torsion
[ 10167 10162 10161 10158 ] final  149.80 input  -65.29 | X-H torsion
[ 10718 10713 10712 10709 ] final  -65.50 input   66.30 | X-H torsion
[ 10763 10752 10751 10750 ] final   45.91 input  -60.55 | X-H torsion
[ 11005 11000 10999 10996 ] final    9.08 input  -57.11 | X-H torsion

> <Gold.Protein.ActiveResidues>
 VAL166  LYS551  ARG553  GLY616  TRP617  ASP618  TYR619  PRO620  LYS621  CYS622 
 ASP623  PHE694  ASN695  SER759  ASP760  ASP761  ALA762  ILE779  LEU786  VAL792 
 PHE793  MET794  SER795  GLU796  ALA797  LYS798  CYS799  TRP800  GLU811  SER814 

> <Gold.Protein.RotatedAtoms>
  152.5447  134.1133  159.8367 H   0  0  0  0  0  0  0  0  0  0  0  0  # atno 6907 bound_to 6896
  151.1197  133.5106  159.2610 H   0  0  0  0  0  0  0  0  0  0  0  0  # atno 6908 bound_to 6896
  151.1792  135.0363  159.8840 H   0  0  0  0  0  0  0  0  0  0  0  0  # atno 6909 bound_to 6896
  146.1690  140.4445  142.8540 H   0  0  0  0  0  0  0  0  0  0  0  0  # atno 7974 bound_to 7965
  154.6101  140.2474  155.7680 H   0  0  0  0  0  0  0  0  0  0  0  0  # atno 8008 bound_to 7997
  156.2365  140.2948  156.0278 H   0  0  0  0  0  0  0  0  0  0  0  0  # atno 8009 bound_to 7997
  155.2066  140.0396  157.2917 H   0  0  0  0  0  0  0  0  0  0  0  0  # atno 8010 bound_to 7997
  139.4857  144.5573  151.7294 H   0  0  0  0  0  0  0  0  0  0  0  0  # atno 10167 bound_to 10162
  156.0666  130.4248  150.1573 H   0  0  0  0  0  0  0  0  0  0  0  0  # atno 10718 bound_to 10713
  152.9818  135.6025  154.3513 H   0  0  0  0  0  0  0  0  0  0  0  0  # atno 10763 bound_to 10752
  154.3202  135.2770  155.2525 H   0  0  0  0  0  0  0  0  0  0  0  0  # atno 10764 bound_to 10752
  154.4695  135.5945  153.6367 H   0  0  0  0  0  0  0  0  0  0  0  0  # atno 10765 bound_to 10752
  140.5298  134.0478  155.7870 H   0  0  0  0  0  0  0  0  0  0  0  0  # atno 11005 bound_to 11000
  144.8134  140.6426  143.6400 LP  0  0  0  0  0  0  0  0  0  0  0  0  # atno 17320 bound_to 7965
  145.4391  139.1538  143.3980 LP  0  0  0  0  0  0  0  0  0  0  0  0  # atno 17321 bound_to 7965
  140.5137  144.0986  150.6002 LP  0  0  0  0  0  0  0  0  0  0  0  0  # atno 17342 bound_to 10162
  140.3920  143.2747  152.0049 LP  0  0  0  0  0  0  0  0  0  0  0  0  # atno 17343 bound_to 10162
  156.9632  130.9811  151.3475 LP  0  0  0  0  0  0  0  0  0  0  0  0  # atno 17370 bound_to 10713
  157.5711  130.8311  149.8393 LP  0  0  0  0  0  0  0  0  0  0  0  0  # atno 17371 bound_to 10713
  141.1288  133.9338  157.2580 LP  0  0  0  0  0  0  0  0  0  0  0  0  # atno 17394 bound_to 11000
  139.9560  135.0165  156.9130 LP  0  0  0  0  0  0  0  0  0  0  0  0  # atno 17395 bound_to 11000

$$$$
