AV-unprocessed.smi:1261|AV-procd|sdf|5306|dock3
  -GOLD-   22720 4423D 1   1.00000     0.00000
 Structure written by MMmdl.
 50 51  0  0  0  0  0  0  0  0  2 V2000
  146.3906  128.8296  153.0452 C   0  0  0  0  0  0  0  0  0  0  0  0
  146.6857  130.0940  152.2257 C   0  0  1  0  0  0  0  0  0  0  0  0
  145.5053  130.4577  151.3096 C   0  0  0  0  0  0  0  0  0  0  0  0
  145.8106  131.7384  150.5149 C   0  0  1  0  0  0  0  0  0  0  0  0
  144.6352  132.1300  149.6082 C   0  0  0  0  0  0  0  0  0  0  0  0
  146.1892  132.8825  151.4751 C   0  0  0  0  0  0  0  0  0  0  0  0
  147.3370  132.5063  152.3404 N   0  3  1  0  0  0  0  0  0  0  0  0
  147.8123  133.6442  153.1682 C   0  0  0  0  0  0  0  0  0  0  0  0
  149.0119  133.2661  154.0532 C   0  0  0  0  0  0  0  0  0  0  0  0
  149.3004  134.3249  155.1300 C   0  0  0  0  0  0  0  0  0  0  0  0
  149.9021  135.5197  154.5518 N   0  0  0  0  0  0  0  0  0  0  0  0
  150.5682  136.4633  155.2395 C   0  0  0  0  0  0  0  0  0  0  0  0
  150.7200  136.4124  156.4597 O   0  0  0  0  0  0  0  0  0  0  0  0
  151.1729  137.6445  154.4596 C   0  0  0  0  0  0  0  0  0  0  0  0
  150.5952  138.9616  154.7746 N   0  0  0  0  0  0  0  0  0  0  0  0
  149.4573  139.2704  154.0444 N   0  0  0  0  0  0  0  0  0  0  0  0
  148.8553  140.3960  154.2332 C   0  0  0  0  0  0  0  0  0  0  0  0
  147.7330  140.6623  153.4880 O   0  0  0  0  0  0  0  0  0  0  0  0
  149.3450  141.3535  155.2007 C   0  0  0  0  0  0  0  0  0  0  0  0
  150.4550  141.0446  155.9063 C   0  0  0  0  0  0  0  0  0  0  0  0
  151.1645  139.7785  155.7139 C   0  0  0  0  0  0  0  0  0  0  0  0
  152.1860  139.4778  156.3308 O   0  0  0  0  0  0  0  0  0  0  0  0
  147.0417  131.2851  153.1363 C   0  0  0  0  0  0  0  0  0  0  0  0
  148.0021  140.5740  152.5867 H   0  0  0  0  0  0  0  0  0  0  0  0
  145.5331  128.9737  153.7034 H   0  0  0  0  0  0  0  0  0  0  0  0
  147.2438  128.5550  153.6662 H   0  0  0  0  0  0  0  0  0  0  0  0
  146.1719  127.9824  152.3945 H   0  0  0  0  0  0  0  0  0  0  0  0
  147.5507  129.8812  151.5953 H   0  0  0  0  0  0  0  0  0  0  0  0
  145.2993  129.6350  150.6237 H   0  0  0  0  0  0  0  0  0  0  0  0
  144.6026  130.5985  151.9064 H   0  0  0  0  0  0  0  0  0  0  0  0
  146.6690  131.5403  149.8707 H   0  0  0  0  0  0  0  0  0  0  0  0
  143.7378  132.3424  150.1902 H   0  0  0  0  0  0  0  0  0  0  0  0
  144.3958  131.3290  148.9082 H   0  0  0  0  0  0  0  0  0  0  0  0
  144.8699  133.0188  149.0219 H   0  0  0  0  0  0  0  0  0  0  0  0
  146.4485  133.7668  150.8910 H   0  0  0  0  0  0  0  0  0  0  0  0
  145.3367  133.1541  152.1003 H   0  0  0  0  0  0  0  0  0  0  0  0
  148.1253  134.4581  152.5128 H   0  0  0  0  0  0  0  0  0  0  0  0
  146.9909  134.0340  153.7717 H   0  0  0  0  0  0  0  0  0  0  0  0
  148.8343  132.3070  154.5386 H   0  0  0  0  0  0  0  0  0  0  0  0
  149.8971  133.1363  153.4290 H   0  0  0  0  0  0  0  0  0  0  0  0
  148.3730  134.6190  155.6222 H   0  0  0  0  0  0  0  0  0  0  0  0
  149.9493  133.9166  155.9068 H   0  0  0  0  0  0  0  0  0  0  0  0
  149.8169  135.6377  153.5524 H   0  0  0  0  0  0  0  0  0  0  0  0
  152.2469  137.6558  154.6539 H   0  0  0  0  0  0  0  0  0  0  0  0
  151.0778  137.4414  153.3914 H   0  0  0  0  0  0  0  0  0  0  0  0
  148.8290  142.2906  155.3499 H   0  0  0  0  0  0  0  0  0  0  0  0
  150.8309  141.7500  156.6327 H   0  0  0  0  0  0  0  0  0  0  0  0
  146.2225  131.4912  153.8274 H   0  0  0  0  0  0  0  0  0  0  0  0
  147.9042  131.0161  153.7450 H   0  0  0  0  0  0  0  0  0  0  0  0
  148.0944  132.2741  151.7138 H   0  0  0  0  0  0  0  0  0  0  0  0
  1  2  1  0  0  0  0
  1 25  1  0  0  0  0
  1 26  1  0  0  0  0
  1 27  1  0  0  0  0
  2 23  1  0  0  0  0
  2  3  1  0  0  0  0
  2 28  1  0  0  0  0
  3  4  1  0  0  0  0
  3 29  1  0  0  0  0
  3 30  1  0  0  0  0
  4  5  1  0  0  0  0
  4  6  1  0  0  0  0
  4 31  1  0  0  0  0
  5 32  1  0  0  0  0
  5 33  1  0  0  0  0
  5 34  1  0  0  0  0
  6  7  1  0  0  0  0
  6 35  1  0  0  0  0
  6 36  1  0  0  0  0
  7  8  1  0  0  0  0
  7 23  1  0  0  0  0
  7 50  1  0  0  0  0
  8  9  1  0  0  0  0
  8 37  1  0  0  0  0
  8 38  1  0  0  0  0
  9 10  1  0  0  0  0
  9 39  1  0  0  0  0
  9 40  1  0  0  0  0
 10 11  1  0  0  0  0
 10 41  1  0  0  0  0
 10 42  1  0  0  0  0
 11 12  1  0  0  0  0
 11 43  1  0  0  0  0
 12 13  2  0  0  0  0
 12 14  1  0  0  0  0
 14 44  1  0  0  0  0
 14 45  1  0  0  0  0
 14 15  1  0  0  0  0
 15 16  1  0  0  0  0
 15 21  1  0  0  0  0
 16 17  2  0  0  0  0
 17 18  1  0  0  0  0
 17 19  1  0  0  0  0
 18 24  1  0  0  0  0
 19 46  1  0  0  0  0
 19 20  2  0  0  0  0
 20 47  1  0  0  0  0
 20 21  1  0  0  0  0
 21 22  2  0  0  0  0
 23 48  1  0  0  0  0
 23 49  1  0  0  0  0
M  CHG  1   7   1
M  END
> <s_m_source_file>
AV-unprocessed.smi

> <i_m_source_file_index>
1261

> <i_lp_mmshare_version>
43012

> <i_f3d_flags>
0

> <s_epik_input>
W0NIM11bQ0BASF0xW0NIMl1bQ0BASF0oW0NIM10pW0NIMl1OKFtDSDJdMSlbQ0gyXVtDSDJdW0NIMl1bTkhdQyg9TylbQ0gyXW4yW25IXWMoPU8pW2NIXVtjSF1jMj1P

> <s_epik_cmdline>
J2VwaWtfcHl0aG9uJywgJy1waCcsICc3LjAnLCAnLXRuJywgJzgnLCAnLW1hJywgJzIwMCcsICctbWV0YWxfYmluZGluZycsICctaW1hZScsICc8aW5maWxlLm1hZT4nLCAnLW9tYWUnLCAnPG91dGZpbGUubWFlPic=

> <r_lp_tautomer_probability>
0.9996

> <r_epik_Ionization_Penalty>
2.1425

> <r_epik_Ionization_Penalty_Charging>
0.000312112

> <r_epik_Ionization_Penalty_Neutral>
2.14218

> <r_epik_State_Penalty>
1.71978

> <r_epik_Charging_Adjusted_Penalty>
1.72009

> <i_epik_Tot_Q>
1

> <i_epik_Tot_abs_Q>
1

> <r_epik_Metal_State_Penalty>
1.71978

> <b_epik_Metal_Only>
0

> <s_lp_Force_Field>
OPLS_2005

> <r_lp_Energy>
26.9224

> <b_lp_Chiralities_Consistent>
1

> <s_lp_Variant>
AV-unprocessed.smi:1261-6

> <Gold.Version>
5.8.1

> <Gold.Id.Protein>
6NUR|6NUR_protein|mol2

> <Gold.PLP.Fitness>
54.8696

> <Gold.PLP.PLP>
-47.1931

> <Gold.PLP.part.hbond>
-4.1047

> <Gold.PLP.part.metal>
0.0000

> <Gold.PLP.part.buried>
-4.1452

> <Gold.PLP.part.nonpolar>
-40.7229

> <Gold.PLP.part.repulsive>
0.9056

> <Gold.PLP.ligand.clash>
0.0000

> <Gold.PLP.ligand.torsion>
0.6013

> <Gold.PLP.Chemscore.Hbond>
2.9386

> <Gold.PLP.Chemscore.CHOScore>
0.0000

> <Gold.PLP.Chemscore.Metal>
0.0000

> <Gold.Chemscore.Hbonds>
donor molecule, donor type, donor heavy atom, donor atom, acceptor molecule, acceptor atom, score
      L1  H     7    50       P1 10747  0.58
      L1  H    11    43       P1  7948  0.60
      L1  H    18    24       P1  7957  0.57
      P1  H  7997  8008       L1    22  0.47

> <Gold.PLP.Chemscore.Internal.Correction>
0.0631

> <Gold.Rescore>
     Score         DG    S(hbond)    S(metal)    S(lipo)     H(rot)  DE(clash)    DE(int)     intcor
     16.91     -17.87       2.61        0.00      99.90       3.14       0.40       0.56       ----

> <Gold.Chemscore.Fitness>
16.9133

> <Gold.Chemscore.DG>
-17.8737

> <Gold.Chemscore.ZeroCoef>
-5.4800

> <Gold.Chemscore.Hbond>
2.6142

> <Gold.Chemscore.Metal>
0.0000

> <Gold.Chemscore.Lipo>
99.9014

> <Gold.Chemscore.Internal_Hbond>
0.0000

> <Gold.Chemscore.DEClash>
0.3977

> <Gold.Chemscore.DEInternal>
0.5628

> <Gold.Chemscore.Rot>
3.1352

> <Gold.Chemscore.Internal.Correction>
   9.000000E+99

> <Gold.Chemscore.Hbonds>
donor molecule, donor type, donor heavy atom, donor atom, acceptor molecule, acceptor atom, score
      L1  H     7    50       P1 10747  0.54
      L1  H    11    43       P1  7948  0.04
      L1  H    18    24       P1  7957  0.54
      P1  H  7997  8008       L1    22  0.48

> <Gold.Chemscore.Hbond.Weighted>
-8.7313

> <Gold.Chemscore.Metal.Weighted>
-0.0000

> <Gold.Chemscore.Lipo.Weighted>
-11.6885

> <Gold.Chemscore.Internal_Hbond.Weighted>
0.0000

> <Gold.Chemscore.DEClash.Weighted>
0.3977

> <Gold.Chemscore.DEInternal.Weighted>
0.5628

> <Gold.Chemscore.Rot.Weighted>
8.0260

> <Gold.Chemscore.Internal.Correction.Weighted>
   9.000000E+99

> <Gold.Protein.RotatedTorsions>
[ 6907 6896 6895 6894 ] final  -75.19 input  -60.11 | X-H torsion
[ 7974 7965 7964 7962 ] final  164.24 input  175.53 | X-H torsion
[ 8008 7997 7996 7995 ] final  -42.88 input   59.86 | X-H torsion
[ 10167 10162 10161 10158 ] final  123.87 input  -65.29 | X-H torsion
[ 10718 10713 10712 10709 ] final  107.57 input   66.30 | X-H torsion
[ 10763 10752 10751 10750 ] final -101.06 input  -60.55 | X-H torsion
[ 11005 11000 10999 10996 ] final  160.28 input  -57.11 | X-H torsion

> <Gold.Protein.ActiveResidues>
 VAL166  LYS551  ARG553  GLY616  TRP617  ASP618  TYR619  PRO620  LYS621  CYS622 
 ASP623  PHE694  ASN695  SER759  ASP760  ASP761  ALA762  ILE779  LEU786  VAL792 
 PHE793  MET794  SER795  GLU796  ALA797  LYS798  CYS799  TRP800  GLU811  SER814 

> <Gold.Protein.RotatedAtoms>
  150.7067  134.4757  159.5446 H   0  0  0  0  0  0  0  0  0  0  0  0  # atno 6907 bound_to 6896
  152.2404  134.8231  160.0470 H   0  0  0  0  0  0  0  0  0  0  0  0  # atno 6908 bound_to 6896
  151.9015  133.3504  159.3869 H   0  0  0  0  0  0  0  0  0  0  0  0  # atno 6909 bound_to 6896
  144.7554  139.8297  143.6352 H   0  0  0  0  0  0  0  0  0  0  0  0  # atno 7974 bound_to 7965
  154.3998  140.1462  156.3427 H   0  0  0  0  0  0  0  0  0  0  0  0  # atno 8008 bound_to 7997
  155.8342  140.3464  155.5570 H   0  0  0  0  0  0  0  0  0  0  0  0  # atno 8009 bound_to 7997
  155.8156  140.0890  157.1869 H   0  0  0  0  0  0  0  0  0  0  0  0  # atno 8010 bound_to 7997
  139.5774  144.6970  151.3616 H   0  0  0  0  0  0  0  0  0  0  0  0  # atno 10167 bound_to 10162
  157.6623  131.0875  150.6176 H   0  0  0  0  0  0  0  0  0  0  0  0  # atno 10718 bound_to 10713
  154.7628  135.4912  153.9497 H   0  0  0  0  0  0  0  0  0  0  0  0  # atno 10763 bound_to 10752
  153.1272  135.6745  153.9245 H   0  0  0  0  0  0  0  0  0  0  0  0  # atno 10764 bound_to 10752
  153.8959  135.3115  155.3427 H   0  0  0  0  0  0  0  0  0  0  0  0  # atno 10765 bound_to 10752
  140.2043  134.8314  157.3052 H   0  0  0  0  0  0  0  0  0  0  0  0  # atno 11005 bound_to 11000
  146.1557  139.4655  143.0020 LP  0  0  0  0  0  0  0  0  0  0  0  0  # atno 17320 bound_to 7965
  145.6798  141.0194  143.1612 LP  0  0  0  0  0  0  0  0  0  0  0  0  # atno 17321 bound_to 7965
  140.7056  143.7522  150.7476 LP  0  0  0  0  0  0  0  0  0  0  0  0  # atno 17342 bound_to 10162
  140.1046  143.4756  152.2405 LP  0  0  0  0  0  0  0  0  0  0  0  0  # atno 17343 bound_to 10162
  156.6478  130.4476  149.5730 LP  0  0  0  0  0  0  0  0  0  0  0  0  # atno 17370 bound_to 10713
  156.2160  130.6708  151.1319 LP  0  0  0  0  0  0  0  0  0  0  0  0  # atno 17371 bound_to 10713
  140.2019  134.4244  155.7658 LP  0  0  0  0  0  0  0  0  0  0  0  0  # atno 17394 bound_to 11000
  141.2227  133.7076  156.8198 LP  0  0  0  0  0  0  0  0  0  0  0  0  # atno 17395 bound_to 11000

$$$$
