#       Name:                AV-unprocessed.smi:1830
#       Creating user name   scv26
#       Creation time:       Fri Mar 27 09:14:22 2020


#       File generated by GOLD software.
#

@<TRIPOS>MOLECULE
AV-unprocessed.smi:1830
    59    62     1
SMALL
NO_CHARGES


@<TRIPOS>ATOM
      1 ****         0.9426   2.0969  -1.2234 O.2            1 S1                 0.0000
      2 ****         0.2964   1.0860  -1.4975 C.2            1 S1                 0.0000
      3 ****         0.8388  -0.1355  -1.5955 N.am           1 S1                 0.0000
      4 ****         2.2453  -0.4469  -1.3641 C.3            1 S1                 0.0000
      5 ****         2.5875  -0.4650   0.1359 C.3            1 S1                 0.0000
      6 ****         4.0899  -0.7290   0.3835 C.3            1 S1                 0.0000
      7 ****         4.3389  -0.8443   1.8073 N.3            1 S1                 0.0000
      8 ****         5.6870  -1.1661   2.2131 C.3            1 S1                 0.0000
      9 ****         5.5444  -1.6188   3.6770 C.3            1 S1                 0.0000
     10 ****         4.0539  -2.0002   3.8193 C.3            1 S1                 0.0000
     11 ****         3.5398  -1.8923   2.3828 C.3            1 S1                 0.0000
     12 ****         2.0441  -1.6104   2.1792 C.3            1 S1                 0.0000
     13 ****         1.8066  -1.4839   0.7746 O.3            1 S1                 0.0000
     14 ****        -1.0287   1.0476  -1.7151 N.am           1 S1                 0.0000
     15 ****        -1.9724   2.1095  -1.6113 C.ar           1 S1                 0.0000
     16 ****        -1.6086   3.4530  -1.8886 C.ar           1 S1                 0.0000
     17 ****        -2.5569   4.4831  -1.7464 C.ar           1 S1                 0.0000
     18 ****        -3.8593   4.1556  -1.3336 C.ar           1 S1                 0.0000
     19 ****        -4.1816   2.8669  -1.1003 N.pl3          1 S1                 1.0000
     20 ****        -3.3187   1.8286  -1.2342 C.ar           1 S1                 0.0000
     21 ****        -3.8090   0.5289  -0.9686 N.3            1 S1                 0.0000
     22 ****        -5.1406   0.3443  -0.4028 C.3            1 S1                 0.0000
     23 ****        -5.4501  -1.1381  -0.5909 C.3            1 S1                 0.0000
     24 ****        -4.7716  -1.4481  -1.9215 C.3            1 S1                 0.0000
     25 ****        -3.5335  -0.5454  -1.9178 C.3            1 S1                 0.0000
     26 ****         0.2350  -0.9126  -1.8203 H              1 S1                 0.0000
     27 ****         2.4593  -1.4197  -1.8076 H              1 S1                 0.0000
     28 ****         2.8716   0.2773  -1.8878 H              1 S1                 0.0000
     29 ****         2.3263   0.4976   0.5790 H              1 S1                 0.0000
     30 ****         4.3943  -1.6458  -0.1239 H              1 S1                 0.0000
     31 ****         4.6891   0.0805  -0.0343 H              1 S1                 0.0000
     32 ****         6.0770  -1.9861   1.6078 H              1 S1                 0.0000
     33 ****         6.3566  -0.3130   2.0997 H              1 S1                 0.0000
     34 ****         6.2046  -2.4591   3.8932 H              1 S1                 0.0000
     35 ****         5.7962  -0.8093   4.3631 H              1 S1                 0.0000
     36 ****         3.9117  -2.9984   4.2340 H              1 S1                 0.0000
     37 ****         3.5436  -1.2863   4.4672 H              1 S1                 0.0000
     38 ****         3.7747  -2.8316   1.8773 H              1 S1                 0.0000
     39 ****         1.4396  -2.4256   2.5767 H              1 S1                 0.0000
     40 ****         1.7408  -0.6965   2.6925 H              1 S1                 0.0000
     41 ****        -1.4236   0.1288  -1.8507 H              1 S1                 0.0000
     42 ****        -0.6134   3.7139  -2.2147 H              1 S1                 0.0000
     43 ****        -2.2864   5.5092  -1.9487 H              1 S1                 0.0000
     44 ****        -4.6507   4.8776  -1.1926 H              1 S1                 0.0000
     45 ****        -5.1724   0.6346   0.6477 H              1 S1                 0.0000
     46 ****        -5.8725   0.9416  -0.9481 H              1 S1                 0.0000
     47 ****        -4.9888  -1.7213   0.2074 H              1 S1                 0.0000
     48 ****        -6.5191  -1.3524  -0.5947 H              1 S1                 0.0000
     49 ****        -4.5258  -2.5038  -2.0387 H              1 S1                 0.0000
     50 ****        -5.4307  -1.1637  -2.7428 H              1 S1                 0.0000
     51 ****        -3.3166  -0.1671  -2.9179 H              1 S1                 0.0000
     52 ****        -2.6659  -1.1068  -1.5695 H              1 S1                 0.0000
     53 ****        -5.1381   2.6600  -0.8123 H              1 S1                 0.0000
     54 ****         1.9270   2.0321  -1.0602 LP             1 S1                 0.0000
     55 ****         0.4832   2.9832  -1.1639 LP             1 S1                 0.0000
     56 ****         4.1209   0.0783   2.1254 LP             1 S1                 0.0000
     57 ****         2.0184  -2.3595   0.3406 LP             1 S1                 0.0000
     58 ****         0.8394  -1.2695   0.6381 LP             1 S1                 0.0000
     59 ****        -3.1693   0.4332  -0.2060 LP             1 S1                 0.0000
@<TRIPOS>BOND
    1    1    2 2     
    2    2    3 am    
    3    2   14 am    
    4    3    4 1     
    5    3   26 1     
    6    4    5 1     
    7    4   27 1     
    8    4   28 1     
    9    5   13 1     
   10    5    6 1     
   11    5   29 1     
   12    6    7 1     
   13    6   30 1     
   14    6   31 1     
   15    7   11 1     
   16    7    8 1     
   17    8    9 1     
   18    8   32 1     
   19    8   33 1     
   20    9   10 1     
   21    9   34 1     
   22    9   35 1     
   23   10   11 1     
   24   10   36 1     
   25   10   37 1     
   26   11   12 1     
   27   11   38 1     
   28   12   13 1     
   29   12   39 1     
   30   12   40 1     
   31   14   15 1     
   32   14   41 1     
   33   15   20 ar    
   34   15   16 ar    
   35   16   17 ar    
   36   16   42 1     
   37   17   18 ar    
   38   17   43 1     
   39   18   19 ar    
   40   18   44 1     
   41   19   20 ar    
   42   19   53 1     
   43   20   21 1     
   44   21   25 1     
   45   21   22 1     
   46   22   23 1     
   47   22   45 1     
   48   22   46 1     
   49   23   24 1     
   50   23   47 1     
   51   23   48 1     
   52   24   25 1     
   53   24   49 1     
   54   24   50 1     
   55   25   51 1     
   56   25   52 1     
   57    1   54 1     
   58    1   55 1     
   59    7   56 1     
   60   13   57 1     
   61   13   58 1     
   62   21   59 1     
@<TRIPOS>SUBSTRUCTURE
      1 S1             1
@<TRIPOS>SET
LONE_PAIRS      STATIC     ATOMS    <user>   **** ""
6 54 55 56 57 58 59
DONOR_HYDROGENS      STATIC     ATOMS    <user>   **** ""
3 26 41 53
ATOM$BLUE        STATIC     ATOMS    COLORGROUP SYSTEM
6 54 55 56 57 58 59
ATOM$RED        STATIC     ATOMS    COLORGROUP SYSTEM
3 26 41 53
