AV-unprocessed.smi:507|AV-procd|sdf|2752|dock4
  -GOLD-   2262023223D 1   1.00000     0.00000
 Structure written by MMmdl.
 34 35  0  0  0  0  0  0  0  0  2 V2000
  153.3564  142.2926  161.8008 C   0  0  0  0  0  0  0  0  0  0  0  0
  152.7218  142.0969  160.4351 C   0  0  0  0  0  0  0  0  0  0  0  0
  152.8242  140.8365  159.8041 C   0  0  0  0  0  0  0  0  0  0  0  0
  152.2477  140.6135  158.5347 C   0  0  0  0  0  0  0  0  0  0  0  0
  152.2272  139.4780  157.7428 N   0  0  0  0  0  0  0  0  0  0  0  0
  151.5367  139.8994  156.6872 C   0  0  0  0  0  0  0  0  0  0  0  0
  151.1032  141.1749  156.7033 N   0  0  0  0  0  0  0  0  0  0  0  0
  150.3290  141.8548  155.6805 C   0  0  0  0  0  0  0  0  0  0  0  0
  149.2424  140.9480  155.0707 C   0  0  2  0  0  0  0  0  0  0  0  0
  149.8492  140.0038  154.2088 O   0  0  0  0  0  0  0  0  0  0  0  0
  148.1988  141.7484  154.2744 C   0  0  0  0  0  0  0  0  0  0  0  0
  147.4611  142.6844  155.1411 N   0  3  0  0  0  0  0  0  0  0  0  0
  151.5577  141.6935  157.9107 C   0  0  0  0  0  0  0  0  0  0  0  0
  151.4507  142.9527  158.5272 C   0  0  0  0  0  0  0  0  0  0  0  0
  152.0346  143.1592  159.7944 C   0  0  0  0  0  0  0  0  0  0  0  0
  151.9162  144.5227  160.4522 C   0  0  0  0  0  0  0  0  0  0  0  0
  153.8463  141.3820  162.1465 H   0  0  0  0  0  0  0  0  0  0  0  0
  152.6007  142.5656  162.5375 H   0  0  0  0  0  0  0  0  0  0  0  0
  154.1069  143.0824  161.7638 H   0  0  0  0  0  0  0  0  0  0  0  0
  153.3483  140.0275  160.2913 H   0  0  0  0  0  0  0  0  0  0  0  0
  151.3291  139.2408  155.8564 H   0  0  0  0  0  0  0  0  0  0  0  0
  149.8741  142.7368  156.1331 H   0  0  0  0  0  0  0  0  0  0  0  0
  151.0084  142.2164  154.9071 H   0  0  0  0  0  0  0  0  0  0  0  0
  148.7419  140.4050  155.8741 H   0  0  0  0  0  0  0  0  0  0  0  0
  149.3280  139.9293  153.4236 H   0  0  0  0  0  0  0  0  0  0  0  0
  148.6902  142.3335  153.4963 H   0  0  0  0  0  0  0  0  0  0  0  0
  147.4943  141.0818  153.7751 H   0  0  0  0  0  0  0  0  0  0  0  0
  146.9674  142.1696  155.8560 H   0  0  0  0  0  0  0  0  0  0  0  0
  146.8008  143.2090  154.5855 H   0  0  0  0  0  0  0  0  0  0  0  0
  150.9246  143.7531  158.0285 H   0  0  0  0  0  0  0  0  0  0  0  0
  151.3576  145.2195  159.8267 H   0  0  0  0  0  0  0  0  0  0  0  0
  152.9040  144.9492  160.6277 H   0  0  0  0  0  0  0  0  0  0  0  0
  151.3981  144.4423  161.4081 H   0  0  0  0  0  0  0  0  0  0  0  0
  148.1139  143.3222  155.5742 H   0  0  0  0  0  0  0  0  0  0  0  0
  1  2  1  0  0  0  0
  1 17  1  0  0  0  0
  1 18  1  0  0  0  0
  1 19  1  0  0  0  0
  2 15  1  0  0  0  0
  2  3  2  0  0  0  0
  3  4  1  0  0  0  0
  3 20  1  0  0  0  0
  4 13  2  0  0  0  0
  4  5  1  0  0  0  0
  5  6  2  0  0  0  0
  6  7  1  0  0  0  0
  6 21  1  0  0  0  0
  7  8  1  0  0  0  0
  7 13  1  0  0  0  0
  8  9  1  0  0  0  0
  8 22  1  0  0  0  0
  8 23  1  0  0  0  0
  9 10  1  0  0  0  0
  9 11  1  0  0  0  0
  9 24  1  0  0  0  0
 10 25  1  0  0  0  0
 11 12  1  0  0  0  0
 11 26  1  0  0  0  0
 11 27  1  0  0  0  0
 12 28  1  0  0  0  0
 12 29  1  0  0  0  0
 12 34  1  0  0  0  0
 13 14  1  0  0  0  0
 14 15  2  0  0  0  0
 14 30  1  0  0  0  0
 15 16  1  0  0  0  0
 16 31  1  0  0  0  0
 16 32  1  0  0  0  0
 16 33  1  0  0  0  0
M  CHG  1  12   1
M  END
> <s_m_source_file>
AV-unprocessed.smi

> <i_m_source_file_index>
507

> <i_lp_mmshare_version>
43012

> <i_f3d_flags>
0

> <s_epik_input>
W0NIM11jKFtjSF0xKWMoW0NIM10pW2NIXWMoYzEyKW4oW2NIXW4yKVtDSDJdW0NASF0oW09IXSlbQ0gyXVtOSDJd

> <s_epik_cmdline>
J2VwaWtfcHl0aG9uJywgJy1waCcsICc3LjAnLCAnLXRuJywgJzgnLCAnLW1hJywgJzIwMCcsICctbWV0YWxfYmluZGluZycsICctaW1hZScsICc8aW5maWxlLm1hZT4nLCAnLW9tYWUnLCAnPG91dGZpbGUubWFlPic=

> <r_epik_Ionization_Penalty>
0.102893

> <r_epik_Ionization_Penalty_Charging>
0.0134096

> <r_epik_Ionization_Penalty_Neutral>
0.0894835

> <r_epik_State_Penalty>
0.093868

> <r_epik_Charging_Adjusted_Penalty>
0.107278

> <i_epik_Tot_Q>
1

> <i_epik_Tot_abs_Q>
1

> <r_epik_Metal_State_Penalty>
0.010477

> <b_epik_Metal_Only>
0

> <s_lp_Force_Field>
OPLS_2005

> <r_lp_Energy>
7.44215

> <b_lp_Chiralities_Consistent>
1

> <s_lp_Variant>
AV-unprocessed.smi:507-1

> <Gold.Version>
5.8.1

> <Gold.Id.Protein>
6NUR|6NUR_protein|mol2

> <Gold.PLP.Fitness>
53.6114

> <Gold.PLP.PLP>
-39.6431

> <Gold.PLP.part.hbond>
-4.0000

> <Gold.PLP.part.metal>
0.0000

> <Gold.PLP.part.buried>
-3.9540

> <Gold.PLP.part.nonpolar>
-30.6276

> <Gold.PLP.part.repulsive>
0.0994

> <Gold.PLP.ligand.clash>
0.0000

> <Gold.PLP.ligand.torsion>
0.3963

> <Gold.PLP.Chemscore.Hbond>
4.9200

> <Gold.PLP.Chemscore.CHOScore>
0.0000

> <Gold.PLP.Chemscore.Metal>
0.0000

> <Gold.Chemscore.Hbonds>
donor molecule, donor type, donor heavy atom, donor atom, acceptor molecule, acceptor atom, score
      L1  H    10    25       P1  7957  0.29
      L1  H    12    34       P1  8028  2.00
      P1  H  7989  7998       L1    10  0.80

> <Gold.PLP.Chemscore.Internal.Correction>
0.0010

> <Gold.Rescore>
     Score         DG    S(hbond)    S(metal)    S(lipo)     H(rot)  DE(clash)    DE(int)     intcor
     16.19     -18.23       1.98        0.00     102.18       2.27       1.14       0.90       ----

> <Gold.Chemscore.Fitness>
16.1882

> <Gold.Chemscore.DG>
-18.2255

> <Gold.Chemscore.ZeroCoef>
-5.4800

> <Gold.Chemscore.Hbond>
1.9778

> <Gold.Chemscore.Metal>
0.0000

> <Gold.Chemscore.Lipo>
102.1837

> <Gold.Chemscore.Internal_Hbond>
0.0000

> <Gold.Chemscore.DEClash>
1.1411

> <Gold.Chemscore.DEInternal>
0.8962

> <Gold.Chemscore.Rot>
2.2718

> <Gold.Chemscore.Internal.Correction>
   9.000000E+99

> <Gold.Chemscore.Hbonds>
donor molecule, donor type, donor heavy atom, donor atom, acceptor molecule, acceptor atom, score
      L1  H    10    25       P1  7957  0.29
      L1  H    12    34       P1  8028  0.69
      P1  H  7989  7998       L1    10  0.16

> <Gold.Chemscore.Hbond.Weighted>
-6.6060

> <Gold.Chemscore.Metal.Weighted>
-0.0000

> <Gold.Chemscore.Lipo.Weighted>
-11.9555

> <Gold.Chemscore.Internal_Hbond.Weighted>
0.0000

> <Gold.Chemscore.DEClash.Weighted>
1.1411

> <Gold.Chemscore.DEInternal.Weighted>
0.8962

> <Gold.Chemscore.Rot.Weighted>
5.8159

> <Gold.Chemscore.Internal.Correction.Weighted>
   9.000000E+99

> <Gold.Protein.RotatedTorsions>
[ 6907 6896 6895 6894 ] final -176.71 input  -60.11 | X-H torsion
[ 7974 7965 7964 7962 ] final  174.17 input  175.53 | X-H torsion
[ 8008 7997 7996 7995 ] final   52.41 input   59.86 | X-H torsion
[ 10167 10162 10161 10158 ] final   15.34 input  -65.29 | X-H torsion
[ 10718 10713 10712 10709 ] final   82.77 input   66.30 | X-H torsion
[ 10763 10752 10751 10750 ] final   -4.61 input  -60.55 | X-H torsion
[ 11005 11000 10999 10996 ] final   98.99 input  -57.11 | X-H torsion

> <Gold.Protein.ActiveResidues>
 VAL166  LYS551  ARG553  GLY616  TRP617  ASP618  TYR619  PRO620  LYS621  CYS622 
 ASP623  PHE694  ASN695  SER759  ASP760  ASP761  ALA762  ILE779  LEU786  VAL792 
 PHE793  MET794  SER795  GLU796  ALA797  LYS798  CYS799  TRP800  GLU811  SER814 

> <Gold.Protein.RotatedAtoms>
  151.6093  133.3349  159.3063 H   0  0  0  0  0  0  0  0  0  0  0  0  # atno 6907 bound_to 6896
  150.8165  134.7354  159.6746 H   0  0  0  0  0  0  0  0  0  0  0  0  # atno 6908 bound_to 6896
  152.4261  134.5871  160.0015 H   0  0  0  0  0  0  0  0  0  0  0  0  # atno 6909 bound_to 6896
  144.7227  139.9758  143.6438 H   0  0  0  0  0  0  0  0  0  0  0  0  # atno 7974 bound_to 7965
  155.4513  140.3458  155.4301 H   0  0  0  0  0  0  0  0  0  0  0  0  # atno 8008 bound_to 7997
  156.1218  140.1489  156.9223 H   0  0  0  0  0  0  0  0  0  0  0  0  # atno 8009 bound_to 7997
  154.4829  140.0864  156.7398 H   0  0  0  0  0  0  0  0  0  0  0  0  # atno 8010 bound_to 7997
  140.5873  143.8864  150.6842 H   0  0  0  0  0  0  0  0  0  0  0  0  # atno 10167 bound_to 10162
  157.6864  131.0062  150.2424 H   0  0  0  0  0  0  0  0  0  0  0  0  # atno 10718 bound_to 10713
  153.3872  135.7000  153.6522 H   0  0  0  0  0  0  0  0  0  0  0  0  # atno 10763 bound_to 10752
  153.5109  135.3632  155.2586 H   0  0  0  0  0  0  0  0  0  0  0  0  # atno 10764 bound_to 10752
  154.8699  135.4134  154.3181 H   0  0  0  0  0  0  0  0  0  0  0  0  # atno 10765 bound_to 10752
  139.8771  134.9075  156.4538 H   0  0  0  0  0  0  0  0  0  0  0  0  # atno 11005 bound_to 11000
  146.0527  139.3526  143.0629 LP  0  0  0  0  0  0  0  0  0  0  0  0  # atno 17320 bound_to 7965
  145.8194  140.9686  143.0907 LP  0  0  0  0  0  0  0  0  0  0  0  0  # atno 17321 bound_to 7965
  140.2378  143.3687  152.1512 LP  0  0  0  0  0  0  0  0  0  0  0  0  # atno 17342 bound_to 10162
  139.5206  144.7035  151.5425 LP  0  0  0  0  0  0  0  0  0  0  0  0  # atno 17343 bound_to 10162
  156.3036  130.3762  149.7727 LP  0  0  0  0  0  0  0  0  0  0  0  0  # atno 17370 bound_to 10713
  156.5350  130.8274  151.3250 LP  0  0  0  0  0  0  0  0  0  0  0  0  # atno 17371 bound_to 10713
  140.8913  133.7846  155.9575 LP  0  0  0  0  0  0  0  0  0  0  0  0  # atno 17394 bound_to 11000
  140.8751  134.2680  157.5172 LP  0  0  0  0  0  0  0  0  0  0  0  0  # atno 17395 bound_to 11000

$$$$
