AV-unprocessed.smi:798|AV-procd|sdf|3782|dock5
  -GOLD-   22720 1213D 1   1.00000     0.00000
 Structure written by MMmdl.
 33 35  0  0  0  0  0  0  0  0  2 V2000
  147.9569  137.7739  158.7798 O   0  0  0  0  0  0  0  0  0  0  0  0
  148.9026  136.9836  158.8184 C   0  0  0  0  0  0  0  0  0  0  0  0
  149.0714  135.9776  159.7065 N   0  5  0  0  0  0  0  0  0  0  0  0
  148.1835  135.7983  160.6984 C   0  0  0  0  0  0  0  0  0  0  0  0
  147.6577  136.8249  161.3856 N   0  0  0  0  0  0  0  0  0  0  0  0
  146.7707  136.4225  162.3750 N   0  0  0  0  0  0  0  0  0  0  0  0
  146.6552  135.0953  162.4136 C   0  0  0  0  0  0  0  0  0  0  0  0
  147.6203  134.2167  161.2466 S   0  0  0  0  0  0  0  0  0  0  0  0
  149.8898  137.0760  157.9165 N   0  0  0  0  0  0  0  0  0  0  0  0
  149.9729  138.0500  156.8298 C   0  0  1  0  0  0  0  0  0  0  0  0
  150.1610  139.4740  157.3977 C   0  0  2  0  0  0  0  0  0  0  0  0
  149.8533  140.4965  156.2887 C   0  0  0  0  0  0  0  0  0  0  0  0
  151.0753  140.3600  155.3614 C   0  0  0  0  0  0  0  0  0  0  0  0
  151.9116  139.2601  156.0506 C   0  0  1  0  0  0  0  0  0  0  0  0
  151.6773  139.5957  157.5178 C   0  0  0  0  0  0  0  0  0  0  0  0
  151.2392  137.8674  155.9531 C   0  0  2  0  0  0  0  0  0  0  0  0
  150.9495  137.3514  154.5300 C   0  0  0  0  0  0  0  0  0  0  0  0
  152.1492  137.2166  153.7976 O   0  0  0  0  0  0  0  0  0  0  0  0
  146.0008  134.6308  163.1357 H   0  0  0  0  0  0  0  0  0  0  0  0
  150.6436  136.4085  157.9872 H   0  0  0  0  0  0  0  0  0  0  0  0
  149.0566  138.0022  156.2382 H   0  0  0  0  0  0  0  0  0  0  0  0
  149.6072  139.6614  158.3186 H   0  0  0  0  0  0  0  0  0  0  0  0
  148.9139  140.2870  155.7757 H   0  0  0  0  0  0  0  0  0  0  0  0
  149.7929  141.5065  156.6961 H   0  0  0  0  0  0  0  0  0  0  0  0
  150.8039  140.1204  154.3343 H   0  0  0  0  0  0  0  0  0  0  0  0
  151.6324  141.2973  155.3349 H   0  0  0  0  0  0  0  0  0  0  0  0
  152.9599  139.2579  155.7503 H   0  0  0  0  0  0  0  0  0  0  0  0
  152.0111  140.5974  157.7940 H   0  0  0  0  0  0  0  0  0  0  0  0
  152.1181  138.8718  158.2055 H   0  0  0  0  0  0  0  0  0  0  0  0
  151.9066  137.1479  156.4324 H   0  0  0  0  0  0  0  0  0  0  0  0
  150.4698  136.3740  154.5806 H   0  0  0  0  0  0  0  0  0  0  0  0
  150.2639  138.0043  153.9909 H   0  0  0  0  0  0  0  0  0  0  0  0
  151.9343  137.1611  152.8791 H   0  0  0  0  0  0  0  0  0  0  0  0
  1  2  2  0  0  0  0
  2  3  1  0  0  0  0
  2  9  1  0  0  0  0
  3  4  1  0  0  0  0
  4  8  1  0  0  0  0
  4  5  2  0  0  0  0
  5  6  1  0  0  0  0
  6  7  2  0  0  0  0
  7  8  1  0  0  0  0
  7 19  1  0  0  0  0
  9 10  1  0  0  0  0
  9 20  1  0  0  0  0
 10 16  1  0  0  0  0
 10 11  1  0  0  0  0
 10 21  1  0  0  0  0
 11 15  1  0  0  0  0
 11 12  1  0  0  0  0
 11 22  1  0  0  0  0
 12 13  1  0  0  0  0
 12 23  1  0  0  0  0
 12 24  1  0  0  0  0
 13 14  1  0  0  0  0
 13 25  1  0  0  0  0
 13 26  1  0  0  0  0
 14 15  1  0  0  0  0
 14 16  1  0  0  0  0
 14 27  1  0  0  0  0
 15 28  1  0  0  0  0
 15 29  1  0  0  0  0
 16 17  1  0  0  0  0
 16 30  1  0  0  0  0
 17 18  1  0  0  0  0
 17 31  1  0  0  0  0
 17 32  1  0  0  0  0
 18 33  1  0  0  0  0
M  CHG  1   3  -1
M  END
> <s_m_source_file>
AV-unprocessed.smi

> <i_m_source_file_index>
798

> <i_lp_mmshare_version>
43012

> <i_f3d_flags>
0

> <s_epik_input>
W0NIMl0xW0NIMl1bQ0BASF0oW0NIMl0yKVtDQEBIXShbQ0gyXVtPSF0pW0NAQEhdKFtDQEhdMTIpW05IXUMoPU8pW05IXWMzbm5bY0hdczM=

> <s_epik_cmdline>
J2VwaWtfcHl0aG9uJywgJy1waCcsICc3LjAnLCAnLXRuJywgJzgnLCAnLW1hJywgJzIwMCcsICctbWV0YWxfYmluZGluZycsICctaW1hZScsICc8aW5maWxlLm1hZT4nLCAnLW9tYWUnLCAnPG91dGZpbGUubWFlPic=

> <r_lp_tautomer_probability>
1

> <r_epik_Ionization_Penalty>
4.53732

> <r_epik_Ionization_Penalty_Charging>
4.48632

> <r_epik_Ionization_Penalty_Neutral>
0.0510007

> <r_epik_State_Penalty>
4.48602

> <r_epik_Charging_Adjusted_Penalty>
8.97234

> <i_epik_Tot_Q>
-1

> <i_epik_Tot_abs_Q>
1

> <r_epik_Metal_State_Penalty>
0.812492

> <b_epik_Metal_Only>
1

> <s_lp_Force_Field>
OPLS_2005

> <r_lp_Energy>
47.3152

> <b_lp_Chiralities_Consistent>
1

> <s_lp_Variant>
AV-unprocessed.smi:798-14

> <Gold.Version>
5.8.1

> <Gold.Id.Protein>
6NUR|6NUR_protein|mol2

> <Gold.PLP.Fitness>
43.0821

> <Gold.PLP.PLP>
-27.6784

> <Gold.PLP.part.hbond>
-5.6982

> <Gold.PLP.part.metal>
0.0000

> <Gold.PLP.part.buried>
-3.6932

> <Gold.PLP.part.nonpolar>
-19.7076

> <Gold.PLP.part.repulsive>
0.0863

> <Gold.PLP.ligand.clash>
0.0000

> <Gold.PLP.ligand.torsion>
0.3436

> <Gold.PLP.Chemscore.Hbond>
5.3550

> <Gold.PLP.Chemscore.CHOScore>
0.0000

> <Gold.PLP.Chemscore.Metal>
0.0000

> <Gold.Chemscore.Hbonds>
donor molecule, donor type, donor heavy atom, donor atom, acceptor molecule, acceptor atom, score
      L1  H    18    33       P1  7949  0.88
      P1  H  6896  6909       L1     3  1.79
      P1  H  6931  6943       L1     5  0.96
      P1  H  6934  6947       L1     5  0.31
      P1  H 10752 10764       L1    18  0.96

> <Gold.PLP.Chemscore.Internal.Correction>
0.0258

> <Gold.Rescore>
     Score         DG    S(hbond)    S(metal)    S(lipo)     H(rot)  DE(clash)    DE(int)     intcor
     17.86     -19.98       3.77        0.00      58.47       1.92       0.35       1.77       ----

> <Gold.Chemscore.Fitness>
17.8634

> <Gold.Chemscore.DG>
-19.9823

> <Gold.Chemscore.ZeroCoef>
-5.4800

> <Gold.Chemscore.Hbond>
3.7658

> <Gold.Chemscore.Metal>
0.0000

> <Gold.Chemscore.Lipo>
58.4734

> <Gold.Chemscore.Internal_Hbond>
0.0000

> <Gold.Chemscore.DEClash>
0.3508

> <Gold.Chemscore.DEInternal>
1.7682

> <Gold.Chemscore.Rot>
1.9207

> <Gold.Chemscore.Internal.Correction>
   9.000000E+99

> <Gold.Chemscore.Hbonds>
donor molecule, donor type, donor heavy atom, donor atom, acceptor molecule, acceptor atom, score
      L1  H    18    33       P1  7949  0.85
      P1  H  6896  6909       L1     3  0.82
      P1  H  6931  6943       L1     5  0.75
      P1  H  6934  6947       L1     5  0.18
      P1  H 10752 10764       L1    18  0.35

> <Gold.Chemscore.Hbond.Weighted>
-12.5778

> <Gold.Chemscore.Metal.Weighted>
-0.0000

> <Gold.Chemscore.Lipo.Weighted>
-6.8414

> <Gold.Chemscore.Internal_Hbond.Weighted>
0.0000

> <Gold.Chemscore.DEClash.Weighted>
0.3508

> <Gold.Chemscore.DEInternal.Weighted>
1.7682

> <Gold.Chemscore.Rot.Weighted>
4.9169

> <Gold.Chemscore.Internal.Correction.Weighted>
   9.000000E+99

> <Gold.Protein.RotatedTorsions>
[ 6907 6896 6895 6894 ] final   68.54 input  -60.11 | X-H torsion
[ 7974 7965 7964 7962 ] final   28.62 input  175.53 | X-H torsion
[ 8008 7997 7996 7995 ] final  129.38 input   59.86 | X-H torsion
[ 10167 10162 10161 10158 ] final  -56.52 input  -65.29 | X-H torsion
[ 10718 10713 10712 10709 ] final   15.18 input   66.30 | X-H torsion
[ 10763 10752 10751 10750 ] final  -85.81 input  -60.55 | X-H torsion
[ 11005 11000 10999 10996 ] final   80.57 input  -57.11 | X-H torsion

> <Gold.Protein.ActiveResidues>
 VAL166  LYS551  ARG553  GLY616  TRP617  ASP618  TYR619  PRO620  LYS621  CYS622 
 ASP623  PHE694  ASN695  SER759  ASP760  ASP761  ALA762  ILE779  LEU786  VAL792 
 PHE793  MET794  SER795  GLU796  ALA797  LYS798  CYS799  TRP800  GLU811  SER814 

> <Gold.Protein.RotatedAtoms>
  152.4627  134.5147  159.9764 H   0  0  0  0  0  0  0  0  0  0  0  0  # atno 6907 bound_to 6896
  151.5192  133.3464  159.2906 H   0  0  0  0  0  0  0  0  0  0  0  0  # atno 6908 bound_to 6896
  150.8597  134.7975  159.7135 H   0  0  0  0  0  0  0  0  0  0  0  0  # atno 6909 bound_to 6896
  146.1718  139.7031  142.8962 H   0  0  0  0  0  0  0  0  0  0  0  0  # atno 7974 bound_to 7965
  156.2935  140.2622  156.2589 H   0  0  0  0  0  0  0  0  0  0  0  0  # atno 8008 bound_to 7997
  154.9809  140.0390  157.2295 H   0  0  0  0  0  0  0  0  0  0  0  0  # atno 8009 bound_to 7997
  154.7773  140.2789  155.6096 H   0  0  0  0  0  0  0  0  0  0  0  0  # atno 8010 bound_to 7997
  140.6312  143.2460  151.5236 H   0  0  0  0  0  0  0  0  0  0  0  0  # atno 10167 bound_to 10162
  157.0498  130.6265  149.5766 H   0  0  0  0  0  0  0  0  0  0  0  0  # atno 10718 bound_to 10713
  154.6153  135.5472  153.7517 H   0  0  0  0  0  0  0  0  0  0  0  0  # atno 10763 bound_to 10752
  153.0213  135.6399  154.1519 H   0  0  0  0  0  0  0  0  0  0  0  0  # atno 10764 bound_to 10752
  154.1456  135.2906  155.3129 H   0  0  0  0  0  0  0  0  0  0  0  0  # atno 10765 bound_to 10752
  139.9129  134.7931  156.1927 H   0  0  0  0  0  0  0  0  0  0  0  0  # atno 11005 bound_to 11000
  145.4319  141.0416  143.2906 LP  0  0  0  0  0  0  0  0  0  0  0  0  # atno 17320 bound_to 7965
  144.8175  139.5851  143.7002 LP  0  0  0  0  0  0  0  0  0  0  0  0  # atno 17321 bound_to 7965
  139.5526  144.2356  152.1557 LP  0  0  0  0  0  0  0  0  0  0  0  0  # atno 17342 bound_to 10162
  140.1601  144.5034  150.6637 LP  0  0  0  0  0  0  0  0  0  0  0  0  # atno 17343 bound_to 10162
  156.0011  130.5090  150.7666 LP  0  0  0  0  0  0  0  0  0  0  0  0  # atno 17370 bound_to 10713
  157.5039  131.0920  151.0281 LP  0  0  0  0  0  0  0  0  0  0  0  0  # atno 17371 bound_to 10713
  141.0574  133.6858  156.1886 LP  0  0  0  0  0  0  0  0  0  0  0  0  # atno 17394 bound_to 11000
  140.6716  134.4862  157.5587 LP  0  0  0  0  0  0  0  0  0  0  0  0  # atno 17395 bound_to 11000

$$$$
