AV-unprocessed.smi:830|AV-procd|sdf|3870|dock7
  -GOLD-   22720 1323D 1   1.00000     0.00000
 Structure written by MMmdl.
 52 54  0  0  0  0  0  0  0  0  1 V2000
  146.8538  141.9742  154.0467 C   0  0  0  0  0  0  0  0  0  0  0  0
  147.3320  140.6605  153.4057 C   0  0  2  0  0  0  0  0  0  0  0  0
  146.1924  139.7924  153.1150 N   0  0  0  0  0  0  0  0  0  0  0  0
  146.2597  138.4986  152.7722 C   0  0  0  0  0  0  0  0  0  0  0  0
  147.3145  137.8713  152.6719 O   0  0  0  0  0  0  0  0  0  0  0  0
  145.0368  137.9973  152.5346 N   0  0  0  0  0  0  0  0  0  0  0  0
  144.7106  136.6994  152.0534 C   0  0  0  0  0  0  0  0  0  0  0  0
  145.6059  135.9800  151.2253 C   0  0  0  0  0  0  0  0  0  0  0  0
  145.2792  134.6713  150.8306 C   0  0  0  0  0  0  0  0  0  0  0  0
  144.0725  134.1203  151.2926 C   0  0  0  0  0  0  0  0  0  0  0  0
  143.2161  134.7876  152.0916 N   0  0  0  0  0  0  0  0  0  0  0  0
  143.5088  136.0569  152.4690 C   0  0  0  0  0  0  0  0  0  0  0  0
  142.5627  136.7121  153.2913 N   0  0  0  0  0  0  0  0  0  0  0  0
  141.4881  135.9593  153.9302 C   0  0  0  0  0  0  0  0  0  0  0  0
  140.4801  137.0124  154.3820 C   0  0  0  0  0  0  0  0  0  0  0  0
  140.5749  138.0520  153.2698 C   0  0  0  0  0  0  0  0  0  0  0  0
  142.0512  138.0112  152.8628 C   0  0  0  0  0  0  0  0  0  0  0  0
  148.3942  139.9276  154.2341 C   0  0  0  0  0  0  0  0  0  0  0  0
  148.3796  139.9806  155.4650 O   0  0  0  0  0  0  0  0  0  0  0  0
  149.3229  139.2514  153.5403 N   0  0  0  0  0  0  0  0  0  0  0  0
  150.4149  138.4810  154.1282 C   0  0  0  0  0  0  0  0  0  0  0  0
  149.8624  137.3649  155.0324 C   0  0  0  0  0  0  0  0  0  0  0  0
  150.1309  137.8180  156.4674 C   0  0  0  0  0  0  0  0  0  0  0  0
  151.4216  138.6247  156.3654 C   0  0  0  0  0  0  0  0  0  0  0  0
  151.3069  139.3608  155.0287 C   0  0  0  0  0  0  0  0  0  0  0  0
  147.6910  142.6394  154.2598 H   0  0  0  0  0  0  0  0  0  0  0  0
  146.3295  141.7891  154.9849 H   0  0  0  0  0  0  0  0  0  0  0  0
  146.1725  142.5109  153.3857 H   0  0  0  0  0  0  0  0  0  0  0  0
  147.8120  140.9109  152.4574 H   0  0  0  0  0  0  0  0  0  0  0  0
  145.2795  140.2193  153.1775 H   0  0  0  0  0  0  0  0  0  0  0  0
  144.2709  138.6543  152.5659 H   0  0  0  0  0  0  0  0  0  0  0  0
  146.5459  136.4049  150.9074 H   0  0  0  0  0  0  0  0  0  0  0  0
  145.9440  134.1000  150.1998 H   0  0  0  0  0  0  0  0  0  0  0  0
  143.7889  133.1149  151.0182 H   0  0  0  0  0  0  0  0  0  0  0  0
  141.0116  135.2853  153.2174 H   0  0  0  0  0  0  0  0  0  0  0  0
  141.8593  135.3679  154.7676 H   0  0  0  0  0  0  0  0  0  0  0  0
  139.4744  136.6113  154.5094 H   0  0  0  0  0  0  0  0  0  0  0  0
  140.7957  137.4509  155.3298 H   0  0  0  0  0  0  0  0  0  0  0  0
  139.9538  137.7443  152.4276 H   0  0  0  0  0  0  0  0  0  0  0  0
  140.2485  139.0440  153.5833 H   0  0  0  0  0  0  0  0  0  0  0  0
  142.6008  138.7938  153.3862 H   0  0  0  0  0  0  0  0  0  0  0  0
  142.1731  138.1707  151.7905 H   0  0  0  0  0  0  0  0  0  0  0  0
  149.2650  139.2646  152.5322 H   0  0  0  0  0  0  0  0  0  0  0  0
  151.0101  138.0256  153.3342 H   0  0  0  0  0  0  0  0  0  0  0  0
  148.8075  137.1470  154.8593 H   0  0  0  0  0  0  0  0  0  0  0  0
  150.4139  136.4434  154.8411 H   0  0  0  0  0  0  0  0  0  0  0  0
  149.3193  138.4622  156.8083 H   0  0  0  0  0  0  0  0  0  0  0  0
  150.2101  136.9828  157.1635 H   0  0  0  0  0  0  0  0  0  0  0  0
  151.5618  139.3032  157.2074 H   0  0  0  0  0  0  0  0  0  0  0  0
  152.2755  137.9465  156.3386 H   0  0  0  0  0  0  0  0  0  0  0  0
  152.2844  139.5448  154.5820 H   0  0  0  0  0  0  0  0  0  0  0  0
  150.8440  140.3346  155.1978 H   0  0  0  0  0  0  0  0  0  0  0  0
  1  2  1  0  0  0  0
  1 26  1  0  0  0  0
  1 27  1  0  0  0  0
  1 28  1  0  0  0  0
  2  3  1  0  0  0  0
  2 18  1  0  0  0  0
  2 29  1  0  0  0  0
  3  4  1  0  0  0  0
  3 30  1  0  0  0  0
  4  5  2  0  0  0  0
  4  6  1  0  0  0  0
  6  7  1  0  0  0  0
  6 31  1  0  0  0  0
  7 12  1  0  0  0  0
  7  8  2  0  0  0  0
  8  9  1  0  0  0  0
  8 32  1  0  0  0  0
  9 10  2  0  0  0  0
  9 33  1  0  0  0  0
 10 11  1  0  0  0  0
 10 34  1  0  0  0  0
 11 12  2  0  0  0  0
 12 13  1  0  0  0  0
 13 17  1  0  0  0  0
 13 14  1  0  0  0  0
 14 15  1  0  0  0  0
 14 35  1  0  0  0  0
 14 36  1  0  0  0  0
 15 16  1  0  0  0  0
 15 37  1  0  0  0  0
 15 38  1  0  0  0  0
 16 17  1  0  0  0  0
 16 39  1  0  0  0  0
 16 40  1  0  0  0  0
 17 41  1  0  0  0  0
 17 42  1  0  0  0  0
 18 19  2  0  0  0  0
 18 20  1  0  0  0  0
 20 21  1  0  0  0  0
 20 43  1  0  0  0  0
 21 25  1  0  0  0  0
 21 22  1  0  0  0  0
 21 44  1  0  0  0  0
 22 23  1  0  0  0  0
 22 45  1  0  0  0  0
 22 46  1  0  0  0  0
 23 24  1  0  0  0  0
 23 47  1  0  0  0  0
 23 48  1  0  0  0  0
 24 25  1  0  0  0  0
 24 49  1  0  0  0  0
 24 50  1  0  0  0  0
 25 51  1  0  0  0  0
 25 52  1  0  0  0  0
M  END
> <s_m_source_file>
AV-unprocessed.smi

> <i_m_source_file_index>
830

> <i_lp_mmshare_version>
43012

> <i_f3d_flags>
0

> <s_epik_input>
W0NIMl0xW0NIMl1bQ0gyXVtDSDJdW0NIXTFbTkhdQyg9TylbQ0BIXShbQ0gzXSlbTkhdQyg9TylbTkhdYzJbY0hdW2NIXVtjSF1uYzJOM1tDSDJdW0NIMl1bQ0gyXVtDSDJdMw==

> <s_epik_cmdline>
J2VwaWtfcHl0aG9uJywgJy1waCcsICc3LjAnLCAnLXRuJywgJzgnLCAnLW1hJywgJzIwMCcsICctbWV0YWxfYmluZGluZycsICctaW1hZScsICc8aW5maWxlLm1hZT4nLCAnLW9tYWUnLCAnPG91dGZpbGUubWFlPic=

> <r_lp_tautomer_probability>
1

> <r_epik_Ionization_Penalty>
0.0827694

> <r_epik_Ionization_Penalty_Charging>
0

> <r_epik_Ionization_Penalty_Neutral>
0.0827694

> <r_epik_State_Penalty>
0.0729202

> <r_epik_Charging_Adjusted_Penalty>
0.0729202

> <i_epik_Tot_Q>
0

> <i_epik_Tot_abs_Q>
0

> <r_epik_Metal_State_Penalty>
0.0639723

> <b_epik_Metal_Only>
0

> <s_lp_Force_Field>
OPLS_2005

> <r_lp_Energy>
46.0812

> <b_lp_Chiralities_Consistent>
1

> <s_lp_Variant>
AV-unprocessed.smi:830-1

> <Gold.Version>
5.8.1

> <Gold.Id.Protein>
6NUR|6NUR_protein|mol2

> <Gold.PLP.Fitness>
44.6261

> <Gold.PLP.PLP>
-37.9321

> <Gold.PLP.part.hbond>
-3.8542

> <Gold.PLP.part.metal>
0.0000

> <Gold.PLP.part.buried>
-3.7906

> <Gold.PLP.part.nonpolar>
-35.3688

> <Gold.PLP.part.repulsive>
4.9746

> <Gold.PLP.ligand.clash>
0.0000

> <Gold.PLP.ligand.torsion>
1.3120

> <Gold.PLP.Chemscore.Hbond>
2.9600

> <Gold.PLP.Chemscore.CHOScore>
0.0000

> <Gold.PLP.Chemscore.Metal>
0.0000

> <Gold.Chemscore.Hbonds>
donor molecule, donor type, donor heavy atom, donor atom, acceptor molecule, acceptor atom, score
      L1  H     3    30       P1 10175  0.98
      L1  H     6    31       P1 10175  0.99
      L1  H    20    43       P1  7957  0.98

> <Gold.PLP.Chemscore.Internal.Correction>
0.4379

> <Gold.Rescore>
     Score         DG    S(hbond)    S(metal)    S(lipo)     H(rot)  DE(clash)    DE(int)     intcor
     13.36     -20.56       2.83        0.00      83.80       1.64       1.57       5.63       ----

> <Gold.Chemscore.Fitness>
13.3590

> <Gold.Chemscore.DG>
-20.5582

> <Gold.Chemscore.ZeroCoef>
-5.4800

> <Gold.Chemscore.Hbond>
2.8345

> <Gold.Chemscore.Metal>
0.0000

> <Gold.Chemscore.Lipo>
83.8010

> <Gold.Chemscore.Internal_Hbond>
0.0000

> <Gold.Chemscore.DEClash>
1.5724

> <Gold.Chemscore.DEInternal>
5.6267

> <Gold.Chemscore.Rot>
1.6382

> <Gold.Chemscore.Internal.Correction>
   9.000000E+99

> <Gold.Chemscore.Hbonds>
donor molecule, donor type, donor heavy atom, donor atom, acceptor molecule, acceptor atom, score
      L1  H     3    30       P1 10175  0.93
      L1  H     6    31       P1 10175  0.93
      L1  H    20    43       P1  7957  0.91

> <Gold.Chemscore.Hbond.Weighted>
-9.4671

> <Gold.Chemscore.Metal.Weighted>
-0.0000

> <Gold.Chemscore.Lipo.Weighted>
-9.8047

> <Gold.Chemscore.Internal_Hbond.Weighted>
0.0000

> <Gold.Chemscore.DEClash.Weighted>
1.5724

> <Gold.Chemscore.DEInternal.Weighted>
5.6267

> <Gold.Chemscore.Rot.Weighted>
4.1937

> <Gold.Chemscore.Internal.Correction.Weighted>
   9.000000E+99

> <Gold.Protein.RotatedTorsions>
[ 6907 6896 6895 6894 ] final   49.98 input  -60.11 | X-H torsion
[ 7974 7965 7964 7962 ] final   88.73 input  175.53 | X-H torsion
[ 8008 7997 7996 7995 ] final   17.88 input   59.86 | X-H torsion
[ 10167 10162 10161 10158 ] final  -53.07 input  -65.29 | X-H torsion
[ 10718 10713 10712 10709 ] final   89.46 input   66.30 | X-H torsion
[ 10763 10752 10751 10750 ] final -179.56 input  -60.55 | X-H torsion
[ 11005 11000 10999 10996 ] final -169.69 input  -57.11 | X-H torsion

> <Gold.Protein.ActiveResidues>
 VAL166  LYS551  ARG553  GLY616  TRP617  ASP618  TYR619  PRO620  LYS621  CYS622 
 ASP623  PHE694  ASN695  SER759  ASP760  ASP761  ALA762  ILE779  LEU786  VAL792 
 PHE793  MET794  SER795  GLU796  ALA797  LYS798  CYS799  TRP800  GLU811  SER814 

> <Gold.Protein.RotatedAtoms>
  152.2968  134.7657  160.0366 H   0  0  0  0  0  0  0  0  0  0  0  0  # atno 6907 bound_to 6896
  151.8184  133.3386  159.3585 H   0  0  0  0  0  0  0  0  0  0  0  0  # atno 6908 bound_to 6896
  150.7255  134.5526  159.5847 H   0  0  0  0  0  0  0  0  0  0  0  0  # atno 6909 bound_to 6896
  145.5418  139.2289  143.2562 H   0  0  0  0  0  0  0  0  0  0  0  0  # atno 7974 bound_to 7965
  154.8979  140.2996  155.5334 H   0  0  0  0  0  0  0  0  0  0  0  0  # atno 8008 bound_to 7997
  156.3019  140.2412  156.3938 H   0  0  0  0  0  0  0  0  0  0  0  0  # atno 8009 bound_to 7997
  154.8551  140.0407  157.1618 H   0  0  0  0  0  0  0  0  0  0  0  0  # atno 8010 bound_to 7997
  140.6504  143.2562  151.4739 H   0  0  0  0  0  0  0  0  0  0  0  0  # atno 10167 bound_to 10162
  157.6955  131.0334  150.3429 H   0  0  0  0  0  0  0  0  0  0  0  0  # atno 10718 bound_to 10713
  154.5336  135.2801  155.1159 H   0  0  0  0  0  0  0  0  0  0  0  0  # atno 10763 bound_to 10752
  154.2669  135.6311  153.5299 H   0  0  0  0  0  0  0  0  0  0  0  0  # atno 10764 bound_to 10752
  152.9962  135.5619  154.5856 H   0  0  0  0  0  0  0  0  0  0  0  0  # atno 10765 bound_to 10752
  140.5279  134.5645  157.5067 H   0  0  0  0  0  0  0  0  0  0  0  0  # atno 11005 bound_to 11000
  146.1976  140.6238  142.9117 LP  0  0  0  0  0  0  0  0  0  0  0  0  # atno 17320 bound_to 7965
  144.7573  140.5339  143.6760 LP  0  0  0  0  0  0  0  0  0  0  0  0  # atno 17321 bound_to 7965
  139.5719  144.1909  152.1848 LP  0  0  0  0  0  0  0  0  0  0  0  0  # atno 17342 bound_to 10162
  140.1208  144.5375  150.6864 LP  0  0  0  0  0  0  0  0  0  0  0  0  # atno 17343 bound_to 10162
  156.3887  130.3894  149.7046 LP  0  0  0  0  0  0  0  0  0  0  0  0  # atno 17370 bound_to 10713
  156.4403  130.7858  151.2879 LP  0  0  0  0  0  0  0  0  0  0  0  0  # atno 17371 bound_to 10713
  139.9570  134.7518  156.0320 LP  0  0  0  0  0  0  0  0  0  0  0  0  # atno 17394 bound_to 11000
  141.1297  133.6589  156.3432 LP  0  0  0  0  0  0  0  0  0  0  0  0  # atno 17395 bound_to 11000

$$$$
