#       Name:                AV-unprocessed.smi:1317
#       Creating user name   scv26
#       Creation time:       Fri Mar 27 05:02:44 2020


#       File generated by GOLD software.
#

@<TRIPOS>MOLECULE
AV-unprocessed.smi:1317
    34    35     1
SMALL
NO_CHARGES


@<TRIPOS>ATOM
      1 ****        -3.0483   4.8275   1.3387 C.3            1 S1                 0.0000
      2 ****        -2.3721   4.1133   0.2190 C.2            1 S1                 0.0000
      3 ****        -1.9008   2.8673   0.3137 N.2            1 S1                 0.0000
      4 ****        -1.3044   2.4256  -0.8717 C.2            1 S1                 0.0000
      5 ****        -0.7135   1.0504  -0.9475 C.3            1 S1                 0.0000
      6 ****         0.6523   0.9659  -0.2460 C.3            1 S1                 0.0000
      7 ****         1.2591  -0.3509  -0.4030 N.am           1 S1                 0.0000
      8 ****         0.9494  -1.4368   0.3206 C.2            1 S1                 0.0000
      9 ****         0.1031  -1.4322   1.2155 O.2            1 S1                 0.0000
     10 ****         1.7200  -2.7173  -0.0276 C.3            1 S1                 0.0000
     11 ****         0.8274  -3.9314  -0.3376 C.3            1 S1                 0.0000
     12 ****         1.7637  -4.7877   0.5201 C.3            1 S1                 0.0000
     13 ****         2.2578  -3.4992   1.1843 C.3            1 S1                 0.0000
     14 ****        -1.3330   3.3638  -1.8735 C.2            1 S1                 0.0000
     15 ****        -2.1096   4.8371  -1.3628 S.3            1 S1                 0.0000
     16 ****        -3.3233   4.1289   2.1296 H              1 S1                 0.0000
     17 ****        -3.9519   5.3184   0.9772 H              1 S1                 0.0000
     18 ****        -2.3809   5.5826   1.7543 H              1 S1                 0.0000
     19 ****        -1.4012   0.3289  -0.5042 H              1 S1                 0.0000
     20 ****        -0.6028   0.7535  -1.9912 H              1 S1                 0.0000
     21 ****         1.3342   1.7005  -0.6755 H              1 S1                 0.0000
     22 ****         0.5571   1.2122   0.8130 H              1 S1                 0.0000
     23 ****         1.9670  -0.4441  -1.1170 H              1 S1                 0.0000
     24 ****         2.4874  -2.5700  -0.7902 H              1 S1                 0.0000
     25 ****        -0.1803  -3.8649   0.0765 H              1 S1                 0.0000
     26 ****         0.8060  -4.2158  -1.3900 H              1 S1                 0.0000
     27 ****         1.2579  -5.4811   1.1924 H              1 S1                 0.0000
     28 ****         2.5382  -5.2833  -0.0673 H              1 S1                 0.0000
     29 ****         3.3404  -3.4510   1.3047 H              1 S1                 0.0000
     30 ****         1.7445  -3.2872   2.1236 H              1 S1                 0.0000
     31 ****        -0.9441   3.2783  -2.8774 H              1 S1                 0.0000
     32 ****        -1.9671   2.3108   1.1419 LP             1 S1                 0.0000
     33 ****        -0.3909  -0.5902   1.4322 LP             1 S1                 0.0000
     34 ****        -0.0900  -2.2705   1.7254 LP             1 S1                 0.0000
@<TRIPOS>BOND
    1    1    2 1     
    2    1   16 1     
    3    1   17 1     
    4    1   18 1     
    5    2   15 1     
    6    2    3 2     
    7    3    4 1     
    8    4    5 1     
    9    4   14 2     
   10    5    6 1     
   11    5   19 1     
   12    5   20 1     
   13    6    7 1     
   14    6   21 1     
   15    6   22 1     
   16    7    8 am    
   17    7   23 1     
   18    8    9 2     
   19    8   10 1     
   20   10   13 1     
   21   10   11 1     
   22   10   24 1     
   23   11   12 1     
   24   11   25 1     
   25   11   26 1     
   26   12   13 1     
   27   12   27 1     
   28   12   28 1     
   29   13   29 1     
   30   13   30 1     
   31   14   15 1     
   32   14   31 1     
   33    3   32 1     
   34    9   33 1     
   35    9   34 1     
@<TRIPOS>SUBSTRUCTURE
      1 S1             1
@<TRIPOS>SET
LONE_PAIRS      STATIC     ATOMS    <user>   **** ""
3 32 33 34
DONOR_HYDROGENS      STATIC     ATOMS    <user>   **** ""
1 23
ATOM$BLUE        STATIC     ATOMS    COLORGROUP SYSTEM
3 32 33 34
ATOM$RED        STATIC     ATOMS    COLORGROUP SYSTEM
1 23
