AV-unprocessed.smi:1701|AV-procd|sdf|6828|dock6
  -GOLD-   22720 8 03D 1   1.00000     0.00000
 Structure written by MMmdl.
 55 57  0  0  0  0  0  0  0  0  3 V2000
  150.4322  142.2428  157.8083 C   0  0  0  0  0  0  0  0  0  0  0  0
  151.9177  141.8531  157.8429 C   0  0  0  0  0  0  0  0  0  0  0  0
  152.1366  140.4187  158.0307 N   0  0  0  0  0  0  0  0  0  0  0  0
  152.8589  139.9514  159.2166 C   0  0  0  0  0  0  0  0  0  0  0  0
  153.4784  141.0930  160.0367 C   0  0  0  0  0  0  0  0  0  0  0  0
  151.4965  139.4837  157.1807 C   0  0  0  0  0  0  0  0  0  0  0  0
  151.3466  139.6685  155.7833 C   0  0  0  0  0  0  0  0  0  0  0  0
  150.6926  138.6892  155.0083 C   0  0  0  0  0  0  0  0  0  0  0  0
  150.1960  137.5213  155.6223 C   0  0  0  0  0  0  0  0  0  0  0  0
  149.5315  136.5736  154.7969 N   0  0  0  0  0  0  0  0  0  0  0  0
  149.1321  135.3210  155.0951 C   0  0  0  0  0  0  0  0  0  0  0  0
  149.3202  134.7628  156.1731 O   0  0  0  0  0  0  0  0  0  0  0  0
  148.5103  134.6861  154.0856 N   0  0  0  0  0  0  0  0  0  0  0  0
  147.9580  133.3303  154.0763 C   0  0  1  0  0  0  0  0  0  0  0  0
  146.7042  133.1707  153.2004 C   0  0  0  0  0  0  0  0  0  0  0  0
  146.8524  131.7968  152.5163 C   0  0  0  0  0  0  0  0  0  0  0  0
  148.0834  131.1800  153.0618 N   0  3  2  0  0  0  0  0  0  0  0  0
  147.7889  130.2185  154.1597 C   0  0  0  0  0  0  0  0  0  0  0  0
  149.0620  129.7583  154.8815 C   0  0  0  0  0  0  0  0  0  0  0  0
  149.8138  130.9654  155.4473 C   0  0  0  0  0  0  0  0  0  0  0  0
  150.1603  131.9314  154.3090 C   0  0  0  0  0  0  0  0  0  0  0  0
  148.9359  132.3284  153.4536 C   0  0  2  0  0  0  0  0  0  0  0  0
  150.3633  137.3821  157.0201 C   0  0  0  0  0  0  0  0  0  0  0  0
  150.9948  138.3468  157.7232 N   0  3  0  0  0  0  0  0  0  0  0  0
  150.3237  143.3114  157.6226 H   0  0  0  0  0  0  0  0  0  0  0  0
  149.9375  142.0286  158.7545 H   0  0  0  0  0  0  0  0  0  0  0  0
  149.8933  141.7155  157.0210 H   0  0  0  0  0  0  0  0  0  0  0  0
  152.4236  142.1941  156.9401 H   0  0  0  0  0  0  0  0  0  0  0  0
  152.4022  142.3907  158.6585 H   0  0  0  0  0  0  0  0  0  0  0  0
  152.1992  139.3523  159.8448 H   0  0  0  0  0  0  0  0  0  0  0  0
  153.6512  139.2717  158.9021 H   0  0  0  0  0  0  0  0  0  0  0  0
  153.9846  140.6983  160.9178 H   0  0  0  0  0  0  0  0  0  0  0  0
  152.7215  141.7975  160.3817 H   0  0  0  0  0  0  0  0  0  0  0  0
  154.2165  141.6498  159.4615 H   0  0  0  0  0  0  0  0  0  0  0  0
  151.7158  140.5512  155.2843 H   0  0  0  0  0  0  0  0  0  0  0  0
  150.5771  138.8386  153.9448 H   0  0  0  0  0  0  0  0  0  0  0  0
  149.3661  136.8713  153.8468 H   0  0  0  0  0  0  0  0  0  0  0  0
  148.4302  135.1988  153.2188 H   0  0  0  0  0  0  0  0  0  0  0  0
  147.7300  133.0168  155.0964 H   0  0  0  0  0  0  0  0  0  0  0  0
  145.7971  133.2251  153.8033 H   0  0  0  0  0  0  0  0  0  0  0  0
  146.6422  133.9551  152.4445 H   0  0  0  0  0  0  0  0  0  0  0  0
  145.9722  131.1664  152.6518 H   0  0  0  0  0  0  0  0  0  0  0  0
  146.9865  131.9360  151.4428 H   0  0  0  0  0  0  0  0  0  0  0  0
  147.1103  130.6747  154.8823 H   0  0  0  0  0  0  0  0  0  0  0  0
  147.2662  129.3555  153.7452 H   0  0  0  0  0  0  0  0  0  0  0  0
  148.8044  129.0700  155.6870 H   0  0  0  0  0  0  0  0  0  0  0  0
  149.7034  129.2064  154.1929 H   0  0  0  0  0  0  0  0  0  0  0  0
  149.2049  131.4686  156.1991 H   0  0  0  0  0  0  0  0  0  0  0  0
  150.7235  130.6391  155.9521 H   0  0  0  0  0  0  0  0  0  0  0  0
  150.6482  132.8217  154.7071 H   0  0  0  0  0  0  0  0  0  0  0  0
  150.8957  131.4514  153.6619 H   0  0  0  0  0  0  0  0  0  0  0  0
  149.3134  132.7644  152.5262 H   0  0  0  0  0  0  0  0  0  0  0  0
  150.0123  136.5513  157.6128 H   0  0  0  0  0  0  0  0  0  0  0  0
  148.5517  130.6636  152.3307 H   0  0  0  0  0  0  0  0  0  0  0  0
  151.0961  138.2123  158.7293 H   0  0  0  0  0  0  0  0  0  0  0  0
  1  2  1  0  0  0  0
  1 25  1  0  0  0  0
  1 26  1  0  0  0  0
  1 27  1  0  0  0  0
  2  3  1  0  0  0  0
  2 28  1  0  0  0  0
  2 29  1  0  0  0  0
  3  4  1  0  0  0  0
  3  6  1  0  0  0  0
  4  5  1  0  0  0  0
  4 30  1  0  0  0  0
  4 31  1  0  0  0  0
  5 32  1  0  0  0  0
  5 33  1  0  0  0  0
  5 34  1  0  0  0  0
  6 24  1  0  0  0  0
  6  7  2  0  0  0  0
  7  8  1  0  0  0  0
  7 35  1  0  0  0  0
  8  9  2  0  0  0  0
  8 36  1  0  0  0  0
  9 10  1  0  0  0  0
  9 23  1  0  0  0  0
 10 11  1  0  0  0  0
 10 37  1  0  0  0  0
 11 12  2  0  0  0  0
 11 13  1  0  0  0  0
 13 14  1  0  0  0  0
 13 38  1  0  0  0  0
 14 22  1  0  0  0  0
 14 15  1  0  0  0  0
 14 39  1  0  0  0  0
 15 16  1  0  0  0  0
 15 40  1  0  0  0  0
 15 41  1  0  0  0  0
 16 17  1  0  0  0  0
 16 42  1  0  0  0  0
 16 43  1  0  0  0  0
 17 22  1  0  0  0  0
 17 18  1  0  0  0  0
 17 54  1  0  0  0  0
 18 19  1  0  0  0  0
 18 44  1  0  0  0  0
 18 45  1  0  0  0  0
 19 20  1  0  0  0  0
 19 46  1  0  0  0  0
 19 47  1  0  0  0  0
 20 21  1  0  0  0  0
 20 48  1  0  0  0  0
 20 49  1  0  0  0  0
 21 22  1  0  0  0  0
 21 50  1  0  0  0  0
 21 51  1  0  0  0  0
 22 52  1  0  0  0  0
 23 24  2  0  0  0  0
 23 53  1  0  0  0  0
 24 55  1  0  0  0  0
M  CHG  1  17   1
M  CHG  1  24   1
M  END
> <s_m_source_file>
AV-unprocessed.smi

> <i_m_source_file_index>
1701

> <i_lp_mmshare_version>
43012

> <i_f3d_flags>
0

> <s_epik_input>
W0NIM11bQ0gyXU4oW0NIMl1bQ0gzXSljMVtjSF1bY0hdYyhbY0hdbjEpW05IXUMoPU8pW05IXVtDQEhdKFtDSDJdW0NIMl0yKVtDQEBIXShOMjMpW0NIMl1bQ0gyXVtDSDJdW0NIMl0z

> <s_epik_cmdline>
J2VwaWtfcHl0aG9uJywgJy1waCcsICc3LjAnLCAnLXRuJywgJzgnLCAnLW1hJywgJzIwMCcsICctbWV0YWxfYmluZGluZycsICctaW1hZScsICc8aW5maWxlLm1hZT4nLCAnLW9tYWUnLCAnPG91dGZpbGUubWFlPic=

> <r_lp_tautomer_probability>
0.999994

> <r_epik_Ionization_Penalty>
0.302862

> <r_epik_Ionization_Penalty_Charging>
0.302842

> <r_epik_Ionization_Penalty_Neutral>
1.95166e-05

> <r_epik_State_Penalty>
0.019791

> <r_epik_Charging_Adjusted_Penalty>
0.322633

> <i_epik_Tot_Q>
2

> <i_epik_Tot_abs_Q>
2

> <r_epik_Metal_State_Penalty>
0.0536763

> <b_epik_Metal_Only>
0

> <s_lp_Force_Field>
OPLS_2005

> <r_lp_Energy>
65.6354

> <b_lp_Chiralities_Consistent>
1

> <s_lp_Variant>
AV-unprocessed.smi:1701-8

> <Gold.Version>
5.8.1

> <Gold.Id.Protein>
6NUR|6NUR_protein|mol2

> <Gold.PLP.Fitness>
40.4547

> <Gold.PLP.PLP>
-33.9878

> <Gold.PLP.part.hbond>
-2.8102

> <Gold.PLP.part.metal>
0.0000

> <Gold.PLP.part.buried>
-4.3511

> <Gold.PLP.part.nonpolar>
-26.2950

> <Gold.PLP.part.repulsive>
0.0689

> <Gold.PLP.ligand.clash>
0.0000

> <Gold.PLP.ligand.torsion>
0.9514

> <Gold.PLP.Chemscore.Hbond>
2.7520

> <Gold.PLP.Chemscore.CHOScore>
0.0000

> <Gold.PLP.Chemscore.Metal>
0.0000

> <Gold.Chemscore.Hbonds>
donor molecule, donor type, donor heavy atom, donor atom, acceptor molecule, acceptor atom, score
      L1  H    10    37       P1  7948  0.74
      L1  H    13    38       P1  7948  1.00
      L1  H    17    54       P1 10747  0.70

> <Gold.PLP.Chemscore.Internal.Correction>
0.1137

> <Gold.Rescore>
     Score         DG    S(hbond)    S(metal)    S(lipo)     H(rot)  DE(clash)    DE(int)     intcor
     18.42     -20.52       2.47        0.00      86.46       1.30       0.08       2.01       ----

> <Gold.Chemscore.Fitness>
18.4197

> <Gold.Chemscore.DG>
-20.5189

> <Gold.Chemscore.ZeroCoef>
-5.4800

> <Gold.Chemscore.Hbond>
2.4719

> <Gold.Chemscore.Metal>
0.0000

> <Gold.Chemscore.Lipo>
86.4581

> <Gold.Chemscore.Internal_Hbond>
0.0000

> <Gold.Chemscore.DEClash>
0.0847

> <Gold.Chemscore.DEInternal>
2.0144

> <Gold.Chemscore.Rot>
1.3020

> <Gold.Chemscore.Internal.Correction>
   9.000000E+99

> <Gold.Chemscore.Hbonds>
donor molecule, donor type, donor heavy atom, donor atom, acceptor molecule, acceptor atom, score
      L1  H    10    37       P1  7948  0.68
      L1  H    13    38       P1  7948  0.92
      L1  H    17    54       P1 10747  0.56

> <Gold.Chemscore.Hbond.Weighted>
-8.2563

> <Gold.Chemscore.Metal.Weighted>
-0.0000

> <Gold.Chemscore.Lipo.Weighted>
-10.1156

> <Gold.Chemscore.Internal_Hbond.Weighted>
0.0000

> <Gold.Chemscore.DEClash.Weighted>
0.0847

> <Gold.Chemscore.DEInternal.Weighted>
2.0144

> <Gold.Chemscore.Rot.Weighted>
3.3330

> <Gold.Chemscore.Internal.Correction.Weighted>
   9.000000E+99

> <Gold.Protein.RotatedTorsions>
[ 6907 6896 6895 6894 ] final  -22.21 input  -60.11 | X-H torsion
[ 7974 7965 7964 7962 ] final  -97.53 input  175.53 | X-H torsion
[ 8008 7997 7996 7995 ] final  109.16 input   59.86 | X-H torsion
[ 10167 10162 10161 10158 ] final  147.35 input  -65.29 | X-H torsion
[ 10718 10713 10712 10709 ] final   66.39 input   66.30 | X-H torsion
[ 10763 10752 10751 10750 ] final  127.37 input  -60.55 | X-H torsion
[ 11005 11000 10999 10996 ] final   41.31 input  -57.11 | X-H torsion

> <Gold.Protein.ActiveResidues>
 VAL166  LYS551  ARG553  GLY616  TRP617  ASP618  TYR619  PRO620  LYS621  CYS622 
 ASP623  PHE694  ASN695  SER759  ASP760  ASP761  ALA762  ILE779  LEU786  VAL792 
 PHE793  MET794  SER795  GLU796  ALA797  LYS798  CYS799  TRP800  GLU811  SER814 

> <Gold.Protein.RotatedAtoms>
  151.2219  135.0521  159.8952 H   0  0  0  0  0  0  0  0  0  0  0  0  # atno 6907 bound_to 6896
  152.5414  134.0631  159.8171 H   0  0  0  0  0  0  0  0  0  0  0  0  # atno 6908 bound_to 6896
  151.0799  133.5350  159.2653 H   0  0  0  0  0  0  0  0  0  0  0  0  # atno 6909 bound_to 6896
  145.3325  140.9444  143.2653 H   0  0  0  0  0  0  0  0  0  0  0  0  # atno 7974 bound_to 7965
  156.1958  140.3063  155.9424 H   0  0  0  0  0  0  0  0  0  0  0  0  # atno 8008 bound_to 7997
  155.3069  140.0449  157.3050 H   0  0  0  0  0  0  0  0  0  0  0  0  # atno 8009 bound_to 7997
  154.5508  140.2291  155.8497 H   0  0  0  0  0  0  0  0  0  0  0  0  # atno 8010 bound_to 7997
  139.4891  144.5761  151.6961 H   0  0  0  0  0  0  0  0  0  0  0  0  # atno 10167 bound_to 10162
  157.6166  130.9265  150.0103 H   0  0  0  0  0  0  0  0  0  0  0  0  # atno 10718 bound_to 10713
  153.7083  135.3272  155.3240 H   0  0  0  0  0  0  0  0  0  0  0  0  # atno 10763 bound_to 10752
  154.8392  135.4471  154.1340 H   0  0  0  0  0  0  0  0  0  0  0  0  # atno 10764 bound_to 10752
  153.2427  135.6972  153.7845 H   0  0  0  0  0  0  0  0  0  0  0  0  # atno 10765 bound_to 10752
  140.1846  134.4061  155.8180 H   0  0  0  0  0  0  0  0  0  0  0  0  # atno 11005 bound_to 11000
  144.8853  139.4848  143.6704 LP  0  0  0  0  0  0  0  0  0  0  0  0  # atno 17320 bound_to 7965
  146.3040  139.7518  142.9070 LP  0  0  0  0  0  0  0  0  0  0  0  0  # atno 17321 bound_to 7965
  140.5358  144.0658  150.6070 LP  0  0  0  0  0  0  0  0  0  0  0  0  # atno 17342 bound_to 10162
  140.3663  143.2879  152.0328 LP  0  0  0  0  0  0  0  0  0  0  0  0  # atno 17343 bound_to 10162
  156.1291  130.3644  149.9761 LP  0  0  0  0  0  0  0  0  0  0  0  0  # atno 17370 bound_to 10713
  156.7825  130.9226  151.3646 LP  0  0  0  0  0  0  0  0  0  0  0  0  # atno 17371 bound_to 10713
  141.2224  133.7017  156.7991 LP  0  0  0  0  0  0  0  0  0  0  0  0  # atno 17394 bound_to 11000
  140.2228  134.8744  157.3395 LP  0  0  0  0  0  0  0  0  0  0  0  0  # atno 17395 bound_to 11000

$$$$
