#       Name:                AV-unprocessed.smi:2237
#       Creating user name   scv26
#       Creation time:       Fri Mar 27 12:25:44 2020


#       File generated by GOLD software.
#

@<TRIPOS>MOLECULE
AV-unprocessed.smi:2237
    58    60     1
SMALL
NO_CHARGES


@<TRIPOS>ATOM
      1 ****        -5.5061   5.8091  -1.7137 C.3            1 S1                 0.0000
      2 ****        -5.7580   4.3495  -1.3987 C.ar           1 S1                 0.0000
      3 ****        -7.0677   3.8611  -1.2231 C.ar           1 S1                 0.0000
      4 ****        -7.2321   2.4944  -0.9352 C.ar           1 S1                 0.0000
      5 ****        -6.0888   1.6783  -0.8367 C.ar           1 S1                 0.0000
      6 ****        -4.8095   2.2475  -1.0275 C.ar           1 S1                 0.0000
      7 ****        -3.7244   1.3390  -0.9125 N.am           1 S1                 0.0000
      8 ****        -2.4086   1.5963  -1.0153 C.2            1 S1                 0.0000
      9 ****        -1.9107   2.7069  -1.2033 O.2            1 S1                 0.0000
     10 ****        -1.6854   0.4751  -0.8806 N.am           1 S1                 0.0000
     11 ****        -0.2291   0.3980  -0.9465 C.3            1 S1                 0.0000
     12 ****         0.2005  -1.0177  -1.3397 C.3            1 S1                 0.0000
     13 ****         1.7305  -1.1696  -1.2938 C.3            1 S1                 0.0000
     14 ****         2.2655  -0.8856   0.0483 N.3            1 S1                 0.0000
     15 ****         3.7267  -1.1171   0.1249 C.3            1 S1                 0.0000
     16 ****         4.1623  -2.5448  -0.2961 C.3            1 S1                 0.0000
     17 ****         3.6888  -3.6097   0.7097 C.3            1 S1                 0.0000
     18 ****         4.2026  -3.3242   2.0718 N.4            1 S1                 1.0000
     19 ****         3.8311  -4.3738   3.0447 C.3            1 S1                 0.0000
     20 ****         3.8346  -1.9649   2.5383 C.3            1 S1                 0.0000
     21 ****         4.3088  -0.8895   1.5440 C.3            1 S1                 0.0000
     22 ****         1.9238   0.5071   0.3848 C.3            1 S1                 0.0000
     23 ****         0.4020   0.7317   0.4103 C.3            1 S1                 0.0000
     24 ****        -4.6613   3.5670  -1.3043 N.ar           1 S1                 0.0000
     25 ****        -6.4167   6.3995  -1.6073 H              1 S1                 0.0000
     26 ****        -5.1463   5.9170  -2.7372 H              1 S1                 0.0000
     27 ****        -4.7542   6.2208  -1.0399 H              1 S1                 0.0000
     28 ****        -7.9249   4.5129  -1.3064 H              1 S1                 0.0000
     29 ****        -8.2181   2.0776  -0.7931 H              1 S1                 0.0000
     30 ****        -6.1981   0.6261  -0.6174 H              1 S1                 0.0000
     31 ****        -3.9808   0.3783  -0.7404 H              1 S1                 0.0000
     32 ****        -2.1790  -0.3920  -0.7272 H              1 S1                 0.0000
     33 ****         0.1412   1.0961  -1.6999 H              1 S1                 0.0000
     34 ****        -0.2538  -1.7487  -0.6690 H              1 S1                 0.0000
     35 ****        -0.1615  -1.2510  -2.3417 H              1 S1                 0.0000
     36 ****         1.9371  -2.1947  -1.5902 H              1 S1                 0.0000
     37 ****         2.2010  -0.5179  -2.0318 H              1 S1                 0.0000
     38 ****         4.1998  -0.4084  -0.5568 H              1 S1                 0.0000
     39 ****         3.8621  -2.8045  -1.3092 H              1 S1                 0.0000
     40 ****         5.2523  -2.5739  -0.3326 H              1 S1                 0.0000
     41 ****         2.5986  -3.6529   0.7279 H              1 S1                 0.0000
     42 ****         4.0385  -4.5921   0.3904 H              1 S1                 0.0000
     43 ****         2.7485  -4.4290   3.1665 H              1 S1                 0.0000
     44 ****         4.2753  -4.1706   4.0197 H              1 S1                 0.0000
     45 ****         4.1885  -5.3494   2.7134 H              1 S1                 0.0000
     46 ****         2.7540  -1.9019   2.6768 H              1 S1                 0.0000
     47 ****         4.2892  -1.7832   3.5129 H              1 S1                 0.0000
     48 ****         5.3967  -0.9409   1.4811 H              1 S1                 0.0000
     49 ****         4.1160   0.1067   1.9353 H              1 S1                 0.0000
     50 ****         2.2845   0.7761   1.3737 H              1 S1                 0.0000
     51 ****         2.3958   1.1900  -0.3234 H              1 S1                 0.0000
     52 ****         0.1901   1.7677   0.6772 H              1 S1                 0.0000
     53 ****        -0.0416   0.1146   1.1932 H              1 S1                 0.0000
     54 ****         5.2104  -3.3390   2.0056 H              1 S1                 0.0000
     55 ****        -2.4995   3.5103  -1.2925 LP             1 S1                 0.0000
     56 ****        -0.9176   2.8054  -1.2668 LP             1 S1                 0.0000
     57 ****         1.8549  -1.5117   0.7111 LP             1 S1                 0.0000
     58 ****        -3.7498   3.9563  -1.4371 LP             1 S1                 0.0000
@<TRIPOS>BOND
    1    1    2 1     
    2    1   25 1     
    3    1   26 1     
    4    1   27 1     
    5    2   24 ar    
    6    2    3 ar    
    7    3    4 ar    
    8    3   28 1     
    9    4    5 ar    
   10    4   29 1     
   11    5    6 ar    
   12    5   30 1     
   13    6    7 1     
   14    6   24 ar    
   15    7    8 am    
   16    7   31 1     
   17    8    9 2     
   18    8   10 am    
   19   10   11 1     
   20   10   32 1     
   21   11   23 1     
   22   11   12 1     
   23   11   33 1     
   24   12   13 1     
   25   12   34 1     
   26   12   35 1     
   27   13   14 1     
   28   13   36 1     
   29   13   37 1     
   30   14   15 1     
   31   14   22 1     
   32   15   21 1     
   33   15   16 1     
   34   15   38 1     
   35   16   17 1     
   36   16   39 1     
   37   16   40 1     
   38   17   18 1     
   39   17   41 1     
   40   17   42 1     
   41   18   19 1     
   42   18   20 1     
   43   18   54 1     
   44   19   43 1     
   45   19   44 1     
   46   19   45 1     
   47   20   21 1     
   48   20   46 1     
   49   20   47 1     
   50   21   48 1     
   51   21   49 1     
   52   22   23 1     
   53   22   50 1     
   54   22   51 1     
   55   23   52 1     
   56   23   53 1     
   57    9   55 1     
   58    9   56 1     
   59   14   57 1     
   60   24   58 1     
@<TRIPOS>SUBSTRUCTURE
      1 S1             1
@<TRIPOS>SET
LONE_PAIRS      STATIC     ATOMS    <user>   **** ""
4 55 56 57 58
DONOR_HYDROGENS      STATIC     ATOMS    <user>   **** ""
3 31 32 54
ATOM$BLUE        STATIC     ATOMS    COLORGROUP SYSTEM
4 55 56 57 58
ATOM$RED        STATIC     ATOMS    COLORGROUP SYSTEM
3 31 32 54
