AV-unprocessed.smi:2241|AV-procd|sdf|9059|dock3
  -GOLD-   2272012263D 1   1.00000     0.00000
 Structure written by MMmdl.
 45 47  0  0  0  0  0  0  0  0  1 V2000
  151.0602  145.2419  159.5537 C   0  0  0  0  0  0  0  0  0  0  0  0
  151.7946  143.9450  159.8248 C   0  0  0  0  0  0  0  0  0  0  0  0
  152.4889  143.7599  161.0366 C   0  0  0  0  0  0  0  0  0  0  0  0
  153.1680  142.5521  161.2791 C   0  0  0  0  0  0  0  0  0  0  0  0
  153.1569  141.5275  160.3131 C   0  0  0  0  0  0  0  0  0  0  0  0
  154.0021  140.0550  160.6331 Cl  0  0  0  0  0  0  0  0  0  0  0  0
  152.4659  141.6980  159.0933 C   0  0  0  0  0  0  0  0  0  0  0  0
  152.5028  140.6528  158.1954 O   0  0  0  0  0  0  0  0  0  0  0  0
  151.8121  140.7885  156.9611 C   0  0  0  0  0  0  0  0  0  0  0  0
  151.6752  139.3935  156.3329 C   0  0  1  0  0  0  0  0  0  0  0  0
  152.8552  139.1457  155.5953 O   0  0  0  0  0  0  0  0  0  0  0  0
  151.5141  138.2893  157.4029 C   0  0  0  0  0  0  0  0  0  0  0  0
  150.7942  137.1163  156.8846 N   0  0  0  0  0  0  0  0  0  0  0  0
  150.8687  136.8989  155.4962 C   0  0  0  0  0  0  0  0  0  0  0  0
  150.2933  135.8842  154.9337 N   0  0  0  0  0  0  0  0  0  0  0  0
  149.5695  134.9745  155.7135 C   0  0  0  0  0  0  0  0  0  0  0  0
  148.9067  133.8048  154.9990 C   0  0  0  0  0  0  0  0  0  0  0  0
  149.3910  132.4003  155.3974 C   0  0  0  0  0  0  0  0  0  0  0  0
  149.2725  132.0117  153.9197 C   0  0  0  0  0  0  0  0  0  0  0  0
  149.4250  133.4998  153.5845 C   0  0  0  0  0  0  0  0  0  0  0  0
  149.4479  135.1565  157.0501 C   0  0  0  0  0  0  0  0  0  0  0  0
  150.0865  136.2937  157.7126 C   0  0  0  0  0  0  0  0  0  0  0  0
  149.9943  136.4935  158.9241 O   0  0  0  0  0  0  0  0  0  0  0  0
  151.7813  142.9177  158.8595 C   0  0  0  0  0  0  0  0  0  0  0  0
  151.2843  145.9927  160.3121 H   0  0  0  0  0  0  0  0  0  0  0  0
  149.9834  145.0713  159.5493 H   0  0  0  0  0  0  0  0  0  0  0  0
  151.3484  145.6455  158.5825 H   0  0  0  0  0  0  0  0  0  0  0  0
  152.5036  144.5405  161.7832 H   0  0  0  0  0  0  0  0  0  0  0  0
  153.6997  142.4122  162.2088 H   0  0  0  0  0  0  0  0  0  0  0  0
  150.8249  141.2155  157.1472 H   0  0  0  0  0  0  0  0  0  0  0  0
  152.3487  141.4528  156.2812 H   0  0  0  0  0  0  0  0  0  0  0  0
  150.8317  139.4006  155.6410 H   0  0  0  0  0  0  0  0  0  0  0  0
  153.1086  138.2450  155.7266 H   0  0  0  0  0  0  0  0  0  0  0  0
  152.4811  138.0220  157.8346 H   0  0  0  0  0  0  0  0  0  0  0  0
  150.9508  138.6803  158.2522 H   0  0  0  0  0  0  0  0  0  0  0  0
  151.4392  137.6410  154.9348 H   0  0  0  0  0  0  0  0  0  0  0  0
  147.8182  133.8813  155.0246 H   0  0  0  0  0  0  0  0  0  0  0  0
  150.4240  132.3748  155.7497 H   0  0  0  0  0  0  0  0  0  0  0  0
  148.7222  131.8600  156.0678 H   0  0  0  0  0  0  0  0  0  0  0  0
  150.0754  131.3743  153.5483 H   0  0  0  0  0  0  0  0  0  0  0  0
  148.2880  131.6171  153.6627 H   0  0  0  0  0  0  0  0  0  0  0  0
  148.7845  133.8545  152.7767 H   0  0  0  0  0  0  0  0  0  0  0  0
  150.4667  133.7877  153.4308 H   0  0  0  0  0  0  0  0  0  0  0  0
  148.8797  134.4547  157.6435 H   0  0  0  0  0  0  0  0  0  0  0  0
  151.2368  143.0887  157.9434 H   0  0  0  0  0  0  0  0  0  0  0  0
  1  2  1  0  0  0  0
  1 25  1  0  0  0  0
  1 26  1  0  0  0  0
  1 27  1  0  0  0  0
  2 24  1  0  0  0  0
  2  3  2  0  0  0  0
  3  4  1  0  0  0  0
  3 28  1  0  0  0  0
  4  5  2  0  0  0  0
  4 29  1  0  0  0  0
  5  6  1  0  0  0  0
  5  7  1  0  0  0  0
  7  8  1  0  0  0  0
  7 24  2  0  0  0  0
  8  9  1  0  0  0  0
  9 10  1  0  0  0  0
  9 30  1  0  0  0  0
  9 31  1  0  0  0  0
 10 11  1  0  0  0  0
 10 12  1  0  0  0  0
 10 32  1  0  0  0  0
 11 33  1  0  0  0  0
 12 13  1  0  0  0  0
 12 34  1  0  0  0  0
 12 35  1  0  0  0  0
 13 22  1  0  0  0  0
 13 14  1  0  0  0  0
 14 15  2  0  0  0  0
 14 36  1  0  0  0  0
 15 16  1  0  0  0  0
 16 17  1  0  0  0  0
 16 21  2  0  0  0  0
 17 20  1  0  0  0  0
 17 18  1  0  0  0  0
 17 37  1  0  0  0  0
 18 19  1  0  0  0  0
 18 38  1  0  0  0  0
 18 39  1  0  0  0  0
 19 20  1  0  0  0  0
 19 40  1  0  0  0  0
 19 41  1  0  0  0  0
 20 42  1  0  0  0  0
 20 43  1  0  0  0  0
 21 22  1  0  0  0  0
 21 44  1  0  0  0  0
 22 23  2  0  0  0  0
 24 45  1  0  0  0  0
M  END
> <s_m_source_file>
AV-unprocessed.smi

> <i_m_source_file_index>
2241

> <i_lp_mmshare_version>
43012

> <i_f3d_flags>
0

> <s_epik_input>
W0NIM11jMVtjSF1bY0hdYyhDbCljKFtjSF0xKU9bQ0gyXVtDQEhdKFtPSF0pW0NIMl1uMltjSF1uYyhbY0hdYzI9TylbQ0hdM1tDSDJdW0NIMl1bQ0gyXTM=

> <s_epik_cmdline>
J2VwaWtfcHl0aG9uJywgJy1waCcsICc3LjAnLCAnLXRuJywgJzgnLCAnLW1hJywgJzIwMCcsICctbWV0YWxfYmluZGluZycsICctaW1hZScsICc8aW5maWxlLm1hZT4nLCAnLW9tYWUnLCAnPG91dGZpbGUubWFlPic=

> <r_lp_tautomer_probability>
1

> <r_epik_Ionization_Penalty>
1.78212e-05

> <r_epik_Ionization_Penalty_Charging>
5.61663e-08

> <r_epik_Ionization_Penalty_Neutral>
1.7765e-05

> <r_epik_State_Penalty>
-0

> <r_epik_Charging_Adjusted_Penalty>
5.61663e-08

> <i_epik_Tot_Q>
0

> <i_epik_Tot_abs_Q>
0

> <r_epik_Metal_State_Penalty>
-0

> <b_epik_Metal_Only>
0

> <s_lp_Force_Field>
OPLS_2005

> <r_lp_Energy>
30.2703

> <b_lp_Chiralities_Consistent>
1

> <s_lp_Variant>
AV-unprocessed.smi:2241-2

> <Gold.Version>
5.8.1

> <Gold.Id.Protein>
6NUR|6NUR_protein|mol2

> <Gold.PLP.Fitness>
49.1040

> <Gold.PLP.PLP>
-45.1653

> <Gold.PLP.part.hbond>
-2.2681

> <Gold.PLP.part.metal>
0.0000

> <Gold.PLP.part.buried>
-6.9362

> <Gold.PLP.part.nonpolar>
-35.9079

> <Gold.PLP.part.repulsive>
0.1664

> <Gold.PLP.ligand.clash>
0.0000

> <Gold.PLP.ligand.torsion>
1.2651

> <Gold.PLP.Chemscore.Hbond>
2.0000

> <Gold.PLP.Chemscore.CHOScore>
0.0000

> <Gold.PLP.Chemscore.Metal>
0.0000

> <Gold.Chemscore.Hbonds>
donor molecule, donor type, donor heavy atom, donor atom, acceptor molecule, acceptor atom, score
      P1  H  6896  6909       L1    23  1.00
      P1  H  7997  8009       L1    11  1.00

> <Gold.PLP.Chemscore.Internal.Correction>
0.4690

> <Gold.Rescore>
     Score         DG    S(hbond)    S(metal)    S(lipo)     H(rot)  DE(clash)    DE(int)     intcor
     18.23     -20.38       1.73        0.00     130.14       2.38       0.01       2.14       ----

> <Gold.Chemscore.Fitness>
18.2303

> <Gold.Chemscore.DG>
-20.3798

> <Gold.Chemscore.ZeroCoef>
-5.4800

> <Gold.Chemscore.Hbond>
1.7264

> <Gold.Chemscore.Metal>
0.0000

> <Gold.Chemscore.Lipo>
130.1413

> <Gold.Chemscore.Internal_Hbond>
0.0000

> <Gold.Chemscore.DEClash>
0.0118

> <Gold.Chemscore.DEInternal>
2.1377

> <Gold.Chemscore.Rot>
2.3801

> <Gold.Chemscore.Internal.Correction>
   9.000000E+99

> <Gold.Chemscore.Hbonds>
donor molecule, donor type, donor heavy atom, donor atom, acceptor molecule, acceptor atom, score
      P1  H  6896  6909       L1    23  0.39
      P1  H  7997  8009       L1    11  0.48

> <Gold.Chemscore.Hbond.Weighted>
-5.7663

> <Gold.Chemscore.Metal.Weighted>
-0.0000

> <Gold.Chemscore.Lipo.Weighted>
-15.2265

> <Gold.Chemscore.Internal_Hbond.Weighted>
0.0000

> <Gold.Chemscore.DEClash.Weighted>
0.0118

> <Gold.Chemscore.DEInternal.Weighted>
2.1377

> <Gold.Chemscore.Rot.Weighted>
6.0931

> <Gold.Chemscore.Internal.Correction.Weighted>
   9.000000E+99

> <Gold.Protein.RotatedTorsions>
[ 6907 6896 6895 6894 ] final   70.05 input  -60.11 | X-H torsion
[ 7974 7965 7964 7962 ] final  -15.60 input  175.53 | X-H torsion
[ 8008 7997 7996 7995 ] final -137.18 input   59.86 | X-H torsion
[ 10167 10162 10161 10158 ] final -141.16 input  -65.29 | X-H torsion
[ 10718 10713 10712 10709 ] final  103.12 input   66.30 | X-H torsion
[ 10763 10752 10751 10750 ] final  104.54 input  -60.55 | X-H torsion
[ 11005 11000 10999 10996 ] final   -2.10 input  -57.11 | X-H torsion

> <Gold.Protein.ActiveResidues>
 VAL166  LYS551  ARG553  GLY616  TRP617  ASP618  TYR619  PRO620  LYS621  CYS622 
 ASP623  PHE694  ASN695  SER759  ASP760  ASP761  ALA762  ILE779  LEU786  VAL792 
 PHE793  MET794  SER795  GLU796  ALA797  LYS798  CYS799  TRP800  GLU811  SER814 

> <Gold.Protein.RotatedAtoms>
  152.4725  134.4925  159.9699 H   0  0  0  0  0  0  0  0  0  0  0  0  # atno 6907 bound_to 6896
  151.4949  133.3511  159.2867 H   0  0  0  0  0  0  0  0  0  0  0  0  # atno 6908 bound_to 6896
  150.8743  134.8151  159.7240 H   0  0  0  0  0  0  0  0  0  0  0  0  # atno 6909 bound_to 6896
  146.2025  140.3517  142.8418 H   0  0  0  0  0  0  0  0  0  0  0  0  # atno 7974 bound_to 7965
  155.4075  140.0510  157.3033 H   0  0  0  0  0  0  0  0  0  0  0  0  # atno 8008 bound_to 7997
  154.4962  140.2139  155.9403 H   0  0  0  0  0  0  0  0  0  0  0  0  # atno 8009 bound_to 7997
  156.1408  140.3154  155.8497 H   0  0  0  0  0  0  0  0  0  0  0  0  # atno 8010 bound_to 7997
  139.8212  143.7572  152.2666 H   0  0  0  0  0  0  0  0  0  0  0  0  # atno 10167 bound_to 10162
  157.6782  131.0771  150.5507 H   0  0  0  0  0  0  0  0  0  0  0  0  # atno 10718 bound_to 10713
  153.3674  135.3939  155.1763 H   0  0  0  0  0  0  0  0  0  0  0  0  # atno 10763 bound_to 10752
  154.8689  135.3694  154.5022 H   0  0  0  0  0  0  0  0  0  0  0  0  # atno 10764 bound_to 10752
  153.5487  135.7083  153.5662 H   0  0  0  0  0  0  0  0  0  0  0  0  # atno 10765 bound_to 10752
  140.6546  133.9374  155.8400 H   0  0  0  0  0  0  0  0  0  0  0  0  # atno 11005 bound_to 11000
  144.8715  140.7278  143.6044 LP  0  0  0  0  0  0  0  0  0  0  0  0  # atno 17320 bound_to 7965
  145.3436  139.1725  143.4472 LP  0  0  0  0  0  0  0  0  0  0  0  0  # atno 17321 bound_to 7965
  139.7751  144.7464  151.0169 LP  0  0  0  0  0  0  0  0  0  0  0  0  # atno 17342 bound_to 10162
  140.7813  143.4603  151.0287 LP  0  0  0  0  0  0  0  0  0  0  0  0  # atno 17343 bound_to 10162
  156.5812  130.4305  149.5976 LP  0  0  0  0  0  0  0  0  0  0  0  0  # atno 17370 bound_to 10713
  156.2660  130.6989  151.1773 LP  0  0  0  0  0  0  0  0  0  0  0  0  # atno 17371 bound_to 10713
  141.0511  134.0484  157.3782 LP  0  0  0  0  0  0  0  0  0  0  0  0  # atno 17394 bound_to 11000
  139.9034  135.0172  156.7373 LP  0  0  0  0  0  0  0  0  0  0  0  0  # atno 17395 bound_to 11000

$$$$
