#       Name:                AV-unprocessed.smi:2271
#       Creating user name   scv26
#       Creation time:       Fri Mar 27 12:37:12 2020


#       File generated by GOLD software.
#

@<TRIPOS>MOLECULE
AV-unprocessed.smi:2271
    51    52     1
SMALL
NO_CHARGES


@<TRIPOS>ATOM
      1 ****        -3.8048   3.2864   2.8230 C.3            1 S1                 0.0000
      2 ****        -3.5309   3.6248   1.3728 C.ar           1 S1                 0.0000
      3 ****        -3.9568   4.8488   0.8209 C.ar           1 S1                 0.0000
      4 ****        -3.6681   5.1020  -0.5320 C.ar           1 S1                 0.0000
      5 ****        -2.9701   4.1283  -1.2719 C.ar           1 S1                 0.0000
      6 ****        -2.5789   2.9253  -0.6422 C.ar           1 S1                 0.0000
      7 ****        -1.8787   2.0100  -1.4725 N.am           1 S1                 0.0000
      8 ****        -1.4006   0.7956  -1.1492 C.2            1 S1                 0.0000
      9 ****        -1.5205   0.2520  -0.0506 O.2            1 S1                 0.0000
     10 ****        -0.7550   0.2353  -2.1832 N.am           1 S1                 0.0000
     11 ****        -0.1155  -1.0777  -2.1703 C.3            1 S1                 0.0000
     12 ****         1.4190  -0.9886  -1.9899 C.3            1 S1                 0.0000
     13 ****         2.0960  -2.3664  -2.1127 C.3            1 S1                 0.0000
     14 ****         1.8529  -3.2499  -0.8745 C.3            1 S1                 0.0000
     15 ****         2.2862  -2.5696   0.3734 N.4            1 S1                 1.0000
     16 ****         2.1661  -3.4517   1.5626 C.3            1 S1                 0.0000
     17 ****         3.0785  -3.0163   2.7225 C.3            1 S1                 0.0000
     18 ****         4.4336  -3.1403   2.3459 O.3            1 S1                 0.0000
     19 ****         1.6142  -1.2546   0.5444 C.3            1 S1                 0.0000
     20 ****         1.8732  -0.3405  -0.6656 C.3            1 S1                 0.0000
     21 ****        -2.8611   2.6909   0.6637 N.ar           1 S1                 0.0000
     22 ****        -4.4568   4.0278   3.2855 H              1 S1                 0.0000
     23 ****        -2.8716   3.2537   3.3856 H              1 S1                 0.0000
     24 ****        -4.2891   2.3126   2.9024 H              1 S1                 0.0000
     25 ****        -4.4897   5.5763   1.4155 H              1 S1                 0.0000
     26 ****        -3.9759   6.0277  -0.9952 H              1 S1                 0.0000
     27 ****        -2.7394   4.3082  -2.3120 H              1 S1                 0.0000
     28 ****        -1.7147   2.3213  -2.4184 H              1 S1                 0.0000
     29 ****        -0.7056   0.7540  -3.0481 H              1 S1                 0.0000
     30 ****        -0.5675  -1.7186  -1.4125 H              1 S1                 0.0000
     31 ****        -0.3392  -1.5509  -3.1267 H              1 S1                 0.0000
     32 ****         1.7942  -0.3675  -2.8047 H              1 S1                 0.0000
     33 ****         1.7515  -2.8788  -3.0116 H              1 S1                 0.0000
     34 ****         3.1704  -2.2264  -2.2401 H              1 S1                 0.0000
     35 ****         0.7996  -3.5222  -0.7968 H              1 S1                 0.0000
     36 ****         2.4078  -4.1814  -0.9925 H              1 S1                 0.0000
     37 ****         1.1254  -3.4799   1.8888 H              1 S1                 0.0000
     38 ****         2.4268  -4.4757   1.2906 H              1 S1                 0.0000
     39 ****         2.8780  -1.9965   3.0483 H              1 S1                 0.0000
     40 ****         2.9058  -3.6594   3.5860 H              1 S1                 0.0000
     41 ****         4.9746  -2.9207   3.0898 H              1 S1                 0.0000
     42 ****         0.5440  -1.4057   0.6893 H              1 S1                 0.0000
     43 ****         1.9806  -0.7548   1.4399 H              1 S1                 0.0000
     44 ****         2.9421  -0.1302  -0.7220 H              1 S1                 0.0000
     45 ****         1.3949   0.6268  -0.5162 H              1 S1                 0.0000
     46 ****         3.2731  -2.3833   0.2626 H              1 S1                 0.0000
     47 ****        -2.0065   0.7191   0.6880 LP             1 S1                 0.0000
     48 ****        -1.1318  -0.6565   0.1027 LP             1 S1                 0.0000
     49 ****         4.6316  -2.5168   1.5895 LP             1 S1                 0.0000
     50 ****         4.6193  -4.0805   2.0601 LP             1 S1                 0.0000
     51 ****        -2.5762   1.8357   1.0966 LP             1 S1                 0.0000
@<TRIPOS>BOND
    1    1    2 1     
    2    1   22 1     
    3    1   23 1     
    4    1   24 1     
    5    2   21 ar    
    6    2    3 ar    
    7    3    4 ar    
    8    3   25 1     
    9    4    5 ar    
   10    4   26 1     
   11    5    6 ar    
   12    5   27 1     
   13    6    7 1     
   14    6   21 ar    
   15    7    8 am    
   16    7   28 1     
   17    8    9 2     
   18    8   10 am    
   19   10   11 1     
   20   10   29 1     
   21   11   12 1     
   22   11   30 1     
   23   11   31 1     
   24   12   20 1     
   25   12   13 1     
   26   12   32 1     
   27   13   14 1     
   28   13   33 1     
   29   13   34 1     
   30   14   15 1     
   31   14   35 1     
   32   14   36 1     
   33   15   16 1     
   34   15   19 1     
   35   15   46 1     
   36   16   17 1     
   37   16   37 1     
   38   16   38 1     
   39   17   18 1     
   40   17   39 1     
   41   17   40 1     
   42   18   41 1     
   43   19   20 1     
   44   19   42 1     
   45   19   43 1     
   46   20   44 1     
   47   20   45 1     
   48    9   47 1     
   49    9   48 1     
   50   18   49 1     
   51   18   50 1     
   52   21   51 1     
@<TRIPOS>SUBSTRUCTURE
      1 S1             1
@<TRIPOS>SET
LONE_PAIRS      STATIC     ATOMS    <user>   **** ""
5 47 48 49 50 51
DONOR_HYDROGENS      STATIC     ATOMS    <user>   **** ""
4 28 29 46 41
ATOM$BLUE        STATIC     ATOMS    COLORGROUP SYSTEM
5 47 48 49 50 51
ATOM$RED        STATIC     ATOMS    COLORGROUP SYSTEM
4 28 29 46 41
