AV-unprocessed.smi:377|AV-procd|sdf|2456|dock2
  -GOLD-   2262022393D 1   1.00000     0.00000
 Structure written by MMmdl.
 33 34  0  0  0  0  0  0  0  0  1 V2000
  154.3414  137.0546  163.6183 C   0  0  0  0  0  0  0  0  0  0  0  0
  153.9311  137.0743  162.1400 C   0  0  0  0  0  0  0  0  0  0  0  0
  154.1596  138.3825  161.5380 N   0  0  0  0  0  0  0  0  0  0  0  0
  153.6431  138.7968  160.3715 C   0  0  0  0  0  0  0  0  0  0  0  0
  152.9088  138.0958  159.6730 O   0  0  0  0  0  0  0  0  0  0  0  0
  154.0212  140.2237  159.9439 C   0  0  0  0  0  0  0  0  0  0  0  0
  152.9338  140.9400  159.2415 N   0  0  0  0  0  0  0  0  0  0  0  0
  152.4980  140.4496  157.9838 C   0  0  0  0  0  0  0  0  0  0  0  0
  152.9912  139.4324  157.4933 O   0  0  0  0  0  0  0  0  0  0  0  0
  151.4567  141.2373  157.3281 C   0  0  0  0  0  0  0  0  0  0  0  0
  151.0146  140.7943  156.0475 C   0  0  0  0  0  0  0  0  0  0  0  0
  150.6628  140.4111  155.0136 N   0  0  0  0  0  0  0  0  0  0  0  0
  150.9456  142.3391  157.9148 C   0  0  0  0  0  0  0  0  0  0  0  0
  151.3553  142.7760  159.1558 N   0  0  0  0  0  0  0  0  0  0  0  0
  150.9162  144.0334  159.6917 C   0  0  0  0  0  0  0  0  0  0  0  0
  151.0483  145.2992  158.8673 C   0  0  0  0  0  0  0  0  0  0  0  0
  151.9480  145.0781  160.0585 C   0  0  0  0  0  0  0  0  0  0  0  0
  152.4029  142.1129  159.8310 C   0  0  0  0  0  0  0  0  0  0  0  0
  152.8505  142.5464  160.8959 O   0  0  0  0  0  0  0  0  0  0  0  0
  154.2010  136.0614  164.0452 H   0  0  0  0  0  0  0  0  0  0  0  0
  153.7461  137.7545  164.2059 H   0  0  0  0  0  0  0  0  0  0  0  0
  155.3912  137.3231  163.7393 H   0  0  0  0  0  0  0  0  0  0  0  0
  154.5165  136.3396  161.5868 H   0  0  0  0  0  0  0  0  0  0  0  0
  152.8853  136.7833  162.0307 H   0  0  0  0  0  0  0  0  0  0  0  0
  154.7537  139.0209  162.0471 H   0  0  0  0  0  0  0  0  0  0  0  0
  154.3431  140.7750  160.8288 H   0  0  0  0  0  0  0  0  0  0  0  0
  154.9184  140.1732  159.3246 H   0  0  0  0  0  0  0  0  0  0  0  0
  150.1812  142.9001  157.3963 H   0  0  0  0  0  0  0  0  0  0  0  0
  150.0435  143.9814  160.3405 H   0  0  0  0  0  0  0  0  0  0  0  0
  151.5036  145.2268  157.8815 H   0  0  0  0  0  0  0  0  0  0  0  0
  150.2597  146.0426  158.9624 H   0  0  0  0  0  0  0  0  0  0  0  0
  151.7611  145.6777  160.9470 H   0  0  0  0  0  0  0  0  0  0  0  0
  152.9949  144.8588  159.8571 H   0  0  0  0  0  0  0  0  0  0  0  0
  1  2  1  0  0  0  0
  1 20  1  0  0  0  0
  1 21  1  0  0  0  0
  1 22  1  0  0  0  0
  2  3  1  0  0  0  0
  2 23  1  0  0  0  0
  2 24  1  0  0  0  0
  3  4  1  0  0  0  0
  3 25  1  0  0  0  0
  4  5  2  0  0  0  0
  4  6  1  0  0  0  0
  6  7  1  0  0  0  0
  6 26  1  0  0  0  0
  6 27  1  0  0  0  0
  7 18  1  0  0  0  0
  7  8  1  0  0  0  0
  8  9  2  0  0  0  0
  8 10  1  0  0  0  0
 10 11  1  0  0  0  0
 10 13  2  0  0  0  0
 11 12  3  0  0  0  0
 13 14  1  0  0  0  0
 13 28  1  0  0  0  0
 14 15  1  0  0  0  0
 14 18  1  0  0  0  0
 15 17  1  0  0  0  0
 15 16  1  0  0  0  0
 15 29  1  0  0  0  0
 16 17  1  0  0  0  0
 16 30  1  0  0  0  0
 16 31  1  0  0  0  0
 17 32  1  0  0  0  0
 17 33  1  0  0  0  0
 18 19  2  0  0  0  0
M  END
> <s_m_source_file>
AV-unprocessed.smi

> <i_m_source_file_index>
377

> <i_lp_mmshare_version>
43012

> <i_f3d_flags>
0

> <s_epik_input>
W0NIM11bQ0gyXVtOSF1DKD1PKVtDSDJdbjFjKD1PKWMoQyNOKVtjSF1uKGMxPU8pW0NIXTJbQ0gyXVtDSDJdMg==

> <s_epik_cmdline>
J2VwaWtfcHl0aG9uJywgJy1waCcsICc3LjAnLCAnLXRuJywgJzgnLCAnLW1hJywgJzIwMCcsICctbWV0YWxfYmluZGluZycsICctaW1hZScsICc8aW5maWxlLm1hZT4nLCAnLW9tYWUnLCAnPG91dGZpbGUubWFlPic=

> <r_lp_tautomer_probability>
1

> <r_epik_Ionization_Penalty>
1.81858e-08

> <r_epik_Ionization_Penalty_Charging>
8.22213e-11

> <r_epik_Ionization_Penalty_Neutral>
1.81036e-08

> <r_epik_State_Penalty>
-0

> <r_epik_Charging_Adjusted_Penalty>
8.22213e-11

> <i_epik_Tot_Q>
0

> <i_epik_Tot_abs_Q>
0

> <r_epik_Metal_State_Penalty>
-0

> <b_epik_Metal_Only>
0

> <s_lp_Force_Field>
OPLS_2005

> <r_lp_Energy>
28.0616

> <b_lp_Chiralities_Consistent>
1

> <s_lp_Variant>
AV-unprocessed.smi:377-1

> <Gold.Version>
5.8.1

> <Gold.Id.Protein>
6NUR|6NUR_protein|mol2

> <Gold.PLP.Fitness>
46.0289

> <Gold.PLP.PLP>
-40.0718

> <Gold.PLP.part.hbond>
-2.0000

> <Gold.PLP.part.metal>
0.0000

> <Gold.PLP.part.buried>
-5.8918

> <Gold.PLP.part.nonpolar>
-31.5793

> <Gold.PLP.part.repulsive>
0.0973

> <Gold.PLP.ligand.clash>
0.0000

> <Gold.PLP.ligand.torsion>
0.5637

> <Gold.PLP.Chemscore.Hbond>
2.0000

> <Gold.PLP.Chemscore.CHOScore>
0.2871

> <Gold.PLP.Chemscore.Metal>
0.0000

> <Gold.Chemscore.Hbonds>
donor molecule, donor type, donor heavy atom, donor atom, acceptor molecule, acceptor atom, score
      P1  H  7989  7998       L1    12  1.00
      P1  H  7997  8009       L1     9  1.00
      L1  C    13    28       P1  8028  0.27

> <Gold.PLP.Chemscore.Internal.Correction>
0.2233

> <Gold.Rescore>
     Score         DG    S(hbond)    S(metal)    S(lipo)     H(rot)  DE(clash)    DE(int)     intcor
     12.19     -14.38       1.76        0.00      67.30       1.89       0.02       2.17       ----

> <Gold.Chemscore.Fitness>
12.1922

> <Gold.Chemscore.DG>
-14.3838

> <Gold.Chemscore.ZeroCoef>
-5.4800

> <Gold.Chemscore.Hbond>
1.7575

> <Gold.Chemscore.Metal>
0.0000

> <Gold.Chemscore.Lipo>
67.3005

> <Gold.Chemscore.Internal_Hbond>
0.0000

> <Gold.Chemscore.DEClash>
0.0223

> <Gold.Chemscore.DEInternal>
2.1693

> <Gold.Chemscore.Rot>
1.8908

> <Gold.Chemscore.Internal.Correction>
   9.000000E+99

> <Gold.Chemscore.Hbonds>
donor molecule, donor type, donor heavy atom, donor atom, acceptor molecule, acceptor atom, score
      P1  H  7989  7998       L1    12  0.94
      P1  H  7997  8009       L1     9  0.33

> <Gold.Chemscore.Hbond.Weighted>
-5.8702

> <Gold.Chemscore.Metal.Weighted>
-0.0000

> <Gold.Chemscore.Lipo.Weighted>
-7.8742

> <Gold.Chemscore.Internal_Hbond.Weighted>
0.0000

> <Gold.Chemscore.DEClash.Weighted>
0.0223

> <Gold.Chemscore.DEInternal.Weighted>
2.1693

> <Gold.Chemscore.Rot.Weighted>
4.8406

> <Gold.Chemscore.Internal.Correction.Weighted>
   9.000000E+99

> <Gold.Protein.RotatedTorsions>
[ 6907 6896 6895 6894 ] final   81.16 input  -60.11 | X-H torsion
[ 7974 7965 7964 7962 ] final -160.43 input  175.53 | X-H torsion
[ 8008 7997 7996 7995 ] final -171.82 input   59.86 | X-H torsion
[ 10167 10162 10161 10158 ] final   92.75 input  -65.29 | X-H torsion
[ 10718 10713 10712 10709 ] final -145.37 input   66.30 | X-H torsion
[ 10763 10752 10751 10750 ] final   14.80 input  -60.55 | X-H torsion
[ 11005 11000 10999 10996 ] final  -72.70 input  -57.11 | X-H torsion

> <Gold.Protein.ActiveResidues>
 VAL166  LYS551  ARG553  GLY616  TRP617  ASP618  TYR619  PRO620  LYS621  CYS622 
 ASP623  PHE694  ASN695  SER759  ASP760  ASP761  ALA762  ILE779  LEU786  VAL792 
 PHE793  MET794  SER795  GLU796  ALA797  LYS798  CYS799  TRP800  GLU811  SER814 

> <Gold.Protein.RotatedAtoms>
  152.5259  134.3247  159.9160 H   0  0  0  0  0  0  0  0  0  0  0  0  # atno 6907 bound_to 6896
  151.3196  133.4039  159.2661 H   0  0  0  0  0  0  0  0  0  0  0  0  # atno 6908 bound_to 6896
  150.9970  134.9308  159.7989 H   0  0  0  0  0  0  0  0  0  0  0  0  # atno 6909 bound_to 6896
  144.7427  140.3542  143.6109 H   0  0  0  0  0  0  0  0  0  0  0  0  # atno 7974 bound_to 7965
  155.9365  140.1101  157.1090 H   0  0  0  0  0  0  0  0  0  0  0  0  # atno 8008 bound_to 7997
  154.4081  140.1227  156.4936 H   0  0  0  0  0  0  0  0  0  0  0  0  # atno 8009 bound_to 7997
  155.7015  140.3472  155.4937 H   0  0  0  0  0  0  0  0  0  0  0  0  # atno 8010 bound_to 7997
  139.8246  144.6715  150.9475 H   0  0  0  0  0  0  0  0  0  0  0  0  # atno 10167 bound_to 10162
  156.3816  130.7840  151.2033 H   0  0  0  0  0  0  0  0  0  0  0  0  # atno 10718 bound_to 10713
  153.1587  135.6792  153.8775 H   0  0  0  0  0  0  0  0  0  0  0  0  # atno 10763 bound_to 10752
  153.8178  135.3134  155.3408 H   0  0  0  0  0  0  0  0  0  0  0  0  # atno 10764 bound_to 10752
  154.7916  135.4831  154.0154 H   0  0  0  0  0  0  0  0  0  0  0  0  # atno 10765 bound_to 10752
  141.1612  133.6855  156.7099 H   0  0  0  0  0  0  0  0  0  0  0  0  # atno 11005 bound_to 11000
  145.7245  139.1719  143.2466 LP  0  0  0  0  0  0  0  0  0  0  0  0  # atno 17320 bound_to 7965
  146.1253  140.7257  142.9438 LP  0  0  0  0  0  0  0  0  0  0  0  0  # atno 17321 bound_to 7965
  140.7811  143.4058  151.1073 LP  0  0  0  0  0  0  0  0  0  0  0  0  # atno 17342 bound_to 10162
  139.7716  143.8486  152.3121 LP  0  0  0  0  0  0  0  0  0  0  0  0  # atno 17343 bound_to 10162
  157.7493  131.0342  150.4308 LP  0  0  0  0  0  0  0  0  0  0  0  0  # atno 17370 bound_to 10713
  156.4552  130.4020  149.6610 LP  0  0  0  0  0  0  0  0  0  0  0  0  # atno 17371 bound_to 10713
  140.2895  134.8252  157.4004 LP  0  0  0  0  0  0  0  0  0  0  0  0  # atno 17394 bound_to 11000
  140.1359  134.5034  155.8068 LP  0  0  0  0  0  0  0  0  0  0  0  0  # atno 17395 bound_to 11000

$$$$
