#       Name:                AV-unprocessed.smi:41
#       Creating user name   scv26
#       Creation time:       Thu Mar 26 16:24:32 2020


#       File generated by GOLD software.
#

@<TRIPOS>MOLECULE
AV-unprocessed.smi:41
    33    34     1
SMALL
NO_CHARGES


@<TRIPOS>ATOM
      1 ****        -4.6671   1.0115  -0.3013 N.pl3          1 S1                 0.0000
      2 ****        -3.3363   0.9347  -0.1561 C.2            1 S1                 0.0000
      3 ****        -2.5881   1.9415  -0.5634 N.2            1 S1                 0.0000
      4 ****        -1.2217   1.9544  -0.4585 C.2            1 S1                 0.0000
      5 ****        -0.5753   2.9140  -0.8769 O.2            1 S1                 0.0000
      6 ****        -0.5998   0.8329   0.1471 N.am           1 S1                 0.0000
      7 ****         0.8556   0.7405   0.2292 C.3            1 S1                 0.0000
      8 ****         1.3902   0.3730   1.6315 C.3            1 S1                 0.0000
      9 ****         2.9995  -0.3974   1.3825 S.3            1 S1                 0.0000
     10 ****         2.6839  -0.4377  -0.3977 C.3            1 S1                 0.0000
     11 ****         3.1398  -1.7399  -1.0764 C.3            1 S1                 0.0000
     12 ****         2.6764  -2.8792  -0.3799 O.3            1 S1                 0.0000
     13 ****         1.3100  -0.2202  -0.6691 O.3            1 S1                 0.0000
     14 ****        -1.3800  -0.2447   0.5483 C.2            1 S1                 0.0000
     15 ****        -2.7248  -0.2363   0.4288 C.2            1 S1                 0.0000
     16 ****        -3.4631  -1.2848   0.8320 F              1 S1                 0.0000
     17 ****         1.3071   1.6865  -0.0748 H              1 S1                 0.0000
     18 ****         3.2314   0.3964  -0.8396 H              1 S1                 0.0000
     19 ****        -5.2505   0.2443   0.0005 H              1 S1                 0.0000
     20 ****        -5.0826   1.8346  -0.7129 H              1 S1                 0.0000
     21 ****         1.4607   1.2649   2.2541 H              1 S1                 0.0000
     22 ****         0.7511  -0.3476   2.1372 H              1 S1                 0.0000
     23 ****         2.7980  -1.7766  -2.1112 H              1 S1                 0.0000
     24 ****         4.2291  -1.7825  -1.0979 H              1 S1                 0.0000
     25 ****         2.9769  -3.6517  -0.8335 H              1 S1                 0.0000
     26 ****        -0.9195  -1.1314   0.9581 H              1 S1                 0.0000
     27 ****        -3.0407   2.7356  -0.9693 LP             1 S1                 0.0000
     28 ****        -1.0468   3.6899  -1.2961 LP             1 S1                 0.0000
     29 ****         0.4215   2.9181  -0.7978 LP             1 S1                 0.0000
     30 ****         1.6768  -2.8729  -0.3505 LP             1 S1                 0.0000
     31 ****         3.0372  -2.8741   0.5527 LP             1 S1                 0.0000
     32 ****         1.1944   0.1070  -1.6070 LP             1 S1                 0.0000
     33 ****         0.7986  -1.0709  -0.5475 LP             1 S1                 0.0000
@<TRIPOS>BOND
    1    1    2 1     
    2    1   19 1     
    3    1   20 1     
    4    2   15 1     
    5    2    3 2     
    6    3    4 1     
    7    4    5 2     
    8    4    6 am    
    9    6    7 1     
   10    6   14 1     
   11    7   17 1     
   12    7   13 1     
   13    7    8 1     
   14    8    9 1     
   15    8   21 1     
   16    8   22 1     
   17    9   10 1     
   18   10   18 1     
   19   10   11 1     
   20   10   13 1     
   21   11   12 1     
   22   11   23 1     
   23   11   24 1     
   24   12   25 1     
   25   14   15 2     
   26   14   26 1     
   27   15   16 1     
   28    3   27 1     
   29    5   28 1     
   30    5   29 1     
   31   12   30 1     
   32   12   31 1     
   33   13   32 1     
   34   13   33 1     
@<TRIPOS>SUBSTRUCTURE
      1 S1             1
@<TRIPOS>SET
LONE_PAIRS      STATIC     ATOMS    <user>   **** ""
7 27 28 29 30 31 32 33
DONOR_HYDROGENS      STATIC     ATOMS    <user>   **** ""
3 19 20 25
ATOM$BLUE        STATIC     ATOMS    COLORGROUP SYSTEM
7 27 28 29 30 31 32 33
ATOM$RED        STATIC     ATOMS    COLORGROUP SYSTEM
3 19 20 25
