AV-unprocessed.smi:34|AV-procd|sdf|244|dock8
  -GOLD-   2262016 03D 1   1.00000     0.00000
 Structure written by MMmdl.
 54 58  0  0  0  0  0  0  0  0  2 V2000
  152.5716  139.0331  159.1458 O   0  0  0  0  0  0  0  0  0  0  0  0
  152.5253  139.9208  158.2915 C   0  0  0  0  0  0  0  0  0  0  0  0
  152.7278  139.7995  156.9548 N   0  5  0  0  0  0  0  0  0  0  0  0
  151.7841  139.2413  156.1809 C   0  0  0  0  0  0  0  0  0  0  0  0
  152.0879  138.8343  154.9218 N   0  0  0  0  0  0  0  0  0  0  0  0
  151.1499  138.2805  154.1442 C   0  0  0  0  0  0  0  0  0  0  0  0
  149.8630  138.0436  154.4179 N   0  0  0  0  0  0  0  0  0  0  0  0
  149.5451  138.4550  155.6797 C   0  0  0  0  0  0  0  0  0  0  0  0
  150.4388  139.0621  156.6080 C   0  0  0  0  0  0  0  0  0  0  0  0
  149.7836  139.3591  157.7943 N   0  0  0  0  0  0  0  0  0  0  0  0
  148.5528  138.9174  157.5416 C   0  0  0  0  0  0  0  0  0  0  0  0
  148.3253  138.3758  156.3265 N   0  0  0  0  0  0  0  0  0  0  0  0
  147.0722  137.7888  155.7614 C   0  0  1  0  0  0  0  0  0  0  0  0
  146.7856  136.6065  156.4563 O   0  0  0  0  0  0  0  0  0  0  0  0
  145.5606  136.7239  157.1782 C   0  0  1  0  0  0  0  0  0  0  0  0
  145.8373  137.0842  158.6464 C   0  0  0  0  0  0  0  0  0  0  0  0
  146.7881  136.1737  159.1742 O   0  0  0  0  0  0  0  0  0  0  0  0
  146.9390  136.0478  160.5067 C   0  0  0  0  0  0  0  0  0  0  0  0
  146.5268  136.8760  161.3212 O   0  0  0  0  0  0  0  0  0  0  0  0
  147.6579  134.7992  160.8926 C   0  0  0  0  0  0  0  0  0  0  0  0
  147.9254  134.5468  162.2585 C   0  0  0  0  0  0  0  0  0  0  0  0
  148.6047  133.3775  162.6524 C   0  0  0  0  0  0  0  0  0  0  0  0
  149.0260  132.4465  161.6852 C   0  0  0  0  0  0  0  0  0  0  0  0
  148.7665  132.6861  160.3233 C   0  0  0  0  0  0  0  0  0  0  0  0
  148.0864  133.8545  159.9274 C   0  0  0  0  0  0  0  0  0  0  0  0
  144.7903  137.7969  156.4117 C   0  0  2  0  0  0  0  0  0  0  0  0
  144.2244  137.2074  155.3549 F   0  0  0  0  0  0  0  0  0  0  0  0
  145.8952  138.7493  155.9827 C   0  0  2  0  0  0  0  0  0  0  0  0
  145.5195  139.4638  154.8227 O   0  0  0  0  0  0  0  0  0  0  0  0
  152.2800  141.3396  158.7328 C   0  0  0  0  0  0  0  0  0  0  0  0
  151.3458  142.1384  158.0341 C   0  0  0  0  0  0  0  0  0  0  0  0
  151.1218  143.4768  158.4116 C   0  0  0  0  0  0  0  0  0  0  0  0
  151.8352  144.0341  159.4890 C   0  0  0  0  0  0  0  0  0  0  0  0
  152.7763  143.2534  160.1852 C   0  0  0  0  0  0  0  0  0  0  0  0
  153.0026  141.9156  159.8065 C   0  0  0  0  0  0  0  0  0  0  0  0
  151.4790  137.9835  153.1595 H   0  0  0  0  0  0  0  0  0  0  0  0
  147.7776  138.9893  158.2894 H   0  0  0  0  0  0  0  0  0  0  0  0
  147.2967  137.5753  154.7152 H   0  0  0  0  0  0  0  0  0  0  0  0
  145.0411  135.7651  157.1432 H   0  0  0  0  0  0  0  0  0  0  0  0
  146.2467  138.0934  158.7056 H   0  0  0  0  0  0  0  0  0  0  0  0
  144.9201  137.0672  159.2361 H   0  0  0  0  0  0  0  0  0  0  0  0
  147.6119  135.2473  163.0192 H   0  0  0  0  0  0  0  0  0  0  0  0
  148.8030  133.1953  163.6984 H   0  0  0  0  0  0  0  0  0  0  0  0
  149.5477  131.5503  161.9871 H   0  0  0  0  0  0  0  0  0  0  0  0
  149.0898  131.9728  159.5795 H   0  0  0  0  0  0  0  0  0  0  0  0
  147.9048  134.0073  158.8736 H   0  0  0  0  0  0  0  0  0  0  0  0
  143.9979  138.2743  156.9894 H   0  0  0  0  0  0  0  0  0  0  0  0
  146.1277  139.4426  156.7929 H   0  0  0  0  0  0  0  0  0  0  0  0
  144.8083  139.0014  154.4048 H   0  0  0  0  0  0  0  0  0  0  0  0
  150.7909  141.7273  157.2033 H   0  0  0  0  0  0  0  0  0  0  0  0
  150.4032  144.0760  157.8724 H   0  0  0  0  0  0  0  0  0  0  0  0
  151.6640  145.0603  159.7782 H   0  0  0  0  0  0  0  0  0  0  0  0
  153.3290  143.6809  161.0084 H   0  0  0  0  0  0  0  0  0  0  0  0
  153.7392  141.3390  160.3471 H   0  0  0  0  0  0  0  0  0  0  0  0
  1  2  2  0  0  0  0
  2  3  1  0  0  0  0
  2 30  1  0  0  0  0
  3  4  1  0  0  0  0
  4  9  1  0  0  0  0
  4  5  2  0  0  0  0
  5  6  1  0  0  0  0
  6  7  2  0  0  0  0
  6 36  1  0  0  0  0
  7  8  1  0  0  0  0
  8 12  1  0  0  0  0
  8  9  2  0  0  0  0
  9 10  1  0  0  0  0
 10 11  2  0  0  0  0
 11 12  1  0  0  0  0
 11 37  1  0  0  0  0
 12 13  1  0  0  0  0
 13 28  1  0  0  0  0
 13 14  1  0  0  0  0
 13 38  1  0  0  0  0
 14 15  1  0  0  0  0
 15 16  1  0  0  0  0
 15 26  1  0  0  0  0
 15 39  1  0  0  0  0
 16 17  1  0  0  0  0
 16 40  1  0  0  0  0
 16 41  1  0  0  0  0
 17 18  1  0  0  0  0
 18 19  2  0  0  0  0
 18 20  1  0  0  0  0
 20 25  1  0  0  0  0
 20 21  2  0  0  0  0
 21 22  1  0  0  0  0
 21 42  1  0  0  0  0
 22 23  2  0  0  0  0
 22 43  1  0  0  0  0
 23 24  1  0  0  0  0
 23 44  1  0  0  0  0
 24 25  2  0  0  0  0
 24 45  1  0  0  0  0
 25 46  1  0  0  0  0
 26 27  1  0  0  0  0
 26 28  1  0  0  0  0
 26 47  1  0  0  0  0
 28 29  1  0  0  0  0
 28 48  1  0  0  0  0
 29 49  1  0  0  0  0
 30 35  1  0  0  0  0
 30 31  2  0  0  0  0
 31 32  1  0  0  0  0
 31 50  1  0  0  0  0
 32 33  2  0  0  0  0
 32 51  1  0  0  0  0
 33 34  1  0  0  0  0
 33 52  1  0  0  0  0
 34 35  2  0  0  0  0
 34 53  1  0  0  0  0
 35 54  1  0  0  0  0
M  CHG  1   3  -1
M  END
> <s_m_source_file>
AV-unprocessed.smi

> <i_m_source_file_index>
34

> <i_lp_mmshare_version>
43012

> <i_f3d_flags>
0

> <s_epik_input>
W2NIXTFbY0hdW2NIXVtjSF1bY0hdYzFDKD1PKVtOSF1jKG5bY0hdbjIpYyhjMjMpbltjSF1uM1tDQEBIXTRPW0NASF0oW0NAQEhdKEYpW0NASF00W09IXSlbQ0gyXU9DKD1PKWM1W2NIXVtjSF1bY0hdW2NIXVtjSF01

> <s_epik_cmdline>
J2VwaWtfcHl0aG9uJywgJy1waCcsICc3LjAnLCAnLXRuJywgJzgnLCAnLW1hJywgJzIwMCcsICctbWV0YWxfYmluZGluZycsICctaW1hZScsICc8aW5maWxlLm1hZT4nLCAnLW9tYWUnLCAnPG91dGZpbGUubWFlPic=

> <r_lp_tautomer_probability>
1

> <r_epik_Ionization_Penalty>
4.33227

> <r_epik_Ionization_Penalty_Charging>
3.41027

> <r_epik_Ionization_Penalty_Neutral>
0.922001

> <r_epik_State_Penalty>
3.41358

> <r_epik_Charging_Adjusted_Penalty>
6.82385

> <i_epik_Tot_Q>
-1

> <i_epik_Tot_abs_Q>
1

> <r_epik_Metal_State_Penalty>
0.496292

> <b_epik_Metal_Only>
1

> <s_epik_Chemistry_Notes>
This compound has an ester and may undergo hydrolysis at high or low pH. This compound contains an acetal/aminal-like group ( X-CH(R)-Y where X, Y are N, S, or O) that may be acid/base labile, releasing an aldehyde.

> <s_lp_Force_Field>
OPLS_2005

> <r_lp_Energy>
49.0999

> <b_lp_Chiralities_Consistent>
1

> <s_lp_Variant>
AV-unprocessed.smi:34-30

> <Gold.Version>
5.8.1

> <Gold.Id.Protein>
6NUR|6NUR_protein|mol2

> <Gold.PLP.Fitness>
58.4783

> <Gold.PLP.PLP>
-48.7108

> <Gold.PLP.part.hbond>
-2.8703

> <Gold.PLP.part.metal>
0.0000

> <Gold.PLP.part.buried>
-7.2602

> <Gold.PLP.part.nonpolar>
-38.2067

> <Gold.PLP.part.repulsive>
0.2586

> <Gold.PLP.ligand.clash>
0.0000

> <Gold.PLP.ligand.torsion>
2.1061

> <Gold.PLP.Chemscore.Hbond>
3.5360

> <Gold.PLP.Chemscore.CHOScore>
1.0000

> <Gold.PLP.Chemscore.Metal>
0.0000

> <Gold.Chemscore.Hbonds>
donor molecule, donor type, donor heavy atom, donor atom, acceptor molecule, acceptor atom, score
      P1  H  6934  6947       L1    19  0.39
      P1  H  7997  8008       L1     3  2.00
      L1  C     6    36       P1  7949  0.79

> <Gold.PLP.Chemscore.Internal.Correction>
0.3717

> <Gold.Rescore>
     Score         DG    S(hbond)    S(metal)    S(lipo)     H(rot)  DE(clash)    DE(int)     intcor
     16.77     -20.26       2.78        0.00     105.93       2.69       0.05       3.44       ----

> <Gold.Chemscore.Fitness>
16.7740

> <Gold.Chemscore.DG>
-20.2584

> <Gold.Chemscore.ZeroCoef>
-5.4800

> <Gold.Chemscore.Hbond>
2.7792

> <Gold.Chemscore.Metal>
0.0000

> <Gold.Chemscore.Lipo>
105.9266

> <Gold.Chemscore.Internal_Hbond>
0.0000

> <Gold.Chemscore.DEClash>
0.0489

> <Gold.Chemscore.DEInternal>
3.4355

> <Gold.Chemscore.Rot>
2.6944

> <Gold.Chemscore.Internal.Correction>
   9.000000E+99

> <Gold.Chemscore.Hbonds>
donor molecule, donor type, donor heavy atom, donor atom, acceptor molecule, acceptor atom, score
      P1  H  6934  6947       L1    19  0.36
      P1  H  7997  8008       L1     3  0.85

> <Gold.Chemscore.Hbond.Weighted>
-9.2826

> <Gold.Chemscore.Metal.Weighted>
-0.0000

> <Gold.Chemscore.Lipo.Weighted>
-12.3934

> <Gold.Chemscore.Internal_Hbond.Weighted>
0.0000

> <Gold.Chemscore.DEClash.Weighted>
0.0489

> <Gold.Chemscore.DEInternal.Weighted>
3.4355

> <Gold.Chemscore.Rot.Weighted>
6.8975

> <Gold.Chemscore.Internal.Correction.Weighted>
   9.000000E+99

> <Gold.Protein.RotatedTorsions>
[ 6907 6896 6895 6894 ] final  138.47 input  -60.11 | X-H torsion
[ 7974 7965 7964 7962 ] final   15.62 input  175.53 | X-H torsion
[ 8008 7997 7996 7995 ] final  -51.53 input   59.86 | X-H torsion
[ 10167 10162 10161 10158 ] final -129.93 input  -65.29 | X-H torsion
[ 10718 10713 10712 10709 ] final -136.62 input   66.30 | X-H torsion
[ 10763 10752 10751 10750 ] final  -47.92 input  -60.55 | X-H torsion
[ 11005 11000 10999 10996 ] final  105.74 input  -57.11 | X-H torsion

> <Gold.Protein.ActiveResidues>
 VAL166  LYS551  ARG553  GLY616  TRP617  ASP618  TYR619  PRO620  LYS621  CYS622 
 ASP623  PHE694  ASN695  SER759  ASP760  ASP761  ALA762  ILE779  LEU786  VAL792 
 PHE793  MET794  SER795  GLU796  ALA797  LYS798  CYS799  TRP800  GLU811  SER814 

> <Gold.Protein.RotatedAtoms>
  152.2662  133.5341  159.5411 H   0  0  0  0  0  0  0  0  0  0  0  0  # atno 6907 bound_to 6896
  150.7142  134.0761  159.3890 H   0  0  0  0  0  0  0  0  0  0  0  0  # atno 6908 bound_to 6896
  151.8678  135.0501  160.0527 H   0  0  0  0  0  0  0  0  0  0  0  0  # atno 6909 bound_to 6896
  146.2273  139.8867  142.8561 H   0  0  0  0  0  0  0  0  0  0  0  0  # atno 7974 bound_to 7965
  154.4085  140.1245  156.4844 H   0  0  0  0  0  0  0  0  0  0  0  0  # atno 8008 bound_to 7997
  155.7052  140.3494  155.4930 H   0  0  0  0  0  0  0  0  0  0  0  0  # atno 8009 bound_to 7997
  155.9349  140.1076  157.1092 H   0  0  0  0  0  0  0  0  0  0  0  0  # atno 8010 bound_to 7997
  139.9346  143.6232  152.2520 H   0  0  0  0  0  0  0  0  0  0  0  0  # atno 10167 bound_to 10162
  156.2791  130.7310  151.1302 H   0  0  0  0  0  0  0  0  0  0  0  0  # atno 10718 bound_to 10713
  154.0693  135.6607  153.4822 H   0  0  0  0  0  0  0  0  0  0  0  0  # atno 10763 bound_to 10752
  153.0397  135.5153  154.7582 H   0  0  0  0  0  0  0  0  0  0  0  0  # atno 10764 bound_to 10752
  154.6643  135.3020  154.9793 H   0  0  0  0  0  0  0  0  0  0  0  0  # atno 10765 bound_to 10752
  139.8805  134.9346  156.5560 H   0  0  0  0  0  0  0  0  0  0  0  0  # atno 11005 bound_to 11000
  145.2458  141.0026  143.3909 LP  0  0  0  0  0  0  0  0  0  0  0  0  # atno 17320 bound_to 7965
  144.9415  139.4184  143.6447 LP  0  0  0  0  0  0  0  0  0  0  0  0  # atno 17321 bound_to 7965
  139.6754  144.7659  151.1706 LP  0  0  0  0  0  0  0  0  0  0  0  0  # atno 17342 bound_to 10162
  140.7628  143.5803  150.8902 LP  0  0  0  0  0  0  0  0  0  0  0  0  # atno 17343 bound_to 10162
  157.7309  131.0613  150.5706 LP  0  0  0  0  0  0  0  0  0  0  0  0  # atno 17370 bound_to 10713
  156.5810  130.4304  149.5977 LP  0  0  0  0  0  0  0  0  0  0  0  0  # atno 17371 bound_to 10713
  140.8205  133.8357  155.8891 LP  0  0  0  0  0  0  0  0  0  0  0  0  # atno 17394 bound_to 11000
  140.9423  134.1885  157.4789 LP  0  0  0  0  0  0  0  0  0  0  0  0  # atno 17395 bound_to 11000

$$$$
