AV-unprocessed.smi:2275|AV-procd|sdf|9171|dock8
  -GOLD-   2272012383D 1   1.00000     0.00000
 Structure written by MMmdl.
 38 39  0  0  0  0  0  0  0  0  1 V2000
  157.9421  136.7773  162.5049 C   0  0  0  0  0  0  0  0  0  0  0  0
  156.5656  136.9612  161.8908 C   0  0  0  0  0  0  0  0  0  0  0  0
  156.0012  138.2312  162.0426 N   0  0  0  0  0  0  0  0  0  0  0  0
  154.8339  138.4816  161.5459 C   0  0  0  0  0  0  0  0  0  0  0  0
  154.1063  137.5067  160.8449 N   0  0  0  0  0  0  0  0  0  0  0  0
  152.7948  137.9230  160.3222 C   0  0  0  0  0  0  0  0  0  0  0  0
  152.9175  139.0584  159.2813 C   0  0  1  0  0  0  0  0  0  0  0  0
  151.8171  139.0343  158.3950 O   0  0  0  0  0  0  0  0  0  0  0  0
  152.9748  140.4569  159.9181 C   0  0  0  0  0  0  0  0  0  0  0  0
  152.2969  141.3943  159.0899 O   0  0  0  0  0  0  0  0  0  0  0  0
  152.0674  142.6594  159.5862 C   0  0  0  0  0  0  0  0  0  0  0  0
  151.2980  143.5296  158.7864 C   0  0  0  0  0  0  0  0  0  0  0  0
  151.0136  144.8406  159.2142 C   0  0  0  0  0  0  0  0  0  0  0  0
  151.4982  145.2962  160.4539 C   0  0  0  0  0  0  0  0  0  0  0  0
  152.2675  144.4391  161.2624 C   0  0  0  0  0  0  0  0  0  0  0  0
  152.5523  143.1277  160.8339 C   0  0  0  0  0  0  0  0  0  0  0  0
  154.5730  136.2364  160.6703 C   0  0  0  0  0  0  0  0  0  0  0  0
  153.9123  135.3800  160.0794 O   0  0  0  0  0  0  0  0  0  0  0  0
  155.9064  135.9687  161.2330 C   0  0  0  0  0  0  0  0  0  0  0  0
  156.4709  134.5674  161.0354 C   0  0  0  0  0  0  0  0  0  0  0  0
  158.6740  136.5344  161.7345 H   0  0  0  0  0  0  0  0  0  0  0  0
  157.9282  135.9729  163.2407 H   0  0  0  0  0  0  0  0  0  0  0  0
  158.2770  137.6841  163.0101 H   0  0  0  0  0  0  0  0  0  0  0  0
  154.3458  139.4531  161.6420 H   0  0  0  0  0  0  0  0  0  0  0  0
  152.2319  137.0826  159.9101 H   0  0  0  0  0  0  0  0  0  0  0  0
  152.1838  138.2652  161.1595 H   0  0  0  0  0  0  0  0  0  0  0  0
  153.8203  138.9289  158.6829 H   0  0  0  0  0  0  0  0  0  0  0  0
  151.1041  139.5115  158.7916 H   0  0  0  0  0  0  0  0  0  0  0  0
  152.4787  140.4151  160.8892 H   0  0  0  0  0  0  0  0  0  0  0  0
  154.0103  140.7577  160.0884 H   0  0  0  0  0  0  0  0  0  0  0  0
  150.9218  143.1881  157.8332 H   0  0  0  0  0  0  0  0  0  0  0  0
  150.4237  145.4961  158.5907 H   0  0  0  0  0  0  0  0  0  0  0  0
  151.2809  146.3015  160.7839 H   0  0  0  0  0  0  0  0  0  0  0  0
  152.6404  144.7879  162.2141 H   0  0  0  0  0  0  0  0  0  0  0  0
  153.1450  142.5004  161.4820 H   0  0  0  0  0  0  0  0  0  0  0  0
  155.8204  133.8304  161.5073 H   0  0  0  0  0  0  0  0  0  0  0  0
  157.4679  134.4426  161.4548 H   0  0  0  0  0  0  0  0  0  0  0  0
  156.5320  134.3333  159.9721 H   0  0  0  0  0  0  0  0  0  0  0  0
  1  2  1  0  0  0  0
  1 21  1  0  0  0  0
  1 22  1  0  0  0  0
  1 23  1  0  0  0  0
  2 19  2  0  0  0  0
  2  3  1  0  0  0  0
  3  4  2  0  0  0  0
  4  5  1  0  0  0  0
  4 24  1  0  0  0  0
  5  6  1  0  0  0  0
  5 17  1  0  0  0  0
  6  7  1  0  0  0  0
  6 25  1  0  0  0  0
  6 26  1  0  0  0  0
  7  8  1  0  0  0  0
  7  9  1  0  0  0  0
  7 27  1  0  0  0  0
  8 28  1  0  0  0  0
  9 10  1  0  0  0  0
  9 29  1  0  0  0  0
  9 30  1  0  0  0  0
 10 11  1  0  0  0  0
 11 16  1  0  0  0  0
 11 12  2  0  0  0  0
 12 13  1  0  0  0  0
 12 31  1  0  0  0  0
 13 14  2  0  0  0  0
 13 32  1  0  0  0  0
 14 15  1  0  0  0  0
 14 33  1  0  0  0  0
 15 16  2  0  0  0  0
 15 34  1  0  0  0  0
 16 35  1  0  0  0  0
 17 18  2  0  0  0  0
 17 19  1  0  0  0  0
 19 20  1  0  0  0  0
 20 36  1  0  0  0  0
 20 37  1  0  0  0  0
 20 38  1  0  0  0  0
M  END
> <s_m_source_file>
AV-unprocessed.smi

> <i_m_source_file_index>
2275

> <i_lp_mmshare_version>
43012

> <i_f3d_flags>
0

> <s_epik_input>
W0NIM11jMW5bY0hdbihjKD1PKWMxW0NIM10pW0NIMl1bQ0BIXShbT0hdKVtDSDJdT2MyW2NIXVtjSF1bY0hdW2NIXVtjSF0y

> <s_epik_cmdline>
J2VwaWtfcHl0aG9uJywgJy1waCcsICc3LjAnLCAnLXRuJywgJzgnLCAnLW1hJywgJzIwMCcsICctbWV0YWxfYmluZGluZycsICctaW1hZScsICc8aW5maWxlLm1hZT4nLCAnLW9tYWUnLCAnPG91dGZpbGUubWFlPic=

> <r_lp_tautomer_probability>
1

> <r_epik_Ionization_Penalty>
4.18311e-05

> <r_epik_Ionization_Penalty_Charging>
1.04093e-07

> <r_epik_Ionization_Penalty_Neutral>
4.1727e-05

> <r_epik_State_Penalty>
-0

> <r_epik_Charging_Adjusted_Penalty>
1.04093e-07

> <i_epik_Tot_Q>
0

> <i_epik_Tot_abs_Q>
0

> <r_epik_Metal_State_Penalty>
-0

> <b_epik_Metal_Only>
0

> <s_lp_Force_Field>
OPLS_2005

> <r_lp_Energy>
23.5562

> <b_lp_Chiralities_Consistent>
1

> <s_lp_Variant>
AV-unprocessed.smi:2275-2

> <Gold.Version>
5.8.1

> <Gold.Id.Protein>
6NUR|6NUR_protein|mol2

> <Gold.PLP.Fitness>
47.8100

> <Gold.PLP.PLP>
-43.4250

> <Gold.PLP.part.hbond>
-2.0000

> <Gold.PLP.part.metal>
0.0000

> <Gold.PLP.part.buried>
-4.4694

> <Gold.PLP.part.nonpolar>
-36.5470

> <Gold.PLP.part.repulsive>
0.0056

> <Gold.PLP.ligand.clash>
0.0000

> <Gold.PLP.ligand.torsion>
0.8422

> <Gold.PLP.Chemscore.Hbond>
2.0000

> <Gold.PLP.Chemscore.CHOScore>
0.0000

> <Gold.PLP.Chemscore.Metal>
0.0000

> <Gold.Chemscore.Hbonds>
donor molecule, donor type, donor heavy atom, donor atom, acceptor molecule, acceptor atom, score
      P1  H  6896  6909       L1    18  1.00

> <Gold.PLP.Chemscore.Internal.Correction>
0.0694

> <Gold.Rescore>
     Score         DG    S(hbond)    S(metal)    S(lipo)     H(rot)  DE(clash)    DE(int)     intcor
     18.82     -19.81       1.94        0.00     119.12       2.38       0.05       0.94       ----

> <Gold.Chemscore.Fitness>
18.8189

> <Gold.Chemscore.DG>
-19.8064

> <Gold.Chemscore.ZeroCoef>
-5.4800

> <Gold.Chemscore.Hbond>
1.9428

> <Gold.Chemscore.Metal>
0.0000

> <Gold.Chemscore.Lipo>
119.1194

> <Gold.Chemscore.Internal_Hbond>
0.0000

> <Gold.Chemscore.DEClash>
0.0519

> <Gold.Chemscore.DEInternal>
0.9356

> <Gold.Chemscore.Rot>
2.3826

> <Gold.Chemscore.Internal.Correction>
   9.000000E+99

> <Gold.Chemscore.Hbonds>
donor molecule, donor type, donor heavy atom, donor atom, acceptor molecule, acceptor atom, score
      P1  H  6896  6909       L1    18  0.99

> <Gold.Chemscore.Hbond.Weighted>
-6.4890

> <Gold.Chemscore.Metal.Weighted>
-0.0000

> <Gold.Chemscore.Lipo.Weighted>
-13.9370

> <Gold.Chemscore.Internal_Hbond.Weighted>
0.0000

> <Gold.Chemscore.DEClash.Weighted>
0.0519

> <Gold.Chemscore.DEInternal.Weighted>
0.9356

> <Gold.Chemscore.Rot.Weighted>
6.0996

> <Gold.Chemscore.Internal.Correction.Weighted>
   9.000000E+99

> <Gold.Protein.RotatedTorsions>
[ 6907 6896 6895 6894 ] final  173.82 input  -60.11 | X-H torsion
[ 7974 7965 7964 7962 ] final -139.61 input  175.53 | X-H torsion
[ 8008 7997 7996 7995 ] final  137.73 input   59.86 | X-H torsion
[ 10167 10162 10161 10158 ] final  177.81 input  -65.29 | X-H torsion
[ 10718 10713 10712 10709 ] final  -18.99 input   66.30 | X-H torsion
[ 10763 10752 10751 10750 ] final  -38.19 input  -60.55 | X-H torsion
[ 11005 11000 10999 10996 ] final -162.61 input  -57.11 | X-H torsion

> <Gold.Protein.ActiveResidues>
 VAL166  LYS551  ARG553  GLY616  TRP617  ASP618  TYR619  PRO620  LYS621  CYS622 
 ASP623  PHE694  ASN695  SER759  ASP760  ASP761  ALA762  ILE779  LEU786  VAL792 
 PHE793  MET794  SER795  GLU796  ALA797  LYS798  CYS799  TRP800  GLU811  SER814 

> <Gold.Protein.RotatedAtoms>
  151.7621  133.3334  159.3420 H   0  0  0  0  0  0  0  0  0  0  0  0  # atno 6907 bound_to 6896
  150.7494  134.6096  159.6088 H   0  0  0  0  0  0  0  0  0  0  0  0  # atno 6908 bound_to 6896
  152.3398  134.7151  160.0318 H   0  0  0  0  0  0  0  0  0  0  0  0  # atno 6909 bound_to 6896
  144.8663  140.6298  143.5295 H   0  0  0  0  0  0  0  0  0  0  0  0  # atno 7974 bound_to 7965
  156.3001  140.2412  156.3958 H   0  0  0  0  0  0  0  0  0  0  0  0  # atno 8008 bound_to 7997
  154.8572  140.0421  157.1662 H   0  0  0  0  0  0  0  0  0  0  0  0  # atno 8009 bound_to 7997
  154.8935  140.2966  155.5361 H   0  0  0  0  0  0  0  0  0  0  0  0  # atno 8010 bound_to 7997
  139.5268  144.2755  152.0592 H   0  0  0  0  0  0  0  0  0  0  0  0  # atno 10167 bound_to 10162
  156.5518  130.4703  149.6448 H   0  0  0  0  0  0  0  0  0  0  0  0  # atno 10718 bound_to 10713
  153.9087  135.6794  153.4752 H   0  0  0  0  0  0  0  0  0  0  0  0  # atno 10763 bound_to 10752
  153.1090  135.4792  154.8999 H   0  0  0  0  0  0  0  0  0  0  0  0  # atno 10764 bound_to 10752
  154.7538  135.3192  154.8463 H   0  0  0  0  0  0  0  0  0  0  0  0  # atno 10765 bound_to 10752
  140.6073  134.4885  157.5212 H   0  0  0  0  0  0  0  0  0  0  0  0  # atno 11005 bound_to 11000
  145.4215  139.1563  143.4071 LP  0  0  0  0  0  0  0  0  0  0  0  0  # atno 17320 bound_to 7965
  146.2898  140.4325  142.8744 LP  0  0  0  0  0  0  0  0  0  0  0  0  # atno 17321 bound_to 7965
  140.2212  144.4464  150.6341 LP  0  0  0  0  0  0  0  0  0  0  0  0  # atno 17342 bound_to 10162
  140.6417  143.2205  151.6276 LP  0  0  0  0  0  0  0  0  0  0  0  0  # atno 17343 bound_to 10162
  156.2877  130.7107  151.1947 LP  0  0  0  0  0  0  0  0  0  0  0  0  # atno 17370 bound_to 10713
  157.7386  131.0539  150.5285 LP  0  0  0  0  0  0  0  0  0  0  0  0  # atno 17371 bound_to 10713
  139.9207  134.8155  156.1222 LP  0  0  0  0  0  0  0  0  0  0  0  0  # atno 17394 bound_to 11000
  141.0832  133.6745  156.2379 LP  0  0  0  0  0  0  0  0  0  0  0  0  # atno 17395 bound_to 11000

$$$$
