#       Name:                AV-unprocessed.smi:2088
#       Creating user name   scv26
#       Creation time:       Fri Mar 27 11:24:40 2020


#       File generated by GOLD software.
#

@<TRIPOS>MOLECULE
AV-unprocessed.smi:2088
    38    39     1
SMALL
NO_CHARGES


@<TRIPOS>ATOM
      1 ****        -0.7618   0.3512  -2.8115 O.2            1 S1                 0.0000
      2 ****         0.2461  -0.1416  -2.3056 C.2            1 S1                 0.0000
      3 ****         1.5812   0.5967  -2.3887 C.3            1 S1                 0.0000
      4 ****         1.8039   1.3734  -1.1827 N.pl3          1 S1                 0.0000
      5 ****         1.4050   2.6642  -0.9101 C.2            1 S1                 0.0000
      6 ****         1.8145   2.9551   0.3593 C.2            1 S1                 0.0000
      7 ****         2.4644   1.7642   0.7964 C.2            1 S1                 0.0000
      8 ****         3.1120   1.4870   2.1274 C.3            1 S1                 0.0000
      9 ****         3.0157   2.5542   2.9203 F              1 S1                 0.0000
     10 ****         2.5079   0.4569   2.7198 F              1 S1                 0.0000
     11 ****         4.4012   1.1951   1.9552 F              1 S1                 0.0000
     12 ****         2.4561   0.8215  -0.1366 N.2            1 S1                 0.0000
     13 ****         0.2515  -1.3029  -1.6330 N.am           1 S1                 0.0000
     14 ****        -0.9279  -2.0925  -1.2975 C.3            1 S1                 0.0000
     15 ****        -1.3443  -1.8676   0.1658 C.3            1 S1                 0.0000
     16 ****        -1.7460  -0.4331   0.5137 C.3            1 S1                 0.0000
     17 ****        -2.6291  -0.6517   1.7199 C.3            1 S1                 0.0000
     18 ****        -3.3700  -1.9290   1.3340 C.3            1 S1                 0.0000
     19 ****        -2.4866  -2.6576   0.4846 O.3            1 S1                 0.0000
     20 ****         2.4020  -0.1090  -2.5269 H              1 S1                 0.0000
     21 ****         1.5837   1.2689  -3.2477 H              1 S1                 0.0000
     22 ****         0.8635   3.2582  -1.6317 H              1 S1                 0.0000
     23 ****         1.6671   3.8790   0.8984 H              1 S1                 0.0000
     24 ****         1.1325  -1.6242  -1.2582 H              1 S1                 0.0000
     25 ****        -1.7592  -1.8704  -1.9684 H              1 S1                 0.0000
     26 ****        -0.6848  -3.1442  -1.4504 H              1 S1                 0.0000
     27 ****        -0.5376  -2.1799   0.8313 H              1 S1                 0.0000
     28 ****        -0.8908   0.2118   0.7197 H              1 S1                 0.0000
     29 ****        -2.3249   0.0126  -0.2966 H              1 S1                 0.0000
     30 ****        -2.0161  -0.8243   2.6055 H              1 S1                 0.0000
     31 ****        -3.2973   0.1858   1.9228 H              1 S1                 0.0000
     32 ****        -3.6619  -2.5177   2.2037 H              1 S1                 0.0000
     33 ****        -4.2715  -1.6899   0.7691 H              1 S1                 0.0000
     34 ****        -0.7068   1.2346  -3.2769 LP             1 S1                 0.0000
     35 ****        -1.6357  -0.1318  -2.7573 LP             1 S1                 0.0000
     36 ****         2.8472  -0.0970  -0.0783 LP             1 S1                 0.0000
     37 ****        -2.1915  -3.4908   0.9523 LP             1 S1                 0.0000
     38 ****        -2.9655  -2.9007  -0.3590 LP             1 S1                 0.0000
@<TRIPOS>BOND
    1    1    2 2     
    2    2    3 1     
    3    2   13 am    
    4    3    4 1     
    5    3   20 1     
    6    3   21 1     
    7    4   12 1     
    8    4    5 1     
    9    5    6 2     
   10    5   22 1     
   11    6    7 1     
   12    6   23 1     
   13    7    8 1     
   14    7   12 2     
   15    8    9 1     
   16    8   10 1     
   17    8   11 1     
   18   13   14 1     
   19   13   24 1     
   20   14   15 1     
   21   14   25 1     
   22   14   26 1     
   23   15   19 1     
   24   15   16 1     
   25   15   27 1     
   26   16   17 1     
   27   16   28 1     
   28   16   29 1     
   29   17   18 1     
   30   17   30 1     
   31   17   31 1     
   32   18   19 1     
   33   18   32 1     
   34   18   33 1     
   35    1   34 1     
   36    1   35 1     
   37   12   36 1     
   38   19   37 1     
   39   19   38 1     
@<TRIPOS>SUBSTRUCTURE
      1 S1             1
@<TRIPOS>SET
LONE_PAIRS      STATIC     ATOMS    <user>   **** ""
5 34 35 36 37 38
DONOR_HYDROGENS      STATIC     ATOMS    <user>   **** ""
1 24
ATOM$BLUE        STATIC     ATOMS    COLORGROUP SYSTEM
5 34 35 36 37 38
ATOM$RED        STATIC     ATOMS    COLORGROUP SYSTEM
1 24
