AV-unprocessed.smi:1644|AV-procd|sdf|6599|dock6
  -GOLD-   22720 7303D 1   1.00000     0.00000
 Structure written by MMmdl.
 49 51  0  0  0  0  0  0  0  0  3 V2000
  147.5695  133.4099  161.8393 C   0  0  0  0  0  0  0  0  0  0  0  0
  147.8039  134.8976  162.1227 C   0  0  0  0  0  0  0  0  0  0  0  0
  147.0631  135.8103  161.1218 C   0  0  0  0  0  0  0  0  0  0  0  0
  147.6560  135.8810  159.6932 C   0  0  1  0  0  0  0  0  0  0  0  0
  146.7365  136.4955  158.7583 N   0  5  0  0  0  0  0  0  0  0  0  0
  147.3561  137.5524  158.1825 C   0  0  0  0  0  0  0  0  0  0  0  0
  146.8771  138.3217  157.3493 O   0  0  0  0  0  0  0  0  0  0  0  0
  148.6108  137.6961  158.6533 N   0  0  0  0  0  0  0  0  0  0  0  0
  149.5343  138.7688  158.2720 C   0  0  0  0  0  0  0  0  0  0  0  0
  150.6383  138.2510  157.3266 C   0  0  1  0  0  0  0  0  0  0  0  0
  150.0842  138.0180  156.0464 O   0  0  0  0  0  0  0  0  0  0  0  0
  151.7918  139.2620  157.1769 C   0  0  0  0  0  0  0  0  0  0  0  0
  151.3123  140.6454  157.0719 N   0  0  0  0  0  0  0  0  0  0  0  0
  150.5807  141.2543  156.1003 C   0  0  0  0  0  0  0  0  0  0  0  0
  150.4062  142.5532  156.4730 N   0  3  0  0  0  0  0  0  0  0  0  0
  151.0401  142.7761  157.6981 C   0  0  0  0  0  0  0  0  0  0  0  0
  151.1505  143.9241  158.4739 C   0  0  0  0  0  0  0  0  0  0  0  0
  151.8777  143.8193  159.6815 C   0  0  0  0  0  0  0  0  0  0  0  0
  152.0254  145.0576  160.5489 C   0  0  0  0  0  0  0  0  0  0  0  0
  152.4604  142.5877  160.0791 C   0  0  0  0  0  0  0  0  0  0  0  0
  153.2408  142.4847  161.3784 C   0  0  0  0  0  0  0  0  0  0  0  0
  152.3336  141.4310  159.2783 C   0  0  0  0  0  0  0  0  0  0  0  0
  151.6197  141.5542  158.0891 C   0  0  0  0  0  0  0  0  0  0  0  0
  148.8821  136.7627  159.5696 C   0  0  0  0  0  0  0  0  0  0  0  0
  149.9172  136.6207  160.2214 O   0  0  0  0  0  0  0  0  0  0  0  0
  148.0950  132.7893  162.5650 H   0  0  0  0  0  0  0  0  0  0  0  0
  147.9278  133.1381  160.8462 H   0  0  0  0  0  0  0  0  0  0  0  0
  146.5094  133.1612  161.8939 H   0  0  0  0  0  0  0  0  0  0  0  0
  147.4780  135.1187  163.1394 H   0  0  0  0  0  0  0  0  0  0  0  0
  148.8760  135.0942  162.0931 H   0  0  0  0  0  0  0  0  0  0  0  0
  146.0258  135.4802  161.0503 H   0  0  0  0  0  0  0  0  0  0  0  0
  147.0191  136.8208  161.5303 H   0  0  0  0  0  0  0  0  0  0  0  0
  147.9317  134.8744  159.3763 H   0  0  0  0  0  0  0  0  0  0  0  0
  149.0054  139.6183  157.8357 H   0  0  0  0  0  0  0  0  0  0  0  0
  149.9827  139.1570  159.1881 H   0  0  0  0  0  0  0  0  0  0  0  0
  151.0391  137.3082  157.7001 H   0  0  0  0  0  0  0  0  0  0  0  0
  149.7520  137.1339  156.0197 H   0  0  0  0  0  0  0  0  0  0  0  0
  152.4726  139.2033  158.0273 H   0  0  0  0  0  0  0  0  0  0  0  0
  152.3860  139.0471  156.2877 H   0  0  0  0  0  0  0  0  0  0  0  0
  150.2108  140.7930  155.1962 H   0  0  0  0  0  0  0  0  0  0  0  0
  150.7042  144.8582  158.1655 H   0  0  0  0  0  0  0  0  0  0  0  0
  153.0786  145.2920  160.7065 H   0  0  0  0  0  0  0  0  0  0  0  0
  151.5556  144.9011  161.5202 H   0  0  0  0  0  0  0  0  0  0  0  0
  151.5568  145.9273  160.0871 H   0  0  0  0  0  0  0  0  0  0  0  0
  153.5839  141.4650  161.5574 H   0  0  0  0  0  0  0  0  0  0  0  0
  152.6195  142.7794  162.2245 H   0  0  0  0  0  0  0  0  0  0  0  0
  154.1181  143.1313  161.3489 H   0  0  0  0  0  0  0  0  0  0  0  0
  152.7816  140.4937  159.5769 H   0  0  0  0  0  0  0  0  0  0  0  0
  149.8956  143.2356  155.9272 H   0  0  0  0  0  0  0  0  0  0  0  0
  1  2  1  0  0  0  0
  1 26  1  0  0  0  0
  1 27  1  0  0  0  0
  1 28  1  0  0  0  0
  2  3  1  0  0  0  0
  2 29  1  0  0  0  0
  2 30  1  0  0  0  0
  3  4  1  0  0  0  0
  3 31  1  0  0  0  0
  3 32  1  0  0  0  0
  4 24  1  0  0  0  0
  4  5  1  0  0  0  0
  4 33  1  0  0  0  0
  5  6  1  0  0  0  0
  6  7  2  0  0  0  0
  6  8  1  0  0  0  0
  8  9  1  0  0  0  0
  8 24  1  0  0  0  0
  9 10  1  0  0  0  0
  9 34  1  0  0  0  0
  9 35  1  0  0  0  0
 10 11  1  0  0  0  0
 10 12  1  0  0  0  0
 10 36  1  0  0  0  0
 11 37  1  0  0  0  0
 12 13  1  0  0  0  0
 12 38  1  0  0  0  0
 12 39  1  0  0  0  0
 13 23  1  0  0  0  0
 13 14  1  0  0  0  0
 14 15  2  0  0  0  0
 14 40  1  0  0  0  0
 15 16  1  0  0  0  0
 15 49  1  0  0  0  0
 16 23  2  0  0  0  0
 16 17  1  0  0  0  0
 17 18  2  0  0  0  0
 17 41  1  0  0  0  0
 18 19  1  0  0  0  0
 18 20  1  0  0  0  0
 19 42  1  0  0  0  0
 19 43  1  0  0  0  0
 19 44  1  0  0  0  0
 20 21  1  0  0  0  0
 20 22  2  0  0  0  0
 21 45  1  0  0  0  0
 21 46  1  0  0  0  0
 21 47  1  0  0  0  0
 22 23  1  0  0  0  0
 22 48  1  0  0  0  0
 24 25  2  0  0  0  0
M  CHG  1   5  -1
M  CHG  1  15   1
M  END
> <s_m_source_file>
AV-unprocessed.smi

> <i_m_source_file_index>
1644

> <i_lp_mmshare_version>
43012

> <i_f3d_flags>
0

> <s_epik_input>
W0NIM11bQ0gyXVtDSDJdW0NAQEhdMVtOSF1DKD1PKU4oQzE9TylbQ0gyXVtDQEhdKFtPSF0pW0NIMl1uKFtjSF1uMiljKGMyMylbY0hdYyhbQ0gzXSljKFtjSF0zKVtDSDNd

> <s_epik_cmdline>
J2VwaWtfcHl0aG9uJywgJy1waCcsICc3LjAnLCAnLXRuJywgJzgnLCAnLW1hJywgJzIwMCcsICctbWV0YWxfYmluZGluZycsICctaW1hZScsICc8aW5maWxlLm1hZT4nLCAnLW9tYWUnLCAnPG91dGZpbGUubWFlPic=

> <r_lp_tautomer_probability>
1

> <r_epik_Ionization_Penalty>
6.86868

> <r_epik_Ionization_Penalty_Charging>
6.86868

> <r_epik_Ionization_Penalty_Neutral>
5.84798e-07

> <r_epik_State_Penalty>
6.92818

> <r_epik_Charging_Adjusted_Penalty>
13.7969

> <i_epik_Tot_Q>
0

> <i_epik_Tot_abs_Q>
2

> <r_epik_Metal_State_Penalty>
2.98017

> <b_epik_Metal_Only>
1

> <s_lp_Force_Field>
OPLS_2005

> <r_lp_Energy>
22.7733

> <b_lp_Chiralities_Consistent>
1

> <s_lp_Variant>
AV-unprocessed.smi:1644-16

> <Gold.Version>
5.8.1

> <Gold.Id.Protein>
6NUR|6NUR_protein|mol2

> <Gold.PLP.Fitness>
54.5394

> <Gold.PLP.PLP>
-47.1857

> <Gold.PLP.part.hbond>
-2.8972

> <Gold.PLP.part.metal>
0.0000

> <Gold.PLP.part.buried>
-6.1431

> <Gold.PLP.part.nonpolar>
-40.0185

> <Gold.PLP.part.repulsive>
0.0889

> <Gold.PLP.ligand.clash>
0.0000

> <Gold.PLP.ligand.torsion>
0.6702

> <Gold.PLP.Chemscore.Hbond>
2.8623

> <Gold.PLP.Chemscore.CHOScore>
0.0000

> <Gold.PLP.Chemscore.Metal>
0.0000

> <Gold.Chemscore.Hbonds>
donor molecule, donor type, donor heavy atom, donor atom, acceptor molecule, acceptor atom, score
      L1  H    15    49       P1  8028  2.00
      P1  H  6896  6908       L1    25  1.00

> <Gold.PLP.Chemscore.Internal.Correction>
0.1073

> <Gold.Rescore>
     Score         DG    S(hbond)    S(metal)    S(lipo)     H(rot)  DE(clash)    DE(int)     intcor
     18.15     -18.88       2.00        0.00     117.15       2.72       0.08       0.65       ----

> <Gold.Chemscore.Fitness>
18.1535

> <Gold.Chemscore.DG>
-18.8816

> <Gold.Chemscore.ZeroCoef>
-5.4800

> <Gold.Chemscore.Hbond>
1.9968

> <Gold.Chemscore.Metal>
0.0000

> <Gold.Chemscore.Lipo>
117.1534

> <Gold.Chemscore.Internal_Hbond>
0.0000

> <Gold.Chemscore.DEClash>
0.0766

> <Gold.Chemscore.DEInternal>
0.6515

> <Gold.Chemscore.Rot>
2.7245

> <Gold.Chemscore.Internal.Correction>
   9.000000E+99

> <Gold.Chemscore.Hbonds>
donor molecule, donor type, donor heavy atom, donor atom, acceptor molecule, acceptor atom, score
      L1  H    15    49       P1  8028  0.99
      P1  H  6896  6908       L1    25  0.92

> <Gold.Chemscore.Hbond.Weighted>
-6.6694

> <Gold.Chemscore.Metal.Weighted>
-0.0000

> <Gold.Chemscore.Lipo.Weighted>
-13.7069

> <Gold.Chemscore.Internal_Hbond.Weighted>
0.0000

> <Gold.Chemscore.DEClash.Weighted>
0.0766

> <Gold.Chemscore.DEInternal.Weighted>
0.6515

> <Gold.Chemscore.Rot.Weighted>
6.9748

> <Gold.Chemscore.Internal.Correction.Weighted>
   9.000000E+99

> <Gold.Protein.RotatedTorsions>
[ 6907 6896 6895 6894 ] final -155.90 input  -60.11 | X-H torsion
[ 7974 7965 7964 7962 ] final  -32.63 input  175.53 | X-H torsion
[ 8008 7997 7996 7995 ] final   54.20 input   59.86 | X-H torsion
[ 10167 10162 10161 10158 ] final   23.81 input  -65.29 | X-H torsion
[ 10718 10713 10712 10709 ] final   99.60 input   66.30 | X-H torsion
[ 10763 10752 10751 10750 ] final  173.31 input  -60.55 | X-H torsion
[ 11005 11000 10999 10996 ] final -105.26 input  -57.11 | X-H torsion

> <Gold.Protein.ActiveResidues>
 VAL166  LYS551  ARG553  GLY616  TRP617  ASP618  TYR619  PRO620  LYS621  CYS622 
 ASP623  PHE694  ASN695  SER759  ASP760  ASP761  ALA762  ILE779  LEU786  VAL792 
 PHE793  MET794  SER795  GLU796  ALA797  LYS798  CYS799  TRP800  GLU811  SER814 

> <Gold.Protein.RotatedAtoms>
  151.2795  133.4216  159.2625 H   0  0  0  0  0  0  0  0  0  0  0  0  # atno 6907 bound_to 6896
  151.0373  134.9582  159.8153 H   0  0  0  0  0  0  0  0  0  0  0  0  # atno 6908 bound_to 6896
  152.5358  134.2755  159.9040 H   0  0  0  0  0  0  0  0  0  0  0  0  # atno 6909 bound_to 6896
  146.0975  140.5816  142.8836 H   0  0  0  0  0  0  0  0  0  0  0  0  # atno 7974 bound_to 7965
  155.4808  140.3468  155.4339 H   0  0  0  0  0  0  0  0  0  0  0  0  # atno 8008 bound_to 7997
  156.1040  140.1443  156.9457 H   0  0  0  0  0  0  0  0  0  0  0  0  # atno 8009 bound_to 7997
  154.4712  140.0900  156.7128 H   0  0  0  0  0  0  0  0  0  0  0  0  # atno 8010 bound_to 7997
  140.5239  143.9957  150.6430 H   0  0  0  0  0  0  0  0  0  0  0  0  # atno 10167 bound_to 10162
  157.6872  131.0674  150.4973 H   0  0  0  0  0  0  0  0  0  0  0  0  # atno 10718 bound_to 10713
  154.4383  135.2761  155.1865 H   0  0  0  0  0  0  0  0  0  0  0  0  # atno 10763 bound_to 10752
  154.3742  135.6102  153.5760 H   0  0  0  0  0  0  0  0  0  0  0  0  # atno 10764 bound_to 10752
  152.9839  135.5865  154.4706 H   0  0  0  0  0  0  0  0  0  0  0  0  # atno 10765 bound_to 10752
  141.1062  133.8792  157.1712 H   0  0  0  0  0  0  0  0  0  0  0  0  # atno 11005 bound_to 11000
  144.7406  140.4932  143.6872 LP  0  0  0  0  0  0  0  0  0  0  0  0  # atno 17320 bound_to 7965
  145.5920  139.1496  143.3177 LP  0  0  0  0  0  0  0  0  0  0  0  0  # atno 17321 bound_to 7965
  140.3313  143.3076  152.0684 LP  0  0  0  0  0  0  0  0  0  0  0  0  # atno 17342 bound_to 10162
  139.4932  144.6507  151.6682 LP  0  0  0  0  0  0  0  0  0  0  0  0  # atno 17343 bound_to 10162
  156.5297  130.4182  149.6208 LP  0  0  0  0  0  0  0  0  0  0  0  0  # atno 17370 bound_to 10713
  156.3080  130.7213  151.2100 LP  0  0  0  0  0  0  0  0  0  0  0  0  # atno 17371 bound_to 10713
  139.9933  135.0056  157.0025 LP  0  0  0  0  0  0  0  0  0  0  0  0  # atno 17394 bound_to 11000
  140.4896  134.1207  155.7230 LP  0  0  0  0  0  0  0  0  0  0  0  0  # atno 17395 bound_to 11000

$$$$
