AV-unprocessed.smi:3204|AV-procd|sdf|12253|dock1
  -GOLD-   2272018 83D 1   1.00000     0.00000
 Structure written by MMmdl.
 30 31  0  0  0  0  0  0  0  0  1 V2000
  151.3636  145.0292  159.6544 C   0  0  0  0  0  0  0  0  0  0  0  0
  152.0117  144.2322  158.5166 C   0  0  0  0  0  0  0  0  0  0  0  0
  152.0330  142.7413  158.7982 C   0  0  0  0  0  0  0  0  0  0  0  0
  152.6349  142.3479  159.9431 N   0  0  0  0  0  0  0  0  0  0  0  0
  152.6428  141.0376  160.1986 C   0  0  0  0  0  0  0  0  0  0  0  0
  152.1138  140.0728  159.4416 N   0  0  0  0  0  0  0  0  0  0  0  0
  151.5030  140.4510  158.2930 C   0  0  0  0  0  0  0  0  0  0  0  0
  150.9220  139.4801  157.4647 N   0  0  0  0  0  0  0  0  0  0  0  0
  151.4392  139.2043  156.1291 C   0  0  1  0  0  0  0  0  0  0  0  0
  152.1023  137.8275  156.0655 C   0  0  0  0  0  0  0  0  0  0  0  0
  151.9519  137.4464  154.7104 O   0  0  0  0  0  0  0  0  0  0  0  0
  150.6320  137.7984  154.3260 C   0  0  0  0  0  0  0  0  0  0  0  0
  150.3450  139.1148  155.0599 C   0  0  2  0  0  0  0  0  0  0  0  0
  150.4545  140.1909  154.1505 O   0  0  0  0  0  0  0  0  0  0  0  0
  151.4362  141.8106  157.9197 C   0  0  0  0  0  0  0  0  0  0  0  0
  150.8225  142.2029  156.7764 F   0  0  0  0  0  0  0  0  0  0  0  0
  151.3624  146.0960  159.4296 H   0  0  0  0  0  0  0  0  0  0  0  0
  151.9014  144.8872  160.5924 H   0  0  0  0  0  0  0  0  0  0  0  0
  150.3296  144.7203  159.8100 H   0  0  0  0  0  0  0  0  0  0  0  0
  151.4808  144.4203  157.5830 H   0  0  0  0  0  0  0  0  0  0  0  0
  153.0339  144.5793  158.3608 H   0  0  0  0  0  0  0  0  0  0  0  0
  153.1263  140.7253  161.1122 H   0  0  0  0  0  0  0  0  0  0  0  0
  150.0996  138.9860  157.7806 H   0  0  0  0  0  0  0  0  0  0  0  0
  152.1817  139.9549  155.8524 H   0  0  0  0  0  0  0  0  0  0  0  0
  153.1506  137.8522  156.3643 H   0  0  0  0  0  0  0  0  0  0  0  0
  151.5842  137.1015  156.6951 H   0  0  0  0  0  0  0  0  0  0  0  0
  150.5348  137.8680  153.2418 H   0  0  0  0  0  0  0  0  0  0  0  0
  149.9505  137.0194  154.6714 H   0  0  0  0  0  0  0  0  0  0  0  0
  149.3396  139.1042  155.4833 H   0  0  0  0  0  0  0  0  0  0  0  0
  149.8749  140.0235  153.4226 H   0  0  0  0  0  0  0  0  0  0  0  0
  1  2  1  0  0  0  0
  1 17  1  0  0  0  0
  1 18  1  0  0  0  0
  1 19  1  0  0  0  0
  2  3  1  0  0  0  0
  2 20  1  0  0  0  0
  2 21  1  0  0  0  0
  3 15  1  0  0  0  0
  3  4  2  0  0  0  0
  4  5  1  0  0  0  0
  5  6  2  0  0  0  0
  5 22  1  0  0  0  0
  6  7  1  0  0  0  0
  7  8  1  0  0  0  0
  7 15  2  0  0  0  0
  8  9  1  0  0  0  0
  8 23  1  0  0  0  0
  9 13  1  0  0  0  0
  9 10  1  0  0  0  0
  9 24  1  0  0  0  0
 10 11  1  0  0  0  0
 10 25  1  0  0  0  0
 10 26  1  0  0  0  0
 11 12  1  0  0  0  0
 12 13  1  0  0  0  0
 12 27  1  0  0  0  0
 12 28  1  0  0  0  0
 13 14  1  0  0  0  0
 13 29  1  0  0  0  0
 14 30  1  0  0  0  0
 15 16  1  0  0  0  0
M  END
> <s_m_source_file>
AV-unprocessed.smi

> <i_m_source_file_index>
3204

> <i_lp_mmshare_version>
43012

> <i_f3d_flags>
0

> <s_epik_input>
W0NIM11bQ0gyXWMxbltjSF1uYyhjMUYpW05IXVtDQEBIXTJbQ0gyXU9bQ0gyXVtDQEhdMltPSF0=

> <s_epik_cmdline>
J2VwaWtfcHl0aG9uJywgJy1waCcsICc3LjAnLCAnLXRuJywgJzgnLCAnLW1hJywgJzIwMCcsICctbWV0YWxfYmluZGluZycsICctaW1hZScsICc8aW5maWxlLm1hZT4nLCAnLW9tYWUnLCAnPG91dGZpbGUubWFlPic=

> <r_lp_tautomer_probability>
1

> <r_epik_Ionization_Penalty>
0.000484964

> <r_epik_Ionization_Penalty_Charging>
0

> <r_epik_Ionization_Penalty_Neutral>
0.000484964

> <r_epik_State_Penalty>
-0

> <r_epik_Charging_Adjusted_Penalty>
0

> <i_epik_Tot_Q>
0

> <i_epik_Tot_abs_Q>
0

> <r_epik_Metal_State_Penalty>
-0

> <b_epik_Metal_Only>
0

> <s_lp_Force_Field>
OPLS_2005

> <r_lp_Energy>
13.9367

> <b_lp_Chiralities_Consistent>
1

> <s_lp_Variant>
AV-unprocessed.smi:3204-4

> <Gold.Version>
5.8.1

> <Gold.Id.Protein>
6NUR|6NUR_protein|mol2

> <Gold.PLP.Fitness>
39.5285

> <Gold.PLP.PLP>
-34.2412

> <Gold.PLP.part.hbond>
-2.7574

> <Gold.PLP.part.metal>
0.0000

> <Gold.PLP.part.buried>
-6.3052

> <Gold.PLP.part.nonpolar>
-26.2287

> <Gold.PLP.part.repulsive>
0.1502

> <Gold.PLP.ligand.clash>
0.0000

> <Gold.PLP.ligand.torsion>
0.7608

> <Gold.PLP.Chemscore.Hbond>
2.2660

> <Gold.PLP.Chemscore.CHOScore>
0.0000

> <Gold.PLP.Chemscore.Metal>
0.0000

> <Gold.Chemscore.Hbonds>
donor molecule, donor type, donor heavy atom, donor atom, acceptor molecule, acceptor atom, score
      L1  H    14    30       P1  7957  0.36
      P1  H  7989  7998       L1    14  0.93
      P1  H 10752 10764       L1    11  0.79

> <Gold.PLP.Chemscore.Internal.Correction>
0.0108

> <Gold.Rescore>
     Score         DG    S(hbond)    S(metal)    S(lipo)     H(rot)  DE(clash)    DE(int)     intcor
     16.04     -16.93       2.33        0.00      71.56       1.83       0.01       0.88       ----

> <Gold.Chemscore.Fitness>
16.0374

> <Gold.Chemscore.DG>
-16.9279

> <Gold.Chemscore.ZeroCoef>
-5.4800

> <Gold.Chemscore.Hbond>
2.3264

> <Gold.Chemscore.Metal>
0.0000

> <Gold.Chemscore.Lipo>
71.5554

> <Gold.Chemscore.Internal_Hbond>
0.0000

> <Gold.Chemscore.DEClash>
0.0138

> <Gold.Chemscore.DEInternal>
0.8767

> <Gold.Chemscore.Rot>
1.8337

> <Gold.Chemscore.Internal.Correction>
   9.000000E+99

> <Gold.Chemscore.Hbonds>
donor molecule, donor type, donor heavy atom, donor atom, acceptor molecule, acceptor atom, score
      L1  H    14    30       P1  7957  0.35
      P1  H  7989  7998       L1    14  0.30
      P1  H 10752 10764       L1    11  0.45

> <Gold.Chemscore.Hbond.Weighted>
-7.7701

> <Gold.Chemscore.Metal.Weighted>
-0.0000

> <Gold.Chemscore.Lipo.Weighted>
-8.3720

> <Gold.Chemscore.Internal_Hbond.Weighted>
0.0000

> <Gold.Chemscore.DEClash.Weighted>
0.0138

> <Gold.Chemscore.DEInternal.Weighted>
0.8767

> <Gold.Chemscore.Rot.Weighted>
4.6942

> <Gold.Chemscore.Internal.Correction.Weighted>
   9.000000E+99

> <Gold.Protein.RotatedTorsions>
[ 6907 6896 6895 6894 ] final   54.10 input  -60.11 | X-H torsion
[ 7974 7965 7964 7962 ] final -147.94 input  175.53 | X-H torsion
[ 8008 7997 7996 7995 ] final -127.29 input   59.86 | X-H torsion
[ 10167 10162 10161 10158 ] final -149.57 input  -65.29 | X-H torsion
[ 10718 10713 10712 10709 ] final  141.81 input   66.30 | X-H torsion
[ 10763 10752 10751 10750 ] final  -67.37 input  -60.55 | X-H torsion
[ 11005 11000 10999 10996 ] final   27.55 input  -57.11 | X-H torsion

> <Gold.Protein.ActiveResidues>
 VAL166  LYS551  ARG553  GLY616  TRP617  ASP618  TYR619  PRO620  LYS621  CYS622 
 ASP623  PHE694  ASN695  SER759  ASP760  ASP761  ALA762  ILE779  LEU786  VAL792 
 PHE793  MET794  SER795  GLU796  ALA797  LYS798  CYS799  TRP800  GLU811  SER814 

> <Gold.Protein.RotatedAtoms>
  152.3405  134.7141  160.0264 H   0  0  0  0  0  0  0  0  0  0  0  0  # atno 6907 bound_to 6896
  151.7528  133.3323  159.3404 H   0  0  0  0  0  0  0  0  0  0  0  0  # atno 6908 bound_to 6896
  150.7476  134.6109  159.6130 H   0  0  0  0  0  0  0  0  0  0  0  0  # atno 6909 bound_to 6896
  144.8061  140.5262  143.5674 H   0  0  0  0  0  0  0  0  0  0  0  0  # atno 7974 bound_to 7965
  155.2437  140.0429  157.2978 H   0  0  0  0  0  0  0  0  0  0  0  0  # atno 8008 bound_to 7997
  154.5812  140.2401  155.8021 H   0  0  0  0  0  0  0  0  0  0  0  0  # atno 8009 bound_to 7997
  156.2194  140.2974  155.9925 H   0  0  0  0  0  0  0  0  0  0  0  0  # atno 8010 bound_to 7997
  139.7431  143.8632  152.2567 H   0  0  0  0  0  0  0  0  0  0  0  0  # atno 10167 bound_to 10162
  157.3877  131.1000  151.0677 H   0  0  0  0  0  0  0  0  0  0  0  0  # atno 10718 bound_to 10713
  154.3735  135.6090  153.5752 H   0  0  0  0  0  0  0  0  0  0  0  0  # atno 10763 bound_to 10752
  152.9789  135.5843  154.4494 H   0  0  0  0  0  0  0  0  0  0  0  0  # atno 10764 bound_to 10752
  154.4252  135.2846  155.1927 H   0  0  0  0  0  0  0  0  0  0  0  0  # atno 10765 bound_to 10752
  140.3250  134.2501  155.7711 H   0  0  0  0  0  0  0  0  0  0  0  0  # atno 11005 bound_to 11000
  145.5435  139.1475  143.3434 LP  0  0  0  0  0  0  0  0  0  0  0  0  # atno 17320 bound_to 7965
  146.2352  140.5574  142.8958 LP  0  0  0  0  0  0  0  0  0  0  0  0  # atno 17321 bound_to 7965
  139.8588  144.7127  150.9124 LP  0  0  0  0  0  0  0  0  0  0  0  0  # atno 17342 bound_to 10162
  140.7788  143.3835  151.1435 LP  0  0  0  0  0  0  0  0  0  0  0  0  # atno 17343 bound_to 10162
  157.1722  130.6272  149.5644 LP  0  0  0  0  0  0  0  0  0  0  0  0  # atno 17370 bound_to 10713
  155.9791  130.4781  150.6693 LP  0  0  0  0  0  0  0  0  0  0  0  0  # atno 17371 bound_to 10713
  141.2077  133.7797  157.0101 LP  0  0  0  0  0  0  0  0  0  0  0  0  # atno 17394 bound_to 11000
  140.0909  134.9593  157.1774 LP  0  0  0  0  0  0  0  0  0  0  0  0  # atno 17395 bound_to 11000

$$$$
