#       Name:                AV-unprocessed.smi:518
#       Creating user name   scv26
#       Creation time:       Thu Mar 26 23:26:57 2020


#       File generated by GOLD software.
#

@<TRIPOS>MOLECULE
AV-unprocessed.smi:518
    44    46     1
SMALL
NO_CHARGES


@<TRIPOS>ATOM
      1 ****        -1.5724   0.7759  -2.5136 O.3            1 S1                 0.0000
      2 ****        -2.0334   0.1047  -1.3600 C.3            1 S1                 0.0000
      3 ****        -1.3752  -1.2786  -1.2036 C.3            1 S1                 0.0000
      4 ****         0.0896  -1.2160  -1.0606 N.pl3          1 S1                 0.0000
      5 ****         0.8630  -1.1159   0.0603 C.2            1 S1                 0.0000
      6 ****         0.3949  -1.0480   1.4808 C.3            1 S1                 0.0000
      7 ****        -0.4290   0.1203   1.7810 N.3            1 S1                 0.0000
      8 ****        -0.9723  -0.0138   3.1346 C.3            1 S1                 0.0000
      9 ****        -1.9311   1.1492   3.4432 C.3            1 S1                 0.0000
     10 ****        -1.2127   2.4963   3.3075 C.3            1 S1                 0.0000
     11 ****        -0.5441   2.5809   1.9306 C.3            1 S1                 0.0000
     12 ****         0.3549   1.3567   1.6813 C.3            1 S1                 0.0000
     13 ****         2.1635  -1.1007  -0.3464 N.pl3          1 S1                 1.0000
     14 ****         2.2258  -1.1985  -1.7365 C.ar           1 S1                 0.0000
     15 ****         3.3172  -1.2275  -2.5989 C.ar           1 S1                 0.0000
     16 ****         3.0327  -1.3390  -3.9757 C.ar           1 S1                 0.0000
     17 ****         1.7066  -1.4167  -4.4493 C.ar           1 S1                 0.0000
     18 ****         1.4196  -1.5506  -6.1451 Cl             1 S1                 0.0000
     19 ****         0.6096  -1.3872  -3.5632 C.ar           1 S1                 0.0000
     20 ****         0.8978  -1.2760  -2.2030 C.ar           1 S1                 0.0000
     21 ****        -2.0114   1.6113  -2.5695 H              1 S1                 0.0000
     22 ****        -1.8347   0.7300  -0.4906 H              1 S1                 0.0000
     23 ****        -3.1157  -0.0045  -1.4297 H              1 S1                 0.0000
     24 ****        -1.7683  -1.7709  -0.3136 H              1 S1                 0.0000
     25 ****        -1.6251  -1.9290  -2.0420 H              1 S1                 0.0000
     26 ****        -0.1812  -1.9526   1.6791 H              1 S1                 0.0000
     27 ****         1.2587  -1.0762   2.1471 H              1 S1                 0.0000
     28 ****        -1.5152  -0.9559   3.2205 H              1 S1                 0.0000
     29 ****        -0.1625  -0.0428   3.8655 H              1 S1                 0.0000
     30 ****        -2.7828   1.1137   2.7625 H              1 S1                 0.0000
     31 ****        -2.3344   1.0424   4.4506 H              1 S1                 0.0000
     32 ****        -1.9154   3.3189   3.4423 H              1 S1                 0.0000
     33 ****        -0.4592   2.5922   4.0902 H              1 S1                 0.0000
     34 ****        -1.3067   2.6413   1.1529 H              1 S1                 0.0000
     35 ****         0.0437   3.4963   1.8587 H              1 S1                 0.0000
     36 ****         1.1788   1.3391   2.3965 H              1 S1                 0.0000
     37 ****         0.7953   1.4427   0.6877 H              1 S1                 0.0000
     38 ****         4.3342  -1.1695  -2.2402 H              1 S1                 0.0000
     39 ****         3.8493  -1.3655  -4.6826 H              1 S1                 0.0000
     40 ****        -0.4027  -1.4428  -3.9350 H              1 S1                 0.0000
     41 ****         2.9504  -1.0320   0.2860 H              1 S1                 0.0000
     42 ****        -1.7791   0.2310  -3.3263 LP             1 S1                 0.0000
     43 ****        -0.5845   0.9174  -2.4495 LP             1 S1                 0.0000
     44 ****        -1.1734   0.1701   1.1151 LP             1 S1                 0.0000
@<TRIPOS>BOND
    1    1    2 1     
    2    1   21 1     
    3    2    3 1     
    4    2   22 1     
    5    2   23 1     
    6    3    4 1     
    7    3   24 1     
    8    3   25 1     
    9    4   20 1     
   10    4    5 1     
   11    5    6 1     
   12    5   13 2     
   13    6    7 1     
   14    6   26 1     
   15    6   27 1     
   16    7   12 1     
   17    7    8 1     
   18    8    9 1     
   19    8   28 1     
   20    8   29 1     
   21    9   10 1     
   22    9   30 1     
   23    9   31 1     
   24   10   11 1     
   25   10   32 1     
   26   10   33 1     
   27   11   12 1     
   28   11   34 1     
   29   11   35 1     
   30   12   36 1     
   31   12   37 1     
   32   13   14 1     
   33   13   41 1     
   34   14   20 ar    
   35   14   15 ar    
   36   15   16 ar    
   37   15   38 1     
   38   16   17 ar    
   39   16   39 1     
   40   17   18 1     
   41   17   19 ar    
   42   19   20 ar    
   43   19   40 1     
   44    1   42 1     
   45    1   43 1     
   46    7   44 1     
@<TRIPOS>SUBSTRUCTURE
      1 S1             1
@<TRIPOS>SET
LONE_PAIRS      STATIC     ATOMS    <user>   **** ""
3 42 43 44
DONOR_HYDROGENS      STATIC     ATOMS    <user>   **** ""
2 21 41
ATOM$BLUE        STATIC     ATOMS    COLORGROUP SYSTEM
3 42 43 44
ATOM$RED        STATIC     ATOMS    COLORGROUP SYSTEM
2 21 41
