#       Name:                AV-unprocessed.smi:213
#       Creating user name   scv26
#       Creation time:       Thu Mar 26 20:00:31 2020


#       File generated by GOLD software.
#

@<TRIPOS>MOLECULE
AV-unprocessed.smi:213
    68    71     1
SMALL
NO_CHARGES


@<TRIPOS>ATOM
      1 ****        -5.0840  -0.1213  -0.6281 C.3            1 S1                 0.0000
      2 ****        -3.8056   0.0401   0.2105 C.3            1 S1                 0.0000
      3 ****        -4.1198   0.0237   1.7261 C.3            1 S1                 0.0000
      4 ****        -2.9055   0.1395   2.5733 N.4            1 S1                 1.0000
      5 ****        -3.1962   0.6245   3.9419 C.3            1 S1                 0.0000
      6 ****        -1.8868   0.8113   4.7266 C.3            1 S1                 0.0000
      7 ****        -1.1642  -0.4139   4.7517 O.3            1 S1                 0.0000
      8 ****        -0.8106  -0.8523   3.4454 C.3            1 S1                 0.0000
      9 ****        -2.0862  -1.0961   2.6222 C.3            1 S1                 0.0000
     10 ****        -3.0419   1.2298  -0.1956 N.pl3          1 S1                 0.0000
     11 ****        -3.6235   2.5587  -0.0088 C.3            1 S1                 0.0000
     12 ****        -1.6878   1.1367  -0.1176 C.ar           1 S1                 0.0000
     13 ****        -1.0040   2.0126   0.6676 N.ar           1 S1                 0.0000
     14 ****         0.3218   1.9124   0.7979 C.ar           1 S1                 0.0000
     15 ****         1.1479   1.0218   0.2474 N.ar           1 S1                 0.0000
     16 ****         0.4718   0.1481  -0.5519 C.ar           1 S1                 0.0000
     17 ****        -0.9316   0.1348  -0.7901 C.ar           1 S1                 0.0000
     18 ****        -1.2513  -0.8985  -1.6635 N.2            1 S1                 0.0000
     19 ****        -0.1043  -1.4635  -1.9254 C.2            1 S1                 0.0000
     20 ****         0.9822  -0.8987  -1.2983 N.pl3          1 S1                 0.0000
     21 ****         2.3673  -1.3186  -1.4159 C.3            1 S1                 0.0000
     22 ****         3.0644  -0.7029  -2.6452 C.3            1 S1                 0.0000
     23 ****         3.0031   0.7103  -2.6023 O.3            1 S1                 0.0000
     24 ****         4.5243  -1.1742  -2.8037 C.3            1 S1                 0.0000
     25 ****         5.3156  -0.5640  -3.9647 C.3            1 S1                 0.0000
     26 ****         6.7366  -0.7328  -3.4759 C.3            1 S1                 0.0000
     27 ****         6.5863  -0.4563  -1.9822 C.3            1 S1                 0.0000
     28 ****         5.2912  -0.9322  -1.6261 O.3            1 S1                 0.0000
     29 ****        -5.5776  -1.0668  -0.4027 H              1 S1                 0.0000
     30 ****        -4.8554  -0.1190  -1.6944 H              1 S1                 0.0000
     31 ****        -5.8048   0.6737  -0.4371 H              1 S1                 0.0000
     32 ****        -3.2131  -0.8474  -0.0009 H              1 S1                 0.0000
     33 ****        -4.7910   0.8542   1.9498 H              1 S1                 0.0000
     34 ****        -4.6630  -0.8835   1.9946 H              1 S1                 0.0000
     35 ****        -3.7310   1.5738   3.8939 H              1 S1                 0.0000
     36 ****        -3.8460  -0.0869   4.4542 H              1 S1                 0.0000
     37 ****        -1.2755   1.5982   4.2813 H              1 S1                 0.0000
     38 ****        -2.1028   1.1162   5.7507 H              1 S1                 0.0000
     39 ****        -0.1694  -0.1141   2.9611 H              1 S1                 0.0000
     40 ****        -0.2316  -1.7725   3.5247 H              1 S1                 0.0000
     41 ****        -2.6678  -1.9063   3.0643 H              1 S1                 0.0000
     42 ****        -1.8085  -1.4133   1.6176 H              1 S1                 0.0000
     43 ****        -3.0762   3.3040  -0.5876 H              1 S1                 0.0000
     44 ****        -3.5960   2.8516   1.0413 H              1 S1                 0.0000
     45 ****        -4.6603   2.5890  -0.3409 H              1 S1                 0.0000
     46 ****         0.7869   2.6463   1.4398 H              1 S1                 0.0000
     47 ****        -0.0181  -2.3110  -2.5902 H              1 S1                 0.0000
     48 ****         2.8911  -1.0471  -0.4985 H              1 S1                 0.0000
     49 ****         2.3906  -2.4074  -1.4767 H              1 S1                 0.0000
     50 ****         2.5172  -1.0075  -3.5383 H              1 S1                 0.0000
     51 ****         3.4779   1.0057  -1.8402 H              1 S1                 0.0000
     52 ****         4.5216  -2.2571  -2.9382 H              1 S1                 0.0000
     53 ****         5.1278  -1.0626  -4.9158 H              1 S1                 0.0000
     54 ****         5.0983   0.4973  -4.0892 H              1 S1                 0.0000
     55 ****         7.0697  -1.7586  -3.6379 H              1 S1                 0.0000
     56 ****         7.4423  -0.0611  -3.9652 H              1 S1                 0.0000
     57 ****         7.3651  -0.9343  -1.3882 H              1 S1                 0.0000
     58 ****         6.6243   0.6167  -1.7901 H              1 S1                 0.0000
     59 ****        -2.3321   0.8522   2.1436 H              1 S1                 0.0000
     60 ****        -1.7317  -1.1144   5.1845 LP             1 S1                 0.0000
     61 ****        -0.3288  -0.2849   5.2859 LP             1 S1                 0.0000
     62 ****        -1.4972   2.7362   1.1504 LP             1 S1                 0.0000
     63 ****         2.1357   0.9978   0.4010 LP             1 S1                 0.0000
     64 ****        -2.1541  -1.1512  -2.0116 LP             1 S1                 0.0000
     65 ****         2.0496   1.0055  -2.5419 LP             1 S1                 0.0000
     66 ****         3.4184   1.0918  -3.4281 LP             1 S1                 0.0000
     67 ****         5.3810  -1.7828  -1.1079 LP             1 S1                 0.0000
     68 ****         4.8287  -0.2467  -1.0639 LP             1 S1                 0.0000
@<TRIPOS>BOND
    1    1    2 1     
    2    1   29 1     
    3    1   30 1     
    4    1   31 1     
    5    2    3 1     
    6    2   10 1     
    7    2   32 1     
    8    3    4 1     
    9    3   33 1     
   10    3   34 1     
   11    4    9 1     
   12    4    5 1     
   13    4   59 1     
   14    5    6 1     
   15    5   35 1     
   16    5   36 1     
   17    6    7 1     
   18    6   37 1     
   19    6   38 1     
   20    7    8 1     
   21    8    9 1     
   22    8   39 1     
   23    8   40 1     
   24    9   41 1     
   25    9   42 1     
   26   10   11 1     
   27   10   12 1     
   28   11   43 1     
   29   11   44 1     
   30   11   45 1     
   31   12   17 ar    
   32   12   13 ar    
   33   13   14 ar    
   34   14   15 ar    
   35   14   46 1     
   36   15   16 ar    
   37   16   20 1     
   38   16   17 ar    
   39   17   18 1     
   40   18   19 2     
   41   19   20 1     
   42   19   47 1     
   43   20   21 1     
   44   21   22 1     
   45   21   48 1     
   46   21   49 1     
   47   22   23 1     
   48   22   24 1     
   49   22   50 1     
   50   23   51 1     
   51   24   28 1     
   52   24   25 1     
   53   24   52 1     
   54   25   26 1     
   55   25   53 1     
   56   25   54 1     
   57   26   27 1     
   58   26   55 1     
   59   26   56 1     
   60   27   28 1     
   61   27   57 1     
   62   27   58 1     
   63    7   60 1     
   64    7   61 1     
   65   13   62 1     
   66   15   63 1     
   67   18   64 1     
   68   23   65 1     
   69   23   66 1     
   70   28   67 1     
   71   28   68 1     
@<TRIPOS>SUBSTRUCTURE
      1 S1             1
@<TRIPOS>SET
LONE_PAIRS      STATIC     ATOMS    <user>   **** ""
9 60 61 62 63 64 65 66 67 68
DONOR_HYDROGENS      STATIC     ATOMS    <user>   **** ""
2 59 51
ATOM$BLUE        STATIC     ATOMS    COLORGROUP SYSTEM
9 60 61 62 63 64 65 66 67 68
ATOM$RED        STATIC     ATOMS    COLORGROUP SYSTEM
2 59 51
