AV-unprocessed.smi:3322|AV-procd|sdf|12775|dock5
  -GOLD-   2272019123D 1   1.00000     0.00000
 Structure written by MMmdl.
 38 39  0  0  0  0  0  0  0  0  1 V2000
  148.0810  141.1249  153.9617 C   0  0  0  0  0  0  0  0  0  0  0  0
  148.8665  140.9174  155.2700 C   0  0  2  0  0  0  0  0  0  0  0  0
  149.2920  142.2152  155.8273 N   0  0  0  0  0  0  0  0  0  0  0  0
  149.8559  142.1148  157.1697 C   0  0  0  0  0  0  0  0  0  0  0  0
  151.2568  142.7571  157.2494 C   0  0  0  0  0  0  0  0  0  0  0  0
  151.4489  143.5699  158.4377 N   0  0  0  0  0  0  0  0  0  0  0  0
  150.7713  144.7102  158.8144 C   0  0  0  0  0  0  0  0  0  0  0  0
  151.2780  145.1043  160.0198 C   0  0  0  0  0  0  0  0  0  0  0  0
  152.2785  144.1322  160.3004 C   0  0  0  0  0  0  0  0  0  0  0  0
  152.3815  143.2177  159.3499 N   0  0  0  0  0  0  0  0  0  0  0  0
  150.0809  139.9968  155.0252 C   0  0  0  0  0  0  0  0  0  0  0  0
  151.2093  140.4609  155.2018 O   0  0  0  0  0  0  0  0  0  0  0  0
  149.8933  138.7085  154.6395 N   0  0  0  0  0  0  0  0  0  0  0  0
  148.5634  138.1457  154.3791 C   0  0  0  0  0  0  0  0  0  0  0  0
  148.2943  137.0218  155.3937 C   0  0  0  0  0  0  0  0  0  0  0  0
  149.3070  136.0266  155.2782 O   0  0  0  0  0  0  0  0  0  0  0  0
  150.6160  136.5405  155.5051 C   0  0  0  0  0  0  0  0  0  0  0  0
  150.9199  137.6672  154.5006 C   0  0  0  0  0  0  0  0  0  0  0  0
  147.7629  140.1758  153.5301 H   0  0  0  0  0  0  0  0  0  0  0  0
  148.6852  141.6404  153.2137 H   0  0  0  0  0  0  0  0  0  0  0  0
  147.1823  141.7194  154.1245 H   0  0  0  0  0  0  0  0  0  0  0  0
  148.2223  140.4407  156.0030 H   0  0  0  0  0  0  0  0  0  0  0  0
  149.9679  142.6696  155.2291 H   0  0  0  0  0  0  0  0  0  0  0  0
  149.1926  142.6701  157.8330 H   0  0  0  0  0  0  0  0  0  0  0  0
  149.8629  141.0889  157.5395 H   0  0  0  0  0  0  0  0  0  0  0  0
  152.0318  141.9899  157.2100 H   0  0  0  0  0  0  0  0  0  0  0  0
  151.4143  143.3965  156.3799 H   0  0  0  0  0  0  0  0  0  0  0  0
  149.9880  145.1354  158.2043 H   0  0  0  0  0  0  0  0  0  0  0  0
  150.9784  145.9559  160.6123 H   0  0  0  0  0  0  0  0  0  0  0  0
  152.9275  144.0638  161.1608 H   0  0  0  0  0  0  0  0  0  0  0  0
  147.7646  138.8863  154.4327 H   0  0  0  0  0  0  0  0  0  0  0  0
  148.5341  137.7487  153.3633 H   0  0  0  0  0  0  0  0  0  0  0  0
  148.2670  137.4138  156.4118 H   0  0  0  0  0  0  0  0  0  0  0  0
  147.3248  136.5625  155.2010 H   0  0  0  0  0  0  0  0  0  0  0  0
  150.7008  136.9022  156.5310 H   0  0  0  0  0  0  0  0  0  0  0  0
  151.3365  135.7305  155.3923 H   0  0  0  0  0  0  0  0  0  0  0  0
  150.9011  137.2791  153.4813 H   0  0  0  0  0  0  0  0  0  0  0  0
  151.9376  138.0084  154.6713 H   0  0  0  0  0  0  0  0  0  0  0  0
  1  2  1  0  0  0  0
  1 19  1  0  0  0  0
  1 20  1  0  0  0  0
  1 21  1  0  0  0  0
  2  3  1  0  0  0  0
  2 11  1  0  0  0  0
  2 22  1  0  0  0  0
  3  4  1  0  0  0  0
  3 23  1  0  0  0  0
  4  5  1  0  0  0  0
  4 24  1  0  0  0  0
  4 25  1  0  0  0  0
  5  6  1  0  0  0  0
  5 26  1  0  0  0  0
  5 27  1  0  0  0  0
  6 10  1  0  0  0  0
  6  7  1  0  0  0  0
  7  8  2  0  0  0  0
  7 28  1  0  0  0  0
  8  9  1  0  0  0  0
  8 29  1  0  0  0  0
  9 10  2  0  0  0  0
  9 30  1  0  0  0  0
 11 12  2  0  0  0  0
 11 13  1  0  0  0  0
 13 18  1  0  0  0  0
 13 14  1  0  0  0  0
 14 15  1  0  0  0  0
 14 31  1  0  0  0  0
 14 32  1  0  0  0  0
 15 16  1  0  0  0  0
 15 33  1  0  0  0  0
 15 34  1  0  0  0  0
 16 17  1  0  0  0  0
 17 18  1  0  0  0  0
 17 35  1  0  0  0  0
 17 36  1  0  0  0  0
 18 37  1  0  0  0  0
 18 38  1  0  0  0  0
M  END
> <s_m_source_file>
AV-unprocessed.smi

> <i_m_source_file_index>
3322

> <i_lp_mmshare_version>
43012

> <i_f3d_flags>
0

> <s_epik_input>
W0NIMl0xW0NIMl1PW0NIMl1bQ0gyXU4xQyg9TylbQ0BIXShbQ0gzXSlbTkhdW0NIMl1bQ0gyXW4yW2NIXVtjSF1bY0hdbjI=

> <s_epik_cmdline>
J2VwaWtfcHl0aG9uJywgJy1waCcsICc3LjAnLCAnLXRuJywgJzgnLCAnLW1hJywgJzIwMCcsICctbWV0YWxfYmluZGluZycsICctaW1hZScsICc8aW5maWxlLm1hZT4nLCAnLW9tYWUnLCAnPG91dGZpbGUubWFlPic=

> <r_lp_tautomer_probability>
1

> <r_epik_Ionization_Penalty>
0.511228

> <r_epik_Ionization_Penalty_Charging>
0

> <r_epik_Ionization_Penalty_Neutral>
0.511228

> <r_epik_State_Penalty>
0.51753

> <r_epik_Charging_Adjusted_Penalty>
0.51753

> <i_epik_Tot_Q>
0

> <i_epik_Tot_abs_Q>
0

> <r_epik_Metal_State_Penalty>
0.517012

> <b_epik_Metal_Only>
0

> <s_lp_Force_Field>
OPLS_2005

> <r_lp_Energy>
29.3693

> <b_lp_Chiralities_Consistent>
1

> <s_lp_Variant>
AV-unprocessed.smi:3322-3

> <Gold.Version>
5.8.1

> <Gold.Id.Protein>
6NUR|6NUR_protein|mol2

> <Gold.PLP.Fitness>
39.9810

> <Gold.PLP.PLP>
-35.5195

> <Gold.PLP.part.hbond>
-2.0000

> <Gold.PLP.part.metal>
0.0000

> <Gold.PLP.part.buried>
-4.7453

> <Gold.PLP.part.nonpolar>
-29.2280

> <Gold.PLP.part.repulsive>
0.1764

> <Gold.PLP.ligand.clash>
0.0000

> <Gold.PLP.ligand.torsion>
0.7795

> <Gold.PLP.Chemscore.Hbond>
0.9760

> <Gold.PLP.Chemscore.CHOScore>
1.0021

> <Gold.PLP.Chemscore.Metal>
0.0000

> <Gold.Chemscore.Hbonds>
donor molecule, donor type, donor heavy atom, donor atom, acceptor molecule, acceptor atom, score
      P1  H  7989  7998       L1    12  0.96
      L1  C     7    28       P1  8028  0.08
      L1  C     7    28       P1  8029  0.96

> <Gold.PLP.Chemscore.Internal.Correction>
0.0863

> <Gold.Rescore>
     Score         DG    S(hbond)    S(metal)    S(lipo)     H(rot)  DE(clash)    DE(int)     intcor
     12.03     -13.00       0.99        0.00      76.37       1.84       0.04       0.94       ----

> <Gold.Chemscore.Fitness>
12.0255

> <Gold.Chemscore.DG>
-13.0047

> <Gold.Chemscore.ZeroCoef>
-5.4800

> <Gold.Chemscore.Hbond>
0.9913

> <Gold.Chemscore.Metal>
0.0000

> <Gold.Chemscore.Lipo>
76.3667

> <Gold.Chemscore.Internal_Hbond>
0.0000

> <Gold.Chemscore.DEClash>
0.0408

> <Gold.Chemscore.DEInternal>
0.9383

> <Gold.Chemscore.Rot>
1.8442

> <Gold.Chemscore.Internal.Correction>
   9.000000E+99

> <Gold.Chemscore.Hbonds>
donor molecule, donor type, donor heavy atom, donor atom, acceptor molecule, acceptor atom, score
      P1  H  7989  7998       L1    12  0.24

> <Gold.Chemscore.Hbond.Weighted>
-3.3110

> <Gold.Chemscore.Metal.Weighted>
-0.0000

> <Gold.Chemscore.Lipo.Weighted>
-8.9349

> <Gold.Chemscore.Internal_Hbond.Weighted>
0.0000

> <Gold.Chemscore.DEClash.Weighted>
0.0408

> <Gold.Chemscore.DEInternal.Weighted>
0.9383

> <Gold.Chemscore.Rot.Weighted>
4.7212

> <Gold.Chemscore.Internal.Correction.Weighted>
   9.000000E+99

> <Gold.Protein.RotatedTorsions>
[ 6907 6896 6895 6894 ] final  127.44 input  -60.11 | X-H torsion
[ 7974 7965 7964 7962 ] final  121.80 input  175.53 | X-H torsion
[ 8008 7997 7996 7995 ] final  125.98 input   59.86 | X-H torsion
[ 10167 10162 10161 10158 ] final  -27.38 input  -65.29 | X-H torsion
[ 10718 10713 10712 10709 ] final  -34.68 input   66.30 | X-H torsion
[ 10763 10752 10751 10750 ] final   56.93 input  -60.55 | X-H torsion
[ 11005 11000 10999 10996 ] final -161.50 input  -57.11 | X-H torsion

> <Gold.Protein.ActiveResidues>
 VAL166  LYS551  ARG553  GLY616  TRP617  ASP618  TYR619  PRO620  LYS621  CYS622 
 ASP623  PHE694  ASN695  SER759  ASP760  ASP761  ALA762  ILE779  LEU786  VAL792 
 PHE793  MET794  SER795  GLU796  ALA797  LYS798  CYS799  TRP800  GLU811  SER814 

> <Gold.Protein.RotatedAtoms>
  152.3812  133.6548  159.6162 H   0  0  0  0  0  0  0  0  0  0  0  0  # atno 6907 bound_to 6896
  150.7742  133.9111  159.3378 H   0  0  0  0  0  0  0  0  0  0  0  0  # atno 6908 bound_to 6896
  151.6916  135.0947  160.0286 H   0  0  0  0  0  0  0  0  0  0  0  0  # atno 6909 bound_to 6896
  145.1151  139.3427  143.4743 H   0  0  0  0  0  0  0  0  0  0  0  0  # atno 7974 bound_to 7965
  156.2850  140.2703  156.2037 H   0  0  0  0  0  0  0  0  0  0  0  0  # atno 8008 bound_to 7997
  155.0335  140.0386  157.2501 H   0  0  0  0  0  0  0  0  0  0  0  0  # atno 8009 bound_to 7997
  154.7334  140.2711  155.6441 H   0  0  0  0  0  0  0  0  0  0  0  0  # atno 8010 bound_to 7997
  140.7277  143.4098  151.1125 H   0  0  0  0  0  0  0  0  0  0  0  0  # atno 10167 bound_to 10162
  156.3477  130.4303  149.7731 H   0  0  0  0  0  0  0  0  0  0  0  0  # atno 10718 bound_to 10713
  152.9840  135.5659  154.5308 H   0  0  0  0  0  0  0  0  0  0  0  0  # atno 10763 bound_to 10752
  154.4780  135.2787  155.1594 H   0  0  0  0  0  0  0  0  0  0  0  0  # atno 10764 bound_to 10752
  154.3115  135.6287  153.5521 H   0  0  0  0  0  0  0  0  0  0  0  0  # atno 10765 bound_to 10752
  140.6197  134.4764  157.5222 H   0  0  0  0  0  0  0  0  0  0  0  0  # atno 11005 bound_to 11000
  146.3524  140.1086  142.8605 LP  0  0  0  0  0  0  0  0  0  0  0  0  # atno 17320 bound_to 7965
  145.0803  140.9216  143.4829 LP  0  0  0  0  0  0  0  0  0  0  0  0  # atno 17321 bound_to 7965
  139.7730  143.8467  152.3124 LP  0  0  0  0  0  0  0  0  0  0  0  0  # atno 17342 bound_to 10162
  139.8392  144.7218  150.9353 LP  0  0  0  0  0  0  0  0  0  0  0  0  # atno 17343 bound_to 10162
  156.4944  130.8100  151.3107 LP  0  0  0  0  0  0  0  0  0  0  0  0  # atno 17370 bound_to 10713
  157.7456  130.9965  150.2782 LP  0  0  0  0  0  0  0  0  0  0  0  0  # atno 17371 bound_to 10713
  139.9158  134.8248  156.1370 LP  0  0  0  0  0  0  0  0  0  0  0  0  # atno 17394 bound_to 11000
  141.0751  133.6779  156.2220 LP  0  0  0  0  0  0  0  0  0  0  0  0  # atno 17395 bound_to 11000

$$$$
