AV-unprocessed.smi:287|AV-procd|sdf|2198|dock9
  -GOLD-   2262022 13D 1   1.00000     0.00000
 Structure written by MMmdl.
 55 58  0  0  0  0  0  0  0  0  1 V2000
  152.6419  144.2588  159.0708 C   0  0  0  0  0  0  0  0  0  0  0  0
  151.8733  143.1817  158.3858 C   0  0  0  0  0  0  0  0  0  0  0  0
  151.0990  143.1427  157.2634 C   0  0  0  0  0  0  0  0  0  0  0  0
  150.6347  141.8018  157.1119 C   0  0  0  0  0  0  0  0  0  0  0  0
  149.7337  141.2799  156.0008 C   0  0  2  0  0  0  0  0  0  0  0  0
  150.4391  140.1329  155.2593 C   0  0  0  0  0  0  0  0  0  0  0  0
  149.4629  142.2571  155.0143 O   0  0  0  0  0  0  0  0  0  0  0  0
  148.3560  140.8086  156.5215 C   0  0  0  0  0  0  0  0  0  0  0  0
  148.3937  139.4692  157.0953 N   0  0  0  0  0  0  0  0  0  0  0  0
  147.4709  138.5433  156.7607 C   0  0  0  0  0  0  0  0  0  0  0  0
  146.8013  137.9873  157.7986 N   0  0  0  0  0  0  0  0  0  0  0  0
  145.8666  137.0593  157.5763 C   0  0  0  0  0  0  0  0  0  0  0  0
  145.4525  136.5548  156.4128 N   0  0  0  0  0  0  0  0  0  0  0  0
  146.1220  137.1108  155.3619 C   0  0  0  0  0  0  0  0  0  0  0  0
  147.1383  138.1049  155.4443 C   0  0  0  0  0  0  0  0  0  0  0  0
  147.5724  138.4196  154.1608 N   0  0  0  0  0  0  0  0  0  0  0  0
  146.8570  137.6580  153.3785 C   0  0  0  0  0  0  0  0  0  0  0  0
  145.9526  136.8406  154.0213 N   0  0  0  0  0  0  0  0  0  0  0  0
  144.9785  135.8536  153.4456 C   0  0  2  0  0  0  0  0  0  0  0  0
  145.6984  134.7222  153.0657 O   0  0  0  0  0  0  0  0  0  0  0  0
  145.9101  134.6787  151.6511 C   0  0  1  0  0  0  0  0  0  0  0  0
  145.2084  133.3980  151.1512 C   0  0  0  0  0  0  0  0  0  0  0  0
  145.6183  133.1135  149.8305 O   0  0  0  0  0  0  0  0  0  0  0  0
  145.3286  136.0058  151.1161 C   0  0  1  0  0  0  0  0  0  0  0  0
  144.7240  135.8941  149.8424 O   0  0  0  0  0  0  0  0  0  0  0  0
  144.3094  136.3924  152.1733 C   0  0  2  0  0  0  0  0  0  0  0  0
  144.0865  137.7909  152.1852 O   0  0  0  0  0  0  0  0  0  0  0  0
  151.1582  141.1269  158.1881 C   0  0  0  0  0  0  0  0  0  0  0  0
  151.0647  139.7174  158.6713 C   0  0  0  0  0  0  0  0  0  0  0  0
  151.9152  141.9541  158.9616 O   0  0  0  0  0  0  0  0  0  0  0  0
  144.2862  135.6347  154.2592 H   0  0  0  0  0  0  0  0  0  0  0  0
  146.9762  134.6299  151.4251 H   0  0  0  0  0  0  0  0  0  0  0  0
  146.1228  136.7528  151.0687 H   0  0  0  0  0  0  0  0  0  0  0  0
  143.3711  135.8545  152.0295 H   0  0  0  0  0  0  0  0  0  0  0  0
  152.6574  145.1679  158.4694 H   0  0  0  0  0  0  0  0  0  0  0  0
  153.6735  143.9498  159.2415 H   0  0  0  0  0  0  0  0  0  0  0  0
  152.1947  144.4988  160.0354 H   0  0  0  0  0  0  0  0  0  0  0  0
  150.8942  143.9823  156.6156 H   0  0  0  0  0  0  0  0  0  0  0  0
  150.6639  139.3064  155.9347 H   0  0  0  0  0  0  0  0  0  0  0  0
  151.3819  140.4639  154.8214 H   0  0  0  0  0  0  0  0  0  0  0  0
  149.8210  139.7370  154.4523 H   0  0  0  0  0  0  0  0  0  0  0  0
  149.2519  143.0699  155.4475 H   0  0  0  0  0  0  0  0  0  0  0  0
  147.9515  141.5189  157.2439 H   0  0  0  0  0  0  0  0  0  0  0  0
  147.6612  140.7812  155.6810 H   0  0  0  0  0  0  0  0  0  0  0  0
  149.1922  139.2684  157.6803 H   0  0  0  0  0  0  0  0  0  0  0  0
  145.3804  136.6657  158.4566 H   0  0  0  0  0  0  0  0  0  0  0  0
  146.9742  137.6776  152.3053 H   0  0  0  0  0  0  0  0  0  0  0  0
  145.4125  132.5483  151.8036 H   0  0  0  0  0  0  0  0  0  0  0  0
  144.1270  133.5282  151.1140 H   0  0  0  0  0  0  0  0  0  0  0  0
  145.7966  133.9296  149.3890 H   0  0  0  0  0  0  0  0  0  0  0  0
  145.4007  135.7105  149.2085 H   0  0  0  0  0  0  0  0  0  0  0  0
  143.8868  138.0699  151.3044 H   0  0  0  0  0  0  0  0  0  0  0  0
  150.0239  139.4000  158.7361 H   0  0  0  0  0  0  0  0  0  0  0  0
  151.5102  139.6083  159.6604 H   0  0  0  0  0  0  0  0  0  0  0  0
  151.5843  139.0414  157.9921 H   0  0  0  0  0  0  0  0  0  0  0  0
  1  2  1  0  0  0  0
  1 35  1  0  0  0  0
  1 36  1  0  0  0  0
  1 37  1  0  0  0  0
  2 30  1  0  0  0  0
  2  3  2  0  0  0  0
  3  4  1  0  0  0  0
  3 38  1  0  0  0  0
  4  5  1  0  0  0  0
  4 28  2  0  0  0  0
  5  6  1  0  0  0  0
  5  7  1  0  0  0  0
  5  8  1  0  0  0  0
  6 39  1  0  0  0  0
  6 40  1  0  0  0  0
  6 41  1  0  0  0  0
  7 42  1  0  0  0  0
  8  9  1  0  0  0  0
  8 43  1  0  0  0  0
  8 44  1  0  0  0  0
  9 10  1  0  0  0  0
  9 45  1  0  0  0  0
 10 15  1  0  0  0  0
 10 11  2  0  0  0  0
 11 12  1  0  0  0  0
 12 13  2  0  0  0  0
 12 46  1  0  0  0  0
 13 14  1  0  0  0  0
 14 18  1  0  0  0  0
 14 15  2  0  0  0  0
 15 16  1  0  0  0  0
 16 17  2  0  0  0  0
 17 18  1  0  0  0  0
 17 47  1  0  0  0  0
 18 19  1  0  0  0  0
 19 31  1  0  0  0  0
 19 26  1  0  0  0  0
 19 20  1  0  0  0  0
 20 21  1  0  0  0  0
 21 32  1  0  0  0  0
 21 22  1  0  0  0  0
 21 24  1  0  0  0  0
 22 23  1  0  0  0  0
 22 48  1  0  0  0  0
 22 49  1  0  0  0  0
 23 50  1  0  0  0  0
 24 33  1  0  0  0  0
 24 25  1  0  0  0  0
 24 26  1  0  0  0  0
 25 51  1  0  0  0  0
 26 34  1  0  0  0  0
 26 27  1  0  0  0  0
 27 52  1  0  0  0  0
 28 29  1  0  0  0  0
 28 30  1  0  0  0  0
 29 53  1  0  0  0  0
 29 54  1  0  0  0  0
 29 55  1  0  0  0  0
M  END
> <s_m_source_file>
AV-unprocessed.smi

> <i_m_source_file_index>
287

> <i_lp_mmshare_version>
43012

> <i_f3d_flags>
0

> <s_epik_input>
W0NIM11jMVtjSF1jKGMobzEpW0NIM10pW0NAQF0oW0NIM10pKFtPSF0pW0NIMl1bTkhdYyhuW2NIXW4yKWMoYzIzKW5bY0hdbjNbQ0BASF00T1tDQEhdKFtDSDJdW09IXSlbQ0BASF0oW09IXSlbQ0BIXTRbT0hd

> <s_epik_cmdline>
J2VwaWtfcHl0aG9uJywgJy1waCcsICc3LjAnLCAnLXRuJywgJzgnLCAnLW1hJywgJzIwMCcsICctbWV0YWxfYmluZGluZycsICctaW1hZScsICc8aW5maWxlLm1hZT4nLCAnLW9tYWUnLCAnPG91dGZpbGUubWFlPic=

> <r_lp_tautomer_probability>
1

> <r_epik_Ionization_Penalty>
0.000992612

> <r_epik_Ionization_Penalty_Charging>
0

> <r_epik_Ionization_Penalty_Neutral>
0.000992612

> <r_epik_State_Penalty>
-0

> <r_epik_Charging_Adjusted_Penalty>
0

> <i_epik_Tot_Q>
0

> <i_epik_Tot_abs_Q>
0

> <r_epik_Metal_State_Penalty>
-0

> <b_epik_Metal_Only>
0

> <s_epik_Chemistry_Notes>
This compound contains an acetal/aminal-like group ( X-CH(R)-Y where X, Y are N, S, or O) that may be acid/base labile, releasing an aldehyde.

> <s_lp_Force_Field>
OPLS_2005

> <r_lp_Energy>
45.8493

> <b_lp_Chiralities_Consistent>
1

> <s_lp_Variant>
AV-unprocessed.smi:287-22

> <Gold.Version>
5.8.1

> <Gold.Id.Protein>
6NUR|6NUR_protein|mol2

> <Gold.PLP.Fitness>
48.2597

> <Gold.PLP.PLP>
-37.7934

> <Gold.PLP.part.hbond>
-6.7392

> <Gold.PLP.part.metal>
0.0000

> <Gold.PLP.part.buried>
-2.8314

> <Gold.PLP.part.nonpolar>
-28.4907

> <Gold.PLP.part.repulsive>
0.2829

> <Gold.PLP.ligand.clash>
0.0000

> <Gold.PLP.ligand.torsion>
1.5176

> <Gold.PLP.Chemscore.Hbond>
3.9440

> <Gold.PLP.Chemscore.CHOScore>
0.5036

> <Gold.PLP.Chemscore.Metal>
0.0000

> <Gold.Chemscore.Hbonds>
donor molecule, donor type, donor heavy atom, donor atom, acceptor molecule, acceptor atom, score
      L1  H     7    42       P1  8028  1.00
      L1  H    23    50       P1  7921  0.91
      L1  H    25    51       P1  7921  1.00
      L1  H    27    52       P1 10171  1.00
      L1  C    17    47       P1  7948  0.51

> <Gold.PLP.Chemscore.Internal.Correction>
0.1586

> <Gold.Rescore>
     Score         DG    S(hbond)    S(metal)    S(lipo)     H(rot)  DE(clash)    DE(int)     intcor
     11.31     -14.46       3.57        0.00      90.02       5.27       0.92       2.24       ----

> <Gold.Chemscore.Fitness>
11.3059

> <Gold.Chemscore.DG>
-14.4596

> <Gold.Chemscore.ZeroCoef>
-5.4800

> <Gold.Chemscore.Hbond>
3.5721

> <Gold.Chemscore.Metal>
0.0000

> <Gold.Chemscore.Lipo>
90.0225

> <Gold.Chemscore.Internal_Hbond>
0.0000

> <Gold.Chemscore.DEClash>
0.9153

> <Gold.Chemscore.DEInternal>
2.2384

> <Gold.Chemscore.Rot>
5.2672

> <Gold.Chemscore.Internal.Correction>
   9.000000E+99

> <Gold.Chemscore.Hbonds>
donor molecule, donor type, donor heavy atom, donor atom, acceptor molecule, acceptor atom, score
      L1  H     7    42       P1  8028  0.99
      L1  H    23    50       P1  7921  0.30
      L1  H    25    51       P1  7921  0.97
      L1  H    27    52       P1 10171  0.96

> <Gold.Chemscore.Hbond.Weighted>
-11.9309

> <Gold.Chemscore.Metal.Weighted>
-0.0000

> <Gold.Chemscore.Lipo.Weighted>
-10.5326

> <Gold.Chemscore.Internal_Hbond.Weighted>
0.0000

> <Gold.Chemscore.DEClash.Weighted>
0.9153

> <Gold.Chemscore.DEInternal.Weighted>
2.2384

> <Gold.Chemscore.Rot.Weighted>
13.4839

> <Gold.Chemscore.Internal.Correction.Weighted>
   9.000000E+99

> <Gold.Protein.RotatedTorsions>
[ 6907 6896 6895 6894 ] final  110.92 input  -60.11 | X-H torsion
[ 7974 7965 7964 7962 ] final  -93.75 input  175.53 | X-H torsion
[ 8008 7997 7996 7995 ] final -179.48 input   59.86 | X-H torsion
[ 10167 10162 10161 10158 ] final    6.51 input  -65.29 | X-H torsion
[ 10718 10713 10712 10709 ] final  156.46 input   66.30 | X-H torsion
[ 10763 10752 10751 10750 ] final   33.29 input  -60.55 | X-H torsion
[ 11005 11000 10999 10996 ] final  -93.57 input  -57.11 | X-H torsion

> <Gold.Protein.ActiveResidues>
 VAL166  LYS551  ARG553  GLY616  TRP617  ASP618  TYR619  PRO620  LYS621  CYS622 
 ASP623  PHE694  ASN695  SER759  ASP760  ASP761  ALA762  ILE779  LEU786  VAL792 
 PHE793  MET794  SER795  GLU796  ALA797  LYS798  CYS799  TRP800  GLU811  SER814 

> <Gold.Protein.RotatedAtoms>
  152.4995  133.8731  159.7308 H   0  0  0  0  0  0  0  0  0  0  0  0  # atno 6907 bound_to 6896
  150.9213  133.6868  159.2838 H   0  0  0  0  0  0  0  0  0  0  0  0  # atno 6908 bound_to 6896
  151.4245  135.1006  159.9676 H   0  0  0  0  0  0  0  0  0  0  0  0  # atno 6909 bound_to 6896
  145.3824  140.9519  143.2386 H   0  0  0  0  0  0  0  0  0  0  0  0  # atno 7974 bound_to 7965
  156.0310  140.1282  157.0258 H   0  0  0  0  0  0  0  0  0  0  0  0  # atno 8008 bound_to 7997
  154.4350  140.1049  156.6169 H   0  0  0  0  0  0  0  0  0  0  0  0  # atno 8009 bound_to 7997
  155.5807  140.3468  155.4542 H   0  0  0  0  0  0  0  0  0  0  0  0  # atno 8010 bound_to 7997
  140.6423  143.7744  150.7447 H   0  0  0  0  0  0  0  0  0  0  0  0  # atno 10167 bound_to 10162
  157.2047  131.0684  151.2005 H   0  0  0  0  0  0  0  0  0  0  0  0  # atno 10718 bound_to 10713
  153.0219  135.6391  154.1488 H   0  0  0  0  0  0  0  0  0  0  0  0  # atno 10763 bound_to 10752
  154.1222  135.2846  155.3207 H   0  0  0  0  0  0  0  0  0  0  0  0  # atno 10764 bound_to 10752
  154.6255  135.5510  153.7685 H   0  0  0  0  0  0  0  0  0  0  0  0  # atno 10765 bound_to 10752
  141.1494  133.7896  157.0178 H   0  0  0  0  0  0  0  0  0  0  0  0  # atno 11005 bound_to 11000
  144.8498  139.5339  143.6861 LP  0  0  0  0  0  0  0  0  0  0  0  0  # atno 17320 bound_to 7965
  146.2836  139.6943  142.9211 LP  0  0  0  0  0  0  0  0  0  0  0  0  # atno 17321 bound_to 7965
  140.1378  143.4468  152.2213 LP  0  0  0  0  0  0  0  0  0  0  0  0  # atno 17342 bound_to 10162
  139.5633  144.7419  151.4094 LP  0  0  0  0  0  0  0  0  0  0  0  0  # atno 17343 bound_to 10162
  157.3732  130.7192  149.6579 LP  0  0  0  0  0  0  0  0  0  0  0  0  # atno 17370 bound_to 10713
  155.9696  130.4193  150.4368 LP  0  0  0  0  0  0  0  0  0  0  0  0  # atno 17371 bound_to 10713
  140.0836  134.9634  157.1663 LP  0  0  0  0  0  0  0  0  0  0  0  0  # atno 17394 bound_to 11000
  140.3543  134.2564  155.7194 LP  0  0  0  0  0  0  0  0  0  0  0  0  # atno 17395 bound_to 11000

$$$$
