#       Name:                AV-unprocessed.smi:1112
#       Creating user name   scv26
#       Creation time:       Fri Mar 27 03:34:18 2020


#       File generated by GOLD software.
#

@<TRIPOS>MOLECULE
AV-unprocessed.smi:1112
    55    57     1
SMALL
NO_CHARGES


@<TRIPOS>ATOM
      1 ****         1.0478   1.7343  -0.5851 O.2            1 S1                 0.0000
      2 ****         0.4988   0.6367  -0.4925 C.2            1 S1                 0.0000
      3 ****         1.1627  -0.5280  -0.4700 N.am           1 S1                 0.0000
      4 ****         2.6157  -0.6891  -0.5098 C.3            1 S1                 0.0000
      5 ****         3.1977  -1.2444   0.8182 C.3            1 S1                 0.0000
      6 ****         2.7989  -2.6004   0.8926 O.3            1 S1                 0.0000
      7 ****         4.7456  -1.2531   0.7981 C.3            1 S1                 0.0000
      8 ****         5.3526   0.1540   0.9594 C.3            1 S1                 0.0000
      9 ****         4.8184   0.8588   2.2161 C.3            1 S1                 0.0000
     10 ****         3.2828   0.8912   2.2289 C.3            1 S1                 0.0000
     11 ****         2.6996  -0.5259   2.0973 C.3            1 S1                 0.0000
     12 ****        -0.8276   0.4378  -0.4140 N.am           1 S1                 0.0000
     13 ****        -1.8739   1.4052  -0.3895 C.ar           1 S1                 0.0000
     14 ****        -1.6845   2.7364   0.0567 C.ar           1 S1                 0.0000
     15 ****        -2.7799   3.6194   0.0682 C.ar           1 S1                 0.0000
     16 ****        -4.0307   3.1389  -0.3579 C.ar           1 S1                 0.0000
     17 ****        -4.2321   1.8714  -0.7711 N.ar           1 S1                 0.0000
     18 ****        -3.1799   1.0165  -0.7856 C.ar           1 S1                 0.0000
     19 ****        -3.4175  -0.3009  -1.2174 N.3            1 S1                 0.0000
     20 ****        -3.9113  -0.4360  -2.5777 C.3            1 S1                 0.0000
     21 ****        -4.4400  -1.8688  -2.6774 C.3            1 S1                 0.0000
     22 ****        -4.7233  -2.2859  -1.2290 C.3            1 S1                 0.0000
     23 ****        -4.3218  -1.0745  -0.3831 C.3            1 S1                 0.0000
     24 ****         0.6224  -1.3776  -0.3972 H              1 S1                 0.0000
     25 ****         2.8612  -1.3570  -1.3365 H              1 S1                 0.0000
     26 ****         3.0867   0.2615  -0.7589 H              1 S1                 0.0000
     27 ****         3.1633  -2.9774   1.6789 H              1 S1                 0.0000
     28 ****         5.1170  -1.8784   1.6118 H              1 S1                 0.0000
     29 ****         5.1116  -1.7097  -0.1225 H              1 S1                 0.0000
     30 ****         6.4389   0.0813   1.0138 H              1 S1                 0.0000
     31 ****         5.1362   0.7608   0.0805 H              1 S1                 0.0000
     32 ****         5.1785   0.3409   3.1059 H              1 S1                 0.0000
     33 ****         5.2129   1.8739   2.2692 H              1 S1                 0.0000
     34 ****         2.9304   1.3516   3.1522 H              1 S1                 0.0000
     35 ****         2.9223   1.5213   1.4159 H              1 S1                 0.0000
     36 ****         1.6108  -0.4885   2.1355 H              1 S1                 0.0000
     37 ****         3.0007  -1.1015   2.9742 H              1 S1                 0.0000
     38 ****        -1.1340  -0.5240  -0.4382 H              1 S1                 0.0000
     39 ****        -0.7278   3.0939   0.4043 H              1 S1                 0.0000
     40 ****        -2.6650   4.6400   0.4019 H              1 S1                 0.0000
     41 ****        -4.8946   3.7871  -0.3598 H              1 S1                 0.0000
     42 ****        -4.7178   0.2737  -2.7671 H              1 S1                 0.0000
     43 ****        -3.1195  -0.2483  -3.3034 H              1 S1                 0.0000
     44 ****        -5.3277  -1.9264  -3.3081 H              1 S1                 0.0000
     45 ****        -3.6816  -2.5224  -3.1099 H              1 S1                 0.0000
     46 ****        -5.7686  -2.5535  -1.0722 H              1 S1                 0.0000
     47 ****        -4.1153  -3.1521  -0.9657 H              1 S1                 0.0000
     48 ****        -3.8369  -1.3764   0.5458 H              1 S1                 0.0000
     49 ****        -5.2044  -0.4866  -0.1268 H              1 S1                 0.0000
     50 ****         2.0442   1.7912  -0.6487 LP             1 S1                 0.0000
     51 ****         0.4976   2.5692  -0.5967 LP             1 S1                 0.0000
     52 ****         3.1374  -3.0959   0.0927 LP             1 S1                 0.0000
     53 ****         1.8010  -2.6574   0.9223 LP             1 S1                 0.0000
     54 ****        -5.1396   1.5678  -1.0611 LP             1 S1                 0.0000
     55 ****        -2.4886  -0.6656  -1.1531 LP             1 S1                 0.0000
@<TRIPOS>BOND
    1    1    2 2     
    2    2    3 am    
    3    2   12 am    
    4    3    4 1     
    5    3   24 1     
    6    4    5 1     
    7    4   25 1     
    8    4   26 1     
    9    5   11 1     
   10    5    6 1     
   11    5    7 1     
   12    6   27 1     
   13    7    8 1     
   14    7   28 1     
   15    7   29 1     
   16    8    9 1     
   17    8   30 1     
   18    8   31 1     
   19    9   10 1     
   20    9   32 1     
   21    9   33 1     
   22   10   11 1     
   23   10   34 1     
   24   10   35 1     
   25   11   36 1     
   26   11   37 1     
   27   12   13 1     
   28   12   38 1     
   29   13   18 ar    
   30   13   14 ar    
   31   14   15 ar    
   32   14   39 1     
   33   15   16 ar    
   34   15   40 1     
   35   16   17 ar    
   36   16   41 1     
   37   17   18 ar    
   38   18   19 1     
   39   19   23 1     
   40   19   20 1     
   41   20   21 1     
   42   20   42 1     
   43   20   43 1     
   44   21   22 1     
   45   21   44 1     
   46   21   45 1     
   47   22   23 1     
   48   22   46 1     
   49   22   47 1     
   50   23   48 1     
   51   23   49 1     
   52    1   50 1     
   53    1   51 1     
   54    6   52 1     
   55    6   53 1     
   56   17   54 1     
   57   19   55 1     
@<TRIPOS>SUBSTRUCTURE
      1 S1             1
@<TRIPOS>SET
LONE_PAIRS      STATIC     ATOMS    <user>   **** ""
6 50 51 52 53 54 55
DONOR_HYDROGENS      STATIC     ATOMS    <user>   **** ""
3 24 27 38
ATOM$BLUE        STATIC     ATOMS    COLORGROUP SYSTEM
6 50 51 52 53 54 55
ATOM$RED        STATIC     ATOMS    COLORGROUP SYSTEM
3 24 27 38
