AV-unprocessed.smi:171|AV-procd|sdf|1419|dock5
  -GOLD-   2262019183D 1   1.00000     0.00000
 Structure written by MMmdl.
 56 59  0  0  0  0  0  0  0  0  1 V2000
  151.8742  142.5849  158.6999 C   0  0  0  0  0  0  0  0  0  0  0  0
  151.2268  141.2562  158.2740 C   0  0  0  0  0  0  0  0  0  0  0  0
  152.1174  140.0714  158.6774 C   0  0  0  0  0  0  0  0  0  0  0  0
  150.9103  141.2063  156.7605 C   0  0  0  0  0  0  0  0  0  0  0  0
  150.1282  139.9569  156.2860 C   0  0  1  0  0  0  0  0  0  0  0  0
  149.5870  140.1753  154.8549 C   0  0  0  0  0  0  0  0  0  0  0  0
  148.6943  140.9985  154.6639 O   0  0  0  0  0  0  0  0  0  0  0  0
  150.1023  139.4571  153.8405 N   0  0  0  0  0  0  0  0  0  0  0  0
  151.1470  138.4402  153.9559 C   0  0  0  0  0  0  0  0  0  0  0  0
  151.9156  138.5271  155.2853 C   0  0  0  0  0  0  0  0  0  0  0  0
  150.9856  138.7657  156.3847 N   0  0  0  0  0  0  0  0  0  0  0  0
  150.4944  137.6467  156.9732 C   0  0  0  0  0  0  0  0  0  0  0  0
  149.9085  137.7171  158.1979 N   0  0  0  0  0  0  0  0  0  0  0  0
  149.4151  136.6156  158.7714 C   0  0  0  0  0  0  0  0  0  0  0  0
  149.3993  135.3657  158.3030 N   0  0  0  0  0  0  0  0  0  0  0  0
  149.9848  135.2914  157.0733 C   0  0  0  0  0  0  0  0  0  0  0  0
  150.5531  136.3731  156.3445 C   0  0  0  0  0  0  0  0  0  0  0  0
  151.0664  135.9158  155.1369 N   0  0  0  0  0  0  0  0  0  0  0  0
  150.8095  134.6363  155.1482 C   0  0  0  0  0  0  0  0  0  0  0  0
  150.1554  134.1779  156.2697 N   0  0  0  0  0  0  0  0  0  0  0  0
  149.7439  132.8097  156.5406 C   0  0  0  0  0  0  0  0  0  0  0  0
  148.9632  132.1615  155.3728 C   0  0  1  0  0  0  0  0  0  0  0  0
  148.1947  131.0837  155.8847 O   0  0  0  0  0  0  0  0  0  0  0  0
  148.0200  133.1155  154.6535 C   0  0  0  0  0  0  0  0  0  0  0  0
  147.8964  132.4781  153.2761 C   0  0  0  0  0  0  0  0  0  0  0  0
  149.2007  131.9877  153.0002 O   0  0  0  0  0  0  0  0  0  0  0  0
  149.8805  131.6903  154.2194 C   0  0  2  0  0  0  0  0  0  0  0  0
  150.3224  130.2178  154.2484 C   0  0  0  0  0  0  0  0  0  0  0  0
  152.7889  142.7787  158.1386 H   0  0  0  0  0  0  0  0  0  0  0  0
  152.1307  142.5735  159.7596 H   0  0  0  0  0  0  0  0  0  0  0  0
  151.2004  143.4276  158.5457 H   0  0  0  0  0  0  0  0  0  0  0  0
  150.2941  141.1503  158.8292 H   0  0  0  0  0  0  0  0  0  0  0  0
  153.0787  140.1048  158.1634 H   0  0  0  0  0  0  0  0  0  0  0  0
  151.6425  139.1206  158.4340 H   0  0  0  0  0  0  0  0  0  0  0  0
  152.3138  140.0733  159.7500 H   0  0  0  0  0  0  0  0  0  0  0  0
  150.3490  142.1032  156.4932 H   0  0  0  0  0  0  0  0  0  0  0  0
  151.8473  141.2741  156.2056 H   0  0  0  0  0  0  0  0  0  0  0  0
  149.2552  139.8554  156.9315 H   0  0  0  0  0  0  0  0  0  0  0  0
  149.7308  139.6217  152.9161 H   0  0  0  0  0  0  0  0  0  0  0  0
  150.6649  137.4652  153.8761 H   0  0  0  0  0  0  0  0  0  0  0  0
  151.8327  138.5224  153.1124 H   0  0  0  0  0  0  0  0  0  0  0  0
  152.5126  137.6265  155.4330 H   0  0  0  0  0  0  0  0  0  0  0  0
  152.6251  139.3543  155.2497 H   0  0  0  0  0  0  0  0  0  0  0  0
  148.9682  136.7559  159.7446 H   0  0  0  0  0  0  0  0  0  0  0  0
  151.0881  133.9878  154.3302 H   0  0  0  0  0  0  0  0  0  0  0  0
  150.6396  132.2289  156.7652 H   0  0  0  0  0  0  0  0  0  0  0  0
  149.1405  132.8022  157.4493 H   0  0  0  0  0  0  0  0  0  0  0  0
  148.3710  131.0025  156.8097 H   0  0  0  0  0  0  0  0  0  0  0  0
  147.0593  133.2458  155.1538 H   0  0  0  0  0  0  0  0  0  0  0  0
  148.4815  134.0989  154.5526 H   0  0  0  0  0  0  0  0  0  0  0  0
  147.1976  131.6408  153.3002 H   0  0  0  0  0  0  0  0  0  0  0  0
  147.5619  133.1809  152.5129 H   0  0  0  0  0  0  0  0  0  0  0  0
  150.7772  132.3110  154.2078 H   0  0  0  0  0  0  0  0  0  0  0  0
  150.8335  129.9795  155.1816 H   0  0  0  0  0  0  0  0  0  0  0  0
  151.0113  130.0071  153.4301 H   0  0  0  0  0  0  0  0  0  0  0  0
  149.4744  129.5403  154.1428 H   0  0  0  0  0  0  0  0  0  0  0  0
  1  2  1  0  0  0  0
  1 29  1  0  0  0  0
  1 30  1  0  0  0  0
  1 31  1  0  0  0  0
  2  3  1  0  0  0  0
  2  4  1  0  0  0  0
  2 32  1  0  0  0  0
  3 33  1  0  0  0  0
  3 34  1  0  0  0  0
  3 35  1  0  0  0  0
  4  5  1  0  0  0  0
  4 36  1  0  0  0  0
  4 37  1  0  0  0  0
  5 11  1  0  0  0  0
  5  6  1  0  0  0  0
  5 38  1  0  0  0  0
  6  7  2  0  0  0  0
  6  8  1  0  0  0  0
  8  9  1  0  0  0  0
  8 39  1  0  0  0  0
  9 10  1  0  0  0  0
  9 40  1  0  0  0  0
  9 41  1  0  0  0  0
 10 11  1  0  0  0  0
 10 42  1  0  0  0  0
 10 43  1  0  0  0  0
 11 12  1  0  0  0  0
 12 17  1  0  0  0  0
 12 13  2  0  0  0  0
 13 14  1  0  0  0  0
 14 15  2  0  0  0  0
 14 44  1  0  0  0  0
 15 16  1  0  0  0  0
 16 20  1  0  0  0  0
 16 17  2  0  0  0  0
 17 18  1  0  0  0  0
 18 19  2  0  0  0  0
 19 20  1  0  0  0  0
 19 45  1  0  0  0  0
 20 21  1  0  0  0  0
 21 22  1  0  0  0  0
 21 46  1  0  0  0  0
 21 47  1  0  0  0  0
 22 27  1  0  0  0  0
 22 23  1  0  0  0  0
 22 24  1  0  0  0  0
 23 48  1  0  0  0  0
 24 25  1  0  0  0  0
 24 49  1  0  0  0  0
 24 50  1  0  0  0  0
 25 26  1  0  0  0  0
 25 51  1  0  0  0  0
 25 52  1  0  0  0  0
 26 27  1  0  0  0  0
 27 28  1  0  0  0  0
 27 53  1  0  0  0  0
 28 54  1  0  0  0  0
 28 55  1  0  0  0  0
 28 56  1  0  0  0  0
M  END
> <s_m_source_file>
AV-unprocessed.smi

> <i_m_source_file_index>
171

> <i_lp_mmshare_version>
43012

> <i_f3d_flags>
0

> <s_epik_input>
W0NIM11bQ0hdKFtDSDNdKVtDSDJdW0NAQEhdMUMoPU8pW05IXVtDSDJdW0NIMl1OMWMobltjSF1uMiljKGMyMyluW2NIXW4zW0NIMl1bQ0BAXTQoW09IXSlbQ0gyXVtDSDJdT1tDQEhdNFtDSDNd

> <s_epik_cmdline>
J2VwaWtfcHl0aG9uJywgJy1waCcsICc3LjAnLCAnLXRuJywgJzgnLCAnLW1hJywgJzIwMCcsICctbWV0YWxfYmluZGluZycsICctaW1hZScsICc8aW5maWxlLm1hZT4nLCAnLW9tYWUnLCAnPG91dGZpbGUubWFlPic=

> <r_lp_tautomer_probability>
1

> <r_epik_Ionization_Penalty>
0.000670584

> <r_epik_Ionization_Penalty_Charging>
0

> <r_epik_Ionization_Penalty_Neutral>
0.000670584

> <r_epik_State_Penalty>
0.000304767

> <r_epik_Charging_Adjusted_Penalty>
0.000304767

> <i_epik_Tot_Q>
0

> <i_epik_Tot_abs_Q>
0

> <r_epik_Metal_State_Penalty>
-0

> <b_epik_Metal_Only>
0

> <s_lp_Force_Field>
OPLS_2005

> <r_lp_Energy>
42.7998

> <b_lp_Chiralities_Consistent>
1

> <s_lp_Variant>
AV-unprocessed.smi:171-6

> <Gold.Version>
5.8.1

> <Gold.Id.Protein>
6NUR|6NUR_protein|mol2

> <Gold.PLP.Fitness>
41.7227

> <Gold.PLP.PLP>
-35.5841

> <Gold.PLP.part.hbond>
-2.9769

> <Gold.PLP.part.metal>
0.0000

> <Gold.PLP.part.buried>
-6.2289

> <Gold.PLP.part.nonpolar>
-27.4422

> <Gold.PLP.part.repulsive>
1.7553

> <Gold.PLP.ligand.clash>
0.0021

> <Gold.PLP.ligand.torsion>
0.9890

> <Gold.PLP.Chemscore.Hbond>
2.5850

> <Gold.PLP.Chemscore.CHOScore>
0.0000

> <Gold.PLP.Chemscore.Metal>
0.0000

> <Gold.Chemscore.Hbonds>
donor molecule, donor type, donor heavy atom, donor atom, acceptor molecule, acceptor atom, score
      L1  H     8    39       P1  7957  1.00
      P1  H  6896  6907       L1    15  1.00
      P1  H 10752 10764       L1    18  0.55

> <Gold.PLP.Chemscore.Internal.Correction>
0.3638

> <Gold.Rescore>
     Score         DG    S(hbond)    S(metal)    S(lipo)     H(rot)  DE(clash)    DE(int)     intcor
      9.25     -13.37       1.34        0.00      79.27       2.29       0.16       3.96       ----

> <Gold.Chemscore.Fitness>
9.2503

> <Gold.Chemscore.DG>
-13.3691

> <Gold.Chemscore.ZeroCoef>
-5.4800

> <Gold.Chemscore.Hbond>
1.3427

> <Gold.Chemscore.Metal>
0.0000

> <Gold.Chemscore.Lipo>
79.2652

> <Gold.Chemscore.Internal_Hbond>
0.0000

> <Gold.Chemscore.DEClash>
0.1583

> <Gold.Chemscore.DEInternal>
3.9605

> <Gold.Chemscore.Rot>
2.2928

> <Gold.Chemscore.Internal.Correction>
   9.000000E+99

> <Gold.Chemscore.Hbonds>
donor molecule, donor type, donor heavy atom, donor atom, acceptor molecule, acceptor atom, score
      L1  H     8    39       P1  7957  1.00
      P1  H  6896  6907       L1    15  0.13
      P1  H 10752 10764       L1    18  0.03

> <Gold.Chemscore.Hbond.Weighted>
-4.4847

> <Gold.Chemscore.Metal.Weighted>
-0.0000

> <Gold.Chemscore.Lipo.Weighted>
-9.2740

> <Gold.Chemscore.Internal_Hbond.Weighted>
0.0000

> <Gold.Chemscore.DEClash.Weighted>
0.1583

> <Gold.Chemscore.DEInternal.Weighted>
3.9605

> <Gold.Chemscore.Rot.Weighted>
5.8696

> <Gold.Chemscore.Internal.Correction.Weighted>
   9.000000E+99

> <Gold.Protein.RotatedTorsions>
[ 6907 6896 6895 6894 ] final  -73.71 input  -60.11 | X-H torsion
[ 7974 7965 7964 7962 ] final    6.77 input  175.53 | X-H torsion
[ 8008 7997 7996 7995 ] final -149.89 input   59.86 | X-H torsion
[ 10167 10162 10161 10158 ] final   96.53 input  -65.29 | X-H torsion
[ 10718 10713 10712 10709 ] final -145.97 input   66.30 | X-H torsion
[ 10763 10752 10751 10750 ] final  -56.30 input  -60.55 | X-H torsion
[ 11005 11000 10999 10996 ] final  155.68 input  -57.11 | X-H torsion

> <Gold.Protein.ActiveResidues>
 VAL166  LYS551  ARG553  GLY616  TRP617  ASP618  TYR619  PRO620  LYS621  CYS622 
 ASP623  PHE694  ASN695  SER759  ASP760  ASP761  ALA762  ILE779  LEU786  VAL792 
 PHE793  MET794  SER795  GLU796  ALA797  LYS798  CYS799  TRP800  GLU811  SER814 

> <Gold.Protein.RotatedAtoms>
  150.7120  134.4976  159.5545 H   0  0  0  0  0  0  0  0  0  0  0  0  # atno 6907 bound_to 6896
  152.2580  134.8060  160.0444 H   0  0  0  0  0  0  0  0  0  0  0  0  # atno 6908 bound_to 6896
  151.8784  133.3455  159.3795 H   0  0  0  0  0  0  0  0  0  0  0  0  # atno 6909 bound_to 6896
  146.2432  140.0183  142.8400 H   0  0  0  0  0  0  0  0  0  0  0  0  # atno 7974 bound_to 7965
  155.6148  140.0675  157.2695 H   0  0  0  0  0  0  0  0  0  0  0  0  # atno 8008 bound_to 7997
  154.4244  140.1795  156.1358 H   0  0  0  0  0  0  0  0  0  0  0  0  # atno 8009 bound_to 7997
  156.0056  140.3332  155.6892 H   0  0  0  0  0  0  0  0  0  0  0  0  # atno 8010 bound_to 7997
  139.7886  144.6861  150.9924 H   0  0  0  0  0  0  0  0  0  0  0  0  # atno 10167 bound_to 10162
  156.3891  130.7876  151.2076 H   0  0  0  0  0  0  0  0  0  0  0  0  # atno 10718 bound_to 10713
  154.2044  135.6405  153.5096 H   0  0  0  0  0  0  0  0  0  0  0  0  # atno 10763 bound_to 10752
  153.0004  135.5459  154.6281 H   0  0  0  0  0  0  0  0  0  0  0  0  # atno 10764 bound_to 10752
  154.5702  135.2916  155.0808 H   0  0  0  0  0  0  0  0  0  0  0  0  # atno 10765 bound_to 10752
  140.1604  134.8613  157.2567 H   0  0  0  0  0  0  0  0  0  0  0  0  # atno 11005 bound_to 11000
  145.1264  140.9493  143.4570 LP  0  0  0  0  0  0  0  0  0  0  0  0  # atno 17320 bound_to 7965
  145.0430  139.3244  143.5967 LP  0  0  0  0  0  0  0  0  0  0  0  0  # atno 17321 bound_to 7965
  140.7820  143.4405  151.0558 LP  0  0  0  0  0  0  0  0  0  0  0  0  # atno 17342 bound_to 10162
  139.8083  143.7987  152.3169 LP  0  0  0  0  0  0  0  0  0  0  0  0  # atno 17343 bound_to 10162
  157.7498  131.0321  150.4211 LP  0  0  0  0  0  0  0  0  0  0  0  0  # atno 17370 bound_to 10713
  156.4469  130.4003  149.6661 LP  0  0  0  0  0  0  0  0  0  0  0  0  # atno 17371 bound_to 10713
  140.2496  134.3698  155.7447 LP  0  0  0  0  0  0  0  0  0  0  0  0  # atno 17394 bound_to 11000
  141.2209  133.7309  156.8915 LP  0  0  0  0  0  0  0  0  0  0  0  0  # atno 17395 bound_to 11000

$$$$
