AV-unprocessed.smi:1247|AV-procd|sdf|5247|dock8
  -GOLD-   22720 4353D 1   1.00000     0.00000
 Structure written by MMmdl.
 47 48  0  0  0  0  0  0  0  0  2 V2000
  152.3150  141.0800  158.3079 C   0  0  0  0  0  0  0  0  0  0  0  0
  151.8529  140.4592  157.0225 C   0  0  0  0  0  0  0  0  0  0  0  0
  150.6499  140.7192  156.3038 C   0  0  0  0  0  0  0  0  0  0  0  0
  150.7545  139.8818  155.2269 C   0  0  0  0  0  0  0  0  0  0  0  0
  149.8883  139.7152  154.1920 N   0  0  0  0  0  0  0  0  0  0  0  0
  148.5775  139.4191  154.2328 C   0  0  0  0  0  0  0  0  0  0  0  0
  147.9238  139.2017  155.2534 O   0  0  0  0  0  0  0  0  0  0  0  0
  148.0516  139.3747  153.0002 N   0  0  0  0  0  0  0  0  0  0  0  0
  146.6558  139.0771  152.7009 C   0  0  0  0  0  0  0  0  0  0  0  0
  146.5283  138.1463  151.4801 C   0  0  0  0  0  0  0  0  0  0  0  0
  146.2399  136.7442  151.8706 N   0  3  1  0  0  0  0  0  0  0  0  0
  145.4161  136.6550  153.0997 C   0  0  0  0  0  0  0  0  0  0  0  0
  145.1914  135.1876  153.5149 C   0  0  2  0  0  0  0  0  0  0  0  0
  146.4391  134.5226  154.1233 C   0  0  0  0  0  0  0  0  0  0  0  0
  144.6608  134.4414  152.4196 O   0  0  0  0  0  0  0  0  0  0  0  0
  145.4459  134.4814  151.2306 C   0  0  1  0  0  0  0  0  0  0  0  0
  144.7326  133.6397  150.1667 C   0  0  0  0  0  0  0  0  0  0  0  0
  145.6271  135.9431  150.7839 C   0  0  0  0  0  0  0  0  0  0  0  0
  151.9436  139.1898  155.3154 N   0  0  0  0  0  0  0  0  0  0  0  0
  152.5163  138.1937  154.4301 C   0  0  0  0  0  0  0  0  0  0  0  0
  152.6159  139.5477  156.4303 N   0  0  0  0  0  0  0  0  0  0  0  0
  151.6506  141.8868  158.6174 H   0  0  0  0  0  0  0  0  0  0  0  0
  153.3173  141.4974  158.2060 H   0  0  0  0  0  0  0  0  0  0  0  0
  152.3394  140.3434  159.1113 H   0  0  0  0  0  0  0  0  0  0  0  0
  149.8593  141.4108  156.5531 H   0  0  0  0  0  0  0  0  0  0  0  0
  150.2917  139.8268  153.2735 H   0  0  0  0  0  0  0  0  0  0  0  0
  148.6574  139.5652  152.2153 H   0  0  0  0  0  0  0  0  0  0  0  0
  146.1818  138.6470  153.5838 H   0  0  0  0  0  0  0  0  0  0  0  0
  146.1438  140.0191  152.5033 H   0  0  0  0  0  0  0  0  0  0  0  0
  145.7149  138.5198  150.8563 H   0  0  0  0  0  0  0  0  0  0  0  0
  147.4279  138.1771  150.8630 H   0  0  0  0  0  0  0  0  0  0  0  0
  145.8928  137.2015  153.9146 H   0  0  0  0  0  0  0  0  0  0  0  0
  144.4540  137.1365  152.9172 H   0  0  0  0  0  0  0  0  0  0  0  0
  144.4219  135.1762  154.2874 H   0  0  0  0  0  0  0  0  0  0  0  0
  146.7444  135.0365  155.0351 H   0  0  0  0  0  0  0  0  0  0  0  0
  147.2911  134.5374  153.4443 H   0  0  0  0  0  0  0  0  0  0  0  0
  146.2374  133.4835  154.3843 H   0  0  0  0  0  0  0  0  0  0  0  0
  146.4213  134.0317  151.4174 H   0  0  0  0  0  0  0  0  0  0  0  0
  145.2936  133.6294  149.2319 H   0  0  0  0  0  0  0  0  0  0  0  0
  143.7371  134.0311  149.9553 H   0  0  0  0  0  0  0  0  0  0  0  0
  144.6206  132.6069  150.4976 H   0  0  0  0  0  0  0  0  0  0  0  0
  144.6637  136.3769  150.5101 H   0  0  0  0  0  0  0  0  0  0  0  0
  146.2524  135.9720  149.8920 H   0  0  0  0  0  0  0  0  0  0  0  0
  151.9321  138.1103  153.5139 H   0  0  0  0  0  0  0  0  0  0  0  0
  152.5302  137.2246  154.9299 H   0  0  0  0  0  0  0  0  0  0  0  0
  153.5372  138.4747  154.1696 H   0  0  0  0  0  0  0  0  0  0  0  0
  147.1277  136.3173  152.0934 H   0  0  0  0  0  0  0  0  0  0  0  0
  1  2  1  0  0  0  0
  1 22  1  0  0  0  0
  1 23  1  0  0  0  0
  1 24  1  0  0  0  0
  2 21  2  0  0  0  0
  2  3  1  0  0  0  0
  3  4  2  0  0  0  0
  3 25  1  0  0  0  0
  4  5  1  0  0  0  0
  4 19  1  0  0  0  0
  5  6  1  0  0  0  0
  5 26  1  0  0  0  0
  6  7  2  0  0  0  0
  6  8  1  0  0  0  0
  8  9  1  0  0  0  0
  8 27  1  0  0  0  0
  9 10  1  0  0  0  0
  9 28  1  0  0  0  0
  9 29  1  0  0  0  0
 10 11  1  0  0  0  0
 10 30  1  0  0  0  0
 10 31  1  0  0  0  0
 11 18  1  0  0  0  0
 11 12  1  0  0  0  0
 11 47  1  0  0  0  0
 12 13  1  0  0  0  0
 12 32  1  0  0  0  0
 12 33  1  0  0  0  0
 13 14  1  0  0  0  0
 13 15  1  0  0  0  0
 13 34  1  0  0  0  0
 14 35  1  0  0  0  0
 14 36  1  0  0  0  0
 14 37  1  0  0  0  0
 15 16  1  0  0  0  0
 16 17  1  0  0  0  0
 16 18  1  0  0  0  0
 16 38  1  0  0  0  0
 17 39  1  0  0  0  0
 17 40  1  0  0  0  0
 17 41  1  0  0  0  0
 18 42  1  0  0  0  0
 18 43  1  0  0  0  0
 19 20  1  0  0  0  0
 19 21  1  0  0  0  0
 20 44  1  0  0  0  0
 20 45  1  0  0  0  0
 20 46  1  0  0  0  0
M  CHG  1  11   1
M  END
> <s_m_source_file>
AV-unprocessed.smi

> <i_m_source_file_index>
1247

> <i_lp_mmshare_version>
43012

> <i_f3d_flags>
0

> <s_epik_input>
W0NIM11jMVtjSF1jKG4objEpW0NIM10pW05IXUMoPU8pW05IXVtDSDJdW0NIMl1OMltDSDJdW0NAQEhdKFtDSDNdKU9bQ0BASF0oW0NIM10pW0NIMl0y

> <s_epik_cmdline>
J2VwaWtfcHl0aG9uJywgJy1waCcsICc3LjAnLCAnLXRuJywgJzgnLCAnLW1hJywgJzIwMCcsICctbWV0YWxfYmluZGluZycsICctaW1hZScsICc8aW5maWxlLm1hZT4nLCAnLW9tYWUnLCAnPG91dGZpbGUubWFlPic=

> <r_lp_tautomer_probability>
1

> <r_epik_Ionization_Penalty>
0.663902

> <r_epik_Ionization_Penalty_Charging>
0.663826

> <r_epik_Ionization_Penalty_Neutral>
7.65444e-05

> <r_epik_State_Penalty>
0.683414

> <r_epik_Charging_Adjusted_Penalty>
1.34724

> <i_epik_Tot_Q>
1

> <i_epik_Tot_abs_Q>
1

> <r_epik_Metal_State_Penalty>
0.683419

> <b_epik_Metal_Only>
0

> <s_lp_Force_Field>
OPLS_2005

> <r_lp_Energy>
19.2404

> <b_lp_Chiralities_Consistent>
1

> <s_lp_Variant>
AV-unprocessed.smi:1247-5

> <Gold.Version>
5.8.1

> <Gold.Id.Protein>
6NUR|6NUR_protein|mol2

> <Gold.PLP.Fitness>
46.8145

> <Gold.PLP.PLP>
-35.6946

> <Gold.PLP.part.hbond>
-3.8954

> <Gold.PLP.part.metal>
0.0000

> <Gold.PLP.part.buried>
-0.9005

> <Gold.PLP.part.nonpolar>
-30.2764

> <Gold.PLP.part.repulsive>
0.6695

> <Gold.PLP.ligand.clash>
0.0006

> <Gold.PLP.ligand.torsion>
1.1851

> <Gold.PLP.Chemscore.Hbond>
4.4914

> <Gold.PLP.Chemscore.CHOScore>
0.0000

> <Gold.PLP.Chemscore.Metal>
0.0000

> <Gold.Chemscore.Hbonds>
donor molecule, donor type, donor heavy atom, donor atom, acceptor molecule, acceptor atom, score
      L1  H     5    26       P1  7957  0.41
      L1  H     8    27       P1  7957  0.89
      L1  H    11    47       P1  7948  1.95
      P1  H  7997  8010       L1    21  1.00

> <Gold.PLP.Chemscore.Internal.Correction>
0.0167

> <Gold.Rescore>
     Score         DG    S(hbond)    S(metal)    S(lipo)     H(rot)  DE(clash)    DE(int)     intcor
     19.70     -22.23       3.63        0.00      72.86       1.52       1.45       1.08       ----

> <Gold.Chemscore.Fitness>
19.7044

> <Gold.Chemscore.DG>
-22.2342

> <Gold.Chemscore.ZeroCoef>
-5.4800

> <Gold.Chemscore.Hbond>
3.6306

> <Gold.Chemscore.Metal>
0.0000

> <Gold.Chemscore.Lipo>
72.8598

> <Gold.Chemscore.Internal_Hbond>
0.0000

> <Gold.Chemscore.DEClash>
1.4508

> <Gold.Chemscore.DEInternal>
1.0789

> <Gold.Chemscore.Rot>
1.5221

> <Gold.Chemscore.Internal.Correction>
   9.000000E+99

> <Gold.Chemscore.Hbonds>
donor molecule, donor type, donor heavy atom, donor atom, acceptor molecule, acceptor atom, score
      L1  H     5    26       P1  7957  0.40
      L1  H     8    27       P1  7957  0.86
      L1  H    11    47       P1  7948  0.93
      P1  H  7997  8010       L1    21  0.74

> <Gold.Chemscore.Hbond.Weighted>
-12.1263

> <Gold.Chemscore.Metal.Weighted>
-0.0000

> <Gold.Chemscore.Lipo.Weighted>
-8.5246

> <Gold.Chemscore.Internal_Hbond.Weighted>
0.0000

> <Gold.Chemscore.DEClash.Weighted>
1.4508

> <Gold.Chemscore.DEInternal.Weighted>
1.0789

> <Gold.Chemscore.Rot.Weighted>
3.8967

> <Gold.Chemscore.Internal.Correction.Weighted>
   9.000000E+99

> <Gold.Protein.RotatedTorsions>
[ 6907 6896 6895 6894 ] final   98.30 input  -60.11 | X-H torsion
[ 7974 7965 7964 7962 ] final  151.55 input  175.53 | X-H torsion
[ 8008 7997 7996 7995 ] final   74.00 input   59.86 | X-H torsion
[ 10167 10162 10161 10158 ] final  -18.98 input  -65.29 | X-H torsion
[ 10718 10713 10712 10709 ] final  -69.68 input   66.30 | X-H torsion
[ 10763 10752 10751 10750 ] final   90.68 input  -60.55 | X-H torsion
[ 11005 11000 10999 10996 ] final  -63.62 input  -57.11 | X-H torsion

> <Gold.Protein.ActiveResidues>
 VAL166  LYS551  ARG553  GLY616  TRP617  ASP618  TYR619  PRO620  LYS621  CYS622 
 ASP623  PHE694  ASN695  SER759  ASP760  ASP761  ALA762  ILE779  LEU786  VAL792 
 PHE793  MET794  SER795  GLU796  ALA797  LYS798  CYS799  TRP800  GLU811  SER814 

> <Gold.Protein.RotatedAtoms>
  152.5411  134.0602  159.8148 H   0  0  0  0  0  0  0  0  0  0  0  0  # atno 6907 bound_to 6896
  151.0731  133.5443  159.2633 H   0  0  0  0  0  0  0  0  0  0  0  0  # atno 6908 bound_to 6896
  151.2298  135.0558  159.9037 H   0  0  0  0  0  0  0  0  0  0  0  0  # atno 6909 bound_to 6896
  144.8284  139.6552  143.6069 H   0  0  0  0  0  0  0  0  0  0  0  0  # atno 7974 bound_to 7965
  155.7919  140.3479  155.5354 H   0  0  0  0  0  0  0  0  0  0  0  0  # atno 8008 bound_to 7997
  155.8625  140.0973  157.1624 H   0  0  0  0  0  0  0  0  0  0  0  0  # atno 8009 bound_to 7997
  154.4012  140.1356  156.3966 H   0  0  0  0  0  0  0  0  0  0  0  0  # atno 8010 bound_to 7997
  140.7264  143.4863  151.0051 H   0  0  0  0  0  0  0  0  0  0  0  0  # atno 10167 bound_to 10162
  156.0444  130.4317  150.2184 H   0  0  0  0  0  0  0  0  0  0  0  0  # atno 10718 bound_to 10713
  153.2002  135.4425  155.0257 H   0  0  0  0  0  0  0  0  0  0  0  0  # atno 10763 bound_to 10752
  154.8142  135.3308  154.7224 H   0  0  0  0  0  0  0  0  0  0  0  0  # atno 10764 bound_to 10752
  153.7670  135.6987  153.4969 H   0  0  0  0  0  0  0  0  0  0  0  0  # atno 10765 bound_to 10752
  141.1399  133.6654  156.5708 H   0  0  0  0  0  0  0  0  0  0  0  0  # atno 11005 bound_to 11000
  146.2589  139.6364  142.9376 LP  0  0  0  0  0  0  0  0  0  0  0  0  # atno 17320 bound_to 7965
  145.4949  141.0438  143.2573 LP  0  0  0  0  0  0  0  0  0  0  0  0  # atno 17321 bound_to 7965
  139.8564  143.7371  152.3176 LP  0  0  0  0  0  0  0  0  0  0  0  0  # atno 17342 bound_to 10162
  139.7571  144.7517  151.0419 LP  0  0  0  0  0  0  0  0  0  0  0  0  # atno 17343 bound_to 10162
  157.0275  130.9997  151.3322 LP  0  0  0  0  0  0  0  0  0  0  0  0  # atno 17370 bound_to 10713
  157.5301  130.8053  149.7907 LP  0  0  0  0  0  0  0  0  0  0  0  0  # atno 17371 bound_to 10713
  140.3914  134.7436  157.4724 LP  0  0  0  0  0  0  0  0  0  0  0  0  # atno 17394 bound_to 11000
  140.0563  134.6059  155.8801 LP  0  0  0  0  0  0  0  0  0  0  0  0  # atno 17395 bound_to 11000

$$$$
