#       Name:                AV-unprocessed.smi:800
#       Creating user name   scv26
#       Creation time:       Fri Mar 27 01:22:15 2020


#       File generated by GOLD software.
#

@<TRIPOS>MOLECULE
AV-unprocessed.smi:800
    42    43     1
SMALL
NO_CHARGES


@<TRIPOS>ATOM
      1 ****        -4.8913  -0.6704  -1.3948 C.3            1 S1                 0.0000
      2 ****        -3.8578   0.4049  -1.7543 C.3            1 S1                 0.0000
      3 ****        -3.9947   0.8570  -3.2165 C.3            1 S1                 0.0000
      4 ****        -2.5158  -0.1111  -1.5050 N.am           1 S1                 0.0000
      5 ****        -1.4327   0.6323  -1.2264 C.2            1 S1                 0.0000
      6 ****        -1.4572   1.8581  -1.1096 O.2            1 S1                 0.0000
      7 ****        -0.1659  -0.1357  -0.9807 C.ar           1 S1                 0.0000
      8 ****         0.5332   0.1996   0.1279 N.ar           1 S1                 0.0000
      9 ****         1.6733  -0.4512   0.3901 C.ar           1 S1                 0.0000
     10 ****         2.3762  -0.0874   1.5461 N.pl3          1 S1                 0.0000
     11 ****         1.7963   0.7924   2.5643 C.3            1 S1                 0.0000
     12 ****         2.8870   1.6396   3.2411 C.3            1 S1                 0.0000
     13 ****         3.8993   0.7911   3.7683 O.3            1 S1                 0.0000
     14 ****         4.5361   0.0392   2.7430 C.3            1 S1                 0.0000
     15 ****         3.5082  -0.8700   2.0485 C.3            1 S1                 0.0000
     16 ****         2.1904  -1.4217  -0.3732 N.ar           1 S1                 0.0000
     17 ****         1.5197  -1.7658  -1.4920 C.ar           1 S1                 0.0000
     18 ****         0.3115  -1.1427  -1.8597 C.ar           1 S1                 0.0000
     19 ****        -0.4780  -1.5988  -3.3313 Cl             1 S1                 0.0000
     20 ****        -5.9070  -0.3050  -1.5489 H              1 S1                 0.0000
     21 ****        -4.8039  -0.9649  -0.3484 H              1 S1                 0.0000
     22 ****        -4.7639  -1.5653  -2.0052 H              1 S1                 0.0000
     23 ****        -4.0341   1.2650  -1.1060 H              1 S1                 0.0000
     24 ****        -4.9918   1.2523  -3.4114 H              1 S1                 0.0000
     25 ****        -3.8240   0.0294  -3.9059 H              1 S1                 0.0000
     26 ****        -3.2786   1.6433  -3.4575 H              1 S1                 0.0000
     27 ****        -2.3957  -1.1124  -1.5580 H              1 S1                 0.0000
     28 ****         1.0500   1.4685   2.1484 H              1 S1                 0.0000
     29 ****         1.2862   0.1773   3.3061 H              1 S1                 0.0000
     30 ****         3.3215   2.3495   2.5352 H              1 S1                 0.0000
     31 ****         2.4563   2.2238   4.0543 H              1 S1                 0.0000
     32 ****         5.0106   0.7097   2.0245 H              1 S1                 0.0000
     33 ****         5.3292  -0.5626   3.1863 H              1 S1                 0.0000
     34 ****         3.1324  -1.6142   2.7513 H              1 S1                 0.0000
     35 ****         4.0173  -1.4146   1.2540 H              1 S1                 0.0000
     36 ****         1.9572  -2.5407  -2.1039 H              1 S1                 0.0000
     37 ****        -2.3180   2.3541  -1.2234 LP             1 S1                 0.0000
     38 ****        -0.6162   2.3574  -0.9010 LP             1 S1                 0.0000
     39 ****         0.2048   0.9195   0.7394 LP             1 S1                 0.0000
     40 ****         3.4852   0.1602   4.4243 LP             1 S1                 0.0000
     41 ****         4.5844   1.3525   4.2326 LP             1 S1                 0.0000
     42 ****         3.0451  -1.8763  -0.1226 LP             1 S1                 0.0000
@<TRIPOS>BOND
    1    1    2 1     
    2    1   20 1     
    3    1   21 1     
    4    1   22 1     
    5    2    3 1     
    6    2    4 1     
    7    2   23 1     
    8    3   24 1     
    9    3   25 1     
   10    3   26 1     
   11    4    5 am    
   12    4   27 1     
   13    5    6 2     
   14    5    7 1     
   15    7   18 ar    
   16    7    8 ar    
   17    8    9 ar    
   18    9   10 1     
   19    9   16 ar    
   20   10   15 1     
   21   10   11 1     
   22   11   12 1     
   23   11   28 1     
   24   11   29 1     
   25   12   13 1     
   26   12   30 1     
   27   12   31 1     
   28   13   14 1     
   29   14   15 1     
   30   14   32 1     
   31   14   33 1     
   32   15   34 1     
   33   15   35 1     
   34   16   17 ar    
   35   17   18 ar    
   36   17   36 1     
   37   18   19 1     
   38    6   37 1     
   39    6   38 1     
   40    8   39 1     
   41   13   40 1     
   42   13   41 1     
   43   16   42 1     
@<TRIPOS>SUBSTRUCTURE
      1 S1             1
@<TRIPOS>SET
LONE_PAIRS      STATIC     ATOMS    <user>   **** ""
6 37 38 39 40 41 42
DONOR_HYDROGENS      STATIC     ATOMS    <user>   **** ""
1 27
ATOM$BLUE        STATIC     ATOMS    COLORGROUP SYSTEM
6 37 38 39 40 41 42
ATOM$RED        STATIC     ATOMS    COLORGROUP SYSTEM
1 27
