#       Name:                AV-unprocessed.smi:2293
#       Creating user name   scv26
#       Creation time:       Fri Mar 27 12:43:30 2020


#       File generated by GOLD software.
#

@<TRIPOS>MOLECULE
AV-unprocessed.smi:2293
    39    40     1
SMALL
NO_CHARGES


@<TRIPOS>ATOM
      1 ****        -5.0148   0.8837  -0.6890 C.3            1 S1                 0.0000
      2 ****        -3.5499   0.4842  -0.6862 C.2            1 S1                 0.0000
      3 ****        -2.6367   1.5398  -0.6142 N.2            1 S1                 0.0000
      4 ****        -1.3675   1.2943  -0.6052 C.2            1 S1                 0.0000
      5 ****        -0.8679  -0.0175  -0.6689 N.am           1 S1                 0.0000
      6 ****         0.5984  -0.1599  -0.6444 C.3            1 S1                 0.0000
      7 ****         1.1668  -0.1479   0.7930 C.3            1 S1                 0.0000
      8 ****         0.9453  -1.4116   1.3866 O.3            1 S1                 0.0000
      9 ****         2.6470   0.2026   0.7908 C.ar           1 S1                 0.0000
     10 ****         3.6022  -0.7148   0.2991 C.ar           1 S1                 0.0000
     11 ****         4.9707  -0.3817   0.2950 C.ar           1 S1                 0.0000
     12 ****         5.3923   0.8711   0.7800 C.ar           1 S1                 0.0000
     13 ****         4.4445   1.7916   1.2668 C.ar           1 S1                 0.0000
     14 ****         4.8488   2.9978   1.7304 F              1 S1                 0.0000
     15 ****         3.0758   1.4588   1.2714 C.ar           1 S1                 0.0000
     16 ****        -1.6894  -1.1045  -0.7407 C.2            1 S1                 0.0000
     17 ****        -1.2439  -2.2522  -0.7955 O.2            1 S1                 0.0000
     18 ****        -3.1316  -0.8096  -0.7475 C.2            1 S1                 0.0000
     19 ****        -4.0803  -1.9993  -0.8260 C.3            1 S1                 0.0000
     20 ****        -5.5296   0.4531   0.1700 H              1 S1                 0.0000
     21 ****        -5.5037   0.5368  -1.5996 H              1 S1                 0.0000
     22 ****        -5.1314   1.9670  -0.6395 H              1 S1                 0.0000
     23 ****        -0.6133   2.0808  -0.5439 H              1 S1                 0.0000
     24 ****         0.9348  -1.0469  -1.1848 H              1 S1                 0.0000
     25 ****         1.0320   0.6717  -1.2041 H              1 S1                 0.0000
     26 ****         0.6409   0.5940   1.3955 H              1 S1                 0.0000
     27 ****         1.2278  -1.3739   2.2877 H              1 S1                 0.0000
     28 ****         3.2870  -1.6768  -0.0783 H              1 S1                 0.0000
     29 ****         5.6968  -1.0872  -0.0813 H              1 S1                 0.0000
     30 ****         6.4418   1.1264   0.7773 H              1 S1                 0.0000
     31 ****         2.3570   2.1731   1.6455 H              1 S1                 0.0000
     32 ****        -3.9060  -2.5585  -1.7458 H              1 S1                 0.0000
     33 ****        -5.1305  -1.7135  -0.8102 H              1 S1                 0.0000
     34 ****        -3.9118  -2.6711   0.0162 H              1 S1                 0.0000
     35 ****        -2.9646   2.4835  -0.5697 LP             1 S1                 0.0000
     36 ****         1.4685  -2.1099   0.8981 LP             1 S1                 0.0000
     37 ****        -0.0284  -1.6365   1.3476 LP             1 S1                 0.0000
     38 ****        -0.2559  -2.4059  -0.7880 LP             1 S1                 0.0000
     39 ****        -1.8705  -3.0298  -0.8475 LP             1 S1                 0.0000
@<TRIPOS>BOND
    1    1    2 1     
    2    1   20 1     
    3    1   21 1     
    4    1   22 1     
    5    2   18 2     
    6    2    3 1     
    7    3    4 2     
    8    4    5 1     
    9    4   23 1     
   10    5    6 1     
   11    5   16 am    
   12    6    7 1     
   13    6   24 1     
   14    6   25 1     
   15    7    8 1     
   16    7    9 1     
   17    7   26 1     
   18    8   27 1     
   19    9   15 ar    
   20    9   10 ar    
   21   10   11 ar    
   22   10   28 1     
   23   11   12 ar    
   24   11   29 1     
   25   12   13 ar    
   26   12   30 1     
   27   13   14 1     
   28   13   15 ar    
   29   15   31 1     
   30   16   17 2     
   31   16   18 1     
   32   18   19 1     
   33   19   32 1     
   34   19   33 1     
   35   19   34 1     
   36    3   35 1     
   37    8   36 1     
   38    8   37 1     
   39   17   38 1     
   40   17   39 1     
@<TRIPOS>SUBSTRUCTURE
      1 S1             1
@<TRIPOS>SET
LONE_PAIRS      STATIC     ATOMS    <user>   **** ""
5 35 36 37 38 39
DONOR_HYDROGENS      STATIC     ATOMS    <user>   **** ""
1 27
ATOM$BLUE        STATIC     ATOMS    COLORGROUP SYSTEM
5 35 36 37 38 39
ATOM$RED        STATIC     ATOMS    COLORGROUP SYSTEM
1 27
