AV-unprocessed.smi:1697|AV-procd|sdf|6806|dock1
  -GOLD-   22720 7573D 1   1.00000     0.00000
 Structure written by MMmdl.
 54 56  0  0  0  0  0  0  0  0  2 V2000
  153.7360  142.0055  161.2624 C   0  0  0  0  0  0  0  0  0  0  0  0
  152.9193  143.2908  161.1135 C   0  0  0  0  0  0  0  0  0  0  0  0
  151.6265  142.9531  160.6329 O   0  0  0  0  0  0  0  0  0  0  0  0
  150.9829  143.9802  159.8874 C   0  0  2  0  0  0  0  0  0  0  0  0
  149.5099  143.6323  159.6015 C   0  0  0  0  0  0  0  0  0  0  0  0
  149.3907  142.3973  158.6927 C   0  0  0  0  0  0  0  0  0  0  0  0
  150.1305  142.5956  157.4176 N   0  3  2  0  0  0  0  0  0  0  0  0
  149.9410  141.4840  156.4500 C   0  0  0  0  0  0  0  0  0  0  0  0
  149.2610  141.9484  155.1470 C   0  0  1  0  0  0  0  0  0  0  0  0
  150.1936  141.8489  154.0872 O   0  0  0  0  0  0  0  0  0  0  0  0
  148.0161  141.1034  154.8149 C   0  0  0  0  0  0  0  0  0  0  0  0
  146.8050  141.6492  155.4014 N   0  0  0  0  0  0  0  0  0  0  0  0
  146.0879  141.1215  156.4120 C   0  0  0  0  0  0  0  0  0  0  0  0
  145.0068  141.7878  156.8052 N   0  0  0  0  0  0  0  0  0  0  0  0
  145.0223  142.8747  155.9480 C   0  0  0  0  0  0  0  0  0  0  0  0
  144.1390  143.9713  155.8430 C   0  0  0  0  0  0  0  0  0  0  0  0
  144.3509  144.9828  154.8797 C   0  0  0  0  0  0  0  0  0  0  0  0
  143.3758  146.1444  154.8025 C   0  0  0  0  0  0  0  0  0  0  0  0
  145.4617  144.9066  154.0016 C   0  0  0  0  0  0  0  0  0  0  0  0
  145.7083  145.9820  152.9584 C   0  0  0  0  0  0  0  0  0  0  0  0
  146.3550  143.8186  154.0935 C   0  0  0  0  0  0  0  0  0  0  0  0
  146.1333  142.8176  155.0562 C   0  0  0  0  0  0  0  0  0  0  0  0
  151.5651  142.8965  157.6596 C   0  0  0  0  0  0  0  0  0  0  0  0
  151.7333  144.1364  158.5561 C   0  0  0  0  0  0  0  0  0  0  0  0
  154.7421  142.2223  161.6220 H   0  0  0  0  0  0  0  0  0  0  0  0
  153.8270  141.4871  160.3077 H   0  0  0  0  0  0  0  0  0  0  0  0
  153.2667  141.3231  161.9715 H   0  0  0  0  0  0  0  0  0  0  0  0
  152.8583  143.7987  162.0758 H   0  0  0  0  0  0  0  0  0  0  0  0
  153.4167  143.9649  160.4147 H   0  0  0  0  0  0  0  0  0  0  0  0
  151.0459  144.9234  160.4326 H   0  0  0  0  0  0  0  0  0  0  0  0
  148.9578  143.4709  160.5267 H   0  0  0  0  0  0  0  0  0  0  0  0
  149.0299  144.4819  159.1139 H   0  0  0  0  0  0  0  0  0  0  0  0
  149.7763  141.5152  159.2068 H   0  0  0  0  0  0  0  0  0  0  0  0
  148.3366  142.2074  158.4958 H   0  0  0  0  0  0  0  0  0  0  0  0
  150.9057  141.0413  156.1962 H   0  0  0  0  0  0  0  0  0  0  0  0
  149.3612  140.6908  156.9248 H   0  0  0  0  0  0  0  0  0  0  0  0
  148.9565  142.9912  155.2305 H   0  0  0  0  0  0  0  0  0  0  0  0
  150.4979  140.9554  154.0327 H   0  0  0  0  0  0  0  0  0  0  0  0
  147.8794  141.0247  153.7355 H   0  0  0  0  0  0  0  0  0  0  0  0
  148.1430  140.0855  155.1862 H   0  0  0  0  0  0  0  0  0  0  0  0
  146.3782  140.1965  156.8886 H   0  0  0  0  0  0  0  0  0  0  0  0
  143.2934  144.0296  156.5125 H   0  0  0  0  0  0  0  0  0  0  0  0
  142.9093  146.1871  153.8181 H   0  0  0  0  0  0  0  0  0  0  0  0
  143.8911  147.0878  154.9837 H   0  0  0  0  0  0  0  0  0  0  0  0
  142.5826  146.0488  155.5445 H   0  0  0  0  0  0  0  0  0  0  0  0
  146.5971  145.7648  152.3652 H   0  0  0  0  0  0  0  0  0  0  0  0
  145.8529  146.9513  153.4357 H   0  0  0  0  0  0  0  0  0  0  0  0
  144.8610  146.0539  152.2763 H   0  0  0  0  0  0  0  0  0  0  0  0
  147.2053  143.7505  153.4316 H   0  0  0  0  0  0  0  0  0  0  0  0
  152.0484  142.0302  158.1145 H   0  0  0  0  0  0  0  0  0  0  0  0
  152.0689  143.0764  156.7091 H   0  0  0  0  0  0  0  0  0  0  0  0
  151.3572  145.0149  158.0299 H   0  0  0  0  0  0  0  0  0  0  0  0
  152.7916  144.3219  158.7434 H   0  0  0  0  0  0  0  0  0  0  0  0
  149.7432  143.4180  156.9764 H   0  0  0  0  0  0  0  0  0  0  0  0
  1  2  1  0  0  0  0
  1 25  1  0  0  0  0
  1 26  1  0  0  0  0
  1 27  1  0  0  0  0
  2  3  1  0  0  0  0
  2 28  1  0  0  0  0
  2 29  1  0  0  0  0
  3  4  1  0  0  0  0
  4 24  1  0  0  0  0
  4  5  1  0  0  0  0
  4 30  1  0  0  0  0
  5  6  1  0  0  0  0
  5 31  1  0  0  0  0
  5 32  1  0  0  0  0
  6  7  1  0  0  0  0
  6 33  1  0  0  0  0
  6 34  1  0  0  0  0
  7  8  1  0  0  0  0
  7 23  1  0  0  0  0
  7 54  1  0  0  0  0
  8  9  1  0  0  0  0
  8 35  1  0  0  0  0
  8 36  1  0  0  0  0
  9 10  1  0  0  0  0
  9 11  1  0  0  0  0
  9 37  1  0  0  0  0
 10 38  1  0  0  0  0
 11 12  1  0  0  0  0
 11 39  1  0  0  0  0
 11 40  1  0  0  0  0
 12 22  1  0  0  0  0
 12 13  1  0  0  0  0
 13 14  2  0  0  0  0
 13 41  1  0  0  0  0
 14 15  1  0  0  0  0
 15 22  2  0  0  0  0
 15 16  1  0  0  0  0
 16 17  2  0  0  0  0
 16 42  1  0  0  0  0
 17 18  1  0  0  0  0
 17 19  1  0  0  0  0
 18 43  1  0  0  0  0
 18 44  1  0  0  0  0
 18 45  1  0  0  0  0
 19 20  1  0  0  0  0
 19 21  2  0  0  0  0
 20 46  1  0  0  0  0
 20 47  1  0  0  0  0
 20 48  1  0  0  0  0
 21 22  1  0  0  0  0
 21 49  1  0  0  0  0
 23 24  1  0  0  0  0
 23 50  1  0  0  0  0
 23 51  1  0  0  0  0
 24 52  1  0  0  0  0
 24 53  1  0  0  0  0
M  CHG  1   7   1
M  END
> <s_m_source_file>
AV-unprocessed.smi

> <i_m_source_file_index>
1697

> <i_lp_mmshare_version>
43012

> <i_f3d_flags>
0

> <s_epik_input>
W0NIM11bQ0gyXU9bQ0hdMVtDSDJdW0NIMl1OKFtDSDJdW0NIMl0xKVtDSDJdW0NASF0oW09IXSlbQ0gyXW4oW2NIXW4yKWMoYzIzKVtjSF1jKFtDSDNdKWMoW2NIXTMpW0NIM10=

> <s_epik_cmdline>
J2VwaWtfcHl0aG9uJywgJy1waCcsICc3LjAnLCAnLXRuJywgJzgnLCAnLW1hJywgJzIwMCcsICctbWV0YWxfYmluZGluZycsICctaW1hZScsICc8aW5maWxlLm1hZT4nLCAnLW9tYWUnLCAnPG91dGZpbGUubWFlPic=

> <r_epik_Ionization_Penalty>
0.112476

> <r_epik_Ionization_Penalty_Charging>
0.0244612

> <r_epik_Ionization_Penalty_Neutral>
0.0880147

> <r_epik_State_Penalty>
0.0961447

> <r_epik_Charging_Adjusted_Penalty>
0.120606

> <i_epik_Tot_Q>
1

> <i_epik_Tot_abs_Q>
1

> <r_epik_Metal_State_Penalty>
0.0206204

> <b_epik_Metal_Only>
0

> <s_lp_Force_Field>
OPLS_2005

> <r_lp_Energy>
22.8638

> <b_lp_Chiralities_Consistent>
1

> <s_lp_Variant>
AV-unprocessed.smi:1697-4

> <Gold.Version>
5.8.1

> <Gold.Id.Protein>
6NUR|6NUR_protein|mol2

> <Gold.PLP.Fitness>
56.0882

> <Gold.PLP.PLP>
-51.0523

> <Gold.PLP.part.hbond>
-4.7710

> <Gold.PLP.part.metal>
0.0000

> <Gold.PLP.part.buried>
-6.0127

> <Gold.PLP.part.nonpolar>
-41.0662

> <Gold.PLP.part.repulsive>
0.0863

> <Gold.PLP.ligand.clash>
0.0000

> <Gold.PLP.ligand.torsion>
2.1380

> <Gold.PLP.Chemscore.Hbond>
3.0000

> <Gold.PLP.Chemscore.CHOScore>
0.0000

> <Gold.PLP.Chemscore.Metal>
0.0000

> <Gold.Chemscore.Hbonds>
donor molecule, donor type, donor heavy atom, donor atom, acceptor molecule, acceptor atom, score
      L1  H     7    54       P1  8028  1.98
      P1  H  8011  8017       L1    10  0.37

> <Gold.PLP.Chemscore.Internal.Correction>
0.3119

> <Gold.Rescore>
     Score         DG    S(hbond)    S(metal)    S(lipo)     H(rot)  DE(clash)    DE(int)     intcor
     19.80     -22.14       1.98        0.00     135.53       2.27       0.15       2.19       ----

> <Gold.Chemscore.Fitness>
19.7981

> <Gold.Chemscore.DG>
-22.1351

> <Gold.Chemscore.ZeroCoef>
-5.4800

> <Gold.Chemscore.Hbond>
1.9795

> <Gold.Chemscore.Metal>
0.0000

> <Gold.Chemscore.Lipo>
135.5321

> <Gold.Chemscore.Internal_Hbond>
0.0000

> <Gold.Chemscore.DEClash>
0.1472

> <Gold.Chemscore.DEInternal>
2.1898

> <Gold.Chemscore.Rot>
2.2710

> <Gold.Chemscore.Internal.Correction>
   9.000000E+99

> <Gold.Chemscore.Hbonds>
donor molecule, donor type, donor heavy atom, donor atom, acceptor molecule, acceptor atom, score
      L1  H     7    54       P1  8028  0.91
      P1  H  8011  8017       L1    10  0.23

> <Gold.Chemscore.Hbond.Weighted>
-6.6115

> <Gold.Chemscore.Metal.Weighted>
-0.0000

> <Gold.Chemscore.Lipo.Weighted>
-15.8573

> <Gold.Chemscore.Internal_Hbond.Weighted>
0.0000

> <Gold.Chemscore.DEClash.Weighted>
0.1472

> <Gold.Chemscore.DEInternal.Weighted>
2.1898

> <Gold.Chemscore.Rot.Weighted>
5.8137

> <Gold.Chemscore.Internal.Correction.Weighted>
   9.000000E+99

> <Gold.Protein.RotatedTorsions>
[ 6907 6896 6895 6894 ] final   59.83 input  -60.11 | X-H torsion
[ 7974 7965 7964 7962 ] final    2.82 input  175.53 | X-H torsion
[ 8008 7997 7996 7995 ] final  141.11 input   59.86 | X-H torsion
[ 10167 10162 10161 10158 ] final -114.41 input  -65.29 | X-H torsion
[ 10718 10713 10712 10709 ] final   15.28 input   66.30 | X-H torsion
[ 10763 10752 10751 10750 ] final  121.51 input  -60.55 | X-H torsion
[ 11005 11000 10999 10996 ] final   59.30 input  -57.11 | X-H torsion

> <Gold.Protein.ActiveResidues>
 VAL166  LYS551  ARG553  GLY616  TRP617  ASP618  TYR619  PRO620  LYS621  CYS622 
 ASP623  PHE694  ASN695  SER759  ASP760  ASP761  ALA762  ILE779  LEU786  VAL792 
 PHE793  MET794  SER795  GLU796  ALA797  LYS798  CYS799  TRP800  GLU811  SER814 

> <Gold.Protein.RotatedAtoms>
  152.3949  134.6381  160.0092 H   0  0  0  0  0  0  0  0  0  0  0  0  # atno 6907 bound_to 6896
  151.6604  133.3311  159.3180 H   0  0  0  0  0  0  0  0  0  0  0  0  # atno 6908 bound_to 6896
  150.7858  134.6886  159.6528 H   0  0  0  0  0  0  0  0  0  0  0  0  # atno 6909 bound_to 6896
  146.2444  140.0778  142.8359 H   0  0  0  0  0  0  0  0  0  0  0  0  # atno 7974 bound_to 7965
  156.2970  140.2324  156.4510 H   0  0  0  0  0  0  0  0  0  0  0  0  # atno 8008 bound_to 7997
  154.8101  140.0443  157.1357 H   0  0  0  0  0  0  0  0  0  0  0  0  # atno 8009 bound_to 7997
  154.9433  140.3032  155.5114 H   0  0  0  0  0  0  0  0  0  0  0  0  # atno 8010 bound_to 7997
  140.1012  143.4611  152.1810 H   0  0  0  0  0  0  0  0  0  0  0  0  # atno 10167 bound_to 10162
  157.0513  130.6271  149.5768 H   0  0  0  0  0  0  0  0  0  0  0  0  # atno 10718 bound_to 10713
  153.6152  135.3423  155.2992 H   0  0  0  0  0  0  0  0  0  0  0  0  # atno 10763 bound_to 10752
  154.8611  135.4259  154.2267 H   0  0  0  0  0  0  0  0  0  0  0  0  # atno 10764 bound_to 10752
  153.3127  135.7032  153.7173 H   0  0  0  0  0  0  0  0  0  0  0  0  # atno 10765 bound_to 10752
  140.0314  134.6006  155.9502 H   0  0  0  0  0  0  0  0  0  0  0  0  # atno 11005 bound_to 11000
  145.0760  140.9188  143.4854 LP  0  0  0  0  0  0  0  0  0  0  0  0  # atno 17320 bound_to 7965
  145.0921  139.2882  143.5729 LP  0  0  0  0  0  0  0  0  0  0  0  0  # atno 17321 bound_to 7965
  139.5670  144.7441  151.3995 LP  0  0  0  0  0  0  0  0  0  0  0  0  # atno 17342 bound_to 10162
  140.6976  143.7710  150.7352 LP  0  0  0  0  0  0  0  0  0  0  0  0  # atno 17343 bound_to 10162
  156.0007  130.5085  150.7651 LP  0  0  0  0  0  0  0  0  0  0  0  0  # atno 17370 bound_to 10713
  157.5028  131.0920  151.0293 LP  0  0  0  0  0  0  0  0  0  0  0  0  # atno 17371 bound_to 10713
  141.1833  133.6550  156.5111 LP  0  0  0  0  0  0  0  0  0  0  0  0  # atno 17394 bound_to 11000
  140.4219  134.7179  157.4895 LP  0  0  0  0  0  0  0  0  0  0  0  0  # atno 17395 bound_to 11000

$$$$
