AV-unprocessed.smi:2517|AV-procd|sdf|9900|dock6
  -GOLD-   2272013533D 1   1.00000     0.00000
 Structure written by MMmdl.
 41 42  0  0  0  0  0  0  0  0  1 V2000
  144.0244  136.6506  152.1078 C   0  0  0  0  0  0  0  0  0  0  0  0
  145.4263  136.0555  152.2802 C   0  0  0  0  0  0  0  0  0  0  0  0
  145.5710  134.7406  151.5646 C   0  0  0  0  0  0  0  0  0  0  0  0
  144.6998  134.3993  150.6247 N   0  0  0  0  0  0  0  0  0  0  0  0
  145.1112  133.1875  150.1814 N   0  0  0  0  0  0  0  0  0  0  0  0
  144.3628  132.5246  149.1354 C   0  0  0  0  0  0  0  0  0  0  0  0
  146.2460  132.7495  150.8330 C   0  0  0  0  0  0  0  0  0  0  0  0
  146.5619  133.7346  151.7256 C   0  0  0  0  0  0  0  0  0  0  0  0
  147.6447  133.8008  152.6395 N   0  0  0  0  0  0  0  0  0  0  0  0
  148.0267  132.8645  153.5229 C   0  0  0  0  0  0  0  0  0  0  0  0
  147.4636  131.7842  153.7003 O   0  0  0  0  0  0  0  0  0  0  0  0
  149.1125  133.2525  154.2026 N   0  0  0  0  0  0  0  0  0  0  0  0
  149.7785  132.4514  155.2208 C   0  0  0  0  0  0  0  0  0  0  0  0
  150.0514  133.2890  156.4777 C   0  0  0  0  0  0  0  0  0  0  0  0
  150.7260  132.5344  157.4850 O   0  0  0  0  0  0  0  0  0  0  0  0
  151.9999  132.0155  157.1257 C   0  0  0  0  0  0  0  0  0  0  0  0
  150.8000  134.6238  156.3016 C   0  0  0  0  0  0  0  0  0  0  0  0
  149.4502  135.3423  156.3394 C   0  0  0  0  0  0  0  0  0  0  0  0
  148.9009  134.1214  157.0788 C   0  0  0  0  0  0  0  0  0  0  0  0
  143.9395  137.6030  152.6310 H   0  0  0  0  0  0  0  0  0  0  0  0
  143.2603  135.9825  152.5058 H   0  0  0  0  0  0  0  0  0  0  0  0
  143.8008  136.8272  151.0554 H   0  0  0  0  0  0  0  0  0  0  0  0
  146.1679  136.7648  151.9120 H   0  0  0  0  0  0  0  0  0  0  0  0
  145.6369  135.9274  153.3427 H   0  0  0  0  0  0  0  0  0  0  0  0
  144.8534  131.5912  148.8579 H   0  0  0  0  0  0  0  0  0  0  0  0
  144.3047  133.1688  148.2575 H   0  0  0  0  0  0  0  0  0  0  0  0
  143.3544  132.3046  149.4868 H   0  0  0  0  0  0  0  0  0  0  0  0
  146.7116  131.8031  150.6015 H   0  0  0  0  0  0  0  0  0  0  0  0
  148.1928  134.6481  152.6099 H   0  0  0  0  0  0  0  0  0  0  0  0
  149.5166  134.1539  153.9944 H   0  0  0  0  0  0  0  0  0  0  0  0
  149.1387  131.6015  155.4622 H   0  0  0  0  0  0  0  0  0  0  0  0
  150.7013  132.0276  154.8231 H   0  0  0  0  0  0  0  0  0  0  0  0
  152.3606  131.3687  157.9254 H   0  0  0  0  0  0  0  0  0  0  0  0
  152.7367  132.8075  156.9934 H   0  0  0  0  0  0  0  0  0  0  0  0
  151.9557  131.4205  156.2133 H   0  0  0  0  0  0  0  0  0  0  0  0
  151.4323  134.8794  157.1540 H   0  0  0  0  0  0  0  0  0  0  0  0
  151.3394  134.7300  155.3600 H   0  0  0  0  0  0  0  0  0  0  0  0
  149.4409  136.2684  156.9148 H   0  0  0  0  0  0  0  0  0  0  0  0
  149.0107  135.4731  155.3493 H   0  0  0  0  0  0  0  0  0  0  0  0
  147.9025  133.8153  156.7655 H   0  0  0  0  0  0  0  0  0  0  0  0
  148.9650  134.2306  158.1630 H   0  0  0  0  0  0  0  0  0  0  0  0
  1  2  1  0  0  0  0
  1 20  1  0  0  0  0
  1 21  1  0  0  0  0
  1 22  1  0  0  0  0
  2  3  1  0  0  0  0
  2 23  1  0  0  0  0
  2 24  1  0  0  0  0
  3  8  1  0  0  0  0
  3  4  2  0  0  0  0
  4  5  1  0  0  0  0
  5  6  1  0  0  0  0
  5  7  1  0  0  0  0
  6 25  1  0  0  0  0
  6 26  1  0  0  0  0
  6 27  1  0  0  0  0
  7  8  2  0  0  0  0
  7 28  1  0  0  0  0
  8  9  1  0  0  0  0
  9 10  1  0  0  0  0
  9 29  1  0  0  0  0
 10 11  2  0  0  0  0
 10 12  1  0  0  0  0
 12 13  1  0  0  0  0
 12 30  1  0  0  0  0
 13 14  1  0  0  0  0
 13 31  1  0  0  0  0
 13 32  1  0  0  0  0
 14 19  1  0  0  0  0
 14 15  1  0  0  0  0
 14 17  1  0  0  0  0
 15 16  1  0  0  0  0
 16 33  1  0  0  0  0
 16 34  1  0  0  0  0
 16 35  1  0  0  0  0
 17 18  1  0  0  0  0
 17 36  1  0  0  0  0
 17 37  1  0  0  0  0
 18 19  1  0  0  0  0
 18 38  1  0  0  0  0
 18 39  1  0  0  0  0
 19 40  1  0  0  0  0
 19 41  1  0  0  0  0
M  END
> <s_m_source_file>
AV-unprocessed.smi

> <i_m_source_file_index>
2517

> <i_lp_mmshare_version>
43012

> <i_f3d_flags>
0

> <s_epik_input>
W0NIM11bQ0gyXWMxbm4oW0NIM10pW2NIXWMxW05IXUMoPU8pW05IXVtDSDJdQzIoT1tDSDNdKVtDSDJdW0NIMl1bQ0gyXTI=

> <s_epik_cmdline>
J2VwaWtfcHl0aG9uJywgJy1waCcsICc3LjAnLCAnLXRuJywgJzgnLCAnLW1hJywgJzIwMCcsICctbWV0YWxfYmluZGluZycsICctaW1hZScsICc8aW5maWxlLm1hZT4nLCAnLW9tYWUnLCAnPG91dGZpbGUubWFlPic=

> <r_lp_tautomer_probability>
1

> <r_epik_Ionization_Penalty>
0.000729918

> <r_epik_Ionization_Penalty_Charging>
0

> <r_epik_Ionization_Penalty_Neutral>
0.000729918

> <r_epik_State_Penalty>
-0

> <r_epik_Charging_Adjusted_Penalty>
0

> <i_epik_Tot_Q>
0

> <i_epik_Tot_abs_Q>
0

> <r_epik_Metal_State_Penalty>
-0

> <b_epik_Metal_Only>
0

> <s_lp_Force_Field>
OPLS_2005

> <r_lp_Energy>
14.833

> <b_lp_Chiralities_Consistent>
1

> <s_lp_Variant>
AV-unprocessed.smi:2517-1

> <Gold.Version>
5.8.1

> <Gold.Id.Protein>
6NUR|6NUR_protein|mol2

> <Gold.PLP.Fitness>
37.7425

> <Gold.PLP.PLP>
-30.1946

> <Gold.PLP.part.hbond>
-2.0000

> <Gold.PLP.part.metal>
0.0000

> <Gold.PLP.part.buried>
-5.7789

> <Gold.PLP.part.nonpolar>
-23.4857

> <Gold.PLP.part.repulsive>
0.2469

> <Gold.PLP.ligand.clash>
0.0000

> <Gold.PLP.ligand.torsion>
0.8686

> <Gold.PLP.Chemscore.Hbond>
2.0000

> <Gold.PLP.Chemscore.CHOScore>
1.0000

> <Gold.PLP.Chemscore.Metal>
0.0000

> <Gold.Chemscore.Hbonds>
donor molecule, donor type, donor heavy atom, donor atom, acceptor molecule, acceptor atom, score
      L1  H     9    29       P1  7948  1.00
      P1  H  6896  6909       L1    15  0.85
      L1  C     7    28       P1 10747  1.00

> <Gold.PLP.Chemscore.Internal.Correction>
0.2851

> <Gold.Rescore>
     Score         DG    S(hbond)    S(metal)    S(lipo)     H(rot)  DE(clash)    DE(int)     intcor
     12.31     -14.15       1.69        0.00      59.65       1.55       0.00       1.84       ----

> <Gold.Chemscore.Fitness>
12.3122

> <Gold.Chemscore.DG>
-14.1524

> <Gold.Chemscore.ZeroCoef>
-5.4800

> <Gold.Chemscore.Hbond>
1.6943

> <Gold.Chemscore.Metal>
0.0000

> <Gold.Chemscore.Lipo>
59.6533

> <Gold.Chemscore.Internal_Hbond>
0.0000

> <Gold.Chemscore.DEClash>
0.0015

> <Gold.Chemscore.DEInternal>
1.8388

> <Gold.Chemscore.Rot>
1.5493

> <Gold.Chemscore.Internal.Correction>
   9.000000E+99

> <Gold.Chemscore.Hbonds>
donor molecule, donor type, donor heavy atom, donor atom, acceptor molecule, acceptor atom, score
      L1  H     9    29       P1  7948  0.44
      P1  H  6896  6909       L1    15  0.14

> <Gold.Chemscore.Hbond.Weighted>
-5.6591

> <Gold.Chemscore.Metal.Weighted>
-0.0000

> <Gold.Chemscore.Lipo.Weighted>
-6.9794

> <Gold.Chemscore.Internal_Hbond.Weighted>
0.0000

> <Gold.Chemscore.DEClash.Weighted>
0.0015

> <Gold.Chemscore.DEInternal.Weighted>
1.8388

> <Gold.Chemscore.Rot.Weighted>
3.9661

> <Gold.Chemscore.Internal.Correction.Weighted>
   9.000000E+99

> <Gold.Protein.RotatedTorsions>
[ 6907 6896 6895 6894 ] final  -36.75 input  -60.11 | X-H torsion
[ 7974 7965 7964 7962 ] final -167.14 input  175.53 | X-H torsion
[ 8008 7997 7996 7995 ] final   94.83 input   59.86 | X-H torsion
[ 10167 10162 10161 10158 ] final  -90.21 input  -65.29 | X-H torsion
[ 10718 10713 10712 10709 ] final -142.78 input   66.30 | X-H torsion
[ 10763 10752 10751 10750 ] final  -29.37 input  -60.55 | X-H torsion
[ 11005 11000 10999 10996 ] final  -97.35 input  -57.11 | X-H torsion

> <Gold.Protein.ActiveResidues>
 VAL166  LYS551  ARG553  GLY616  TRP617  ASP618  TYR619  PRO620  LYS621  CYS622 
 ASP623  PHE694  ASN695  SER759  ASP760  ASP761  ALA762  ILE779  LEU786  VAL792 
 PHE793  MET794  SER795  GLU796  ALA797  LYS798  CYS799  TRP800  GLU811  SER814 

> <Gold.Protein.RotatedAtoms>
  151.0232  134.9485  159.8070 H   0  0  0  0  0  0  0  0  0  0  0  0  # atno 6907 bound_to 6896
  152.5330  134.2876  159.9041 H   0  0  0  0  0  0  0  0  0  0  0  0  # atno 6908 bound_to 6896
  151.2884  133.4135  159.2665 H   0  0  0  0  0  0  0  0  0  0  0  0  # atno 6909 bound_to 6896
  144.7229  140.2563  143.6271 H   0  0  0  0  0  0  0  0  0  0  0  0  # atno 7974 bound_to 7965
  156.0622  140.3294  155.7476 H   0  0  0  0  0  0  0  0  0  0  0  0  # atno 8008 bound_to 7997
  155.5436  140.0604  157.2882 H   0  0  0  0  0  0  0  0  0  0  0  0  # atno 8009 bound_to 7997
  154.4487  140.1906  156.0604 H   0  0  0  0  0  0  0  0  0  0  0  0  # atno 8010 bound_to 7997
  140.3571  143.2861  151.9658 H   0  0  0  0  0  0  0  0  0  0  0  0  # atno 10167 bound_to 10162
  156.3500  130.7683  151.1834 H   0  0  0  0  0  0  0  0  0  0  0  0  # atno 10718 bound_to 10713
  153.7635  135.6917  153.4920 H   0  0  0  0  0  0  0  0  0  0  0  0  # atno 10763 bound_to 10752
  153.1922  135.4467  155.0162 H   0  0  0  0  0  0  0  0  0  0  0  0  # atno 10764 bound_to 10752
  154.8144  135.3392  154.7149 H   0  0  0  0  0  0  0  0  0  0  0  0  # atno 10765 bound_to 10752
  141.1382  133.8164  157.0694 H   0  0  0  0  0  0  0  0  0  0  0  0  # atno 11005 bound_to 11000
  145.8179  139.2031  143.1955 LP  0  0  0  0  0  0  0  0  0  0  0  0  # atno 17320 bound_to 7965
  146.0539  140.8041  142.9768 LP  0  0  0  0  0  0  0  0  0  0  0  0  # atno 17321 bound_to 7965
  139.4818  144.6025  151.7580 LP  0  0  0  0  0  0  0  0  0  0  0  0  # atno 17342 bound_to 10162
  140.5163  144.0948  150.6009 LP  0  0  0  0  0  0  0  0  0  0  0  0  # atno 17343 bound_to 10162
  157.7460  131.0430  150.4722 LP  0  0  0  0  0  0  0  0  0  0  0  0  # atno 17370 bound_to 10713
  156.4916  130.4096  149.6403 LP  0  0  0  0  0  0  0  0  0  0  0  0  # atno 17371 bound_to 10713
  140.0521  134.9800  157.1154 LP  0  0  0  0  0  0  0  0  0  0  0  0  # atno 17394 bound_to 11000
  140.3975  134.2118  155.7164 LP  0  0  0  0  0  0  0  0  0  0  0  0  # atno 17395 bound_to 11000

$$$$
