#       Name:                AV-unprocessed.smi:620
#       Creating user name   scv26
#       Creation time:       Fri Mar 27 00:01:02 2020


#       File generated by GOLD software.
#

@<TRIPOS>MOLECULE
AV-unprocessed.smi:620
    37    39     1
SMALL
NO_CHARGES


@<TRIPOS>ATOM
      1 ****        -5.3972   3.9484   0.1924 C.3            1 S1                 0.0000
      2 ****        -4.6083   2.6841   0.1602 C.2            1 S1                 0.0000
      3 ****        -5.1780   1.4727   0.1238 N.2            1 S1                 0.0000
      4 ****        -4.2410   0.4483   0.0918 N.2            1 S1                 0.0000
      5 ****        -2.9897   0.9161   0.1072 C.2            1 S1                 0.0000
      6 ****        -1.9267  -0.0205   0.0717 N.am           1 S1                 0.0000
      7 ****        -0.6072   0.2267   0.1011 C.2            1 S1                 0.0000
      8 ****        -0.0948   1.3420   0.1922 O.2            1 S1                 0.0000
      9 ****         0.0995  -0.9100   0.0199 N.am           1 S1                 0.0000
     10 ****         1.5555  -1.0087   0.0151 C.3            1 S1                 0.0000
     11 ****         2.1494  -0.7973  -1.3686 C.3            1 S1                 0.0000
     12 ****         3.5898  -0.3807  -1.5529 C.3            1 S1                 0.0000
     13 ****         2.4759   0.5858  -1.8823 C.3            1 S1                 0.0000
     14 ****         2.0234  -2.3318   0.5935 C.3            1 S1                 0.0000
     15 ****         2.1008  -2.5453   2.0862 C.3            1 S1                 0.0000
     16 ****         3.3691  -2.4673   1.2661 C.3            1 S1                 0.0000
     17 ****        -2.8495   2.6735   0.1623 S.3            1 S1                 0.0000
     18 ****        -6.4669   3.7359   0.2087 H              1 S1                 0.0000
     19 ****        -5.1742   4.5475  -0.6904 H              1 S1                 0.0000
     20 ****        -5.1417   4.5253   1.0814 H              1 S1                 0.0000
     21 ****        -2.2040  -0.9889   0.0089 H              1 S1                 0.0000
     22 ****        -0.4096  -1.7790  -0.0479 H              1 S1                 0.0000
     23 ****         1.9488  -0.2241   0.6651 H              1 S1                 0.0000
     24 ****         1.7718  -1.4988  -2.1107 H              1 S1                 0.0000
     25 ****         4.1809  -0.1723  -0.6636 H              1 S1                 0.0000
     26 ****         4.1370  -0.8216  -2.3835 H              1 S1                 0.0000
     27 ****         2.2773   0.7901  -2.9323 H              1 S1                 0.0000
     28 ****         2.3332   1.4285  -1.2089 H              1 S1                 0.0000
     29 ****         1.7022  -3.1947   0.0126 H              1 S1                 0.0000
     30 ****         1.8667  -1.7010   2.7318 H              1 S1                 0.0000
     31 ****         1.8084  -3.5207   2.4698 H              1 S1                 0.0000
     32 ****         3.9207  -3.3908   1.1023 H              1 S1                 0.0000
     33 ****         3.9791  -1.5730   1.3761 H              1 S1                 0.0000
     34 ****        -6.1667   1.3228   0.1201 LP             1 S1                 0.0000
     35 ****        -4.4749  -0.5234   0.0609 LP             1 S1                 0.0000
     36 ****        -0.6740   2.1551   0.2514 LP             1 S1                 0.0000
     37 ****         0.9007   1.4352   0.2071 LP             1 S1                 0.0000
@<TRIPOS>BOND
    1    1    2 1     
    2    1   18 1     
    3    1   19 1     
    4    1   20 1     
    5    2   17 1     
    6    2    3 2     
    7    3    4 1     
    8    4    5 2     
    9    5    6 1     
   10    5   17 1     
   11    6    7 am    
   12    6   21 1     
   13    7    8 2     
   14    7    9 am    
   15    9   10 1     
   16    9   22 1     
   17   10   11 1     
   18   10   14 1     
   19   10   23 1     
   20   11   13 1     
   21   11   12 1     
   22   11   24 1     
   23   12   13 1     
   24   12   25 1     
   25   12   26 1     
   26   13   27 1     
   27   13   28 1     
   28   14   16 1     
   29   14   15 1     
   30   14   29 1     
   31   15   16 1     
   32   15   30 1     
   33   15   31 1     
   34   16   32 1     
   35   16   33 1     
   36    3   34 1     
   37    4   35 1     
   38    8   36 1     
   39    8   37 1     
@<TRIPOS>SUBSTRUCTURE
      1 S1             1
@<TRIPOS>SET
LONE_PAIRS      STATIC     ATOMS    <user>   **** ""
4 34 35 36 37
DONOR_HYDROGENS      STATIC     ATOMS    <user>   **** ""
2 21 22
ATOM$BLUE        STATIC     ATOMS    COLORGROUP SYSTEM
4 34 35 36 37
ATOM$RED        STATIC     ATOMS    COLORGROUP SYSTEM
2 21 22
