AV-unprocessed.smi:2335|AV-procd|sdf|9323|dock4
  -GOLD-   2272012543D 1   1.00000     0.00000
 Structure written by MMmdl.
 42 43  0  0  0  0  0  0  0  0  1 V2000
  145.7734  143.2727  153.4540 C   0  0  0  0  0  0  0  0  0  0  0  0
  146.4125  142.5092  154.6186 C   0  0  0  0  0  0  0  0  0  0  0  0
  146.3315  141.0288  154.4478 C   0  0  0  0  0  0  0  0  0  0  0  0
  145.7335  140.2291  155.3399 N   0  0  0  0  0  0  0  0  0  0  0  0
  145.8011  138.8914  154.9763 N   0  0  0  0  0  0  0  0  0  0  0  0
  146.4649  138.7197  153.8250 C   0  0  0  0  0  0  0  0  0  0  0  0
  146.6831  137.4535  153.2211 N   0  0  0  0  0  0  0  0  0  0  0  0
  145.8625  136.3886  153.1981 C   0  0  0  0  0  0  0  0  0  0  0  0
  144.7592  136.3273  153.7406 O   0  0  0  0  0  0  0  0  0  0  0  0
  146.3958  135.3839  152.4892 N   0  0  0  0  0  0  0  0  0  0  0  0
  145.7441  134.1037  152.2177 C   0  0  2  0  0  0  0  0  0  0  0  0
  146.5779  133.2411  151.2906 C   0  0  0  0  0  0  0  0  0  0  0  0
  145.5421  132.3070  150.6524 C   0  0  0  0  0  0  0  0  0  0  0  0
  145.8580  132.0070  149.1788 C   0  0  0  0  0  0  0  0  0  0  0  0
  145.3684  131.0064  151.4551 C   0  0  0  0  0  0  0  0  0  0  0  0
  144.3023  133.0103  150.7151 O   0  0  0  0  0  0  0  0  0  0  0  0
  144.4134  134.2318  151.4439 C   0  0  0  0  0  0  0  0  0  0  0  0
  143.1990  134.3324  152.3802 C   0  0  0  0  0  0  0  0  0  0  0  0
  144.3909  135.3681  150.3995 C   0  0  0  0  0  0  0  0  0  0  0  0
  147.0732  140.1923  153.0888 S   0  0  0  0  0  0  0  0  0  0  0  0
  145.8527  144.3493  153.6054 H   0  0  0  0  0  0  0  0  0  0  0  0
  144.7154  143.0269  153.3565 H   0  0  0  0  0  0  0  0  0  0  0  0
  146.2629  143.0320  152.5102 H   0  0  0  0  0  0  0  0  0  0  0  0
  147.4599  142.7959  154.7199 H   0  0  0  0  0  0  0  0  0  0  0  0
  145.9232  142.7800  155.5543 H   0  0  0  0  0  0  0  0  0  0  0  0
  147.5549  137.3577  152.7219 H   0  0  0  0  0  0  0  0  0  0  0  0
  147.3090  135.5218  152.0820 H   0  0  0  0  0  0  0  0  0  0  0  0
  145.5882  133.5498  153.1458 H   0  0  0  0  0  0  0  0  0  0  0  0
  147.0481  133.8627  150.5269 H   0  0  0  0  0  0  0  0  0  0  0  0
  147.3741  132.7078  151.8112 H   0  0  0  0  0  0  0  0  0  0  0  0
  146.8077  131.4807  149.0780 H   0  0  0  0  0  0  0  0  0  0  0  0
  145.9215  132.9243  148.5928 H   0  0  0  0  0  0  0  0  0  0  0  0
  145.0835  131.3852  148.7285 H   0  0  0  0  0  0  0  0  0  0  0  0
  146.2879  130.4204  151.4612 H   0  0  0  0  0  0  0  0  0  0  0  0
  144.5820  130.3833  151.0279 H   0  0  0  0  0  0  0  0  0  0  0  0
  145.0973  131.2095  152.4915 H   0  0  0  0  0  0  0  0  0  0  0  0
  143.2242  135.2522  152.9646 H   0  0  0  0  0  0  0  0  0  0  0  0
  143.1658  133.4951  153.0776 H   0  0  0  0  0  0  0  0  0  0  0  0
  142.2663  134.3254  151.8159 H   0  0  0  0  0  0  0  0  0  0  0  0
  144.4258  136.3497  150.8728 H   0  0  0  0  0  0  0  0  0  0  0  0
  143.4792  135.3289  149.8029 H   0  0  0  0  0  0  0  0  0  0  0  0
  145.2328  135.2996  149.7103 H   0  0  0  0  0  0  0  0  0  0  0  0
  1  2  1  0  0  0  0
  1 21  1  0  0  0  0
  1 22  1  0  0  0  0
  1 23  1  0  0  0  0
  2  3  1  0  0  0  0
  2 24  1  0  0  0  0
  2 25  1  0  0  0  0
  3 20  1  0  0  0  0
  3  4  2  0  0  0  0
  4  5  1  0  0  0  0
  5  6  2  0  0  0  0
  6  7  1  0  0  0  0
  6 20  1  0  0  0  0
  7  8  1  0  0  0  0
  7 26  1  0  0  0  0
  8  9  2  0  0  0  0
  8 10  1  0  0  0  0
 10 11  1  0  0  0  0
 10 27  1  0  0  0  0
 11 17  1  0  0  0  0
 11 12  1  0  0  0  0
 11 28  1  0  0  0  0
 12 13  1  0  0  0  0
 12 29  1  0  0  0  0
 12 30  1  0  0  0  0
 13 14  1  0  0  0  0
 13 15  1  0  0  0  0
 13 16  1  0  0  0  0
 14 31  1  0  0  0  0
 14 32  1  0  0  0  0
 14 33  1  0  0  0  0
 15 34  1  0  0  0  0
 15 35  1  0  0  0  0
 15 36  1  0  0  0  0
 16 17  1  0  0  0  0
 17 18  1  0  0  0  0
 17 19  1  0  0  0  0
 18 37  1  0  0  0  0
 18 38  1  0  0  0  0
 18 39  1  0  0  0  0
 19 40  1  0  0  0  0
 19 41  1  0  0  0  0
 19 42  1  0  0  0  0
M  END
> <s_m_source_file>
AV-unprocessed.smi

> <i_m_source_file_index>
2335

> <i_lp_mmshare_version>
43012

> <i_f3d_flags>
0

> <s_epik_input>
W0NIM11bQ0gyXWMxbm5jKHMxKVtOSF1DKD1PKVtOSF1bQ0BASF0oQyhPMikoW0NIM10pW0NIM10pW0NIMl1DMihbQ0gzXSlbQ0gzXQ==

> <s_epik_cmdline>
J2VwaWtfcHl0aG9uJywgJy1waCcsICc3LjAnLCAnLXRuJywgJzgnLCAnLW1hJywgJzIwMCcsICctbWV0YWxfYmluZGluZycsICctaW1hZScsICc8aW5maWxlLm1hZT4nLCAnLW9tYWUnLCAnPG91dGZpbGUubWFlPic=

> <r_lp_tautomer_probability>
1

> <r_epik_Ionization_Penalty>
0.000542824

> <r_epik_Ionization_Penalty_Charging>
0

> <r_epik_Ionization_Penalty_Neutral>
0.000542824

> <r_epik_State_Penalty>
-0

> <r_epik_Charging_Adjusted_Penalty>
0

> <i_epik_Tot_Q>
0

> <i_epik_Tot_abs_Q>
0

> <r_epik_Metal_State_Penalty>
0.227439

> <b_epik_Metal_Only>
0

> <s_lp_Force_Field>
OPLS_2005

> <r_lp_Energy>
12.6376

> <b_lp_Chiralities_Consistent>
1

> <s_lp_Variant>
AV-unprocessed.smi:2335-1

> <Gold.Version>
5.8.1

> <Gold.Id.Protein>
6NUR|6NUR_protein|mol2

> <Gold.PLP.Fitness>
39.7635

> <Gold.PLP.PLP>
-34.2778

> <Gold.PLP.part.hbond>
-2.0000

> <Gold.PLP.part.metal>
0.0000

> <Gold.PLP.part.buried>
-4.8029

> <Gold.PLP.part.nonpolar>
-27.3202

> <Gold.PLP.part.repulsive>
0.3780

> <Gold.PLP.ligand.clash>
0.0000

> <Gold.PLP.ligand.torsion>
0.2654

> <Gold.PLP.Chemscore.Hbond>
2.0000

> <Gold.PLP.Chemscore.CHOScore>
0.0000

> <Gold.PLP.Chemscore.Metal>
0.0000

> <Gold.Chemscore.Hbonds>
donor molecule, donor type, donor heavy atom, donor atom, acceptor molecule, acceptor atom, score
      L1  H     7    26       P1  7948  1.00
      L1  H    10    27       P1  7948  1.00

> <Gold.PLP.Chemscore.Internal.Correction>
0.0164

> <Gold.Rescore>
     Score         DG    S(hbond)    S(metal)    S(lipo)     H(rot)  DE(clash)    DE(int)     intcor
     17.48     -19.32       1.94        0.00      89.25       1.21       0.14       1.71       ----

> <Gold.Chemscore.Fitness>
17.4753

> <Gold.Chemscore.DG>
-19.3220

> <Gold.Chemscore.ZeroCoef>
-5.4800

> <Gold.Chemscore.Hbond>
1.9429

> <Gold.Chemscore.Metal>
0.0000

> <Gold.Chemscore.Lipo>
89.2491

> <Gold.Chemscore.Internal_Hbond>
0.0000

> <Gold.Chemscore.DEClash>
0.1406

> <Gold.Chemscore.DEInternal>
1.7061

> <Gold.Chemscore.Rot>
1.2068

> <Gold.Chemscore.Internal.Correction>
   9.000000E+99

> <Gold.Chemscore.Hbonds>
donor molecule, donor type, donor heavy atom, donor atom, acceptor molecule, acceptor atom, score
      L1  H     7    26       P1  7948  0.94
      L1  H    10    27       P1  7948  1.00

> <Gold.Chemscore.Hbond.Weighted>
-6.4894

> <Gold.Chemscore.Metal.Weighted>
-0.0000

> <Gold.Chemscore.Lipo.Weighted>
-10.4421

> <Gold.Chemscore.Internal_Hbond.Weighted>
0.0000

> <Gold.Chemscore.DEClash.Weighted>
0.1406

> <Gold.Chemscore.DEInternal.Weighted>
1.7061

> <Gold.Chemscore.Rot.Weighted>
3.0895

> <Gold.Chemscore.Internal.Correction.Weighted>
   9.000000E+99

> <Gold.Protein.RotatedTorsions>
[ 6907 6896 6895 6894 ] final   85.55 input  -60.11 | X-H torsion
[ 7974 7965 7964 7962 ] final -179.79 input  175.53 | X-H torsion
[ 8008 7997 7996 7995 ] final    6.12 input   59.86 | X-H torsion
[ 10167 10162 10161 10158 ] final -160.07 input  -65.29 | X-H torsion
[ 10718 10713 10712 10709 ] final   75.75 input   66.30 | X-H torsion
[ 10763 10752 10751 10750 ] final  -84.60 input  -60.55 | X-H torsion
[ 11005 11000 10999 10996 ] final   48.75 input  -57.11 | X-H torsion

> <Gold.Protein.ActiveResidues>
 VAL166  LYS551  ARG553  GLY616  TRP617  ASP618  TYR619  PRO620  LYS621  CYS622 
 ASP623  PHE694  ASN695  SER759  ASP760  ASP761  ALA762  ILE779  LEU786  VAL792 
 PHE793  MET794  SER795  GLU796  ALA797  LYS798  CYS799  TRP800  GLU811  SER814 

> <Gold.Protein.RotatedAtoms>
  152.5377  134.2568  159.8919 H   0  0  0  0  0  0  0  0  0  0  0  0  # atno 6907 bound_to 6896
  151.2529  133.4334  159.2620 H   0  0  0  0  0  0  0  0  0  0  0  0  # atno 6908 bound_to 6896
  151.0522  134.9695  159.8274 H   0  0  0  0  0  0  0  0  0  0  0  0  # atno 6909 bound_to 6896
  144.7139  140.0664  143.6431 H   0  0  0  0  0  0  0  0  0  0  0  0  # atno 7974 bound_to 7965
  154.7369  140.2741  155.6406 H   0  0  0  0  0  0  0  0  0  0  0  0  # atno 8008 bound_to 7997
  156.2864  140.2704  156.2011 H   0  0  0  0  0  0  0  0  0  0  0  0  # atno 8009 bound_to 7997
  155.0308  140.0371  157.2463 H   0  0  0  0  0  0  0  0  0  0  0  0  # atno 8010 bound_to 7997
  139.6567  143.9986  152.2198 H   0  0  0  0  0  0  0  0  0  0  0  0  # atno 10167 bound_to 10162
  157.6647  130.9741  150.1399 H   0  0  0  0  0  0  0  0  0  0  0  0  # atno 10718 bound_to 10713
  154.6014  135.5515  153.7378 H   0  0  0  0  0  0  0  0  0  0  0  0  # atno 10763 bound_to 10752
  153.0156  135.6367  154.1709 H   0  0  0  0  0  0  0  0  0  0  0  0  # atno 10764 bound_to 10752
  154.1649  135.2895  155.3078 H   0  0  0  0  0  0  0  0  0  0  0  0  # atno 10765 bound_to 10752
  140.1163  134.4888  155.8635 H   0  0  0  0  0  0  0  0  0  0  0  0  # atno 11005 bound_to 11000
  145.9820  139.2948  143.1036 LP  0  0  0  0  0  0  0  0  0  0  0  0  # atno 17320 bound_to 7965
  145.9000  140.9249  143.0508 LP  0  0  0  0  0  0  0  0  0  0  0  0  # atno 17321 bound_to 7965
  139.9714  144.6491  150.7985 LP  0  0  0  0  0  0  0  0  0  0  0  0  # atno 17342 bound_to 10162
  140.7562  143.3062  151.2957 LP  0  0  0  0  0  0  0  0  0  0  0  0  # atno 17343 bound_to 10162
  156.2224  130.3675  149.8540 LP  0  0  0  0  0  0  0  0  0  0  0  0  # atno 17370 bound_to 10713
  156.6389  130.8697  151.3510 LP  0  0  0  0  0  0  0  0  0  0  0  0  # atno 17371 bound_to 10713
  141.2142  133.6745  156.6803 LP  0  0  0  0  0  0  0  0  0  0  0  0  # atno 17394 bound_to 11000
  140.3024  134.8153  157.4108 LP  0  0  0  0  0  0  0  0  0  0  0  0  # atno 17395 bound_to 11000

$$$$
