AV-unprocessed.smi:1521|AV-procd|sdf|6133|dock8
  -GOLD-   22720 6273D 1   1.00000     0.00000
 Structure written by MMmdl.
 35 36  0  0  0  0  0  0  0  0  2 V2000
  154.1383  139.3002  161.1417 O   0  0  0  0  0  0  0  0  0  0  0  0
  153.9198  139.6889  159.9949 C   0  0  0  0  0  0  0  0  0  0  0  0
  153.5087  140.9323  159.7085 N   0  0  0  0  0  0  0  0  0  0  0  0
  153.2945  141.9964  160.6839 C   0  0  0  0  0  0  0  0  0  0  0  0
  152.9963  143.3405  159.9971 C   0  0  1  0  0  0  0  0  0  0  0  0
  152.2718  143.1510  158.6495 C   0  0  0  0  0  0  0  0  0  0  0  0
  151.9941  144.4248  158.0822 O   0  0  0  0  0  0  0  0  0  0  0  0
  151.1631  145.1999  158.9353 C   0  0  0  0  0  0  0  0  0  0  0  0
  151.8719  145.3912  160.2858 C   0  0  0  0  0  0  0  0  0  0  0  0
  152.1519  144.1146  160.8428 O   0  0  0  0  0  0  0  0  0  0  0  0
  154.0595  138.9655  158.8690 N   0  0  0  0  0  0  0  0  0  0  0  0
  154.4787  137.6346  158.6918 C   0  0  0  0  0  0  0  0  0  0  0  0
  154.8689  136.7923  159.6889 C   0  0  0  0  0  0  0  0  0  0  0  0
  155.2947  135.4220  159.4318 C   0  0  0  0  0  0  0  0  0  0  0  0
  155.6566  134.4323  160.5252 C   0  0  0  0  0  0  0  0  0  0  0  0
  155.4183  134.9437  161.7332 F   0  0  0  0  0  0  0  0  0  0  0  0
  154.9287  133.3241  160.3930 F   0  0  0  0  0  0  0  0  0  0  0  0
  156.9446  134.0948  160.4581 F   0  0  0  0  0  0  0  0  0  0  0  0
  155.2290  135.0950  158.0915 C   0  0  0  0  0  0  0  0  0  0  0  0
  154.8695  135.8683  157.0441 N   0  5  0  0  0  0  0  0  0  0  0  0
  154.4785  137.1495  157.2954 C   0  0  0  0  0  0  0  0  0  0  0  0
  154.1286  137.9042  156.3870 O   0  0  0  0  0  0  0  0  0  0  0  0
  153.3535  141.1670  158.7392 H   0  0  0  0  0  0  0  0  0  0  0  0
  152.4443  141.7043  161.3008 H   0  0  0  0  0  0  0  0  0  0  0  0
  154.1467  142.0875  161.3593 H   0  0  0  0  0  0  0  0  0  0  0  0
  153.9348  143.8729  159.8311 H   0  0  0  0  0  0  0  0  0  0  0  0
  152.8980  142.5884  157.9571 H   0  0  0  0  0  0  0  0  0  0  0  0
  151.3464  142.5868  158.7768 H   0  0  0  0  0  0  0  0  0  0  0  0
  150.9705  146.1650  158.4669 H   0  0  0  0  0  0  0  0  0  0  0  0
  150.1982  144.7085  159.0693 H   0  0  0  0  0  0  0  0  0  0  0  0
  152.7939  145.9624  160.1666 H   0  0  0  0  0  0  0  0  0  0  0  0
  151.2352  145.9472  160.9738 H   0  0  0  0  0  0  0  0  0  0  0  0
  153.8509  139.4453  158.0058 H   0  0  0  0  0  0  0  0  0  0  0  0
  154.8774  137.1096  160.7175 H   0  0  0  0  0  0  0  0  0  0  0  0
  155.5029  134.0530  157.8205 H   0  0  0  0  0  0  0  0  0  0  0  0
  1  2  2  0  0  0  0
  2  3  1  0  0  0  0
  2 11  1  0  0  0  0
  3  4  1  0  0  0  0
  3 23  1  0  0  0  0
  4  5  1  0  0  0  0
  4 24  1  0  0  0  0
  4 25  1  0  0  0  0
  5 10  1  0  0  0  0
  5  6  1  0  0  0  0
  5 26  1  0  0  0  0
  6  7  1  0  0  0  0
  6 27  1  0  0  0  0
  6 28  1  0  0  0  0
  7  8  1  0  0  0  0
  8  9  1  0  0  0  0
  8 29  1  0  0  0  0
  8 30  1  0  0  0  0
  9 10  1  0  0  0  0
  9 31  1  0  0  0  0
  9 32  1  0  0  0  0
 11 12  1  0  0  0  0
 11 33  1  0  0  0  0
 12 21  1  0  0  0  0
 12 13  2  0  0  0  0
 13 14  1  0  0  0  0
 13 34  1  0  0  0  0
 14 15  1  0  0  0  0
 14 19  2  0  0  0  0
 15 16  1  0  0  0  0
 15 17  1  0  0  0  0
 15 18  1  0  0  0  0
 19 20  1  0  0  0  0
 19 35  1  0  0  0  0
 20 21  1  0  0  0  0
 21 22  2  0  0  0  0
M  CHG  1  20  -1
M  END
> <s_m_source_file>
AV-unprocessed.smi

> <i_m_source_file_index>
1521

> <i_lp_mmshare_version>
43012

> <i_f3d_flags>
0

> <s_epik_input>
Tz1jMVtuSF1bY0hdYyhDKEYpKEYpRilbY0hdYzFbTkhdQyg9TylbTkhdW0NIMl1bQ0BASF0yW0NIMl1PW0NIMl1bQ0gyXU8y

> <s_epik_cmdline>
J2VwaWtfcHl0aG9uJywgJy1waCcsICc3LjAnLCAnLXRuJywgJzgnLCAnLW1hJywgJzIwMCcsICctbWV0YWxfYmluZGluZycsICctaW1hZScsICc8aW5maWxlLm1hZT4nLCAnLW9tYWUnLCAnPG91dGZpbGUubWFlPic=

> <r_lp_tautomer_probability>
1

> <r_epik_Ionization_Penalty>
3.1412

> <r_epik_Ionization_Penalty_Charging>
0.17015

> <r_epik_Ionization_Penalty_Neutral>
2.97105

> <r_epik_State_Penalty>
2.96707

> <r_epik_Charging_Adjusted_Penalty>
3.13722

> <i_epik_Tot_Q>
-1

> <i_epik_Tot_abs_Q>
1

> <r_epik_Metal_State_Penalty>
0.451298

> <b_epik_Metal_Only>
1

> <s_lp_Force_Field>
OPLS_2005

> <r_lp_Energy>
21.3

> <b_lp_Chiralities_Consistent>
1

> <s_lp_Variant>
AV-unprocessed.smi:1521-4

> <Gold.Version>
5.8.1

> <Gold.Id.Protein>
6NUR|6NUR_protein|mol2

> <Gold.PLP.Fitness>
37.5253

> <Gold.PLP.PLP>
-32.1708

> <Gold.PLP.part.hbond>
-2.0000

> <Gold.PLP.part.metal>
0.0000

> <Gold.PLP.part.buried>
-6.9866

> <Gold.PLP.part.nonpolar>
-23.4082

> <Gold.PLP.part.repulsive>
0.6626

> <Gold.PLP.ligand.clash>
0.0000

> <Gold.PLP.ligand.torsion>
0.5937

> <Gold.PLP.Chemscore.Hbond>
2.1635

> <Gold.PLP.Chemscore.CHOScore>
0.0000

> <Gold.PLP.Chemscore.Metal>
0.0000

> <Gold.Chemscore.Hbonds>
donor molecule, donor type, donor heavy atom, donor atom, acceptor molecule, acceptor atom, score
      P1  H  7997  8009       L1    22  0.15
      P1  H 10752 10763       L1    20  2.00

> <Gold.PLP.Chemscore.Internal.Correction>
0.0513

> <Gold.Rescore>
     Score         DG    S(hbond)    S(metal)    S(lipo)     H(rot)  DE(clash)    DE(int)     intcor
     13.35     -14.99       1.39        0.00      71.46       1.36       0.21       1.43       ----

> <Gold.Chemscore.Fitness>
13.3541

> <Gold.Chemscore.DG>
-14.9922

> <Gold.Chemscore.ZeroCoef>
-5.4800

> <Gold.Chemscore.Hbond>
1.3903

> <Gold.Chemscore.Metal>
0.0000

> <Gold.Chemscore.Lipo>
71.4550

> <Gold.Chemscore.Internal_Hbond>
0.0000

> <Gold.Chemscore.DEClash>
0.2088

> <Gold.Chemscore.DEInternal>
1.4293

> <Gold.Chemscore.Rot>
1.3640

> <Gold.Chemscore.Internal.Correction>
   9.000000E+99

> <Gold.Chemscore.Hbonds>
donor molecule, donor type, donor heavy atom, donor atom, acceptor molecule, acceptor atom, score
      P1  H  7997  8009       L1    22  0.15
      P1  H 10752 10763       L1    20  0.70

> <Gold.Chemscore.Hbond.Weighted>
-4.6437

> <Gold.Chemscore.Metal.Weighted>
-0.0000

> <Gold.Chemscore.Lipo.Weighted>
-8.3602

> <Gold.Chemscore.Internal_Hbond.Weighted>
0.0000

> <Gold.Chemscore.DEClash.Weighted>
0.2088

> <Gold.Chemscore.DEInternal.Weighted>
1.4293

> <Gold.Chemscore.Rot.Weighted>
3.4918

> <Gold.Chemscore.Internal.Correction.Weighted>
   9.000000E+99

> <Gold.Protein.RotatedTorsions>
[ 6907 6896 6895 6894 ] final -156.80 input  -60.11 | X-H torsion
[ 7974 7965 7964 7962 ] final   61.13 input  175.53 | X-H torsion
[ 8008 7997 7996 7995 ] final -151.23 input   59.86 | X-H torsion
[ 10167 10162 10161 10158 ] final  118.42 input  -65.29 | X-H torsion
[ 10718 10713 10712 10709 ] final  -37.18 input   66.30 | X-H torsion
[ 10763 10752 10751 10750 ] final  151.35 input  -60.55 | X-H torsion
[ 11005 11000 10999 10996 ] final   64.48 input  -57.11 | X-H torsion

> <Gold.Protein.ActiveResidues>
 VAL166  LYS551  ARG553  GLY616  TRP617  ASP618  TYR619  PRO620  LYS621  CYS622 
 ASP623  PHE694  ASN695  SER759  ASP760  ASP761  ALA762  ILE779  LEU786  VAL792 
 PHE793  MET794  SER795  GLU796  ALA797  LYS798  CYS799  TRP800  GLU811  SER814 

> <Gold.Protein.RotatedAtoms>
  151.2932  133.4156  159.2634 H   0  0  0  0  0  0  0  0  0  0  0  0  # atno 6907 bound_to 6896
  151.0259  134.9504  159.8095 H   0  0  0  0  0  0  0  0  0  0  0  0  # atno 6908 bound_to 6896
  152.5335  134.2894  159.9090 H   0  0  0  0  0  0  0  0  0  0  0  0  # atno 6909 bound_to 6896
  145.8882  139.3492  143.0665 H   0  0  0  0  0  0  0  0  0  0  0  0  # atno 7974 bound_to 7965
  155.6362  140.0697  157.2633 H   0  0  0  0  0  0  0  0  0  0  0  0  # atno 8008 bound_to 7997
  154.4194  140.1758  156.1573 H   0  0  0  0  0  0  0  0  0  0  0  0  # atno 8009 bound_to 7997
  155.9893  140.3346  155.6740 H   0  0  0  0  0  0  0  0  0  0  0  0  # atno 8010 bound_to 7997
  139.6113  144.7082  151.2838 H   0  0  0  0  0  0  0  0  0  0  0  0  # atno 10167 bound_to 10162
  156.3182  130.4262  149.7985 H   0  0  0  0  0  0  0  0  0  0  0  0  # atno 10718 bound_to 10713
  154.1024  135.2845  155.3248 H   0  0  0  0  0  0  0  0  0  0  0  0  # atno 10763 bound_to 10752
  154.6546  135.5356  153.7946 H   0  0  0  0  0  0  0  0  0  0  0  0  # atno 10764 bound_to 10752
  153.0374  135.6518  154.1187 H   0  0  0  0  0  0  0  0  0  0  0  0  # atno 10765 bound_to 10752
  139.9956  134.6522  156.0016 H   0  0  0  0  0  0  0  0  0  0  0  0  # atno 11005 bound_to 11000
  145.8941  140.9285  143.0537 LP  0  0  0  0  0  0  0  0  0  0  0  0  # atno 17320 bound_to 7965
  144.6729  140.0944  143.7463 LP  0  0  0  0  0  0  0  0  0  0  0  0  # atno 17321 bound_to 7965
  140.7321  143.6834  150.7982 LP  0  0  0  0  0  0  0  0  0  0  0  0  # atno 17342 bound_to 10162
  140.0429  143.5328  152.2709 LP  0  0  0  0  0  0  0  0  0  0  0  0  # atno 17343 bound_to 10162
  156.5303  130.8254  151.3234 LP  0  0  0  0  0  0  0  0  0  0  0  0  # atno 17370 bound_to 10713
  157.7406  130.9854  150.2389 LP  0  0  0  0  0  0  0  0  0  0  0  0  # atno 17371 bound_to 10713
  141.1602  133.6539  156.4293 LP  0  0  0  0  0  0  0  0  0  0  0  0  # atno 17394 bound_to 11000
  140.4824  134.6652  157.5176 LP  0  0  0  0  0  0  0  0  0  0  0  0  # atno 17395 bound_to 11000

$$$$
