AV-unprocessed.smi:1670|AV-procd|sdf|6695|dock8
  -GOLD-   22720 7433D 1   1.00000     0.00000
 Structure written by MMmdl.
 41 42  0  0  0  0  0  0  0  0  1 V2000
  152.3283  145.1730  158.1476 C   0  0  0  0  0  0  0  0  0  0  0  0
  151.6512  143.8695  158.5924 C   0  0  2  0  0  0  0  0  0  0  0  0
  152.6921  142.7751  158.9144 C   0  0  0  0  0  0  0  0  0  0  0  0
  152.9311  142.6325  160.3407 N   0  0  0  0  0  0  0  0  0  0  0  0
  153.7664  141.7438  160.9841 C   0  0  0  0  0  0  0  0  0  0  0  0
  153.6798  142.0011  162.3223 C   0  0  0  0  0  0  0  0  0  0  0  0
  152.7519  143.0770  162.4005 C   0  0  0  0  0  0  0  0  0  0  0  0
  152.3013  143.4494  161.2136 N   0  0  0  0  0  0  0  0  0  0  0  0
  150.7372  143.4237  157.5411 N   0  0  0  0  0  0  0  0  0  0  0  0
  150.2712  142.1747  157.3943 C   0  0  0  0  0  0  0  0  0  0  0  0
  150.5053  141.2521  158.1755 O   0  0  0  0  0  0  0  0  0  0  0  0
  149.5474  142.0436  156.2744 N   0  0  0  0  0  0  0  0  0  0  0  0
  148.9716  140.7928  155.7903 C   0  0  2  0  0  0  0  0  0  0  0  0
  149.7864  140.2436  154.6003 C   0  0  0  0  0  0  0  0  0  0  0  0
  149.1583  138.9598  154.0305 C   0  0  0  0  0  0  0  0  0  0  0  0
  147.6778  139.1515  153.6511 C   0  0  2  0  0  0  0  0  0  0  0  0
  147.5716  139.9876  152.5157 O   0  0  0  0  0  0  0  0  0  0  0  0
  146.8659  139.7424  154.8194 C   0  0  0  0  0  0  0  0  0  0  0  0
  147.5046  141.0233  155.3844 C   0  0  0  0  0  0  0  0  0  0  0  0
  152.9980  145.5503  158.9210 H   0  0  0  0  0  0  0  0  0  0  0  0
  151.5906  145.9501  157.9451 H   0  0  0  0  0  0  0  0  0  0  0  0
  152.9167  145.0268  157.2410 H   0  0  0  0  0  0  0  0  0  0  0  0
  151.0894  144.0926  159.5013 H   0  0  0  0  0  0  0  0  0  0  0  0
  152.3774  141.8135  158.5048 H   0  0  0  0  0  0  0  0  0  0  0  0
  153.6449  143.0159  158.4412 H   0  0  0  0  0  0  0  0  0  0  0  0
  154.3524  141.0170  160.4410 H   0  0  0  0  0  0  0  0  0  0  0  0
  154.2025  141.4999  163.1232 H   0  0  0  0  0  0  0  0  0  0  0  0
  152.3944  143.5945  163.2784 H   0  0  0  0  0  0  0  0  0  0  0  0
  150.4854  144.1066  156.8416 H   0  0  0  0  0  0  0  0  0  0  0  0
  149.4153  142.8592  155.6945 H   0  0  0  0  0  0  0  0  0  0  0  0
  148.9898  140.0607  156.6001 H   0  0  0  0  0  0  0  0  0  0  0  0
  149.8503  140.9988  153.8157 H   0  0  0  0  0  0  0  0  0  0  0  0
  150.8126  140.0368  154.9070 H   0  0  0  0  0  0  0  0  0  0  0  0
  149.7296  138.6134  153.1684 H   0  0  0  0  0  0  0  0  0  0  0  0
  149.2326  138.1705  154.7796 H   0  0  0  0  0  0  0  0  0  0  0  0
  147.2525  138.1861  153.3750 H   0  0  0  0  0  0  0  0  0  0  0  0
  148.3853  139.9482  152.0368 H   0  0  0  0  0  0  0  0  0  0  0  0
  145.8407  139.9418  154.5054 H   0  0  0  0  0  0  0  0  0  0  0  0
  146.8001  139.0005  155.6162 H   0  0  0  0  0  0  0  0  0  0  0  0
  146.9290  141.3686  156.2441 H   0  0  0  0  0  0  0  0  0  0  0  0
  147.4474  141.8171  154.6382 H   0  0  0  0  0  0  0  0  0  0  0  0
  1  2  1  0  0  0  0
  1 20  1  0  0  0  0
  1 21  1  0  0  0  0
  1 22  1  0  0  0  0
  2  3  1  0  0  0  0
  2  9  1  0  0  0  0
  2 23  1  0  0  0  0
  3  4  1  0  0  0  0
  3 24  1  0  0  0  0
  3 25  1  0  0  0  0
  4  8  1  0  0  0  0
  4  5  1  0  0  0  0
  5  6  2  0  0  0  0
  5 26  1  0  0  0  0
  6  7  1  0  0  0  0
  6 27  1  0  0  0  0
  7  8  2  0  0  0  0
  7 28  1  0  0  0  0
  9 10  1  0  0  0  0
  9 29  1  0  0  0  0
 10 11  2  0  0  0  0
 10 12  1  0  0  0  0
 12 13  1  0  0  0  0
 12 30  1  0  0  0  0
 13 19  1  0  0  0  0
 13 14  1  0  0  0  0
 13 31  1  0  0  0  0
 14 15  1  0  0  0  0
 14 32  1  0  0  0  0
 14 33  1  0  0  0  0
 15 16  1  0  0  0  0
 15 34  1  0  0  0  0
 15 35  1  0  0  0  0
 16 17  1  0  0  0  0
 16 18  1  0  0  0  0
 16 36  1  0  0  0  0
 17 37  1  0  0  0  0
 18 19  1  0  0  0  0
 18 38  1  0  0  0  0
 18 39  1  0  0  0  0
 19 40  1  0  0  0  0
 19 41  1  0  0  0  0
M  END
> <s_m_source_file>
AV-unprocessed.smi

> <i_m_source_file_index>
1670

> <i_lp_mmshare_version>
43012

> <i_f3d_flags>
0

> <s_epik_input>
bjFbY0hdW2NIXVtjSF1uMVtDSDJdW0NAQEhdKFtDSDNdKVtOSF1DKD1PKVtOSF1bQ0BASF0yW0NIMl1bQ0gyXVtDQEBIXShbT0hdKVtDSDJdW0NIMl0y

> <s_epik_cmdline>
J2VwaWtfcHl0aG9uJywgJy1waCcsICc3LjAnLCAnLXRuJywgJzgnLCAnLW1hJywgJzIwMCcsICctbWV0YWxfYmluZGluZycsICctaW1hZScsICc8aW5maWxlLm1hZT4nLCAnLW9tYWUnLCAnPG91dGZpbGUubWFlPic=

> <r_lp_tautomer_probability>
1

> <r_epik_Ionization_Penalty>
7.33369e-05

> <r_epik_Ionization_Penalty_Charging>
0

> <r_epik_Ionization_Penalty_Neutral>
7.33369e-05

> <r_epik_State_Penalty>
-0

> <r_epik_Charging_Adjusted_Penalty>
0

> <i_epik_Tot_Q>
0

> <i_epik_Tot_abs_Q>
0

> <r_epik_Metal_State_Penalty>
-0

> <b_epik_Metal_Only>
0

> <s_lp_Force_Field>
OPLS_2005

> <r_lp_Energy>
7.35879

> <b_lp_Chiralities_Consistent>
1

> <s_lp_Variant>
AV-unprocessed.smi:1670-3

> <Gold.Version>
5.8.1

> <Gold.Id.Protein>
6NUR|6NUR_protein|mol2

> <Gold.PLP.Fitness>
47.9058

> <Gold.PLP.PLP>
-42.5133

> <Gold.PLP.part.hbond>
-2.9648

> <Gold.PLP.part.metal>
0.0000

> <Gold.PLP.part.buried>
-6.0464

> <Gold.PLP.part.nonpolar>
-33.8082

> <Gold.PLP.part.repulsive>
0.1949

> <Gold.PLP.ligand.clash>
0.0000

> <Gold.PLP.ligand.torsion>
1.0635

> <Gold.PLP.Chemscore.Hbond>
2.5010

> <Gold.PLP.Chemscore.CHOScore>
0.0000

> <Gold.PLP.Chemscore.Metal>
0.0000

> <Gold.Chemscore.Hbonds>
donor molecule, donor type, donor heavy atom, donor atom, acceptor molecule, acceptor atom, score
      L1  H     9    29       P1  8028  0.79
      L1  H    12    30       P1  8028  0.91
      L1  H    17    37       P1  7957  0.89

> <Gold.PLP.Chemscore.Internal.Correction>
0.0166

> <Gold.Rescore>
     Score         DG    S(hbond)    S(metal)    S(lipo)     H(rot)  DE(clash)    DE(int)     intcor
     17.82     -20.83       2.74        0.00     101.75       2.22       0.43       2.59       ----

> <Gold.Chemscore.Fitness>
17.8189

> <Gold.Chemscore.DG>
-20.8330

> <Gold.Chemscore.ZeroCoef>
-5.4800

> <Gold.Chemscore.Hbond>
2.7358

> <Gold.Chemscore.Metal>
0.0000

> <Gold.Chemscore.Lipo>
101.7498

> <Gold.Chemscore.Internal_Hbond>
0.0000

> <Gold.Chemscore.DEClash>
0.4251

> <Gold.Chemscore.DEInternal>
2.5890

> <Gold.Chemscore.Rot>
2.2224

> <Gold.Chemscore.Internal.Correction>
   9.000000E+99

> <Gold.Chemscore.Hbonds>
donor molecule, donor type, donor heavy atom, donor atom, acceptor molecule, acceptor atom, score
      L1  H     9    29       P1  8028  0.75
      L1  H    12    30       P1  8028  0.89
      L1  H    17    37       P1  7957  0.87

> <Gold.Chemscore.Hbond.Weighted>
-9.1376

> <Gold.Chemscore.Metal.Weighted>
-0.0000

> <Gold.Chemscore.Lipo.Weighted>
-11.9047

> <Gold.Chemscore.Internal_Hbond.Weighted>
0.0000

> <Gold.Chemscore.DEClash.Weighted>
0.4251

> <Gold.Chemscore.DEInternal.Weighted>
2.5890

> <Gold.Chemscore.Rot.Weighted>
5.6893

> <Gold.Chemscore.Internal.Correction.Weighted>
   9.000000E+99

> <Gold.Protein.RotatedTorsions>
[ 6907 6896 6895 6894 ] final   -4.75 input  -60.11 | X-H torsion
[ 7974 7965 7964 7962 ] final   14.20 input  175.53 | X-H torsion
[ 8008 7997 7996 7995 ] final   41.37 input   59.86 | X-H torsion
[ 10167 10162 10161 10158 ] final -100.40 input  -65.29 | X-H torsion
[ 10718 10713 10712 10709 ] final  -39.21 input   66.30 | X-H torsion
[ 10763 10752 10751 10750 ] final -164.08 input  -60.55 | X-H torsion
[ 11005 11000 10999 10996 ] final  -30.57 input  -57.11 | X-H torsion

> <Gold.Protein.ActiveResidues>
 VAL166  LYS551  ARG553  GLY616  TRP617  ASP618  TYR619  PRO620  LYS621  CYS622 
 ASP623  PHE694  ASN695  SER759  ASP760  ASP761  ALA762  ILE779  LEU786  VAL792 
 PHE793  MET794  SER795  GLU796  ALA797  LYS798  CYS799  TRP800  GLU811  SER814 

> <Gold.Protein.RotatedAtoms>
  151.4926  135.1058  159.9807 H   0  0  0  0  0  0  0  0  0  0  0  0  # atno 6907 bound_to 6896
  152.4735  133.8079  159.6998 H   0  0  0  0  0  0  0  0  0  0  0  0  # atno 6908 bound_to 6896
  150.8758  133.7379  159.2973 H   0  0  0  0  0  0  0  0  0  0  0  0  # atno 6909 bound_to 6896
  146.2311  139.9076  142.8529 H   0  0  0  0  0  0  0  0  0  0  0  0  # atno 7974 bound_to 7965
  155.2684  140.3364  155.4267 H   0  0  0  0  0  0  0  0  0  0  0  0  # atno 8008 bound_to 7997
  156.2143  140.1783  156.7665 H   0  0  0  0  0  0  0  0  0  0  0  0  # atno 8009 bound_to 7997
  154.5731  140.0666  156.8979 H   0  0  0  0  0  0  0  0  0  0  0  0  # atno 8010 bound_to 7997
  140.2523  143.3464  152.0703 H   0  0  0  0  0  0  0  0  0  0  0  0  # atno 10167 bound_to 10162
  156.2950  130.4233  149.8200 H   0  0  0  0  0  0  0  0  0  0  0  0  # atno 10718 bound_to 10713
  154.7062  135.2997  154.9267 H   0  0  0  0  0  0  0  0  0  0  0  0  # atno 10763 bound_to 10752
  154.0183  135.6686  153.4774 H   0  0  0  0  0  0  0  0  0  0  0  0  # atno 10764 bound_to 10752
  153.0719  135.5056  154.8234 H   0  0  0  0  0  0  0  0  0  0  0  0  # atno 10765 bound_to 10752
  140.9394  133.7288  156.1054 H   0  0  0  0  0  0  0  0  0  0  0  0  # atno 11005 bound_to 11000
  145.2261  140.9954  143.4017 LP  0  0  0  0  0  0  0  0  0  0  0  0  # atno 17320 bound_to 7965
  144.9569  139.4021  143.6375 LP  0  0  0  0  0  0  0  0  0  0  0  0  # atno 17321 bound_to 7965
  139.5042  144.6771  151.6101 LP  0  0  0  0  0  0  0  0  0  0  0  0  # atno 17342 bound_to 10162
  140.6030  143.9574  150.6399 LP  0  0  0  0  0  0  0  0  0  0  0  0  # atno 17343 bound_to 10162
  156.5599  130.8379  151.3325 LP  0  0  0  0  0  0  0  0  0  0  0  0  # atno 17370 bound_to 10713
  157.7353  130.9759  150.2073 LP  0  0  0  0  0  0  0  0  0  0  0  0  # atno 17371 bound_to 10713
  140.7754  134.3785  157.5499 LP  0  0  0  0  0  0  0  0  0  0  0  0  # atno 17394 bound_to 11000
  139.8816  134.9048  156.2886 LP  0  0  0  0  0  0  0  0  0  0  0  0  # atno 17395 bound_to 11000

$$$$
