AV-unprocessed.smi:1565|AV-procd|sdf|6302|dock2
  -GOLD-   22720 6503D 1   1.00000     0.00000
 Structure written by MMmdl.
 39 40  0  0  0  0  0  0  0  0  2 V2000
  151.1023  142.4476  156.5440 C   0  0  0  0  0  0  0  0  0  0  0  0
  150.6158  142.4491  158.0043 C   0  0  1  0  0  0  0  0  0  0  0  0
  151.3396  141.4177  158.8915 C   0  0  0  0  0  0  0  0  0  0  0  0
  152.6880  141.8673  159.2249 N   0  0  0  0  0  0  0  0  0  0  0  0
  153.5287  140.8835  159.7875 C   0  0  0  0  0  0  0  0  0  0  0  0
  153.8806  140.9524  161.1554 C   0  0  0  0  0  0  0  0  0  0  0  0
  154.7280  139.9668  161.6973 C   0  0  0  0  0  0  0  0  0  0  0  0
  155.1990  138.9269  160.8636 C   0  0  0  0  0  0  0  0  0  0  0  0
  156.1388  137.8632  161.3636 C   0  0  0  0  0  0  0  0  0  0  0  0
  156.7143  137.1592  160.5262 O   0  0  0  0  0  0  0  0  0  0  0  0
  156.1801  137.8024  162.7248 N   0  5  0  0  0  0  0  0  0  0  0  0
  156.1675  136.5555  163.4940 C   0  0  0  0  0  0  0  0  0  0  0  0
  154.7346  136.0078  163.6539 C   0  0  0  0  0  0  0  0  0  0  0  0
  154.1958  135.8453  162.4454 F   0  0  0  0  0  0  0  0  0  0  0  0
  154.7469  134.8255  164.2713 F   0  0  0  0  0  0  0  0  0  0  0  0
  153.9689  136.8546  164.3436 F   0  0  0  0  0  0  0  0  0  0  0  0
  154.7961  138.9472  159.5110 C   0  0  0  0  0  0  0  0  0  0  0  0
  153.9822  139.8886  158.9865 N   0  0  0  0  0  0  0  0  0  0  0  0
  152.7195  143.2076  159.8027 C   0  0  0  0  0  0  0  0  0  0  0  0
  152.0092  144.2077  158.8736 C   0  0  2  0  0  0  0  0  0  0  0  0
  151.9045  145.5992  159.5060 C   0  0  0  0  0  0  0  0  0  0  0  0
  150.6867  143.7480  158.5967 O   0  0  0  0  0  0  0  0  0  0  0  0
  150.9107  141.4821  156.0757 H   0  0  0  0  0  0  0  0  0  0  0  0
  152.1723  142.6375  156.4642 H   0  0  0  0  0  0  0  0  0  0  0  0
  150.5819  143.2065  155.9595 H   0  0  0  0  0  0  0  0  0  0  0  0
  149.5586  142.1835  157.9835 H   0  0  0  0  0  0  0  0  0  0  0  0
  150.7864  141.2857  159.8223 H   0  0  0  0  0  0  0  0  0  0  0  0
  151.3431  140.4493  158.3924 H   0  0  0  0  0  0  0  0  0  0  0  0
  153.5062  141.7390  161.7934 H   0  0  0  0  0  0  0  0  0  0  0  0
  155.0090  140.0210  162.7390 H   0  0  0  0  0  0  0  0  0  0  0  0
  156.7964  135.7866  163.0422 H   0  0  0  0  0  0  0  0  0  0  0  0
  156.5900  136.7166  164.4863 H   0  0  0  0  0  0  0  0  0  0  0  0
  155.1312  138.1855  158.8218 H   0  0  0  0  0  0  0  0  0  0  0  0
  152.2340  143.1883  160.7797 H   0  0  0  0  0  0  0  0  0  0  0  0
  153.7511  143.5272  159.9566 H   0  0  0  0  0  0  0  0  0  0  0  0
  152.5680  144.3020  157.9426 H   0  0  0  0  0  0  0  0  0  0  0  0
  152.8918  146.0037  159.7303 H   0  0  0  0  0  0  0  0  0  0  0  0
  151.3357  145.5683  160.4357 H   0  0  0  0  0  0  0  0  0  0  0  0
  151.4051  146.2962  158.8326 H   0  0  0  0  0  0  0  0  0  0  0  0
  1  2  1  0  0  0  0
  1 23  1  0  0  0  0
  1 24  1  0  0  0  0
  1 25  1  0  0  0  0
  2 22  1  0  0  0  0
  2  3  1  0  0  0  0
  2 26  1  0  0  0  0
  3  4  1  0  0  0  0
  3 27  1  0  0  0  0
  3 28  1  0  0  0  0
  4  5  1  0  0  0  0
  4 19  1  0  0  0  0
  5 18  1  0  0  0  0
  5  6  2  0  0  0  0
  6  7  1  0  0  0  0
  6 29  1  0  0  0  0
  7  8  2  0  0  0  0
  7 30  1  0  0  0  0
  8  9  1  0  0  0  0
  8 17  1  0  0  0  0
  9 10  2  0  0  0  0
  9 11  1  0  0  0  0
 11 12  1  0  0  0  0
 12 13  1  0  0  0  0
 12 31  1  0  0  0  0
 12 32  1  0  0  0  0
 13 14  1  0  0  0  0
 13 15  1  0  0  0  0
 13 16  1  0  0  0  0
 17 18  2  0  0  0  0
 17 33  1  0  0  0  0
 19 20  1  0  0  0  0
 19 34  1  0  0  0  0
 19 35  1  0  0  0  0
 20 21  1  0  0  0  0
 20 22  1  0  0  0  0
 20 36  1  0  0  0  0
 21 37  1  0  0  0  0
 21 38  1  0  0  0  0
 21 39  1  0  0  0  0
M  CHG  1  11  -1
M  END
> <s_m_source_file>
AV-unprocessed.smi

> <i_m_source_file_index>
1565

> <i_lp_mmshare_version>
43012

> <i_f3d_flags>
0

> <s_epik_input>
W0NIM11bQ0BASF0xW0NIMl1OKFtDSDJdW0NASF0oTzEpW0NIM10pYzJbY0hdW2NIXWMoW2NIXW4yKUMoPU8pW05IXVtDSDJdQyhGKShGKUY=

> <s_epik_cmdline>
J2VwaWtfcHl0aG9uJywgJy1waCcsICc3LjAnLCAnLXRuJywgJzgnLCAnLW1hJywgJzIwMCcsICctbWV0YWxfYmluZGluZycsICctaW1hZScsICc8aW5maWxlLm1hZT4nLCAnLW9tYWUnLCAnPG91dGZpbGUubWFlPic=

> <r_lp_tautomer_probability>
1

> <r_epik_Ionization_Penalty>
6.78525

> <r_epik_Ionization_Penalty_Charging>
6.78469

> <r_epik_Ionization_Penalty_Neutral>
0.000559052

> <r_epik_State_Penalty>
6.78469

> <r_epik_Charging_Adjusted_Penalty>
13.5694

> <i_epik_Tot_Q>
-1

> <i_epik_Tot_abs_Q>
1

> <r_epik_Metal_State_Penalty>
2.70441

> <b_epik_Metal_Only>
1

> <s_lp_Force_Field>
OPLS_2005

> <r_lp_Energy>
29.3503

> <b_lp_Chiralities_Consistent>
1

> <s_lp_Variant>
AV-unprocessed.smi:1565-6

> <Gold.Version>
5.8.1

> <Gold.Id.Protein>
6NUR|6NUR_protein|mol2

> <Gold.PLP.Fitness>
42.4560

> <Gold.PLP.PLP>
-41.7443

> <Gold.PLP.part.hbond>
-1.0000

> <Gold.PLP.part.metal>
0.0000

> <Gold.PLP.part.buried>
-4.4951

> <Gold.PLP.part.nonpolar>
-35.7573

> <Gold.PLP.part.repulsive>
0.1455

> <Gold.PLP.ligand.clash>
0.0000

> <Gold.PLP.ligand.torsion>
1.0817

> <Gold.PLP.Chemscore.Hbond>
0.8500

> <Gold.PLP.Chemscore.CHOScore>
0.0000

> <Gold.PLP.Chemscore.Metal>
0.0000

> <Gold.Chemscore.Hbonds>
donor molecule, donor type, donor heavy atom, donor atom, acceptor molecule, acceptor atom, score
      P1  H  7997  8009       L1    18  0.80

> <Gold.PLP.Chemscore.Internal.Correction>
0.3250

> <Gold.Rescore>
     Score         DG    S(hbond)    S(metal)    S(lipo)     H(rot)  DE(clash)    DE(int)     intcor
     13.31     -15.28       0.71        0.00      91.67       1.29       0.13       1.84       ----

> <Gold.Chemscore.Fitness>
13.3057

> <Gold.Chemscore.DG>
-15.2758

> <Gold.Chemscore.ZeroCoef>
-5.4800

> <Gold.Chemscore.Hbond>
0.7121

> <Gold.Chemscore.Metal>
0.0000

> <Gold.Chemscore.Lipo>
91.6666

> <Gold.Chemscore.Internal_Hbond>
0.0000

> <Gold.Chemscore.DEClash>
0.1334

> <Gold.Chemscore.DEInternal>
1.8367

> <Gold.Chemscore.Rot>
1.2921

> <Gold.Chemscore.Internal.Correction>
   9.000000E+99

> <Gold.Chemscore.Hbonds>
donor molecule, donor type, donor heavy atom, donor atom, acceptor molecule, acceptor atom, score
      P1  H  7997  8009       L1    18  0.11

> <Gold.Chemscore.Hbond.Weighted>
-2.3786

> <Gold.Chemscore.Metal.Weighted>
-0.0000

> <Gold.Chemscore.Lipo.Weighted>
-10.7250

> <Gold.Chemscore.Internal_Hbond.Weighted>
0.0000

> <Gold.Chemscore.DEClash.Weighted>
0.1334

> <Gold.Chemscore.DEInternal.Weighted>
1.8367

> <Gold.Chemscore.Rot.Weighted>
3.3078

> <Gold.Chemscore.Internal.Correction.Weighted>
   9.000000E+99

> <Gold.Protein.RotatedTorsions>
[ 6907 6896 6895 6894 ] final   26.39 input  -60.11 | X-H torsion
[ 7974 7965 7964 7962 ] final  129.08 input  175.53 | X-H torsion
[ 8008 7997 7996 7995 ] final  131.75 input   59.86 | X-H torsion
[ 10167 10162 10161 10158 ] final -128.74 input  -65.29 | X-H torsion
[ 10718 10713 10712 10709 ] final  -70.96 input   66.30 | X-H torsion
[ 10763 10752 10751 10750 ] final  103.27 input  -60.55 | X-H torsion
[ 11005 11000 10999 10996 ] final  151.17 input  -57.11 | X-H torsion

> <Gold.Protein.ActiveResidues>
 VAL166  LYS551  ARG553  GLY616  TRP617  ASP618  TYR619  PRO620  LYS621  CYS622 
 ASP623  PHE694  ASN695  SER759  ASP760  ASP761  ALA762  ILE779  LEU786  VAL792 
 PHE793  MET794  SER795  GLU796  ALA797  LYS798  CYS799  TRP800  GLU811  SER814 

> <Gold.Protein.RotatedAtoms>
  151.9868  135.0000  160.0559 H   0  0  0  0  0  0  0  0  0  0  0  0  # atno 6907 bound_to 6896
  152.1646  133.4599  159.4886 H   0  0  0  0  0  0  0  0  0  0  0  0  # atno 6908 bound_to 6896
  150.6892  134.1947  159.4342 H   0  0  0  0  0  0  0  0  0  0  0  0  # atno 6909 bound_to 6896
  145.0325  139.4033  143.5142 H   0  0  0  0  0  0  0  0  0  0  0  0  # atno 7974 bound_to 7965
  156.2974  140.2563  156.2977 H   0  0  0  0  0  0  0  0  0  0  0  0  # atno 8008 bound_to 7997
  154.9448  140.0395  157.2133 H   0  0  0  0  0  0  0  0  0  0  0  0  # atno 8009 bound_to 7997
  154.8092  140.2841  155.5870 H   0  0  0  0  0  0  0  0  0  0  0  0  # atno 8010 bound_to 7997
  139.9471  143.6098  152.2486 H   0  0  0  0  0  0  0  0  0  0  0  0  # atno 10167 bound_to 10162
  156.0384  130.4342  150.2373 H   0  0  0  0  0  0  0  0  0  0  0  0  # atno 10718 bound_to 10713
  153.3505  135.3982  155.1642 H   0  0  0  0  0  0  0  0  0  0  0  0  # atno 10763 bound_to 10752
  154.8661  135.3655  154.5228 H   0  0  0  0  0  0  0  0  0  0  0  0  # atno 10764 bound_to 10752
  153.5679  135.7079  153.5577 H   0  0  0  0  0  0  0  0  0  0  0  0  # atno 10765 bound_to 10752
  140.1195  134.8873  157.2052 H   0  0  0  0  0  0  0  0  0  0  0  0  # atno 11005 bound_to 11000
  146.3500  139.9883  142.8688 LP  0  0  0  0  0  0  0  0  0  0  0  0  # atno 17320 bound_to 7965
  145.1752  140.9740  143.4298 LP  0  0  0  0  0  0  0  0  0  0  0  0  # atno 17321 bound_to 7965
  139.6658  144.7662  151.1876 LP  0  0  0  0  0  0  0  0  0  0  0  0  # atno 17342 bound_to 10162
  140.7594  143.5940  150.8767 LP  0  0  0  0  0  0  0  0  0  0  0  0  # atno 17343 bound_to 10162
  157.0470  131.0052  151.3265 LP  0  0  0  0  0  0  0  0  0  0  0  0  # atno 17370 bound_to 10713
  157.5168  130.7973  149.7765 LP  0  0  0  0  0  0  0  0  0  0  0  0  # atno 17371 bound_to 10713
  140.2984  134.3160  155.7296 LP  0  0  0  0  0  0  0  0  0  0  0  0  # atno 17394 bound_to 11000
  141.2148  133.7577  156.9605 LP  0  0  0  0  0  0  0  0  0  0  0  0  # atno 17395 bound_to 11000

$$$$
