AV-unprocessed.smi:920|AV-procd|sdf|4168|dock9
  -GOLD-   22720 2 73D 1   1.00000     0.00000
 Structure written by MMmdl.
 37 38  0  0  0  0  0  0  0  0  1 V2000
  146.2075  138.1441  151.2235 C   0  0  0  0  0  0  0  0  0  0  0  0
  146.5264  137.9385  152.5955 O   0  0  0  0  0  0  0  0  0  0  0  0
  147.1555  138.9574  153.2812 C   0  0  0  0  0  0  0  0  0  0  0  0
  147.0145  140.2769  152.8073 C   0  0  0  0  0  0  0  0  0  0  0  0
  147.6549  141.3221  153.5002 C   0  0  0  0  0  0  0  0  0  0  0  0
  148.4267  141.0110  154.6447 C   0  0  0  0  0  0  0  0  0  0  0  0
  149.1016  141.9766  155.4391 N   0  0  0  0  0  0  0  0  0  0  0  0
  150.1250  141.7894  156.2899 C   0  0  0  0  0  0  0  0  0  0  0  0
  150.6346  140.7015  156.5578 O   0  0  0  0  0  0  0  0  0  0  0  0
  150.5149  142.9504  156.8360 N   0  0  0  0  0  0  0  0  0  0  0  0
  151.5881  143.1214  157.8120 C   0  0  0  0  0  0  0  0  0  0  0  0
  151.5483  141.9725  158.8379 C   0  0  0  0  0  0  0  0  0  0  0  0
  152.6039  142.1633  159.9393 C   0  0  0  0  0  0  0  0  0  0  0  0
  152.4494  143.5271  160.6307 C   0  0  0  0  0  0  0  0  0  0  0  0
  152.5002  144.6741  159.6093 C   0  0  0  0  0  0  0  0  0  0  0  0
  151.4429  144.4879  158.5088 C   0  0  0  0  0  0  0  0  0  0  0  0
  148.4926  139.6606  155.0451 C   0  0  0  0  0  0  0  0  0  0  0  0
  147.8810  138.6544  154.3858 N   0  0  0  0  0  0  0  0  0  0  0  0
  145.7147  137.2551  150.8305 H   0  0  0  0  0  0  0  0  0  0  0  0
  147.1053  138.3156  150.6277 H   0  0  0  0  0  0  0  0  0  0  0  0
  145.5252  138.9851  151.0930 H   0  0  0  0  0  0  0  0  0  0  0  0
  146.4207  140.4852  151.9295 H   0  0  0  0  0  0  0  0  0  0  0  0
  147.5296  142.3352  153.1508 H   0  0  0  0  0  0  0  0  0  0  0  0
  148.7279  142.9132  155.3924 H   0  0  0  0  0  0  0  0  0  0  0  0
  150.0278  143.7886  156.5545 H   0  0  0  0  0  0  0  0  0  0  0  0
  152.5599  143.0996  157.3154 H   0  0  0  0  0  0  0  0  0  0  0  0
  150.5587  141.9176  159.2942 H   0  0  0  0  0  0  0  0  0  0  0  0
  151.7106  141.0179  158.3358 H   0  0  0  0  0  0  0  0  0  0  0  0
  152.5231  141.3623  160.6748 H   0  0  0  0  0  0  0  0  0  0  0  0
  153.6016  142.0851  159.5056 H   0  0  0  0  0  0  0  0  0  0  0  0
  151.5020  143.5591  161.1706 H   0  0  0  0  0  0  0  0  0  0  0  0
  153.2346  143.6576  161.3759 H   0  0  0  0  0  0  0  0  0  0  0  0
  152.3480  145.6285  160.1136 H   0  0  0  0  0  0  0  0  0  0  0  0
  153.4925  144.7178  159.1584 H   0  0  0  0  0  0  0  0  0  0  0  0
  151.5307  145.2914  157.7764 H   0  0  0  0  0  0  0  0  0  0  0  0
  150.4478  144.5766  158.9472 H   0  0  0  0  0  0  0  0  0  0  0  0
  149.0579  139.3754  155.9204 H   0  0  0  0  0  0  0  0  0  0  0  0
  1  2  1  0  0  0  0
  1 19  1  0  0  0  0
  1 20  1  0  0  0  0
  1 21  1  0  0  0  0
  2  3  1  0  0  0  0
  3 18  1  0  0  0  0
  3  4  2  0  0  0  0
  4  5  1  0  0  0  0
  4 22  1  0  0  0  0
  5  6  2  0  0  0  0
  5 23  1  0  0  0  0
  6  7  1  0  0  0  0
  6 17  1  0  0  0  0
  7  8  1  0  0  0  0
  7 24  1  0  0  0  0
  8  9  2  0  0  0  0
  8 10  1  0  0  0  0
 10 11  1  0  0  0  0
 10 25  1  0  0  0  0
 11 16  1  0  0  0  0
 11 12  1  0  0  0  0
 11 26  1  0  0  0  0
 12 13  1  0  0  0  0
 12 27  1  0  0  0  0
 12 28  1  0  0  0  0
 13 14  1  0  0  0  0
 13 29  1  0  0  0  0
 13 30  1  0  0  0  0
 14 15  1  0  0  0  0
 14 31  1  0  0  0  0
 14 32  1  0  0  0  0
 15 16  1  0  0  0  0
 15 33  1  0  0  0  0
 15 34  1  0  0  0  0
 16 35  1  0  0  0  0
 16 36  1  0  0  0  0
 17 18  2  0  0  0  0
 17 37  1  0  0  0  0
M  END
> <s_m_source_file>
AV-unprocessed.smi

> <i_m_source_file_index>
920

> <i_lp_mmshare_version>
43012

> <i_f3d_flags>
0

> <s_epik_input>
W0NIM11PYzFbY0hdW2NIXWMoW2NIXW4xKVtOSF1DKD1PKVtOSF1bQ0hdMltDSDJdW0NIMl1bQ0gyXVtDSDJdW0NIMl0y

> <s_epik_cmdline>
J2VwaWtfcHl0aG9uJywgJy1waCcsICc3LjAnLCAnLXRuJywgJzgnLCAnLW1hJywgJzIwMCcsICctbWV0YWxfYmluZGluZycsICctaW1hZScsICc8aW5maWxlLm1hZT4nLCAnLW9tYWUnLCAnPG91dGZpbGUubWFlPic=

> <r_lp_tautomer_probability>
1

> <r_epik_Ionization_Penalty>
9.99378e-05

> <r_epik_Ionization_Penalty_Charging>
0

> <r_epik_Ionization_Penalty_Neutral>
9.99378e-05

> <r_epik_State_Penalty>
-0

> <r_epik_Charging_Adjusted_Penalty>
0

> <i_epik_Tot_Q>
0

> <i_epik_Tot_abs_Q>
0

> <r_epik_Metal_State_Penalty>
-0

> <b_epik_Metal_Only>
0

> <s_lp_Force_Field>
OPLS_2005

> <r_lp_Energy>
12.0005

> <b_lp_Chiralities_Consistent>
1

> <s_lp_Variant>
AV-unprocessed.smi:920-1

> <Gold.Version>
5.8.1

> <Gold.Id.Protein>
6NUR|6NUR_protein|mol2

> <Gold.PLP.Fitness>
40.2448

> <Gold.PLP.PLP>
-35.6125

> <Gold.PLP.part.hbond>
-2.0000

> <Gold.PLP.part.metal>
0.0000

> <Gold.PLP.part.buried>
-1.9190

> <Gold.PLP.part.nonpolar>
-33.0398

> <Gold.PLP.part.repulsive>
1.1625

> <Gold.PLP.ligand.clash>
0.0000

> <Gold.PLP.ligand.torsion>
0.6854

> <Gold.PLP.Chemscore.Hbond>
2.0000

> <Gold.PLP.Chemscore.CHOScore>
0.0000

> <Gold.PLP.Chemscore.Metal>
0.0000

> <Gold.Chemscore.Hbonds>
donor molecule, donor type, donor heavy atom, donor atom, acceptor molecule, acceptor atom, score
      L1  H     7    24       P1  8028  1.00
      L1  H    10    25       P1  8028  1.00

> <Gold.PLP.Chemscore.Internal.Correction>
0.0031

> <Gold.Rescore>
     Score         DG    S(hbond)    S(metal)    S(lipo)     H(rot)  DE(clash)    DE(int)     intcor
     16.88     -21.06       1.95        0.00     104.35       1.23       0.65       3.53       ----

> <Gold.Chemscore.Fitness>
16.8769

> <Gold.Chemscore.DG>
-21.0574

> <Gold.Chemscore.ZeroCoef>
-5.4800

> <Gold.Chemscore.Hbond>
1.9473

> <Gold.Chemscore.Metal>
0.0000

> <Gold.Chemscore.Lipo>
104.3542

> <Gold.Chemscore.Internal_Hbond>
0.0000

> <Gold.Chemscore.DEClash>
0.6543

> <Gold.Chemscore.DEInternal>
3.5263

> <Gold.Chemscore.Rot>
1.2250

> <Gold.Chemscore.Internal.Correction>
   9.000000E+99

> <Gold.Chemscore.Hbonds>
donor molecule, donor type, donor heavy atom, donor atom, acceptor molecule, acceptor atom, score
      L1  H     7    24       P1  8028  0.96
      L1  H    10    25       P1  8028  0.99

> <Gold.Chemscore.Hbond.Weighted>
-6.5040

> <Gold.Chemscore.Metal.Weighted>
-0.0000

> <Gold.Chemscore.Lipo.Weighted>
-12.2094

> <Gold.Chemscore.Internal_Hbond.Weighted>
0.0000

> <Gold.Chemscore.DEClash.Weighted>
0.6543

> <Gold.Chemscore.DEInternal.Weighted>
3.5263

> <Gold.Chemscore.Rot.Weighted>
3.1360

> <Gold.Chemscore.Internal.Correction.Weighted>
   9.000000E+99

> <Gold.Protein.RotatedTorsions>
[ 6907 6896 6895 6894 ] final   21.65 input  -60.11 | X-H torsion
[ 7974 7965 7964 7962 ] final   -9.21 input  175.53 | X-H torsion
[ 8008 7997 7996 7995 ] final  -30.38 input   59.86 | X-H torsion
[ 10167 10162 10161 10158 ] final  -13.23 input  -65.29 | X-H torsion
[ 10718 10713 10712 10709 ] final  -15.72 input   66.30 | X-H torsion
[ 10763 10752 10751 10750 ] final  -50.52 input  -60.55 | X-H torsion
[ 11005 11000 10999 10996 ] final   19.74 input  -57.11 | X-H torsion

> <Gold.Protein.ActiveResidues>
 VAL166  LYS551  ARG553  GLY616  TRP617  ASP618  TYR619  PRO620  LYS621  CYS622 
 ASP623  PHE694  ASN695  SER759  ASP760  ASP761  ALA762  ILE779  LEU786  VAL792 
 PHE793  MET794  SER795  GLU796  ALA797  LYS798  CYS799  TRP800  GLU811  SER814 

> <Gold.Protein.RotatedAtoms>
  151.9150  135.0322  160.0517 H   0  0  0  0  0  0  0  0  0  0  0  0  # atno 6907 bound_to 6896
  152.2247  133.5006  159.5190 H   0  0  0  0  0  0  0  0  0  0  0  0  # atno 6908 bound_to 6896
  150.7009  134.1212  159.4078 H   0  0  0  0  0  0  0  0  0  0  0  0  # atno 6909 bound_to 6896
  146.2258  140.2583  142.8350 H   0  0  0  0  0  0  0  0  0  0  0  0  # atno 7974 bound_to 7965
  154.4252  140.1793  156.1398 H   0  0  0  0  0  0  0  0  0  0  0  0  # atno 8008 bound_to 7997
  156.0001  140.3361  155.6812 H   0  0  0  0  0  0  0  0  0  0  0  0  # atno 8009 bound_to 7997
  155.6255  140.0664  157.2656 H   0  0  0  0  0  0  0  0  0  0  0  0  # atno 8010 bound_to 7997
  140.7178  143.5448  150.9368 H   0  0  0  0  0  0  0  0  0  0  0  0  # atno 10167 bound_to 10162
  156.5977  130.4816  149.6253 H   0  0  0  0  0  0  0  0  0  0  0  0  # atno 10718 bound_to 10713
  154.1116  135.6548  153.4886 H   0  0  0  0  0  0  0  0  0  0  0  0  # atno 10763 bound_to 10752
  153.0254  135.5249  154.7186 H   0  0  0  0  0  0  0  0  0  0  0  0  # atno 10764 bound_to 10752
  154.6368  135.2983  155.0121 H   0  0  0  0  0  0  0  0  0  0  0  0  # atno 10765 bound_to 10752
  140.4103  134.1625  155.7667 H   0  0  0  0  0  0  0  0  0  0  0  0  # atno 11005 bound_to 11000
  144.9359  140.8025  143.5660 LP  0  0  0  0  0  0  0  0  0  0  0  0  # atno 17320 bound_to 7965
  145.2531  139.2023  143.4932 LP  0  0  0  0  0  0  0  0  0  0  0  0  # atno 17321 bound_to 7965
  139.9171  143.6650  152.3104 LP  0  0  0  0  0  0  0  0  0  0  0  0  # atno 17342 bound_to 10162
  139.7054  144.7629  151.1202 LP  0  0  0  0  0  0  0  0  0  0  0  0  # atno 17343 bound_to 10162
  156.2496  130.6899  151.1632 LP  0  0  0  0  0  0  0  0  0  0  0  0  # atno 17370 bound_to 10713
  157.7287  131.0629  150.5805 LP  0  0  0  0  0  0  0  0  0  0  0  0  # atno 17371 bound_to 10713
  141.1823  133.8387  157.1212 LP  0  0  0  0  0  0  0  0  0  0  0  0  # atno 17394 bound_to 11000
  140.0272  134.9918  157.0710 LP  0  0  0  0  0  0  0  0  0  0  0  0  # atno 17395 bound_to 11000

$$$$
