AV-unprocessed.smi:529|AV-procd|sdf|2839|dock8
  -GOLD-   2262023333D 1   1.00000     0.00000
 Structure written by MMmdl.
 31 32  0  0  0  0  0  0  0  0  2 V2000
  148.7673  141.8544  154.9784 N   0  0  0  0  0  0  0  0  0  0  0  0
  149.6101  140.9807  155.5346 C   0  0  0  0  0  0  0  0  0  0  0  0
  149.7580  139.3144  155.0621 S   0  0  0  0  0  0  0  0  0  0  0  0
  150.9819  139.0703  156.2714 C   0  0  0  0  0  0  0  0  0  0  0  0
  151.2312  140.2209  156.9718 C   0  0  0  0  0  0  0  0  0  0  0  0
  150.4503  141.2928  156.5437 N   0  3  0  0  0  0  0  0  0  0  0  0
  150.5320  142.6350  157.1495 C   0  0  0  0  0  0  0  0  0  0  0  0
  151.2802  142.6084  158.4852 C   0  0  0  0  0  0  0  0  0  0  0  0
  150.7283  142.1671  159.4931 O   0  0  0  0  0  0  0  0  0  0  0  0
  152.5304  143.0952  158.4791 N   0  0  0  0  0  0  0  0  0  0  0  0
  153.3987  143.1916  159.6493 C   0  0  0  0  0  0  0  0  0  0  0  0
  153.6235  141.8040  160.2794 C   0  0  0  0  0  0  0  0  0  0  0  0
  153.4060  141.9834  161.7824 C   0  0  0  0  0  0  0  0  0  0  0  0
  152.3840  143.1114  161.8817 C   0  0  0  0  0  0  0  0  0  0  0  0
  152.7697  144.0671  160.7517 C   0  0  0  0  0  0  0  0  0  0  0  0
  148.7060  142.8151  155.2827 H   0  0  0  0  0  0  0  0  0  0  0  0
  151.4389  138.0994  156.3945 H   0  0  0  0  0  0  0  0  0  0  0  0
  151.9281  140.3803  157.7824 H   0  0  0  0  0  0  0  0  0  0  0  0
  151.0597  143.2934  156.4582 H   0  0  0  0  0  0  0  0  0  0  0  0
  149.5241  143.0387  157.2602 H   0  0  0  0  0  0  0  0  0  0  0  0
  152.9099  143.4258  157.6036 H   0  0  0  0  0  0  0  0  0  0  0  0
  154.3621  143.6143  159.3578 H   0  0  0  0  0  0  0  0  0  0  0  0
  152.8938  141.0861  159.9011 H   0  0  0  0  0  0  0  0  0  0  0  0
  154.6130  141.4042  160.0551 H   0  0  0  0  0  0  0  0  0  0  0  0
  153.0717  141.0678  162.2710 H   0  0  0  0  0  0  0  0  0  0  0  0
  154.3394  142.2922  162.2555 H   0  0  0  0  0  0  0  0  0  0  0  0
  151.3827  142.7163  161.7048 H   0  0  0  0  0  0  0  0  0  0  0  0
  152.3843  143.5945  162.8592 H   0  0  0  0  0  0  0  0  0  0  0  0
  153.5170  144.7728  161.1169 H   0  0  0  0  0  0  0  0  0  0  0  0
  151.9179  144.6559  160.4081 H   0  0  0  0  0  0  0  0  0  0  0  0
  148.1247  141.5926  154.2444 H   0  0  0  0  0  0  0  0  0  0  0  0
  1  2  1  0  0  0  0
  1 16  1  0  0  0  0
  1 31  1  0  0  0  0
  2  6  2  0  0  0  0
  2  3  1  0  0  0  0
  3  4  1  0  0  0  0
  4  5  2  0  0  0  0
  4 17  1  0  0  0  0
  5  6  1  0  0  0  0
  5 18  1  0  0  0  0
  6  7  1  0  0  0  0
  7  8  1  0  0  0  0
  7 19  1  0  0  0  0
  7 20  1  0  0  0  0
  8  9  2  0  0  0  0
  8 10  1  0  0  0  0
 10 11  1  0  0  0  0
 10 21  1  0  0  0  0
 11 15  1  0  0  0  0
 11 12  1  0  0  0  0
 11 22  1  0  0  0  0
 12 13  1  0  0  0  0
 12 23  1  0  0  0  0
 12 24  1  0  0  0  0
 13 14  1  0  0  0  0
 13 25  1  0  0  0  0
 13 26  1  0  0  0  0
 14 15  1  0  0  0  0
 14 27  1  0  0  0  0
 14 28  1  0  0  0  0
 15 29  1  0  0  0  0
 15 30  1  0  0  0  0
M  CHG  1   6   1
M  END
> <s_m_source_file>
AV-unprocessed.smi

> <i_m_source_file_index>
529

> <i_lp_mmshare_version>
43012

> <i_f3d_flags>
0

> <s_epik_input>
W0hdL049YzFcc1tjSF1bY0hdbjFbQ0gyXUMoPU8pW05IXVtDSF0yW0NIMl1bQ0gyXVtDSDJdW0NIMl0y

> <s_epik_cmdline>
J2VwaWtfcHl0aG9uJywgJy1waCcsICc3LjAnLCAnLXRuJywgJzgnLCAnLW1hJywgJzIwMCcsICctbWV0YWxfYmluZGluZycsICctaW1hZScsICc8aW5maWxlLm1hZT4nLCAnLW9tYWUnLCAnPG91dGZpbGUubWFlPic=

> <r_lp_tautomer_probability>
1

> <r_epik_Ionization_Penalty>
0.0151346

> <r_epik_Ionization_Penalty_Charging>
0

> <r_epik_Ionization_Penalty_Neutral>
0.0151346

> <r_epik_State_Penalty>
0.0235202

> <r_epik_Charging_Adjusted_Penalty>
0.0235202

> <i_epik_Tot_Q>
1

> <i_epik_Tot_abs_Q>
1

> <r_epik_Metal_State_Penalty>
0.0235202

> <b_epik_Metal_Only>
0

> <s_lp_Force_Field>
OPLS_2005

> <r_lp_Energy>
21.8229

> <b_lp_Chiralities_Consistent>
1

> <s_lp_Variant>
AV-unprocessed.smi:529-1

> <Gold.Version>
5.8.1

> <Gold.Id.Protein>
6NUR|6NUR_protein|mol2

> <Gold.PLP.Fitness>
41.7470

> <Gold.PLP.PLP>
-36.4929

> <Gold.PLP.part.hbond>
-2.0000

> <Gold.PLP.part.metal>
0.0000

> <Gold.PLP.part.buried>
-1.5358

> <Gold.PLP.part.nonpolar>
-32.5340

> <Gold.PLP.part.repulsive>
0.2310

> <Gold.PLP.ligand.clash>
0.0000

> <Gold.PLP.ligand.torsion>
0.3744

> <Gold.PLP.Chemscore.Hbond>
2.0000

> <Gold.PLP.Chemscore.CHOScore>
0.0000

> <Gold.PLP.Chemscore.Metal>
0.0000

> <Gold.Chemscore.Hbonds>
donor molecule, donor type, donor heavy atom, donor atom, acceptor molecule, acceptor atom, score
      L1  H     1    16       P1  8028  2.00

> <Gold.PLP.Chemscore.Internal.Correction>
0.0029

> <Gold.Rescore>
     Score         DG    S(hbond)    S(metal)    S(lipo)     H(rot)  DE(clash)    DE(int)     intcor
     12.89     -14.63       0.99        0.00      85.06       1.61       0.10       1.64       ----

> <Gold.Chemscore.Fitness>
12.8899

> <Gold.Chemscore.DG>
-14.6322

> <Gold.Chemscore.ZeroCoef>
-5.4800

> <Gold.Chemscore.Hbond>
0.9937

> <Gold.Chemscore.Metal>
0.0000

> <Gold.Chemscore.Lipo>
85.0600

> <Gold.Chemscore.Internal_Hbond>
0.0000

> <Gold.Chemscore.DEClash>
0.0976

> <Gold.Chemscore.DEInternal>
1.6447

> <Gold.Chemscore.Rot>
1.6089

> <Gold.Chemscore.Internal.Correction>
   9.000000E+99

> <Gold.Chemscore.Hbonds>
donor molecule, donor type, donor heavy atom, donor atom, acceptor molecule, acceptor atom, score
      L1  H     1    16       P1  8028  0.99

> <Gold.Chemscore.Hbond.Weighted>
-3.3190

> <Gold.Chemscore.Metal.Weighted>
-0.0000

> <Gold.Chemscore.Lipo.Weighted>
-9.9520

> <Gold.Chemscore.Internal_Hbond.Weighted>
0.0000

> <Gold.Chemscore.DEClash.Weighted>
0.0976

> <Gold.Chemscore.DEInternal.Weighted>
1.6447

> <Gold.Chemscore.Rot.Weighted>
4.1188

> <Gold.Chemscore.Internal.Correction.Weighted>
   9.000000E+99

> <Gold.Protein.RotatedTorsions>
[ 6907 6896 6895 6894 ] final  -21.11 input  -60.11 | X-H torsion
[ 7974 7965 7964 7962 ] final   95.30 input  175.53 | X-H torsion
[ 8008 7997 7996 7995 ] final -169.97 input   59.86 | X-H torsion
[ 10167 10162 10161 10158 ] final -177.58 input  -65.29 | X-H torsion
[ 10718 10713 10712 10709 ] final   38.88 input   66.30 | X-H torsion
[ 10763 10752 10751 10750 ] final  -36.98 input  -60.55 | X-H torsion
[ 11005 11000 10999 10996 ] final    0.77 input  -57.11 | X-H torsion

> <Gold.Protein.ActiveResidues>
 VAL166  LYS551  ARG553  GLY616  TRP617  ASP618  TYR619  PRO620  LYS621  CYS622 
 ASP623  PHE694  ASN695  SER759  ASP760  ASP761  ALA762  ILE779  LEU786  VAL792 
 PHE793  MET794  SER795  GLU796  ALA797  LYS798  CYS799  TRP800  GLU811  SER814 

> <Gold.Protein.RotatedAtoms>
  151.2382  135.0579  159.9014 H   0  0  0  0  0  0  0  0  0  0  0  0  # atno 6907 bound_to 6896
  152.5396  134.0463  159.8100 H   0  0  0  0  0  0  0  0  0  0  0  0  # atno 6908 bound_to 6896
  151.0653  133.5462  159.2662 H   0  0  0  0  0  0  0  0  0  0  0  0  # atno 6909 bound_to 6896
  145.4540  139.2291  143.3024 H   0  0  0  0  0  0  0  0  0  0  0  0  # atno 7974 bound_to 7965
  155.9121  140.1059  157.1271 H   0  0  0  0  0  0  0  0  0  0  0  0  # atno 8008 bound_to 7997
  154.4041  140.1272  156.4635 H   0  0  0  0  0  0  0  0  0  0  0  0  # atno 8009 bound_to 7997
  155.7297  140.3468  155.5056 H   0  0  0  0  0  0  0  0  0  0  0  0  # atno 8010 bound_to 7997
  139.5473  144.2201  152.1012 H   0  0  0  0  0  0  0  0  0  0  0  0  # atno 10167 bound_to 10162
  157.3640  130.7665  149.7069 H   0  0  0  0  0  0  0  0  0  0  0  0  # atno 10718 bound_to 10713
  153.8888  135.6814  153.4762 H   0  0  0  0  0  0  0  0  0  0  0  0  # atno 10763 bound_to 10752
  153.1193  135.4747  154.9166 H   0  0  0  0  0  0  0  0  0  0  0  0  # atno 10764 bound_to 10752
  154.7633  135.3217  154.8289 H   0  0  0  0  0  0  0  0  0  0  0  0  # atno 10765 bound_to 10752
  140.6229  133.9645  155.8234 H   0  0  0  0  0  0  0  0  0  0  0  0  # atno 11005 bound_to 11000
  146.2488  140.5302  142.8902 LP  0  0  0  0  0  0  0  0  0  0  0  0  # atno 17320 bound_to 7965
  144.8044  140.6272  143.6457 LP  0  0  0  0  0  0  0  0  0  0  0  0  # atno 17321 bound_to 7965
  140.1690  144.4954  150.6590 LP  0  0  0  0  0  0  0  0  0  0  0  0  # atno 17342 bound_to 10162
  140.6725  143.2291  151.5588 LP  0  0  0  0  0  0  0  0  0  0  0  0  # atno 17343 bound_to 10162
  155.9742  130.4106  150.3937 LP  0  0  0  0  0  0  0  0  0  0  0  0  # atno 17370 bound_to 10713
  157.2018  131.0440  151.2646 LP  0  0  0  0  0  0  0  0  0  0  0  0  # atno 17371 bound_to 10713
  141.0730  134.0178  157.3499 LP  0  0  0  0  0  0  0  0  0  0  0  0  # atno 17394 bound_to 11000
  139.9146  135.0195  156.7830 LP  0  0  0  0  0  0  0  0  0  0  0  0  # atno 17395 bound_to 11000

$$$$
