AV-unprocessed.smi:1572|AV-procd|sdf|6327|dock3
  -GOLD-   22720 6533D 1   1.00000     0.00000
 Structure written by MMmdl.
 43 44  0  0  0  0  0  0  0  0  2 V2000
  144.2679  133.1831  148.9955 C   0  0  0  0  0  0  0  0  0  0  0  0
  143.6539  133.7296  150.2279 N   0  3  0  0  0  0  0  0  0  0  0  0
  144.3340  134.9345  150.7545 C   0  0  0  0  0  0  0  0  0  0  0  0
  145.6516  134.5728  151.4692 C   0  0  0  0  0  0  0  0  0  0  0  0
  145.3931  133.6469  152.5844 N   0  0  0  0  0  0  0  0  0  0  0  0
  146.5518  133.4267  153.4921 C   0  0  0  0  0  0  0  0  0  0  0  0
  146.3439  132.1115  154.2855 C   0  0  0  0  0  0  0  0  0  0  0  0
  147.8838  133.3248  152.7108 C   0  0  0  0  0  0  0  0  0  0  0  0
  146.6710  134.5906  154.5217 C   0  0  0  0  0  0  0  0  0  0  0  0
  147.2628  135.8039  153.9570 N   0  0  0  0  0  0  0  0  0  0  0  0
  147.0100  137.0587  154.3557 C   0  0  0  0  0  0  0  0  0  0  0  0
  146.2404  137.3389  155.2744 O   0  0  0  0  0  0  0  0  0  0  0  0
  147.6954  137.9470  153.6182 N   0  0  0  0  0  0  0  0  0  0  0  0
  147.6875  139.3600  153.7254 C   0  0  0  0  0  0  0  0  0  0  0  0
  146.5835  140.0120  153.3423 N   0  0  0  0  0  0  0  0  0  0  0  0
  146.7106  141.3868  153.4983 N   0  0  0  0  0  0  0  0  0  0  0  0
  147.9073  141.7178  153.9931 C   0  0  0  0  0  0  0  0  0  0  0  0
  148.9990  140.3831  154.3184 S   0  0  0  0  0  0  0  0  0  0  0  0
  144.8138  132.4193  152.0123 C   0  0  0  0  0  0  0  0  0  0  0  0
  143.4787  132.7304  151.3062 C   0  0  0  0  0  0  0  0  0  0  0  0
  145.2865  132.8348  149.1657 H   0  0  0  0  0  0  0  0  0  0  0  0
  144.2964  133.9440  148.2151 H   0  0  0  0  0  0  0  0  0  0  0  0
  143.6823  132.3447  148.6173 H   0  0  0  0  0  0  0  0  0  0  0  0
  144.5191  135.6414  149.9448 H   0  0  0  0  0  0  0  0  0  0  0  0
  143.6643  135.4371  151.4540 H   0  0  0  0  0  0  0  0  0  0  0  0
  146.3620  134.1409  150.7639 H   0  0  0  0  0  0  0  0  0  0  0  0
  146.0880  135.5041  151.8231 H   0  0  0  0  0  0  0  0  0  0  0  0
  147.0533  132.0338  155.1101 H   0  0  0  0  0  0  0  0  0  0  0  0
  146.5008  131.2233  153.6739 H   0  0  0  0  0  0  0  0  0  0  0  0
  145.3428  132.0486  154.7141 H   0  0  0  0  0  0  0  0  0  0  0  0
  148.7165  133.1531  153.3940 H   0  0  0  0  0  0  0  0  0  0  0  0
  148.1135  134.2383  152.1627 H   0  0  0  0  0  0  0  0  0  0  0  0
  147.8883  132.4982  152.0009 H   0  0  0  0  0  0  0  0  0  0  0  0
  145.6895  134.8113  154.9450 H   0  0  0  0  0  0  0  0  0  0  0  0
  147.2678  134.2965  155.3844 H   0  0  0  0  0  0  0  0  0  0  0  0
  147.9056  135.6738  153.1898 H   0  0  0  0  0  0  0  0  0  0  0  0
  148.2871  137.5718  152.8921 H   0  0  0  0  0  0  0  0  0  0  0  0
  148.1486  142.7558  154.1671 H   0  0  0  0  0  0  0  0  0  0  0  0
  145.5109  131.9491  151.3187 H   0  0  0  0  0  0  0  0  0  0  0  0
  144.5983  131.6868  152.7870 H   0  0  0  0  0  0  0  0  0  0  0  0
  142.7633  133.1200  152.0318 H   0  0  0  0  0  0  0  0  0  0  0  0
  143.0391  131.8184  150.9008 H   0  0  0  0  0  0  0  0  0  0  0  0
  142.7258  134.0215  149.9563 H   0  0  0  0  0  0  0  0  0  0  0  0
  1  2  1  0  0  0  0
  1 21  1  0  0  0  0
  1 22  1  0  0  0  0
  1 23  1  0  0  0  0
  2 20  1  0  0  0  0
  2  3  1  0  0  0  0
  2 43  1  0  0  0  0
  3  4  1  0  0  0  0
  3 24  1  0  0  0  0
  3 25  1  0  0  0  0
  4  5  1  0  0  0  0
  4 26  1  0  0  0  0
  4 27  1  0  0  0  0
  5  6  1  0  0  0  0
  5 19  1  0  0  0  0
  6  7  1  0  0  0  0
  6  8  1  0  0  0  0
  6  9  1  0  0  0  0
  7 28  1  0  0  0  0
  7 29  1  0  0  0  0
  7 30  1  0  0  0  0
  8 31  1  0  0  0  0
  8 32  1  0  0  0  0
  8 33  1  0  0  0  0
  9 10  1  0  0  0  0
  9 34  1  0  0  0  0
  9 35  1  0  0  0  0
 10 11  1  0  0  0  0
 10 36  1  0  0  0  0
 11 12  2  0  0  0  0
 11 13  1  0  0  0  0
 13 14  1  0  0  0  0
 13 37  1  0  0  0  0
 14 18  1  0  0  0  0
 14 15  2  0  0  0  0
 15 16  1  0  0  0  0
 16 17  2  0  0  0  0
 17 18  1  0  0  0  0
 17 38  1  0  0  0  0
 19 20  1  0  0  0  0
 19 39  1  0  0  0  0
 19 40  1  0  0  0  0
 20 41  1  0  0  0  0
 20 42  1  0  0  0  0
M  CHG  1   2   1
M  END
> <s_m_source_file>
AV-unprocessed.smi

> <i_m_source_file_index>
1572

> <i_lp_mmshare_version>
43012

> <i_f3d_flags>
0

> <s_epik_input>
W0NIM11OMVtDSDJdW0NIMl1OKFtDSDJdW0NIMl0xKUMoW0NIM10pKFtDSDNdKVtDSDJdW05IXUMoPU8pW05IXWMybm5bY0hdczI=

> <s_epik_cmdline>
J2VwaWtfcHl0aG9uJywgJy1waCcsICc3LjAnLCAnLXRuJywgJzgnLCAnLW1hJywgJzIwMCcsICctbWV0YWxfYmluZGluZycsICctaW1hZScsICc8aW5maWxlLm1hZT4nLCAnLW9tYWUnLCAnPG91dGZpbGUubWFlPic=

> <r_lp_tautomer_probability>
1

> <r_epik_Ionization_Penalty>
0.0267369

> <r_epik_Ionization_Penalty_Charging>
0.0242302

> <r_epik_Ionization_Penalty_Neutral>
0.00250668

> <r_epik_State_Penalty>
0.128805

> <r_epik_Charging_Adjusted_Penalty>
0.153036

> <i_epik_Tot_Q>
1

> <i_epik_Tot_abs_Q>
1

> <r_epik_Metal_State_Penalty>
0.462629

> <b_epik_Metal_Only>
0

> <s_lp_Force_Field>
OPLS_2005

> <r_lp_Energy>
23.6119

> <b_lp_Chiralities_Consistent>
1

> <s_lp_Variant>
AV-unprocessed.smi:1572-1

> <Gold.Version>
5.8.1

> <Gold.Id.Protein>
6NUR|6NUR_protein|mol2

> <Gold.PLP.Fitness>
40.0337

> <Gold.PLP.PLP>
-28.5620

> <Gold.PLP.part.hbond>
-3.0000

> <Gold.PLP.part.metal>
0.0000

> <Gold.PLP.part.buried>
-1.2805

> <Gold.PLP.part.nonpolar>
-23.6827

> <Gold.PLP.part.repulsive>
0.5184

> <Gold.PLP.ligand.clash>
0.0000

> <Gold.PLP.ligand.torsion>
1.7842

> <Gold.PLP.Chemscore.Hbond>
4.0000

> <Gold.PLP.Chemscore.CHOScore>
1.0000

> <Gold.PLP.Chemscore.Metal>
0.0000

> <Gold.Chemscore.Hbonds>
donor molecule, donor type, donor heavy atom, donor atom, acceptor molecule, acceptor atom, score
      L1  H     2    43       P1 10186  2.00
      L1  H    10    36       P1  7948  1.00
      L1  H    13    37       P1  7948  1.00
      L1  C    17    38       P1  8028  0.98

> <Gold.PLP.Chemscore.Internal.Correction>
0.0401

> <Gold.Rescore>
     Score         DG    S(hbond)    S(metal)    S(lipo)     H(rot)  DE(clash)    DE(int)     intcor
     15.93     -18.28       2.87        0.00      64.61       1.70       0.94       1.41       ----

> <Gold.Chemscore.Fitness>
15.9251

> <Gold.Chemscore.DG>
-18.2762

> <Gold.Chemscore.ZeroCoef>
-5.4800

> <Gold.Chemscore.Hbond>
2.8674

> <Gold.Chemscore.Metal>
0.0000

> <Gold.Chemscore.Lipo>
64.6133

> <Gold.Chemscore.Internal_Hbond>
0.0000

> <Gold.Chemscore.DEClash>
0.9430

> <Gold.Chemscore.DEInternal>
1.4080

> <Gold.Chemscore.Rot>
1.6956

> <Gold.Chemscore.Internal.Correction>
   9.000000E+99

> <Gold.Chemscore.Hbonds>
donor molecule, donor type, donor heavy atom, donor atom, acceptor molecule, acceptor atom, score
      L1  H     2    43       P1 10186  1.00
      L1  H    10    36       P1  7948  0.98
      L1  H    13    37       P1  7948  0.98

> <Gold.Chemscore.Hbond.Weighted>
-9.5772

> <Gold.Chemscore.Metal.Weighted>
-0.0000

> <Gold.Chemscore.Lipo.Weighted>
-7.5598

> <Gold.Chemscore.Internal_Hbond.Weighted>
0.0000

> <Gold.Chemscore.DEClash.Weighted>
0.9430

> <Gold.Chemscore.DEInternal.Weighted>
1.4080

> <Gold.Chemscore.Rot.Weighted>
4.3407

> <Gold.Chemscore.Internal.Correction.Weighted>
   9.000000E+99

> <Gold.Protein.RotatedTorsions>
[ 6907 6896 6895 6894 ] final  178.74 input  -60.11 | X-H torsion
[ 7974 7965 7964 7962 ] final  163.39 input  175.53 | X-H torsion
[ 8008 7997 7996 7995 ] final  167.72 input   59.86 | X-H torsion
[ 10167 10162 10161 10158 ] final  -95.57 input  -65.29 | X-H torsion
[ 10718 10713 10712 10709 ] final  -36.06 input   66.30 | X-H torsion
[ 10763 10752 10751 10750 ] final  -83.03 input  -60.55 | X-H torsion
[ 11005 11000 10999 10996 ] final -100.15 input  -57.11 | X-H torsion

> <Gold.Protein.ActiveResidues>
 VAL166  LYS551  ARG553  GLY616  TRP617  ASP618  TYR619  PRO620  LYS621  CYS622 
 ASP623  PHE694  ASN695  SER759  ASP760  ASP761  ALA762  ILE779  LEU786  VAL792 
 PHE793  MET794  SER795  GLU796  ALA797  LYS798  CYS799  TRP800  GLU811  SER814 

> <Gold.Protein.RotatedAtoms>
  151.6830  133.3312  159.3223 H   0  0  0  0  0  0  0  0  0  0  0  0  # atno 6907 bound_to 6896
  150.7814  134.6764  159.6429 H   0  0  0  0  0  0  0  0  0  0  0  0  # atno 6908 bound_to 6896
  152.3872  134.6501  160.0173 H   0  0  0  0  0  0  0  0  0  0  0  0  # atno 6909 bound_to 6896
  144.7592  139.8176  143.6339 H   0  0  0  0  0  0  0  0  0  0  0  0  # atno 7974 bound_to 7965
  156.1609  140.1609  156.8613 H   0  0  0  0  0  0  0  0  0  0  0  0  # atno 8008 bound_to 7997
  154.5160  140.0789  156.8117 H   0  0  0  0  0  0  0  0  0  0  0  0  # atno 8009 bound_to 7997
  155.3709  140.3400  155.4245 H   0  0  0  0  0  0  0  0  0  0  0  0  # atno 8010 bound_to 7997
  140.3027  143.3152  152.0231 H   0  0  0  0  0  0  0  0  0  0  0  0  # atno 10167 bound_to 10162
  156.3313  130.4279  149.7870 H   0  0  0  0  0  0  0  0  0  0  0  0  # atno 10718 bound_to 10713
  154.5829  135.5570  153.7203 H   0  0  0  0  0  0  0  0  0  0  0  0  # atno 10763 bound_to 10752
  153.0088  135.6324  154.1957 H   0  0  0  0  0  0  0  0  0  0  0  0  # atno 10764 bound_to 10752
  154.1898  135.2883  155.3005 H   0  0  0  0  0  0  0  0  0  0  0  0  # atno 10765 bound_to 10752
  141.1282  133.8377  157.1065 H   0  0  0  0  0  0  0  0  0  0  0  0  # atno 11005 bound_to 11000
  146.1636  139.4759  142.9972 LP  0  0  0  0  0  0  0  0  0  0  0  0  # atno 17320 bound_to 7965
  145.6677  141.0224  143.1675 LP  0  0  0  0  0  0  0  0  0  0  0  0  # atno 17321 bound_to 7965
  139.4911  144.6443  151.6811 LP  0  0  0  0  0  0  0  0  0  0  0  0  # atno 17342 bound_to 10162
  140.5637  144.0226  150.6182 LP  0  0  0  0  0  0  0  0  0  0  0  0  # atno 17343 bound_to 10162
  156.5142  130.8185  151.3180 LP  0  0  0  0  0  0  0  0  0  0  0  0  # atno 17370 bound_to 10713
  157.7431  130.9904  150.2564 LP  0  0  0  0  0  0  0  0  0  0  0  0  # atno 17371 bound_to 10713
  140.0301  134.9905  157.0764 LP  0  0  0  0  0  0  0  0  0  0  0  0  # atno 17394 bound_to 11000
  140.4299  134.1792  155.7167 LP  0  0  0  0  0  0  0  0  0  0  0  0  # atno 17395 bound_to 11000

$$$$
