AV-unprocessed.smi:2729|AV-procd|sdf|10527|dock7
  -GOLD-   2272014573D 1   1.00000     0.00000
 Structure written by MMmdl.
 33 34  0  0  0  0  0  0  0  0  1 V2000
  143.9104  136.1967  152.5170 C   0  0  0  0  0  0  0  0  0  0  0  0
  145.2468  135.4415  152.3592 C   0  0  2  0  0  0  0  0  0  0  0  0
  146.3805  136.3585  152.5440 N   0  0  0  0  0  0  0  0  0  0  0  0
  146.4403  137.4707  153.2944 C   0  0  0  0  0  0  0  0  0  0  0  0
  145.5092  137.8872  153.9825 O   0  0  0  0  0  0  0  0  0  0  0  0
  147.6511  138.0461  153.2011 N   0  0  0  0  0  0  0  0  0  0  0  0
  148.1124  139.2410  153.8161 C   0  0  0  0  0  0  0  0  0  0  0  0
  147.3394  140.4205  153.9449 C   0  0  0  0  0  0  0  0  0  0  0  0
  147.9187  141.5490  154.5561 C   0  0  0  0  0  0  0  0  0  0  0  0
  149.2491  141.4599  155.0092 C   0  0  0  0  0  0  0  0  0  0  0  0
  150.0017  140.3470  154.8811 N   0  0  0  0  0  0  0  0  0  0  0  0
  149.4400  139.2693  154.2932 C   0  0  0  0  0  0  0  0  0  0  0  0
  145.3349  134.7130  150.9914 C   0  0  0  0  0  0  0  0  0  0  0  0
  146.4637  133.6762  151.0337 C   0  0  0  0  0  0  0  0  0  0  0  0
  146.5172  133.0772  152.7619 S   0  0  0  0  0  0  0  0  0  0  0  0
  145.8803  131.7543  152.8480 O   0  0  0  0  0  0  0  0  0  0  0  0
  147.8654  133.3061  153.3036 O   0  0  0  0  0  0  0  0  0  0  0  0
  145.3680  134.3406  153.4323 C   0  0  0  0  0  0  0  0  0  0  0  0
  143.0619  135.5145  152.4560 H   0  0  0  0  0  0  0  0  0  0  0  0
  143.7698  136.9473  151.7395 H   0  0  0  0  0  0  0  0  0  0  0  0
  143.8543  136.7026  153.4816 H   0  0  0  0  0  0  0  0  0  0  0  0
  147.2146  136.1211  152.0272 H   0  0  0  0  0  0  0  0  0  0  0  0
  148.3422  137.5422  152.6645 H   0  0  0  0  0  0  0  0  0  0  0  0
  146.3275  140.4882  153.5770 H   0  0  0  0  0  0  0  0  0  0  0  0
  147.3572  142.4643  154.6703 H   0  0  0  0  0  0  0  0  0  0  0  0
  149.7235  142.3072  155.4818 H   0  0  0  0  0  0  0  0  0  0  0  0
  150.0730  138.3983  154.2053 H   0  0  0  0  0  0  0  0  0  0  0  0
  144.3979  134.1811  150.8209 H   0  0  0  0  0  0  0  0  0  0  0  0
  145.4501  135.3919  150.1468 H   0  0  0  0  0  0  0  0  0  0  0  0
  146.3037  132.8435  150.3486 H   0  0  0  0  0  0  0  0  0  0  0  0
  147.4242  134.1385  150.8045 H   0  0  0  0  0  0  0  0  0  0  0  0
  145.7251  134.7016  154.3977 H   0  0  0  0  0  0  0  0  0  0  0  0
  144.4085  133.8475  153.5932 H   0  0  0  0  0  0  0  0  0  0  0  0
  1  2  1  0  0  0  0
  1 19  1  0  0  0  0
  1 20  1  0  0  0  0
  1 21  1  0  0  0  0
  2 18  1  0  0  0  0
  2  3  1  0  0  0  0
  2 13  1  0  0  0  0
  3  4  1  0  0  0  0
  3 22  1  0  0  0  0
  4  5  2  0  0  0  0
  4  6  1  0  0  0  0
  6  7  1  0  0  0  0
  6 23  1  0  0  0  0
  7 12  1  0  0  0  0
  7  8  2  0  0  0  0
  8  9  1  0  0  0  0
  8 24  1  0  0  0  0
  9 10  2  0  0  0  0
  9 25  1  0  0  0  0
 10 11  1  0  0  0  0
 10 26  1  0  0  0  0
 11 12  2  0  0  0  0
 12 27  1  0  0  0  0
 13 14  1  0  0  0  0
 13 28  1  0  0  0  0
 13 29  1  0  0  0  0
 14 15  1  0  0  0  0
 14 30  1  0  0  0  0
 14 31  1  0  0  0  0
 15 16  2  0  0  0  0
 15 17  2  0  0  0  0
 15 18  1  0  0  0  0
 18 32  1  0  0  0  0
 18 33  1  0  0  0  0
M  END
> <s_m_source_file>
AV-unprocessed.smi

> <i_m_source_file_index>
2729

> <i_lp_mmshare_version>
43012

> <i_f3d_flags>
0

> <s_epik_input>
Tz1TKD1PKShbQ0gyXTEpW0NIMl1bQ0gyXVtDQEBdMShbQ0gzXSlbTkhdQyg9TylbTkhdYzJbY0hdW2NIXVtjSF1uW2NIXTI=

> <s_epik_cmdline>
J2VwaWtfcHl0aG9uJywgJy1waCcsICc3LjAnLCAnLXRuJywgJzgnLCAnLW1hJywgJzIwMCcsICctbWV0YWxfYmluZGluZycsICctaW1hZScsICc8aW5maWxlLm1hZT4nLCAnLW9tYWUnLCAnPG91dGZpbGUubWFlPic=

> <r_epik_Ionization_Penalty>
0.00438887

> <r_epik_Ionization_Penalty_Charging>
0

> <r_epik_Ionization_Penalty_Neutral>
0.00438887

> <r_epik_State_Penalty>
0.00314315

> <r_epik_Charging_Adjusted_Penalty>
0.00314315

> <i_epik_Tot_Q>
0

> <i_epik_Tot_abs_Q>
0

> <r_epik_Metal_State_Penalty>
-0

> <b_epik_Metal_Only>
0

> <s_lp_Force_Field>
OPLS_2005

> <r_lp_Energy>
5.04322

> <b_lp_Chiralities_Consistent>
1

> <s_lp_Variant>
AV-unprocessed.smi:2729-2

> <Gold.Version>
5.8.1

> <Gold.Id.Protein>
6NUR|6NUR_protein|mol2

> <Gold.PLP.Fitness>
36.5845

> <Gold.PLP.PLP>
-26.6155

> <Gold.PLP.part.hbond>
-3.2129

> <Gold.PLP.part.metal>
0.0000

> <Gold.PLP.part.buried>
-0.3022

> <Gold.PLP.part.nonpolar>
-23.5721

> <Gold.PLP.part.repulsive>
0.6576

> <Gold.PLP.ligand.clash>
0.0092

> <Gold.PLP.ligand.torsion>
0.8587

> <Gold.PLP.Chemscore.Hbond>
2.9040

> <Gold.PLP.Chemscore.CHOScore>
0.9895

> <Gold.PLP.Chemscore.Metal>
0.0000

> <Gold.Chemscore.Hbonds>
donor molecule, donor type, donor heavy atom, donor atom, acceptor molecule, acceptor atom, score
      L1  H     3    22       P1  7948  1.00
      L1  H     6    23       P1  7948  1.00
      P1  H  7989  7998       L1    11  0.58
      L1  C    10    26       P1  8028  0.90

> <Gold.PLP.Chemscore.Internal.Correction>
0.0150

> <Gold.Rescore>
     Score         DG    S(hbond)    S(metal)    S(lipo)     H(rot)  DE(clash)    DE(int)     intcor
     14.10     -17.29       2.61        0.00      48.22       1.00       0.04       3.14       ----

> <Gold.Chemscore.Fitness>
14.1027

> <Gold.Chemscore.DG>
-17.2900

> <Gold.Chemscore.ZeroCoef>
-5.4800

> <Gold.Chemscore.Hbond>
2.6133

> <Gold.Chemscore.Metal>
0.0000

> <Gold.Chemscore.Lipo>
48.2176

> <Gold.Chemscore.Internal_Hbond>
0.0000

> <Gold.Chemscore.DEClash>
0.0431

> <Gold.Chemscore.DEInternal>
3.1442

> <Gold.Chemscore.Rot>
1.0000

> <Gold.Chemscore.Internal.Correction>
   9.000000E+99

> <Gold.Chemscore.Hbonds>
donor molecule, donor type, donor heavy atom, donor atom, acceptor molecule, acceptor atom, score
      L1  H     3    22       P1  7948  0.94
      L1  H     6    23       P1  7948  0.98
      P1  H  7989  7998       L1    11  0.11

> <Gold.Chemscore.Hbond.Weighted>
-8.7286

> <Gold.Chemscore.Metal.Weighted>
-0.0000

> <Gold.Chemscore.Lipo.Weighted>
-5.6415

> <Gold.Chemscore.Internal_Hbond.Weighted>
0.0000

> <Gold.Chemscore.DEClash.Weighted>
0.0431

> <Gold.Chemscore.DEInternal.Weighted>
3.1442

> <Gold.Chemscore.Rot.Weighted>
2.5600

> <Gold.Chemscore.Internal.Correction.Weighted>
   9.000000E+99

> <Gold.Protein.RotatedTorsions>
[ 6907 6896 6895 6894 ] final  -38.03 input  -60.11 | X-H torsion
[ 7974 7965 7964 7962 ] final -105.85 input  175.53 | X-H torsion
[ 8008 7997 7996 7995 ] final   67.53 input   59.86 | X-H torsion
[ 10167 10162 10161 10158 ] final  -87.22 input  -65.29 | X-H torsion
[ 10718 10713 10712 10709 ] final  124.82 input   66.30 | X-H torsion
[ 10763 10752 10751 10750 ] final  157.15 input  -60.55 | X-H torsion
[ 11005 11000 10999 10996 ] final -151.08 input  -57.11 | X-H torsion

> <Gold.Protein.ActiveResidues>
 VAL166  LYS551  ARG553  GLY616  TRP617  ASP618  TYR619  PRO620  LYS621  CYS622 
 ASP623  PHE694  ASN695  SER759  ASP760  ASP761  ALA762  ILE779  LEU786  VAL792 
 PHE793  MET794  SER795  GLU796  ALA797  LYS798  CYS799  TRP800  GLU811  SER814 

> <Gold.Protein.RotatedAtoms>
  151.0074  134.9370  159.7987 H   0  0  0  0  0  0  0  0  0  0  0  0  # atno 6907 bound_to 6896
  152.5294  134.3073  159.9110 H   0  0  0  0  0  0  0  0  0  0  0  0  # atno 6908 bound_to 6896
  151.3079  133.4052  159.2679 H   0  0  0  0  0  0  0  0  0  0  0  0  # atno 6909 bound_to 6896
  145.2252  140.9149  143.3236 H   0  0  0  0  0  0  0  0  0  0  0  0  # atno 7974 bound_to 7965
  155.6943  140.3496  155.4906 H   0  0  0  0  0  0  0  0  0  0  0  0  # atno 8008 bound_to 7997
  155.9496  140.1117  157.1010 H   0  0  0  0  0  0  0  0  0  0  0  0  # atno 8009 bound_to 7997
  154.4119  140.1197  156.5022 H   0  0  0  0  0  0  0  0  0  0  0  0  # atno 8010 bound_to 7997
  140.3866  143.2724  151.9317 H   0  0  0  0  0  0  0  0  0  0  0  0  # atno 10167 bound_to 10162
  157.5554  131.1092  150.8631 H   0  0  0  0  0  0  0  0  0  0  0  0  # atno 10718 bound_to 10713
  154.1957  135.2792  155.3007 H   0  0  0  0  0  0  0  0  0  0  0  0  # atno 10763 bound_to 10752
  154.5894  135.5564  153.7266 H   0  0  0  0  0  0  0  0  0  0  0  0  # atno 10764 bound_to 10752
  153.0101  135.6364  154.2096 H   0  0  0  0  0  0  0  0  0  0  0  0  # atno 10765 bound_to 10752
  140.7334  134.3595  157.5162 H   0  0  0  0  0  0  0  0  0  0  0  0  # atno 11005 bound_to 11000
  144.9728  139.3863  143.6300 LP  0  0  0  0  0  0  0  0  0  0  0  0  # atno 17320 bound_to 7965
  146.3366  139.8833  142.8820 LP  0  0  0  0  0  0  0  0  0  0  0  0  # atno 17321 bound_to 7965
  139.4791  144.5768  151.7999 LP  0  0  0  0  0  0  0  0  0  0  0  0  # atno 17342 bound_to 10162
  140.4883  144.1348  150.5945 LP  0  0  0  0  0  0  0  0  0  0  0  0  # atno 17343 bound_to 10162
  156.9144  130.5292  149.5280 LP  0  0  0  0  0  0  0  0  0  0  0  0  # atno 17370 bound_to 10713
  156.0614  130.5665  150.9199 LP  0  0  0  0  0  0  0  0  0  0  0  0  # atno 17371 bound_to 10713
  139.8821  134.9033  156.2852 LP  0  0  0  0  0  0  0  0  0  0  0  0  # atno 17394 bound_to 11000
  140.9901  133.7214  156.0801 LP  0  0  0  0  0  0  0  0  0  0  0  0  # atno 17395 bound_to 11000

$$$$
