AV-unprocessed.smi:2651|AV-procd|sdf|10293|dock6
  -GOLD-   2272014303D 1   1.00000     0.00000
 Structure written by MMmdl.
 43 44  0  0  0  0  0  0  0  0  1 V2000
  152.2001  140.1208  157.0573 C   0  0  0  0  0  0  0  0  0  0  0  0
  151.5360  139.2913  156.0125 C   0  0  0  0  0  0  0  0  0  0  0  0
  151.0308  138.0214  156.0144 C   0  0  0  0  0  0  0  0  0  0  0  0
  150.5491  137.8667  154.6873 C   0  0  0  0  0  0  0  0  0  0  0  0
  149.9415  136.6546  154.2711 N   0  0  0  0  0  0  0  0  0  0  0  0
  149.8026  135.5207  154.9790 C   0  0  0  0  0  0  0  0  0  0  0  0
  150.2243  135.3496  156.1221 O   0  0  0  0  0  0  0  0  0  0  0  0
  149.1441  134.5904  154.2664 N   0  0  0  0  0  0  0  0  0  0  0  0
  148.7640  133.2235  154.6556 C   0  0  2  0  0  0  0  0  0  0  0  0
  147.8747  133.4197  155.9059 C   0  0  0  0  0  0  0  0  0  0  0  0
  150.0350  132.4537  155.1289 C   0  0  0  0  0  0  0  0  0  0  0  0
  149.7673  131.2019  155.7281 O   0  0  0  0  0  0  0  0  0  0  0  0
  147.9679  132.4902  153.5147 C   0  0  0  0  0  0  0  0  0  0  0  0
  146.9171  133.3771  152.7969 C   0  0  0  0  0  0  0  0  0  0  0  0
  146.2653  132.6408  151.6149 C   0  0  0  0  0  0  0  0  0  0  0  0
  145.6245  131.3200  152.0647 C   0  0  0  0  0  0  0  0  0  0  0  0
  146.6477  130.4294  152.7840 C   0  0  0  0  0  0  0  0  0  0  0  0
  147.2960  131.1685  153.9657 C   0  0  0  0  0  0  0  0  0  0  0  0
  150.7416  138.9448  153.9431 N   0  0  0  0  0  0  0  0  0  0  0  0
  151.3752  139.8633  154.7885 O   0  0  0  0  0  0  0  0  0  0  0  0
  152.2325  139.5941  158.0112 H   0  0  0  0  0  0  0  0  0  0  0  0
  151.6629  141.0575  157.2071 H   0  0  0  0  0  0  0  0  0  0  0  0
  153.2235  140.3596  156.7677 H   0  0  0  0  0  0  0  0  0  0  0  0
  151.0122  137.3188  156.8341 H   0  0  0  0  0  0  0  0  0  0  0  0
  149.5608  136.6546  153.3366 H   0  0  0  0  0  0  0  0  0  0  0  0
  148.8603  134.8608  153.3365 H   0  0  0  0  0  0  0  0  0  0  0  0
  147.5427  132.4726  156.3298 H   0  0  0  0  0  0  0  0  0  0  0  0
  146.9867  134.0142  155.6928 H   0  0  0  0  0  0  0  0  0  0  0  0
  148.4191  133.9399  156.6954 H   0  0  0  0  0  0  0  0  0  0  0  0
  150.7374  132.3131  154.3061 H   0  0  0  0  0  0  0  0  0  0  0  0
  150.5680  133.0372  155.8805 H   0  0  0  0  0  0  0  0  0  0  0  0
  149.5945  130.5718  155.0457 H   0  0  0  0  0  0  0  0  0  0  0  0
  148.6892  132.2119  152.7460 H   0  0  0  0  0  0  0  0  0  0  0  0
  146.1367  133.6809  153.4943 H   0  0  0  0  0  0  0  0  0  0  0  0
  147.3711  134.2948  152.4239 H   0  0  0  0  0  0  0  0  0  0  0  0
  145.5127  133.2780  151.1498 H   0  0  0  0  0  0  0  0  0  0  0  0
  147.0167  132.4417  150.8496 H   0  0  0  0  0  0  0  0  0  0  0  0
  144.7873  131.5279  152.7322 H   0  0  0  0  0  0  0  0  0  0  0  0
  145.2118  130.7935  151.2039 H   0  0  0  0  0  0  0  0  0  0  0  0
  146.1633  129.5184  153.1361 H   0  0  0  0  0  0  0  0  0  0  0  0
  147.4205  130.1164  152.0807 H   0  0  0  0  0  0  0  0  0  0  0  0
  148.0216  130.5065  154.4369 H   0  0  0  0  0  0  0  0  0  0  0  0
  146.5292  131.3674  154.7141 H   0  0  0  0  0  0  0  0  0  0  0  0
  1  2  1  0  0  0  0
  1 21  1  0  0  0  0
  1 22  1  0  0  0  0
  1 23  1  0  0  0  0
  2 20  1  0  0  0  0
  2  3  2  0  0  0  0
  3  4  1  0  0  0  0
  3 24  1  0  0  0  0
  4  5  1  0  0  0  0
  4 19  2  0  0  0  0
  5  6  1  0  0  0  0
  5 25  1  0  0  0  0
  6  7  2  0  0  0  0
  6  8  1  0  0  0  0
  8  9  1  0  0  0  0
  8 26  1  0  0  0  0
  9 10  1  0  0  0  0
  9 11  1  0  0  0  0
  9 13  1  0  0  0  0
 10 27  1  0  0  0  0
 10 28  1  0  0  0  0
 10 29  1  0  0  0  0
 11 12  1  0  0  0  0
 11 30  1  0  0  0  0
 11 31  1  0  0  0  0
 12 32  1  0  0  0  0
 13 18  1  0  0  0  0
 13 14  1  0  0  0  0
 13 33  1  0  0  0  0
 14 15  1  0  0  0  0
 14 34  1  0  0  0  0
 14 35  1  0  0  0  0
 15 16  1  0  0  0  0
 15 36  1  0  0  0  0
 15 37  1  0  0  0  0
 16 17  1  0  0  0  0
 16 38  1  0  0  0  0
 16 39  1  0  0  0  0
 17 18  1  0  0  0  0
 17 40  1  0  0  0  0
 17 41  1  0  0  0  0
 18 42  1  0  0  0  0
 18 43  1  0  0  0  0
 19 20  1  0  0  0  0
M  END
> <s_m_source_file>
AV-unprocessed.smi

> <i_m_source_file_index>
2651

> <i_lp_mmshare_version>
43012

> <i_f3d_flags>
0

> <s_epik_input>
W0NIM11jMVtjSF1jKG5vMSlbTkhdQyg9TylbTkhdW0NAQF0oW0NIM10pKFtDSDJdW09IXSlbQ0hdMltDSDJdW0NIMl1bQ0gyXVtDSDJdW0NIMl0y

> <s_epik_cmdline>
J2VwaWtfcHl0aG9uJywgJy1waCcsICc3LjAnLCAnLXRuJywgJzgnLCAnLW1hJywgJzIwMCcsICctbWV0YWxfYmluZGluZycsICctaW1hZScsICc8aW5maWxlLm1hZT4nLCAnLW9tYWUnLCAnPG91dGZpbGUubWFlPic=

> <r_lp_tautomer_probability>
1

> <r_epik_Ionization_Penalty>
2.26451e-05

> <r_epik_Ionization_Penalty_Charging>
0

> <r_epik_Ionization_Penalty_Neutral>
2.26451e-05

> <r_epik_State_Penalty>
-0

> <r_epik_Charging_Adjusted_Penalty>
0

> <i_epik_Tot_Q>
0

> <i_epik_Tot_abs_Q>
0

> <r_epik_Metal_State_Penalty>
-0

> <b_epik_Metal_Only>
0

> <s_lp_Force_Field>
OPLS_2005

> <r_lp_Energy>
19.0521

> <b_lp_Chiralities_Consistent>
1

> <s_lp_Variant>
AV-unprocessed.smi:2651-2

> <Gold.Version>
5.8.1

> <Gold.Id.Protein>
6NUR|6NUR_protein|mol2

> <Gold.PLP.Fitness>
35.2972

> <Gold.PLP.PLP>
-28.6140

> <Gold.PLP.part.hbond>
-4.7519

> <Gold.PLP.part.metal>
0.0000

> <Gold.PLP.part.buried>
-1.4229

> <Gold.PLP.part.nonpolar>
-22.4994

> <Gold.PLP.part.repulsive>
0.3867

> <Gold.PLP.ligand.clash>
0.0000

> <Gold.PLP.ligand.torsion>
0.2859

> <Gold.PLP.Chemscore.Hbond>
2.3772

> <Gold.PLP.Chemscore.CHOScore>
0.0000

> <Gold.PLP.Chemscore.Metal>
0.0000

> <Gold.Chemscore.Hbonds>
donor molecule, donor type, donor heavy atom, donor atom, acceptor molecule, acceptor atom, score
      L1  H     5    25       P1  7948  1.00
      L1  H     8    26       P1  7948  0.96
      P1  H  7989  7998       L1    20  0.50

> <Gold.PLP.Chemscore.Internal.Correction>
0.1234

> <Gold.Rescore>
     Score         DG    S(hbond)    S(metal)    S(lipo)     H(rot)  DE(clash)    DE(int)     intcor
     10.20     -13.02       1.75        0.00      60.32       2.09       0.02       2.80       ----

> <Gold.Chemscore.Fitness>
10.1996

> <Gold.Chemscore.DG>
-13.0232

> <Gold.Chemscore.ZeroCoef>
-5.4800

> <Gold.Chemscore.Hbond>
1.7501

> <Gold.Chemscore.Metal>
0.0000

> <Gold.Chemscore.Lipo>
60.3172

> <Gold.Chemscore.Internal_Hbond>
0.0000

> <Gold.Chemscore.DEClash>
0.0195

> <Gold.Chemscore.DEInternal>
2.8040

> <Gold.Chemscore.Rot>
2.0935

> <Gold.Chemscore.Internal.Correction>
   9.000000E+99

> <Gold.Chemscore.Hbonds>
donor molecule, donor type, donor heavy atom, donor atom, acceptor molecule, acceptor atom, score
      L1  H     5    25       P1  7948  0.65
      L1  H     8    26       P1  7948  0.27
      P1  H  7989  7998       L1    20  0.02

> <Gold.Chemscore.Hbond.Weighted>
-5.8454

> <Gold.Chemscore.Metal.Weighted>
-0.0000

> <Gold.Chemscore.Lipo.Weighted>
-7.0571

> <Gold.Chemscore.Internal_Hbond.Weighted>
0.0000

> <Gold.Chemscore.DEClash.Weighted>
0.0195

> <Gold.Chemscore.DEInternal.Weighted>
2.8040

> <Gold.Chemscore.Rot.Weighted>
5.3594

> <Gold.Chemscore.Internal.Correction.Weighted>
   9.000000E+99

> <Gold.Protein.RotatedTorsions>
[ 6907 6896 6895 6894 ] final   81.01 input  -60.11 | X-H torsion
[ 7974 7965 7964 7962 ] final  132.24 input  175.53 | X-H torsion
[ 8008 7997 7996 7995 ] final  -13.71 input   59.86 | X-H torsion
[ 10167 10162 10161 10158 ] final  -22.78 input  -65.29 | X-H torsion
[ 10718 10713 10712 10709 ] final -140.82 input   66.30 | X-H torsion
[ 10763 10752 10751 10750 ] final -173.41 input  -60.55 | X-H torsion
[ 11005 11000 10999 10996 ] final -150.14 input  -57.11 | X-H torsion

> <Gold.Protein.ActiveResidues>
 VAL166  LYS551  ARG553  GLY616  TRP617  ASP618  TYR619  PRO620  LYS621  CYS622 
 ASP623  PHE694  ASN695  SER759  ASP760  ASP761  ALA762  ILE779  LEU786  VAL792 
 PHE793  MET794  SER795  GLU796  ALA797  LYS798  CYS799  TRP800  GLU811  SER814 

> <Gold.Protein.RotatedAtoms>
  152.5254  134.3269  159.9168 H   0  0  0  0  0  0  0  0  0  0  0  0  # atno 6907 bound_to 6896
  151.3218  133.4030  159.2663 H   0  0  0  0  0  0  0  0  0  0  0  0  # atno 6908 bound_to 6896
  150.9952  134.9295  159.7980 H   0  0  0  0  0  0  0  0  0  0  0  0  # atno 6909 bound_to 6896
  144.9989  139.4332  143.5302 H   0  0  0  0  0  0  0  0  0  0  0  0  # atno 7974 bound_to 7965
  154.5270  140.2242  155.8872 H   0  0  0  0  0  0  0  0  0  0  0  0  # atno 8008 bound_to 7997
  156.1724  140.3119  155.8961 H   0  0  0  0  0  0  0  0  0  0  0  0  # atno 8009 bound_to 7997
  155.3531  140.0457  157.3037 H   0  0  0  0  0  0  0  0  0  0  0  0  # atno 8010 bound_to 7997
  140.7287  143.4503  151.0526 H   0  0  0  0  0  0  0  0  0  0  0  0  # atno 10167 bound_to 10162
  156.3268  130.7564  151.1674 H   0  0  0  0  0  0  0  0  0  0  0  0  # atno 10718 bound_to 10713
  154.6082  135.2861  155.0461 H   0  0  0  0  0  0  0  0  0  0  0  0  # atno 10763 bound_to 10752
  154.1701  135.6474  153.5011 H   0  0  0  0  0  0  0  0  0  0  0  0  # atno 10764 bound_to 10752
  153.0184  135.5399  154.6825 H   0  0  0  0  0  0  0  0  0  0  0  0  # atno 10765 bound_to 10752
  140.7433  134.3489  157.5142 H   0  0  0  0  0  0  0  0  0  0  0  0  # atno 11005 bound_to 11000
  146.3447  139.9365  142.8746 LP  0  0  0  0  0  0  0  0  0  0  0  0  # atno 17320 bound_to 7965
  145.2181  140.9924  143.4061 LP  0  0  0  0  0  0  0  0  0  0  0  0  # atno 17321 bound_to 7965
  139.8179  143.7861  152.3175 LP  0  0  0  0  0  0  0  0  0  0  0  0  # atno 17342 bound_to 10162
  139.7933  144.7402  150.9925 LP  0  0  0  0  0  0  0  0  0  0  0  0  # atno 17343 bound_to 10162
  157.7423  131.0492  150.5037 LP  0  0  0  0  0  0  0  0  0  0  0  0  # atno 17370 bound_to 10713
  156.5197  130.4159  149.6257 LP  0  0  0  0  0  0  0  0  0  0  0  0  # atno 17371 bound_to 10713
  139.8802  134.9095  156.2992 LP  0  0  0  0  0  0  0  0  0  0  0  0  # atno 17394 bound_to 11000
  140.9817  133.7263  156.0681 LP  0  0  0  0  0  0  0  0  0  0  0  0  # atno 17395 bound_to 11000

$$$$
