#       Name:                AV-unprocessed.smi:1619
#       Creating user name   scv26
#       Creation time:       Fri Mar 27 07:15:23 2020


#       File generated by GOLD software.
#

@<TRIPOS>MOLECULE
AV-unprocessed.smi:1619
    47    49     1
SMALL
NO_CHARGES


@<TRIPOS>ATOM
      1 ****        -2.1484   3.7704   3.1568 C.3            1 S1                 0.0000
      2 ****        -2.0733   2.5463   2.2599 C.ar           1 S1                 0.0000
      3 ****        -2.5952   2.6378   0.9498 C.ar           1 S1                 0.0000
      4 ****        -2.5153   1.5009   0.1545 C.ar           1 S1                 0.0000
      5 ****        -2.9377   1.2696  -1.1563 N.pl3          1 S1                 1.0000
      6 ****        -2.6465  -0.0132  -1.5081 C.2            1 S1                 0.0000
      7 ****        -2.0341  -0.6013  -0.4440 N.pl3          1 S1                 0.0000
      8 ****        -1.5272  -1.9702  -0.2843 C.3            1 S1                 0.0000
      9 ****         0.0079  -2.0758  -0.3954 C.3            1 S1                 0.0000
     10 ****         0.3464  -3.4447  -0.3077 O.3            1 S1                 0.0000
     11 ****         0.5743  -1.5070  -1.7146 C.3            1 S1                 0.0000
     12 ****         2.0532  -1.5893  -1.7766 N.4            1 S1                 1.0000
     13 ****         2.6176  -1.3299  -3.1158 C.3            1 S1                 0.0000
     14 ****         4.0651  -0.9256  -2.8590 C.3            1 S1                 0.0000
     15 ****         3.9688  -0.1171  -1.5687 C.3            1 S1                 0.0000
     16 ****         2.7820  -0.7296  -0.8124 C.3            1 S1                 0.0000
     17 ****        -1.9389   0.3028   0.6193 C.ar           1 S1                 0.0000
     18 ****        -1.4208   0.1947   1.9076 C.ar           1 S1                 0.0000
     19 ****        -1.4936   1.3403   2.7325 C.ar           1 S1                 0.0000
     20 ****        -0.9394   1.2533   4.1444 C.3            1 S1                 0.0000
     21 ****        -2.6503   4.6001   2.6582 H              1 S1                 0.0000
     22 ****        -1.1481   4.1040   3.4335 H              1 S1                 0.0000
     23 ****        -2.7036   3.5457   4.0677 H              1 S1                 0.0000
     24 ****        -3.0404   3.5520   0.5845 H              1 S1                 0.0000
     25 ****        -2.8624  -0.4787  -2.4592 H              1 S1                 0.0000
     26 ****        -1.8785  -2.3555   0.6740 H              1 S1                 0.0000
     27 ****        -2.0023  -2.5788  -1.0554 H              1 S1                 0.0000
     28 ****         0.4605  -1.5630   0.4532 H              1 S1                 0.0000
     29 ****         0.0096  -3.7899   0.5058 H              1 S1                 0.0000
     30 ****         0.1528  -2.0595  -2.5557 H              1 S1                 0.0000
     31 ****         0.2785  -0.4657  -1.8478 H              1 S1                 0.0000
     32 ****         2.5330  -2.2021  -3.7648 H              1 S1                 0.0000
     33 ****         2.0840  -0.5028  -3.5878 H              1 S1                 0.0000
     34 ****         4.6763  -1.8145  -2.6963 H              1 S1                 0.0000
     35 ****         4.5018  -0.3612  -3.6837 H              1 S1                 0.0000
     36 ****         4.8930  -0.1421  -0.9906 H              1 S1                 0.0000
     37 ****         3.7543   0.9261  -1.8054 H              1 S1                 0.0000
     38 ****         2.1468   0.0570  -0.4020 H              1 S1                 0.0000
     39 ****         3.1225  -1.3475   0.0189 H              1 S1                 0.0000
     40 ****        -0.9841  -0.7244   2.2693 H              1 S1                 0.0000
     41 ****        -0.4936   0.2775   4.3398 H              1 S1                 0.0000
     42 ****        -1.7328   1.4095   4.8758 H              1 S1                 0.0000
     43 ****        -0.1688   2.0082   4.3023 H              1 S1                 0.0000
     44 ****         2.3047  -2.5416  -1.5509 H              1 S1                 0.0000
     45 ****        -3.3987   1.9340  -1.7650 H              1 S1                 0.0000
     46 ****         1.3409  -3.5472  -0.3304 LP             1 S1                 0.0000
     47 ****        -0.0574  -3.9408  -1.0763 LP             1 S1                 0.0000
@<TRIPOS>BOND
    1    1    2 1     
    2    1   21 1     
    3    1   22 1     
    4    1   23 1     
    5    2   19 ar    
    6    2    3 ar    
    7    3    4 ar    
    8    3   24 1     
    9    4   17 ar    
   10    4    5 1     
   11    5    6 2     
   12    5   45 1     
   13    6    7 1     
   14    6   25 1     
   15    7    8 1     
   16    7   17 1     
   17    8    9 1     
   18    8   26 1     
   19    8   27 1     
   20    9   10 1     
   21    9   11 1     
   22    9   28 1     
   23   10   29 1     
   24   11   12 1     
   25   11   30 1     
   26   11   31 1     
   27   12   16 1     
   28   12   13 1     
   29   12   44 1     
   30   13   14 1     
   31   13   32 1     
   32   13   33 1     
   33   14   15 1     
   34   14   34 1     
   35   14   35 1     
   36   15   16 1     
   37   15   36 1     
   38   15   37 1     
   39   16   38 1     
   40   16   39 1     
   41   17   18 ar    
   42   18   19 ar    
   43   18   40 1     
   44   19   20 1     
   45   20   41 1     
   46   20   42 1     
   47   20   43 1     
   48   10   46 1     
   49   10   47 1     
@<TRIPOS>SUBSTRUCTURE
      1 S1             1
@<TRIPOS>SET
LONE_PAIRS      STATIC     ATOMS    <user>   **** ""
2 46 47
DONOR_HYDROGENS      STATIC     ATOMS    <user>   **** ""
3 45 29 44
ATOM$BLUE        STATIC     ATOMS    COLORGROUP SYSTEM
2 46 47
ATOM$RED        STATIC     ATOMS    COLORGROUP SYSTEM
3 45 29 44
