AV-unprocessed.smi:2298|AV-procd|sdf|9227|dock2
  -GOLD-   2272012443D 1   1.00000     0.00000
 Structure written by MMmdl.
 38 39  0  0  0  0  0  0  0  0  2 V2000
  150.7130  141.2853  155.8404 C   0  0  0  0  0  0  0  0  0  0  0  0
  149.4633  141.1278  154.9954 C   0  0  0  0  0  0  0  0  0  0  0  0
  148.6576  142.2039  154.8592 N   0  3  0  0  0  0  0  0  0  0  0  0
  147.5162  142.1815  154.1405 C   0  0  0  0  0  0  0  0  0  0  0  0
  147.1213  140.9987  153.4857 C   0  0  0  0  0  0  0  0  0  0  0  0
  147.9380  139.8431  153.5803 C   0  0  0  0  0  0  0  0  0  0  0  0
  147.6050  138.6031  152.9658 N   0  0  0  0  0  0  0  0  0  0  0  0
  146.3915  138.1278  152.6373 C   0  0  0  0  0  0  0  0  0  0  0  0
  145.3252  138.7154  152.8185 O   0  0  0  0  0  0  0  0  0  0  0  0
  146.4833  136.9202  152.0622 N   0  0  0  0  0  0  0  0  0  0  0  0
  145.3564  136.1270  151.5801 C   0  0  1  0  0  0  0  0  0  0  0  0
  145.8717  134.7914  151.0134 C   0  0  0  0  0  0  0  0  0  0  0  0
  144.7153  133.8936  150.5391 C   0  0  0  0  0  0  0  0  0  0  0  0
  143.6673  133.6601  151.6435 C   0  0  1  0  0  0  0  0  0  0  0  0
  144.2063  132.8354  152.6577 O   0  0  0  0  0  0  0  0  0  0  0  0
  143.1776  134.9892  152.2487 C   0  0  0  0  0  0  0  0  0  0  0  0
  144.3406  135.8830  152.7141 C   0  0  0  0  0  0  0  0  0  0  0  0
  149.1198  139.9112  154.3598 C   0  0  0  0  0  0  0  0  0  0  0  0
  150.1416  138.5238  154.5328 Cl  0  0  0  0  0  0  0  0  0  0  0  0
  144.8601  136.6673  150.7713 H   0  0  0  0  0  0  0  0  0  0  0  0
  142.8153  133.1267  151.2203 H   0  0  0  0  0  0  0  0  0  0  0  0
  151.6027  141.0802  155.2446 H   0  0  0  0  0  0  0  0  0  0  0  0
  150.6929  140.5910  156.6809 H   0  0  0  0  0  0  0  0  0  0  0  0
  150.7992  142.2964  156.2398 H   0  0  0  0  0  0  0  0  0  0  0  0
  146.9524  143.1026  154.1162 H   0  0  0  0  0  0  0  0  0  0  0  0
  146.1932  140.9984  152.9350 H   0  0  0  0  0  0  0  0  0  0  0  0
  148.3922  138.0411  152.6760 H   0  0  0  0  0  0  0  0  0  0  0  0
  147.4009  136.5141  151.9500 H   0  0  0  0  0  0  0  0  0  0  0  0
  146.5526  134.9773  150.1819 H   0  0  0  0  0  0  0  0  0  0  0  0
  146.4519  134.2656  151.7733 H   0  0  0  0  0  0  0  0  0  0  0  0
  144.2298  134.3664  149.6844 H   0  0  0  0  0  0  0  0  0  0  0  0
  145.1038  132.9409  150.1776 H   0  0  0  0  0  0  0  0  0  0  0  0
  143.5541  132.7232  153.3323 H   0  0  0  0  0  0  0  0  0  0  0  0
  142.5980  135.5288  151.4986 H   0  0  0  0  0  0  0  0  0  0  0  0
  142.4959  134.7986  153.0783 H   0  0  0  0  0  0  0  0  0  0  0  0
  144.8403  135.4160  153.5640 H   0  0  0  0  0  0  0  0  0  0  0  0
  143.9443  136.8326  153.0758 H   0  0  0  0  0  0  0  0  0  0  0  0
  148.9218  143.0720  155.3258 H   0  0  0  0  0  0  0  0  0  0  0  0
  1  2  1  0  0  0  0
  1 22  1  0  0  0  0
  1 23  1  0  0  0  0
  1 24  1  0  0  0  0
  2 18  1  0  0  0  0
  2  3  2  0  0  0  0
  3  4  1  0  0  0  0
  3 38  1  0  0  0  0
  4  5  2  0  0  0  0
  4 25  1  0  0  0  0
  5  6  1  0  0  0  0
  5 26  1  0  0  0  0
  6  7  1  0  0  0  0
  6 18  2  0  0  0  0
  7  8  1  0  0  0  0
  7 27  1  0  0  0  0
  8  9  2  0  0  0  0
  8 10  1  0  0  0  0
 10 11  1  0  0  0  0
 10 28  1  0  0  0  0
 11 20  1  0  0  0  0
 11 17  1  0  0  0  0
 11 12  1  0  0  0  0
 12 13  1  0  0  0  0
 12 29  1  0  0  0  0
 12 30  1  0  0  0  0
 13 14  1  0  0  0  0
 13 31  1  0  0  0  0
 13 32  1  0  0  0  0
 14 21  1  0  0  0  0
 14 15  1  0  0  0  0
 14 16  1  0  0  0  0
 15 33  1  0  0  0  0
 16 17  1  0  0  0  0
 16 34  1  0  0  0  0
 16 35  1  0  0  0  0
 17 36  1  0  0  0  0
 17 37  1  0  0  0  0
 18 19  1  0  0  0  0
M  CHG  1   3   1
M  END
> <s_m_source_file>
AV-unprocessed.smi

> <i_m_source_file_index>
2298

> <i_lp_mmshare_version>
43012

> <i_f3d_flags>
0

> <s_epik_input>
W0NIM11jMW5bY0hdW2NIXWMoYzFDbClbTkhdQyg9TylbTkhdW0NASF0yW0NIMl1bQ0gyXVtDQEhdKFtPSF0pW0NIMl1bQ0gyXTI=

> <s_epik_cmdline>
J2VwaWtfcHl0aG9uJywgJy1waCcsICc3LjAnLCAnLXRuJywgJzgnLCAnLW1hJywgJzIwMCcsICctbWV0YWxfYmluZGluZycsICctaW1hZScsICc8aW5maWxlLm1hZT4nLCAnLW9tYWUnLCAnPG91dGZpbGUubWFlPic=

> <r_epik_Ionization_Penalty>
2.42586

> <r_epik_Ionization_Penalty_Charging>
2.42584

> <r_epik_Ionization_Penalty_Neutral>
2.16148e-05

> <r_epik_State_Penalty>
2.58553

> <r_epik_Charging_Adjusted_Penalty>
5.01136

> <i_epik_Tot_Q>
1

> <i_epik_Tot_abs_Q>
1

> <r_epik_Metal_State_Penalty>
2.59536

> <b_epik_Metal_Only>
0

> <s_lp_Force_Field>
OPLS_2005

> <r_lp_Energy>
20.6895

> <b_lp_Chiralities_Consistent>
1

> <s_lp_Variant>
AV-unprocessed.smi:2298-4

> <Gold.Version>
5.8.1

> <Gold.Id.Protein>
6NUR|6NUR_protein|mol2

> <Gold.PLP.Fitness>
47.4320

> <Gold.PLP.PLP>
-33.0572

> <Gold.PLP.part.hbond>
-4.9783

> <Gold.PLP.part.metal>
0.0000

> <Gold.PLP.part.buried>
-3.6192

> <Gold.PLP.part.nonpolar>
-31.2584

> <Gold.PLP.part.repulsive>
4.9406

> <Gold.PLP.ligand.clash>
0.0000

> <Gold.PLP.ligand.torsion>
0.1583

> <Gold.PLP.Chemscore.Hbond>
4.8960

> <Gold.PLP.Chemscore.CHOScore>
0.0000

> <Gold.PLP.Chemscore.Metal>
0.0000

> <Gold.Chemscore.Hbonds>
donor molecule, donor type, donor heavy atom, donor atom, acceptor molecule, acceptor atom, score
      L1  H     3    38       P1  8028  2.00
      L1  H     7    27       P1  7948  0.89
      L1  H    10    28       P1  7948  1.00
      L1  H    15    33       P1 10957  1.00

> <Gold.PLP.Chemscore.Internal.Correction>
0.0034

> <Gold.Rescore>
     Score         DG    S(hbond)    S(metal)    S(lipo)     H(rot)  DE(clash)    DE(int)     intcor
     18.12     -22.72       3.39        0.00      81.97       1.43       2.06       2.53       ----

> <Gold.Chemscore.Fitness>
18.1243

> <Gold.Chemscore.DG>
-22.7193

> <Gold.Chemscore.ZeroCoef>
-5.4800

> <Gold.Chemscore.Hbond>
3.3886

> <Gold.Chemscore.Metal>
0.0000

> <Gold.Chemscore.Lipo>
81.9704

> <Gold.Chemscore.Internal_Hbond>
0.0000

> <Gold.Chemscore.DEClash>
2.0633

> <Gold.Chemscore.DEInternal>
2.5317

> <Gold.Chemscore.Rot>
1.4333

> <Gold.Chemscore.Internal.Correction>
   9.000000E+99

> <Gold.Chemscore.Hbonds>
donor molecule, donor type, donor heavy atom, donor atom, acceptor molecule, acceptor atom, score
      L1  H     3    38       P1  8028  0.98
      L1  H     7    27       P1  7948  0.81
      L1  H    10    28       P1  7948  0.96
      L1  H    15    33       P1 10957  0.43

> <Gold.Chemscore.Hbond.Weighted>
-11.3181

> <Gold.Chemscore.Metal.Weighted>
-0.0000

> <Gold.Chemscore.Lipo.Weighted>
-9.5905

> <Gold.Chemscore.Internal_Hbond.Weighted>
0.0000

> <Gold.Chemscore.DEClash.Weighted>
2.0633

> <Gold.Chemscore.DEInternal.Weighted>
2.5317

> <Gold.Chemscore.Rot.Weighted>
3.6693

> <Gold.Chemscore.Internal.Correction.Weighted>
   9.000000E+99

> <Gold.Protein.RotatedTorsions>
[ 6907 6896 6895 6894 ] final   77.97 input  -60.11 | X-H torsion
[ 7974 7965 7964 7962 ] final   36.81 input  175.53 | X-H torsion
[ 8008 7997 7996 7995 ] final -146.31 input   59.86 | X-H torsion
[ 10167 10162 10161 10158 ] final   49.48 input  -65.29 | X-H torsion
[ 10718 10713 10712 10709 ] final  -82.29 input   66.30 | X-H torsion
[ 10763 10752 10751 10750 ] final  -37.46 input  -60.55 | X-H torsion
[ 11005 11000 10999 10996 ] final  -98.92 input  -57.11 | X-H torsion

> <Gold.Protein.ActiveResidues>
 VAL166  LYS551  ARG553  GLY616  TRP617  ASP618  TYR619  PRO620  LYS621  CYS622 
 ASP623  PHE694  ASN695  SER759  ASP760  ASP761  ALA762  ILE779  LEU786  VAL792 
 PHE793  MET794  SER795  GLU796  ALA797  LYS798  CYS799  TRP800  GLU811  SER814 

> <Gold.Protein.RotatedAtoms>
  152.5140  134.3735  159.9326 H   0  0  0  0  0  0  0  0  0  0  0  0  # atno 6907 bound_to 6896
  151.3690  133.3855  159.2705 H   0  0  0  0  0  0  0  0  0  0  0  0  # atno 6908 bound_to 6896
  150.9592  134.9002  159.7778 H   0  0  0  0  0  0  0  0  0  0  0  0  # atno 6909 bound_to 6896
  146.1184  139.5972  142.9306 H   0  0  0  0  0  0  0  0  0  0  0  0  # atno 7974 bound_to 7965
  155.5573  140.0622  157.2837 H   0  0  0  0  0  0  0  0  0  0  0  0  # atno 8008 bound_to 7997
  154.4401  140.1892  156.0792 H   0  0  0  0  0  0  0  0  0  0  0  0  # atno 8009 bound_to 7997
  156.0473  140.3288  155.7314 H   0  0  0  0  0  0  0  0  0  0  0  0  # atno 8010 bound_to 7997
  140.2824  144.3140  150.6261 H   0  0  0  0  0  0  0  0  0  0  0  0  # atno 10167 bound_to 10162
  156.0035  130.4630  150.4083 H   0  0  0  0  0  0  0  0  0  0  0  0  # atno 10718 bound_to 10713
  153.8966  135.6806  153.4757 H   0  0  0  0  0  0  0  0  0  0  0  0  # atno 10763 bound_to 10752
  153.1152  135.4765  154.9100 H   0  0  0  0  0  0  0  0  0  0  0  0  # atno 10764 bound_to 10752
  154.7596  135.3207  154.8358 H   0  0  0  0  0  0  0  0  0  0  0  0  # atno 10765 bound_to 10752
  141.1327  133.8282  157.0904 H   0  0  0  0  0  0  0  0  0  0  0  0  # atno 11005 bound_to 11000
  145.5518  141.0412  143.2274 LP  0  0  0  0  0  0  0  0  0  0  0  0  # atno 17320 bound_to 7965
  144.7574  139.7040  143.7248 LP  0  0  0  0  0  0  0  0  0  0  0  0  # atno 17321 bound_to 7965
  140.5800  143.2173  151.7445 LP  0  0  0  0  0  0  0  0  0  0  0  0  # atno 17342 bound_to 10162
  139.4959  144.4094  152.0097 LP  0  0  0  0  0  0  0  0  0  0  0  0  # atno 17343 bound_to 10162
  157.2147  131.0468  151.2579 LP  0  0  0  0  0  0  0  0  0  0  0  0  # atno 17370 bound_to 10713
  157.3856  130.7254  149.6660 LP  0  0  0  0  0  0  0  0  0  0  0  0  # atno 17371 bound_to 10713
  140.0396  134.9861  157.0936 LP  0  0  0  0  0  0  0  0  0  0  0  0  # atno 17394 bound_to 11000
  140.4156  134.1934  155.7163 LP  0  0  0  0  0  0  0  0  0  0  0  0  # atno 17395 bound_to 11000

$$$$
