AV-unprocessed.smi:901|AV-procd|sdf|4091|dock5
  -GOLD-   22720 1583D 1   1.00000     0.00000
 Structure written by MMmdl.
 43 44  0  0  0  0  0  0  0  0  1 V2000
  151.6290  140.0426  155.5236 C   0  0  0  0  0  0  0  0  0  0  0  0
  150.3351  140.8252  155.4222 C   0  0  0  0  0  0  0  0  0  0  0  0
  150.0390  141.7194  156.6134 C   0  0  0  0  0  0  0  0  0  0  0  0
  149.5283  140.7215  154.3487 C   0  0  0  0  0  0  0  0  0  0  0  0
  148.2335  141.4331  154.1374 C   0  0  1  0  0  0  0  0  0  0  0  0
  146.9693  140.7750  153.5920 C   0  0  1  0  0  0  0  0  0  0  0  0
  146.9776  139.3189  153.2476 C   0  0  0  0  0  0  0  0  0  0  0  0
  147.9724  138.6143  153.4140 O   0  0  0  0  0  0  0  0  0  0  0  0
  145.8381  138.9029  152.6660 N   0  0  0  0  0  0  0  0  0  0  0  0
  145.4861  137.5966  152.2390 C   0  0  0  0  0  0  0  0  0  0  0  0
  145.9378  136.9484  151.0502 C   0  0  0  0  0  0  0  0  0  0  0  0
  145.3225  135.7306  151.1054 C   0  0  0  0  0  0  0  0  0  0  0  0
  144.5734  135.6941  152.2649 N   0  0  0  0  0  0  0  0  0  0  0  0
  143.7394  134.6138  152.7675 C   0  0  0  0  0  0  0  0  0  0  0  0
  142.6741  135.1021  153.7570 C   0  0  0  0  0  0  0  0  0  0  0  0
  142.0594  134.1651  154.4828 N   0  0  0  0  0  0  0  0  0  0  0  0
  142.4004  136.2963  153.8679 O   0  0  0  0  0  0  0  0  0  0  0  0
  144.6717  136.8474  152.9623 N   0  0  0  0  0  0  0  0  0  0  0  0
  147.0380  141.2185  155.0496 C   0  0  0  0  0  0  0  0  0  0  0  0
  147.1026  140.2228  156.2058 C   0  0  0  0  0  0  0  0  0  0  0  0
  146.2100  142.4202  155.4687 C   0  0  0  0  0  0  0  0  0  0  0  0
  151.6118  139.3950  156.4007 H   0  0  0  0  0  0  0  0  0  0  0  0
  152.4752  140.7237  155.6161 H   0  0  0  0  0  0  0  0  0  0  0  0
  151.7916  139.4189  154.6440 H   0  0  0  0  0  0  0  0  0  0  0  0
  150.8476  142.4377  156.7509 H   0  0  0  0  0  0  0  0  0  0  0  0
  149.9571  141.1207  157.5207 H   0  0  0  0  0  0  0  0  0  0  0  0
  149.1124  142.2805  156.4955 H   0  0  0  0  0  0  0  0  0  0  0  0
  149.8292  140.0542  153.5548 H   0  0  0  0  0  0  0  0  0  0  0  0
  148.4091  142.4547  153.8055 H   0  0  0  0  0  0  0  0  0  0  0  0
  146.3998  141.3923  152.8998 H   0  0  0  0  0  0  0  0  0  0  0  0
  145.1222  139.6037  152.5415 H   0  0  0  0  0  0  0  0  0  0  0  0
  146.6021  137.3008  150.2757 H   0  0  0  0  0  0  0  0  0  0  0  0
  145.3577  134.8924  150.4253 H   0  0  0  0  0  0  0  0  0  0  0  0
  143.2494  134.1124  151.9314 H   0  0  0  0  0  0  0  0  0  0  0  0
  144.3866  133.8796  153.2492 H   0  0  0  0  0  0  0  0  0  0  0  0
  141.3516  134.4282  155.1530 H   0  0  0  0  0  0  0  0  0  0  0  0
  142.3082  133.1940  154.3607 H   0  0  0  0  0  0  0  0  0  0  0  0
  146.0986  139.8994  156.4818 H   0  0  0  0  0  0  0  0  0  0  0  0
  147.5666  140.6862  157.0771 H   0  0  0  0  0  0  0  0  0  0  0  0
  147.6812  139.3356  155.9497 H   0  0  0  0  0  0  0  0  0  0  0  0
  145.1939  142.1132  155.7178 H   0  0  0  0  0  0  0  0  0  0  0  0
  146.1573  143.1540  154.6637 H   0  0  0  0  0  0  0  0  0  0  0  0
  146.6535  142.9023  156.3404 H   0  0  0  0  0  0  0  0  0  0  0  0
  1  2  1  0  0  0  0
  1 22  1  0  0  0  0
  1 23  1  0  0  0  0
  1 24  1  0  0  0  0
  2  3  1  0  0  0  0
  2  4  2  0  0  0  0
  3 25  1  0  0  0  0
  3 26  1  0  0  0  0
  3 27  1  0  0  0  0
  4  5  1  0  0  0  0
  4 28  1  0  0  0  0
  5 19  1  0  0  0  0
  5  6  1  0  0  0  0
  5 29  1  0  0  0  0
  6  7  1  0  0  0  0
  6 19  1  0  0  0  0
  6 30  1  0  0  0  0
  7  8  2  0  0  0  0
  7  9  1  0  0  0  0
  9 10  1  0  0  0  0
  9 31  1  0  0  0  0
 10 18  2  0  0  0  0
 10 11  1  0  0  0  0
 11 12  2  0  0  0  0
 11 32  1  0  0  0  0
 12 13  1  0  0  0  0
 12 33  1  0  0  0  0
 13 14  1  0  0  0  0
 13 18  1  0  0  0  0
 14 15  1  0  0  0  0
 14 34  1  0  0  0  0
 14 35  1  0  0  0  0
 15 16  1  0  0  0  0
 15 17  2  0  0  0  0
 16 36  1  0  0  0  0
 16 37  1  0  0  0  0
 19 20  1  0  0  0  0
 19 21  1  0  0  0  0
 20 38  1  0  0  0  0
 20 39  1  0  0  0  0
 20 40  1  0  0  0  0
 21 41  1  0  0  0  0
 21 42  1  0  0  0  0
 21 43  1  0  0  0  0
M  END
> <s_m_source_file>
AV-unprocessed.smi

> <i_m_source_file_index>
901

> <i_lp_mmshare_version>
43012

> <i_f3d_flags>
0

> <s_epik_input>
W0NIM11DKFtDSDNdKT1bQ0hdW0NAQEhdKEMxKFtDSDNdKVtDSDNdKVtDQEhdMUMoPU8pW05IXWMyW2NIXVtjSF1uKG4yKVtDSDJdQyg9TylbTkgyXQ==

> <s_epik_cmdline>
J2VwaWtfcHl0aG9uJywgJy1waCcsICc3LjAnLCAnLXRuJywgJzgnLCAnLW1hJywgJzIwMCcsICctbWV0YWxfYmluZGluZycsICctaW1hZScsICc8aW5maWxlLm1hZT4nLCAnLW9tYWUnLCAnPG91dGZpbGUubWFlPic=

> <r_lp_tautomer_probability>
1

> <r_epik_Ionization_Penalty>
1.01454e-05

> <r_epik_Ionization_Penalty_Charging>
0

> <r_epik_Ionization_Penalty_Neutral>
1.01454e-05

> <r_epik_State_Penalty>
-0

> <r_epik_Charging_Adjusted_Penalty>
0

> <i_epik_Tot_Q>
0

> <i_epik_Tot_abs_Q>
0

> <r_epik_Metal_State_Penalty>
-0

> <b_epik_Metal_Only>
0

> <s_lp_Force_Field>
OPLS_2005

> <r_lp_Energy>
23.331

> <b_lp_Chiralities_Consistent>
1

> <s_lp_Variant>
AV-unprocessed.smi:901-2

> <Gold.Version>
5.8.1

> <Gold.Id.Protein>
6NUR|6NUR_protein|mol2

> <Gold.PLP.Fitness>
43.0845

> <Gold.PLP.PLP>
-35.5983

> <Gold.PLP.part.hbond>
-3.0000

> <Gold.PLP.part.metal>
0.0000

> <Gold.PLP.part.buried>
-0.0330

> <Gold.PLP.part.nonpolar>
-35.0978

> <Gold.PLP.part.repulsive>
1.7130

> <Gold.PLP.ligand.clash>
0.0000

> <Gold.PLP.ligand.torsion>
1.3661

> <Gold.PLP.Chemscore.Hbond>
2.9040

> <Gold.PLP.Chemscore.CHOScore>
0.4292

> <Gold.PLP.Chemscore.Metal>
0.0000

> <Gold.Chemscore.Hbonds>
donor molecule, donor type, donor heavy atom, donor atom, acceptor molecule, acceptor atom, score
      L1  H     9    31       P1 10175  1.00
      L1  H    16    36       P1 11000  1.00
      L1  H    16    37       P1 10957  0.98
      L1  C    12    33       P1  7921  0.09

> <Gold.PLP.Chemscore.Internal.Correction>
0.2185

> <Gold.Rescore>
     Score         DG    S(hbond)    S(metal)    S(lipo)     H(rot)  DE(clash)    DE(int)     intcor
     11.55     -17.16       2.76        0.00      67.53       2.13       1.26       4.35       ----

> <Gold.Chemscore.Fitness>
11.5495

> <Gold.Chemscore.DG>
-17.1557

> <Gold.Chemscore.ZeroCoef>
-5.4800

> <Gold.Chemscore.Hbond>
2.7636

> <Gold.Chemscore.Metal>
0.0000

> <Gold.Chemscore.Lipo>
67.5265

> <Gold.Chemscore.Internal_Hbond>
0.0000

> <Gold.Chemscore.DEClash>
1.2603

> <Gold.Chemscore.DEInternal>
4.3459

> <Gold.Chemscore.Rot>
2.1309

> <Gold.Chemscore.Internal.Correction>
   9.000000E+99

> <Gold.Chemscore.Hbonds>
donor molecule, donor type, donor heavy atom, donor atom, acceptor molecule, acceptor atom, score
      L1  H     9    31       P1 10175  1.00
      L1  H    16    36       P1 11000  0.89
      L1  H    16    37       P1 10957  0.90

> <Gold.Chemscore.Hbond.Weighted>
-9.2303

> <Gold.Chemscore.Metal.Weighted>
-0.0000

> <Gold.Chemscore.Lipo.Weighted>
-7.9006

> <Gold.Chemscore.Internal_Hbond.Weighted>
0.0000

> <Gold.Chemscore.DEClash.Weighted>
1.2603

> <Gold.Chemscore.DEInternal.Weighted>
4.3459

> <Gold.Chemscore.Rot.Weighted>
5.4552

> <Gold.Chemscore.Internal.Correction.Weighted>
   9.000000E+99

> <Gold.Protein.RotatedTorsions>
[ 6907 6896 6895 6894 ] final  146.44 input  -60.11 | X-H torsion
[ 7974 7965 7964 7962 ] final   44.74 input  175.53 | X-H torsion
[ 8008 7997 7996 7995 ] final  122.47 input   59.86 | X-H torsion
[ 10167 10162 10161 10158 ] final -132.03 input  -65.29 | X-H torsion
[ 10718 10713 10712 10709 ] final  -87.11 input   66.30 | X-H torsion
[ 10763 10752 10751 10750 ] final   35.32 input  -60.55 | X-H torsion
[ 11005 11000 10999 10996 ] final  157.40 input  -57.11 | X-H torsion

> <Gold.Protein.ActiveResidues>
 VAL166  LYS551  ARG553  GLY616  TRP617  ASP618  TYR619  PRO620  LYS621  CYS622 
 ASP623  PHE694  ASN695  SER759  ASP760  ASP761  ALA762  ILE779  LEU786  VAL792 
 PHE793  MET794  SER795  GLU796  ALA797  LYS798  CYS799  TRP800  GLU811  SER814 

> <Gold.Protein.RotatedAtoms>
  152.1678  133.4623  159.4893 H   0  0  0  0  0  0  0  0  0  0  0  0  # atno 6907 bound_to 6896
  150.6915  134.1991  159.4324 H   0  0  0  0  0  0  0  0  0  0  0  0  # atno 6908 bound_to 6896
  151.9896  134.9985  160.0611 H   0  0  0  0  0  0  0  0  0  0  0  0  # atno 6909 bound_to 6896
  146.0542  139.5041  142.9699 H   0  0  0  0  0  0  0  0  0  0  0  0  # atno 7974 bound_to 7965
  156.2728  140.2785  156.1472 H   0  0  0  0  0  0  0  0  0  0  0  0  # atno 8008 bound_to 7997
  155.0891  140.0388  157.2681 H   0  0  0  0  0  0  0  0  0  0  0  0  # atno 8009 bound_to 7997
  154.6903  140.2627  155.6825 H   0  0  0  0  0  0  0  0  0  0  0  0  # atno 8010 bound_to 7997
  139.9127  143.6475  152.2571 H   0  0  0  0  0  0  0  0  0  0  0  0  # atno 10167 bound_to 10162
  155.9986  130.4788  150.4818 H   0  0  0  0  0  0  0  0  0  0  0  0  # atno 10718 bound_to 10713
  153.0124  135.6336  154.1809 H   0  0  0  0  0  0  0  0  0  0  0  0  # atno 10763 bound_to 10752
  154.1550  135.2827  155.3126 H   0  0  0  0  0  0  0  0  0  0  0  0  # atno 10764 bound_to 10752
  154.6025  135.5583  153.7449 H   0  0  0  0  0  0  0  0  0  0  0  0  # atno 10765 bound_to 10752
  140.1766  134.8505  157.2754 H   0  0  0  0  0  0  0  0  0  0  0  0  # atno 11005 bound_to 11000
  145.6672  141.0226  143.1677 LP  0  0  0  0  0  0  0  0  0  0  0  0  # atno 17320 bound_to 7965
  144.7139  139.8269  143.7405 LP  0  0  0  0  0  0  0  0  0  0  0  0  # atno 17321 bound_to 7965
  139.6928  144.7645  151.1408 LP  0  0  0  0  0  0  0  0  0  0  0  0  # atno 17342 bound_to 10162
  140.7681  143.5565  150.9146 LP  0  0  0  0  0  0  0  0  0  0  0  0  # atno 17343 bound_to 10162
  157.2822  131.0609  151.2190 LP  0  0  0  0  0  0  0  0  0  0  0  0  # atno 17370 bound_to 10713
  157.3232  130.6947  149.6281 LP  0  0  0  0  0  0  0  0  0  0  0  0  # atno 17371 bound_to 10713
  140.2315  134.3903  155.7520 LP  0  0  0  0  0  0  0  0  0  0  0  0  # atno 17394 bound_to 11000
  141.2221  133.7217  156.8648 LP  0  0  0  0  0  0  0  0  0  0  0  0  # atno 17395 bound_to 11000

$$$$
