AV-unprocessed.smi:972|AV-procd|sdf|4296|dock6
  -GOLD-   22720 2203D 1   1.00000     0.00000
 Structure written by MMmdl.
 51 53  0  0  0  0  0  0  0  0  2 V2000
  152.8140  143.3115  160.4859 C   0  0  0  0  0  0  0  0  0  0  0  0
  151.9807  143.8215  159.2862 C   0  0  0  0  0  0  0  0  0  0  0  0
  150.9171  144.7752  159.8797 C   0  0  0  0  0  0  0  0  0  0  0  0
  152.8916  144.6017  158.3209 C   0  0  0  0  0  0  0  0  0  0  0  0
  151.3188  142.6534  158.5344 C   0  0  0  0  0  0  0  0  0  0  0  0
  150.3843  142.9634  157.6264 N   0  0  0  0  0  0  0  0  0  0  0  0
  149.7020  141.9505  157.0510 C   0  0  0  0  0  0  0  0  0  0  0  0
  149.9289  140.6011  157.4147 C   0  0  0  0  0  0  0  0  0  0  0  0
  149.2706  139.4710  156.8566 N   0  0  0  0  0  0  0  0  0  0  0  0
  148.3036  139.4333  155.9240 C   0  0  0  0  0  0  0  0  0  0  0  0
  147.7814  140.4135  155.3947 O   0  0  0  0  0  0  0  0  0  0  0  0
  147.9546  138.1702  155.6390 N   0  0  0  0  0  0  0  0  0  0  0  0
  146.9413  137.7791  154.6624 C   0  0  2  0  0  0  0  0  0  0  0  0
  146.8990  136.2488  154.4908 C   0  0  0  0  0  0  0  0  0  0  0  0
  145.9031  135.8415  153.3918 C   0  0  0  0  0  0  0  0  0  0  0  0
  146.2263  136.5057  152.1048 N   0  3  1  0  0  0  0  0  0  0  0  0
  145.3503  136.0465  151.0050 C   0  0  0  0  0  0  0  0  0  0  0  0
  143.9589  135.6646  151.4536 C   0  0  0  0  0  0  0  0  0  0  0  0
  144.9638  134.5892  151.1047 C   0  0  0  0  0  0  0  0  0  0  0  0
  146.2315  137.9842  152.2355 C   0  0  0  0  0  0  0  0  0  0  0  0
  147.2368  138.4411  153.3062 C   0  0  0  0  0  0  0  0  0  0  0  0
  150.9104  140.3932  158.4045 C   0  0  0  0  0  0  0  0  0  0  0  0
  151.5846  141.4154  158.9713 N   0  0  0  0  0  0  0  0  0  0  0  0
  153.2469  144.1391  161.0489 H   0  0  0  0  0  0  0  0  0  0  0  0
  153.6446  142.6801  160.1683 H   0  0  0  0  0  0  0  0  0  0  0  0
  152.2022  142.7305  161.1768 H   0  0  0  0  0  0  0  0  0  0  0  0
  150.2370  144.2454  160.5478 H   0  0  0  0  0  0  0  0  0  0  0  0
  150.3156  145.2504  159.1039 H   0  0  0  0  0  0  0  0  0  0  0  0
  151.3799  145.5789  160.4535 H   0  0  0  0  0  0  0  0  0  0  0  0
  153.3778  145.4397  158.8215 H   0  0  0  0  0  0  0  0  0  0  0  0
  152.3252  145.0044  157.4803 H   0  0  0  0  0  0  0  0  0  0  0  0
  153.6753  143.9626  157.9126 H   0  0  0  0  0  0  0  0  0  0  0  0
  148.9881  142.2469  156.2994 H   0  0  0  0  0  0  0  0  0  0  0  0
  149.5595  138.5788  157.2306 H   0  0  0  0  0  0  0  0  0  0  0  0
  148.4332  137.4256  156.1244 H   0  0  0  0  0  0  0  0  0  0  0  0
  145.9648  138.1262  155.0064 H   0  0  0  0  0  0  0  0  0  0  0  0
  147.8923  135.8755  154.2368 H   0  0  0  0  0  0  0  0  0  0  0  0
  146.6203  135.7697  155.4300 H   0  0  0  0  0  0  0  0  0  0  0  0
  145.9288  134.7587  153.2620 H   0  0  0  0  0  0  0  0  0  0  0  0
  144.8861  136.1000  153.6910 H   0  0  0  0  0  0  0  0  0  0  0  0
  145.5078  136.5123  150.0337 H   0  0  0  0  0  0  0  0  0  0  0  0
  143.7021  135.7903  152.5040 H   0  0  0  0  0  0  0  0  0  0  0  0
  143.1426  135.8294  150.7531 H   0  0  0  0  0  0  0  0  0  0  0  0
  144.8089  134.0458  150.1748 H   0  0  0  0  0  0  0  0  0  0  0  0
  145.3729  134.0007  151.9242 H   0  0  0  0  0  0  0  0  0  0  0  0
  146.4903  138.4355  151.2769 H   0  0  0  0  0  0  0  0  0  0  0  0
  145.2285  138.3323  152.4884 H   0  0  0  0  0  0  0  0  0  0  0  0
  147.2025  139.5271  153.4040 H   0  0  0  0  0  0  0  0  0  0  0  0
  148.2485  138.1911  152.9822 H   0  0  0  0  0  0  0  0  0  0  0  0
  151.1537  139.3999  158.7524 H   0  0  0  0  0  0  0  0  0  0  0  0
  147.1667  136.2297  151.8605 H   0  0  0  0  0  0  0  0  0  0  0  0
  1  2  1  0  0  0  0
  1 24  1  0  0  0  0
  1 25  1  0  0  0  0
  1 26  1  0  0  0  0
  2  3  1  0  0  0  0
  2  4  1  0  0  0  0
  2  5  1  0  0  0  0
  3 27  1  0  0  0  0
  3 28  1  0  0  0  0
  3 29  1  0  0  0  0
  4 30  1  0  0  0  0
  4 31  1  0  0  0  0
  4 32  1  0  0  0  0
  5 23  1  0  0  0  0
  5  6  2  0  0  0  0
  6  7  1  0  0  0  0
  7  8  2  0  0  0  0
  7 33  1  0  0  0  0
  8  9  1  0  0  0  0
  8 22  1  0  0  0  0
  9 10  1  0  0  0  0
  9 34  1  0  0  0  0
 10 11  2  0  0  0  0
 10 12  1  0  0  0  0
 12 13  1  0  0  0  0
 12 35  1  0  0  0  0
 13 21  1  0  0  0  0
 13 14  1  0  0  0  0
 13 36  1  0  0  0  0
 14 15  1  0  0  0  0
 14 37  1  0  0  0  0
 14 38  1  0  0  0  0
 15 16  1  0  0  0  0
 15 39  1  0  0  0  0
 15 40  1  0  0  0  0
 16 17  1  0  0  0  0
 16 20  1  0  0  0  0
 16 51  1  0  0  0  0
 17 19  1  0  0  0  0
 17 18  1  0  0  0  0
 17 41  1  0  0  0  0
 18 19  1  0  0  0  0
 18 42  1  0  0  0  0
 18 43  1  0  0  0  0
 19 44  1  0  0  0  0
 19 45  1  0  0  0  0
 20 21  1  0  0  0  0
 20 46  1  0  0  0  0
 20 47  1  0  0  0  0
 21 48  1  0  0  0  0
 21 49  1  0  0  0  0
 22 23  2  0  0  0  0
 22 50  1  0  0  0  0
M  CHG  1  16   1
M  END
> <s_m_source_file>
AV-unprocessed.smi

> <i_m_source_file_index>
972

> <i_lp_mmshare_version>
43012

> <i_f3d_flags>
0

> <s_epik_input>
W0NIM11DKFtDSDNdKShbQ0gzXSljMW5bY0hdYyhbY0hdbjEpW05IXUMoPU8pW05IXVtDSF0yW0NIMl1bQ0gyXU4oW0NIMl1bQ0gyXTIpW0NIXTNbQ0gyXVtDSDJdMw==

> <s_epik_cmdline>
J2VwaWtfcHl0aG9uJywgJy1waCcsICc3LjAnLCAnLXRuJywgJzgnLCAnLW1hJywgJzIwMCcsICctbWV0YWxfYmluZGluZycsICctaW1hZScsICc8aW5maWxlLm1hZT4nLCAnLW9tYWUnLCAnPG91dGZpbGUubWFlPic=

> <r_lp_tautomer_probability>
1

> <r_epik_Ionization_Penalty>
0.123264

> <r_epik_Ionization_Penalty_Charging>
0.123242

> <r_epik_Ionization_Penalty_Neutral>
2.24743e-05

> <r_epik_State_Penalty>
0.112739

> <r_epik_Charging_Adjusted_Penalty>
0.235981

> <i_epik_Tot_Q>
1

> <i_epik_Tot_abs_Q>
1

> <r_epik_Metal_State_Penalty>
0.112739

> <b_epik_Metal_Only>
0

> <s_lp_Force_Field>
OPLS_2005

> <r_lp_Energy>
25.9284

> <b_lp_Chiralities_Consistent>
1

> <s_lp_Variant>
AV-unprocessed.smi:972-1

> <Gold.Version>
5.8.1

> <Gold.Id.Protein>
6NUR|6NUR_protein|mol2

> <Gold.PLP.Fitness>
43.1022

> <Gold.PLP.PLP>
-35.1691

> <Gold.PLP.part.hbond>
-1.0000

> <Gold.PLP.part.metal>
0.0000

> <Gold.PLP.part.buried>
-2.9625

> <Gold.PLP.part.nonpolar>
-32.0013

> <Gold.PLP.part.repulsive>
1.0419

> <Gold.PLP.ligand.clash>
0.0000

> <Gold.PLP.ligand.torsion>
0.8309

> <Gold.PLP.Chemscore.Hbond>
2.0000

> <Gold.PLP.Chemscore.CHOScore>
0.7326

> <Gold.PLP.Chemscore.Metal>
0.0000

> <Gold.Chemscore.Hbonds>
donor molecule, donor type, donor heavy atom, donor atom, acceptor molecule, acceptor atom, score
      L1  H    16    51       P1  7948  2.00
      L1  C     7    33       P1  8028  0.72

> <Gold.PLP.Chemscore.Internal.Correction>
1.3973

> <Gold.Rescore>
     Score         DG    S(hbond)    S(metal)    S(lipo)     H(rot)  DE(clash)    DE(int)     intcor
     13.98     -17.10       1.00        0.00      99.81       1.32       0.22       2.91       ----

> <Gold.Chemscore.Fitness>
13.9752

> <Gold.Chemscore.DG>
-17.1015

> <Gold.Chemscore.ZeroCoef>
-5.4800

> <Gold.Chemscore.Hbond>
0.9955

> <Gold.Chemscore.Metal>
0.0000

> <Gold.Chemscore.Lipo>
99.8073

> <Gold.Chemscore.Internal_Hbond>
0.0000

> <Gold.Chemscore.DEClash>
0.2186

> <Gold.Chemscore.DEInternal>
2.9077

> <Gold.Chemscore.Rot>
1.3207

> <Gold.Chemscore.Internal.Correction>
   9.000000E+99

> <Gold.Chemscore.Hbonds>
donor molecule, donor type, donor heavy atom, donor atom, acceptor molecule, acceptor atom, score
      L1  H    16    51       P1  7948  1.00

> <Gold.Chemscore.Hbond.Weighted>
-3.3249

> <Gold.Chemscore.Metal.Weighted>
-0.0000

> <Gold.Chemscore.Lipo.Weighted>
-11.6775

> <Gold.Chemscore.Internal_Hbond.Weighted>
0.0000

> <Gold.Chemscore.DEClash.Weighted>
0.2186

> <Gold.Chemscore.DEInternal.Weighted>
2.9077

> <Gold.Chemscore.Rot.Weighted>
3.3809

> <Gold.Chemscore.Internal.Correction.Weighted>
   9.000000E+99

> <Gold.Protein.RotatedTorsions>
[ 6907 6896 6895 6894 ] final -162.55 input  -60.11 | X-H torsion
[ 7974 7965 7964 7962 ] final   44.26 input  175.53 | X-H torsion
[ 8008 7997 7996 7995 ] final   45.29 input   59.86 | X-H torsion
[ 10167 10162 10161 10158 ] final -167.69 input  -65.29 | X-H torsion
[ 10718 10713 10712 10709 ] final  -65.33 input   66.30 | X-H torsion
[ 10763 10752 10751 10750 ] final  116.22 input  -60.55 | X-H torsion
[ 11005 11000 10999 10996 ] final    8.37 input  -57.11 | X-H torsion

> <Gold.Protein.ActiveResidues>
 VAL166  LYS551  ARG553  GLY616  TRP617  ASP618  TYR619  PRO620  LYS621  CYS622 
 ASP623  PHE694  ASN695  SER759  ASP760  ASP761  ALA762  ILE779  LEU786  VAL792 
 PHE793  MET794  SER795  GLU796  ALA797  LYS798  CYS799  TRP800  GLU811  SER814 

> <Gold.Protein.RotatedAtoms>
  151.3821  133.3817  159.2710 H   0  0  0  0  0  0  0  0  0  0  0  0  # atno 6907 bound_to 6896
  150.9569  134.8963  159.7717 H   0  0  0  0  0  0  0  0  0  0  0  0  # atno 6908 bound_to 6896
  152.5134  134.3779  159.9393 H   0  0  0  0  0  0  0  0  0  0  0  0  # atno 6909 bound_to 6896
  146.0584  139.5094  142.9674 H   0  0  0  0  0  0  0  0  0  0  0  0  # atno 7974 bound_to 7965
  155.3335  140.3404  155.4239 H   0  0  0  0  0  0  0  0  0  0  0  0  # atno 8008 bound_to 7997
  156.1849  140.1677  156.8240 H   0  0  0  0  0  0  0  0  0  0  0  0  # atno 8009 bound_to 7997
  154.5375  140.0732  156.8436 H   0  0  0  0  0  0  0  0  0  0  0  0  # atno 8010 bound_to 7997
  139.6033  144.0966  152.1766 H   0  0  0  0  0  0  0  0  0  0  0  0  # atno 10167 bound_to 10162
  156.0676  130.4246  150.1549 H   0  0  0  0  0  0  0  0  0  0  0  0  # atno 10718 bound_to 10713
  153.5340  135.3572  155.2688 H   0  0  0  0  0  0  0  0  0  0  0  0  # atno 10763 bound_to 10752
  154.8724  135.4075  154.3119 H   0  0  0  0  0  0  0  0  0  0  0  0  # atno 10764 bound_to 10752
  153.3813  135.7068  153.6631 H   0  0  0  0  0  0  0  0  0  0  0  0  # atno 10765 bound_to 10752
  140.5378  134.0404  155.7894 H   0  0  0  0  0  0  0  0  0  0  0  0  # atno 11005 bound_to 11000
  145.6604  141.0242  143.1712 LP  0  0  0  0  0  0  0  0  0  0  0  0  # atno 17320 bound_to 7965
  144.7161  139.8194  143.7398 LP  0  0  0  0  0  0  0  0  0  0  0  0  # atno 17321 bound_to 7965
  140.0567  144.5889  150.7294 LP  0  0  0  0  0  0  0  0  0  0  0  0  # atno 17342 bound_to 10162
  140.7266  143.2642  151.4100 LP  0  0  0  0  0  0  0  0  0  0  0  0  # atno 17343 bound_to 10162
  156.9606  130.9803  151.3480 LP  0  0  0  0  0  0  0  0  0  0  0  0  # atno 17370 bound_to 10713
  157.5727  130.8321  149.8413 LP  0  0  0  0  0  0  0  0  0  0  0  0  # atno 17371 bound_to 10713
  141.1245  133.9407  157.2664 LP  0  0  0  0  0  0  0  0  0  0  0  0  # atno 17394 bound_to 11000
  139.9520  135.0173  156.9021 LP  0  0  0  0  0  0  0  0  0  0  0  0  # atno 17395 bound_to 11000

$$$$
