#       Name:                AV-unprocessed.smi:3327
#       Creating user name   scv26
#       Creation time:       Fri Mar 27 19:13:49 2020


#       File generated by GOLD software.
#

@<TRIPOS>MOLECULE
AV-unprocessed.smi:3327
    44    45     1
SMALL
NO_CHARGES


@<TRIPOS>ATOM
      1 ****        -3.4281   4.1333   0.8485 C.3            1 S1                 0.0000
      2 ****        -2.8303   2.7314   1.0303 C.3            1 S1                 0.0000
      3 ****        -3.8615   1.7490   1.6272 C.3            1 S1                 0.0000
      4 ****        -3.3128   0.3117   1.7009 C.3            1 S1                 0.0000
      5 ****        -2.7308  -0.1232   0.3448 C.3            1 S1                 0.0000
      6 ****        -1.6988   0.8426  -0.0562 N.am           1 S1                 0.0000
      7 ****        -0.3665   0.5978  -0.1015 C.2            1 S1                 0.0000
      8 ****         0.4531   1.4690  -0.3981 O.2            1 S1                 0.0000
      9 ****         0.1436  -0.8128   0.2320 C.3            1 S1                 0.0000
     10 ****         1.6159  -0.9126   0.1621 N.4            1 S1                 1.0000
     11 ****         2.1485  -2.2552   0.4697 C.3            1 S1                 0.0000
     12 ****         3.6761  -2.3111   0.3072 C.3            1 S1                 0.0000
     13 ****         4.0872  -2.1657  -1.0776 N.pl3          1 S1                 0.0000
     14 ****         4.3675  -3.1547  -1.9968 C.2            1 S1                 0.0000
     15 ****         4.7035  -2.5373  -3.1675 C.2            1 S1                 0.0000
     16 ****         4.6008  -1.1516  -2.8612 C.2            1 S1                 0.0000
     17 ****         4.2284  -0.9324  -1.6102 N.2            1 S1                 0.0000
     18 ****        -2.2696   2.1751  -0.2959 C.3            1 S1                 0.0000
     19 ****        -4.2639   4.1206   0.1483 H              1 S1                 0.0000
     20 ****        -2.6831   4.8307   0.4647 H              1 S1                 0.0000
     21 ****        -3.7932   4.5302   1.7961 H              1 S1                 0.0000
     22 ****        -2.0010   2.8171   1.7343 H              1 S1                 0.0000
     23 ****        -4.1697   2.0804   2.6194 H              1 S1                 0.0000
     24 ****        -4.7609   1.7515   1.0098 H              1 S1                 0.0000
     25 ****        -2.5381   0.2538   2.4666 H              1 S1                 0.0000
     26 ****        -4.1037  -0.3734   2.0072 H              1 S1                 0.0000
     27 ****        -2.3747  -1.1499   0.4092 H              1 S1                 0.0000
     28 ****        -3.5187  -0.1373  -0.4099 H              1 S1                 0.0000
     29 ****        -0.1805  -1.0868   1.2369 H              1 S1                 0.0000
     30 ****        -0.2886  -1.5263  -0.4708 H              1 S1                 0.0000
     31 ****         1.9074  -0.6589  -0.7717 H              1 S1                 0.0000
     32 ****         1.8803  -2.5112   1.4954 H              1 S1                 0.0000
     33 ****         1.6770  -2.9957  -0.1781 H              1 S1                 0.0000
     34 ****         4.1598  -1.5390   0.9078 H              1 S1                 0.0000
     35 ****         4.0499  -3.2686   0.6721 H              1 S1                 0.0000
     36 ****         4.3045  -4.2036  -1.7452 H              1 S1                 0.0000
     37 ****         4.9824  -3.0043  -4.1005 H              1 S1                 0.0000
     38 ****         4.7827  -0.3046  -3.5063 H              1 S1                 0.0000
     39 ****        -3.0642   2.0977  -1.0398 H              1 S1                 0.0000
     40 ****        -1.5434   2.8734  -0.7145 H              1 S1                 0.0000
     41 ****         2.0146  -0.2475   0.8094 H              1 S1                 0.0000
     42 ****         0.1425   2.3942  -0.6158 LP             1 S1                 0.0000
     43 ****         1.4287   1.2506  -0.4209 LP             1 S1                 0.0000
     44 ****         4.0839  -0.0512  -1.1601 LP             1 S1                 0.0000
@<TRIPOS>BOND
    1    1    2 1     
    2    1   19 1     
    3    1   20 1     
    4    1   21 1     
    5    2   18 1     
    6    2    3 1     
    7    2   22 1     
    8    3    4 1     
    9    3   23 1     
   10    3   24 1     
   11    4    5 1     
   12    4   25 1     
   13    4   26 1     
   14    5    6 1     
   15    5   27 1     
   16    5   28 1     
   17    6    7 am    
   18    6   18 1     
   19    7    8 2     
   20    7    9 1     
   21    9   10 1     
   22    9   29 1     
   23    9   30 1     
   24   10   11 1     
   25   10   31 1     
   26   10   41 1     
   27   11   12 1     
   28   11   32 1     
   29   11   33 1     
   30   12   13 1     
   31   12   34 1     
   32   12   35 1     
   33   13   17 1     
   34   13   14 1     
   35   14   15 2     
   36   14   36 1     
   37   15   16 1     
   38   15   37 1     
   39   16   17 2     
   40   16   38 1     
   41   18   39 1     
   42   18   40 1     
   43    8   42 1     
   44    8   43 1     
   45   17   44 1     
@<TRIPOS>SUBSTRUCTURE
      1 S1             1
@<TRIPOS>SET
LONE_PAIRS      STATIC     ATOMS    <user>   **** ""
3 42 43 44
DONOR_HYDROGENS      STATIC     ATOMS    <user>   **** ""
2 31 41
ATOM$BLUE        STATIC     ATOMS    COLORGROUP SYSTEM
3 42 43 44
ATOM$RED        STATIC     ATOMS    COLORGROUP SYSTEM
2 31 41
