AV-unprocessed.smi:2433|AV-procd|sdf|9589|dock4
  -GOLD-   2272013223D 1   1.00000     0.00000
 Structure written by MMmdl.
 38 40  0  0  0  0  0  0  0  0  1 V2000
  151.5542  138.8132  158.5307 O   0  0  0  0  0  0  0  0  0  0  0  0
  151.3733  140.0193  158.3602 C   0  0  0  0  0  0  0  0  0  0  0  0
  152.1955  141.0396  159.0104 C   0  0  0  0  0  0  0  0  0  0  0  0
  151.9762  142.3571  158.7885 C   0  0  0  0  0  0  0  0  0  0  0  0
  152.8381  143.4119  159.4806 C   0  0  0  0  0  0  0  0  0  0  0  0
  152.3837  143.9081  160.8686 C   0  0  0  0  0  0  0  0  0  0  0  0
  151.6811  145.0793  160.1744 C   0  0  0  0  0  0  0  0  0  0  0  0
  152.5912  144.8393  158.9646 C   0  0  0  0  0  0  0  0  0  0  0  0
  150.9438  142.7686  157.9357 N   0  0  0  0  0  0  0  0  0  0  0  0
  150.2001  141.8864  157.3481 C   0  0  0  0  0  0  0  0  0  0  0  0
  150.3913  140.5061  157.5472 N   0  0  0  0  0  0  0  0  0  0  0  0
  149.4754  139.6075  156.8257 C   0  0  0  0  0  0  0  0  0  0  0  0
  149.4921  139.8510  155.3005 C   0  0  2  0  0  0  0  0  0  0  0  0
  150.8005  140.2238  154.9144 O   0  0  0  0  0  0  0  0  0  0  0  0
  148.4748  140.9127  154.9110 C   0  0  0  0  0  0  0  0  0  0  0  0
  148.3816  141.3369  153.5680 C   0  0  0  0  0  0  0  0  0  0  0  0
  147.4333  142.3089  153.1944 C   0  0  0  0  0  0  0  0  0  0  0  0
  146.5699  142.8597  154.1607 C   0  0  0  0  0  0  0  0  0  0  0  0
  145.6567  143.7923  153.8004 F   0  0  0  0  0  0  0  0  0  0  0  0
  146.6556  142.4384  155.5014 C   0  0  0  0  0  0  0  0  0  0  0  0
  147.6042  141.4669  155.8759 C   0  0  0  0  0  0  0  0  0  0  0  0
  152.9904  140.7320  159.6743 H   0  0  0  0  0  0  0  0  0  0  0  0
  153.8918  143.1311  159.4607 H   0  0  0  0  0  0  0  0  0  0  0  0
  151.7274  143.2517  161.4395 H   0  0  0  0  0  0  0  0  0  0  0  0
  153.2235  144.2399  161.4812 H   0  0  0  0  0  0  0  0  0  0  0  0
  150.6313  144.8738  159.9590 H   0  0  0  0  0  0  0  0  0  0  0  0
  151.8133  146.0455  160.6619 H   0  0  0  0  0  0  0  0  0  0  0  0
  153.4915  145.4553  158.9899 H   0  0  0  0  0  0  0  0  0  0  0  0
  152.0876  144.9089  157.9994 H   0  0  0  0  0  0  0  0  0  0  0  0
  149.3900  142.1552  156.6680 H   0  0  0  0  0  0  0  0  0  0  0  0
  149.7899  138.5811  157.0269 H   0  0  0  0  0  0  0  0  0  0  0  0
  148.4545  139.6564  157.2107 H   0  0  0  0  0  0  0  0  0  0  0  0
  149.2435  138.9320  154.7680 H   0  0  0  0  0  0  0  0  0  0  0  0
  151.4169  139.7421  155.4446 H   0  0  0  0  0  0  0  0  0  0  0  0
  149.0356  140.9161  152.8180 H   0  0  0  0  0  0  0  0  0  0  0  0
  147.3668  142.6299  152.1652 H   0  0  0  0  0  0  0  0  0  0  0  0
  145.9916  142.8580  156.2428 H   0  0  0  0  0  0  0  0  0  0  0  0
  147.6583  141.1459  156.9058 H   0  0  0  0  0  0  0  0  0  0  0  0
  1  2  2  0  0  0  0
  2 11  1  0  0  0  0
  2  3  1  0  0  0  0
  3  4  2  0  0  0  0
  3 22  1  0  0  0  0
  4  5  1  0  0  0  0
  4  9  1  0  0  0  0
  5  8  1  0  0  0  0
  5  6  1  0  0  0  0
  5 23  1  0  0  0  0
  6  7  1  0  0  0  0
  6 24  1  0  0  0  0
  6 25  1  0  0  0  0
  7  8  1  0  0  0  0
  7 26  1  0  0  0  0
  7 27  1  0  0  0  0
  8 28  1  0  0  0  0
  8 29  1  0  0  0  0
  9 10  2  0  0  0  0
 10 11  1  0  0  0  0
 10 30  1  0  0  0  0
 11 12  1  0  0  0  0
 12 13  1  0  0  0  0
 12 31  1  0  0  0  0
 12 32  1  0  0  0  0
 13 14  1  0  0  0  0
 13 15  1  0  0  0  0
 13 33  1  0  0  0  0
 14 34  1  0  0  0  0
 15 21  1  0  0  0  0
 15 16  2  0  0  0  0
 16 17  1  0  0  0  0
 16 35  1  0  0  0  0
 17 18  2  0  0  0  0
 17 36  1  0  0  0  0
 18 19  1  0  0  0  0
 18 20  1  0  0  0  0
 20 21  2  0  0  0  0
 20 37  1  0  0  0  0
 21 38  1  0  0  0  0
M  END
> <s_m_source_file>
AV-unprocessed.smi

> <i_m_source_file_index>
2433

> <i_lp_mmshare_version>
43012

> <i_f3d_flags>
0

> <s_epik_input>
W0NIMl0xW0NIMl1bQ0gyXVtDSF0xYyhbY0hdYzI9TyluW2NIXW4yW0NIMl1bQ0BIXShbT0hdKWMzW2NIXVtjSF1jKEYpW2NIXVtjSF0z

> <s_epik_cmdline>
J2VwaWtfcHl0aG9uJywgJy1waCcsICc3LjAnLCAnLXRuJywgJzgnLCAnLW1hJywgJzIwMCcsICctbWV0YWxfYmluZGluZycsICctaW1hZScsICc8aW5maWxlLm1hZT4nLCAnLW9tYWUnLCAnPG91dGZpbGUubWFlPic=

> <r_lp_tautomer_probability>
1

> <r_epik_Ionization_Penalty>
2.57762e-05

> <r_epik_Ionization_Penalty_Charging>
5.39435e-08

> <r_epik_Ionization_Penalty_Neutral>
2.57223e-05

> <r_epik_State_Penalty>
-0

> <r_epik_Charging_Adjusted_Penalty>
5.39435e-08

> <i_epik_Tot_Q>
0

> <i_epik_Tot_abs_Q>
0

> <r_epik_Metal_State_Penalty>
-0

> <b_epik_Metal_Only>
0

> <s_lp_Force_Field>
OPLS_2005

> <r_lp_Energy>
28.7145

> <b_lp_Chiralities_Consistent>
1

> <s_lp_Variant>
AV-unprocessed.smi:2433-1

> <Gold.Version>
5.8.1

> <Gold.Id.Protein>
6NUR|6NUR_protein|mol2

> <Gold.PLP.Fitness>
45.1891

> <Gold.PLP.PLP>
-43.4479

> <Gold.PLP.part.hbond>
-1.0000

> <Gold.PLP.part.metal>
0.0000

> <Gold.PLP.part.buried>
-7.5235

> <Gold.PLP.part.nonpolar>
-35.1395

> <Gold.PLP.part.repulsive>
0.0909

> <Gold.PLP.ligand.clash>
0.0000

> <Gold.PLP.ligand.torsion>
0.8303

> <Gold.PLP.Chemscore.Hbond>
1.0000

> <Gold.PLP.Chemscore.CHOScore>
0.0000

> <Gold.PLP.Chemscore.Metal>
0.0000

> <Gold.Chemscore.Hbonds>
donor molecule, donor type, donor heavy atom, donor atom, acceptor molecule, acceptor atom, score
      P1  H  7989  7998       L1    14  1.00
      L1  C    10    30       P1  8028  0.30

> <Gold.PLP.Chemscore.Internal.Correction>
0.4019

> <Gold.Rescore>
     Score         DG    S(hbond)    S(metal)    S(lipo)     H(rot)  DE(clash)    DE(int)     intcor
     13.08     -15.47       0.83        0.00     108.52       2.14       0.28       2.10       ----

> <Gold.Chemscore.Fitness>
13.0842

> <Gold.Chemscore.DG>
-15.4662

> <Gold.Chemscore.ZeroCoef>
-5.4800

> <Gold.Chemscore.Hbond>
0.8264

> <Gold.Chemscore.Metal>
0.0000

> <Gold.Chemscore.Lipo>
108.5195

> <Gold.Chemscore.Internal_Hbond>
0.0000

> <Gold.Chemscore.DEClash>
0.2778

> <Gold.Chemscore.DEInternal>
2.1041

> <Gold.Chemscore.Rot>
2.1370

> <Gold.Chemscore.Internal.Correction>
   9.000000E+99

> <Gold.Chemscore.Hbonds>
donor molecule, donor type, donor heavy atom, donor atom, acceptor molecule, acceptor atom, score
      P1  H  7989  7998       L1    14  0.70

> <Gold.Chemscore.Hbond.Weighted>
-2.7601

> <Gold.Chemscore.Metal.Weighted>
-0.0000

> <Gold.Chemscore.Lipo.Weighted>
-12.6968

> <Gold.Chemscore.Internal_Hbond.Weighted>
0.0000

> <Gold.Chemscore.DEClash.Weighted>
0.2778

> <Gold.Chemscore.DEInternal.Weighted>
2.1041

> <Gold.Chemscore.Rot.Weighted>
5.4707

> <Gold.Chemscore.Internal.Correction.Weighted>
   9.000000E+99

> <Gold.Protein.RotatedTorsions>
[ 6907 6896 6895 6894 ] final   -2.77 input  -60.11 | X-H torsion
[ 7974 7965 7964 7962 ] final  163.15 input  175.53 | X-H torsion
[ 8008 7997 7996 7995 ] final -148.30 input   59.86 | X-H torsion
[ 10167 10162 10161 10158 ] final  -70.71 input  -65.29 | X-H torsion
[ 10718 10713 10712 10709 ] final  162.02 input   66.30 | X-H torsion
[ 10763 10752 10751 10750 ] final  122.94 input  -60.55 | X-H torsion
[ 11005 11000 10999 10996 ] final  -89.97 input  -57.11 | X-H torsion

> <Gold.Protein.ActiveResidues>
 VAL166  LYS551  ARG553  GLY616  TRP617  ASP618  TYR619  PRO620  LYS621  CYS622 
 ASP623  PHE694  ASN695  SER759  ASP760  ASP761  ALA762  ILE779  LEU786  VAL792 
 PHE793  MET794  SER795  GLU796  ALA797  LYS798  CYS799  TRP800  GLU811  SER814 

> <Gold.Protein.RotatedAtoms>
  151.5245  135.1067  159.9886 H   0  0  0  0  0  0  0  0  0  0  0  0  # atno 6907 bound_to 6896
  152.4606  133.7810  159.6861 H   0  0  0  0  0  0  0  0  0  0  0  0  # atno 6908 bound_to 6896
  150.8567  133.7640  159.3031 H   0  0  0  0  0  0  0  0  0  0  0  0  # atno 6909 bound_to 6896
  144.7603  139.8141  143.6335 H   0  0  0  0  0  0  0  0  0  0  0  0  # atno 7974 bound_to 7965
  155.5894  140.0651  157.2762 H   0  0  0  0  0  0  0  0  0  0  0  0  # atno 8008 bound_to 7997
  154.4309  140.1838  156.1106 H   0  0  0  0  0  0  0  0  0  0  0  0  # atno 8009 bound_to 7997
  156.0244  140.3313  155.7076 H   0  0  0  0  0  0  0  0  0  0  0  0  # atno 8010 bound_to 7997
  140.5331  143.2320  151.7226 H   0  0  0  0  0  0  0  0  0  0  0  0  # atno 10167 bound_to 10162
  157.1284  131.0510  151.2383 H   0  0  0  0  0  0  0  0  0  0  0  0  # atno 10718 bound_to 10713
  153.6377  135.3385  155.3062 H   0  0  0  0  0  0  0  0  0  0  0  0  # atno 10763 bound_to 10752
  154.8566  135.4311  154.2038 H   0  0  0  0  0  0  0  0  0  0  0  0  # atno 10764 bound_to 10752
  153.2949  135.7020  153.7332 H   0  0  0  0  0  0  0  0  0  0  0  0  # atno 10765 bound_to 10752
  141.1575  133.7663  156.9671 H   0  0  0  0  0  0  0  0  0  0  0  0  # atno 11005 bound_to 11000
  146.1659  139.4790  142.9958 LP  0  0  0  0  0  0  0  0  0  0  0  0  # atno 17320 bound_to 7965
  145.6641  141.0233  143.1693 LP  0  0  0  0  0  0  0  0  0  0  0  0  # atno 17321 bound_to 7965
  139.4961  144.4084  152.0107 LP  0  0  0  0  0  0  0  0  0  0  0  0  # atno 17342 bound_to 10162
  140.3187  144.3453  150.6015 LP  0  0  0  0  0  0  0  0  0  0  0  0  # atno 17343 bound_to 10162
  157.4414  130.7546  149.7073 LP  0  0  0  0  0  0  0  0  0  0  0  0  # atno 17370 bound_to 10713
  155.9813  130.4020  150.3478 LP  0  0  0  0  0  0  0  0  0  0  0  0  # atno 17371 bound_to 10713
  140.1154  134.9450  157.2126 LP  0  0  0  0  0  0  0  0  0  0  0  0  # atno 17394 bound_to 11000
  140.3140  134.2992  155.7260 LP  0  0  0  0  0  0  0  0  0  0  0  0  # atno 17395 bound_to 11000

$$$$
