AV-unprocessed.smi:716|AV-procd|sdf|3488|dock9
  -GOLD-   22720 0483D 1   1.00000     0.00000
 Structure written by MMmdl.
 48 50  0  0  0  0  0  0  0  0  1 V2000
  146.9809  141.3032  153.6399 C   0  0  0  0  0  0  0  0  0  0  0  0
  147.4255  139.8439  153.7578 C   0  0  0  0  0  0  0  0  0  0  0  0
  148.5059  139.7682  154.6719 O   0  0  0  0  0  0  0  0  0  0  0  0
  148.8385  138.4348  155.0250 C   0  0  2  0  0  0  0  0  0  0  0  0
  147.8544  137.7663  155.9901 C   0  0  0  0  0  0  0  0  0  0  0  0
  149.0857  137.1260  156.6326 C   0  0  2  0  0  0  0  0  0  0  0  0
  148.9633  137.0165  158.0815 N   0  0  0  0  0  0  0  0  0  0  0  0
  148.9383  135.8594  158.7577 C   0  0  0  0  0  0  0  0  0  0  0  0
  149.0316  134.7579  158.2143 O   0  0  0  0  0  0  0  0  0  0  0  0
  148.8134  135.9733  160.2836 C   0  0  0  0  0  0  0  0  0  0  0  0
  147.7671  135.1072  160.8454 N   0  0  0  0  0  0  0  0  0  0  0  0
  147.8484  133.7837  160.4447 N   0  0  0  0  0  0  0  0  0  0  0  0
  146.9898  132.9091  160.8562 C   0  0  0  0  0  0  0  0  0  0  0  0
  147.1481  131.4982  160.3731 C   0  0  0  0  0  0  0  0  0  0  0  0
  145.9259  133.3187  161.7530 C   0  0  0  0  0  0  0  0  0  0  0  0
  145.8521  134.6081  162.1465 C   0  0  0  0  0  0  0  0  0  0  0  0
  146.8177  135.6061  161.6922 C   0  0  0  0  0  0  0  0  0  0  0  0
  146.7828  136.7865  162.0394 O   0  0  0  0  0  0  0  0  0  0  0  0
  149.9151  138.3378  156.1350 C   0  0  0  0  0  0  0  0  0  0  0  0
  150.0933  139.5582  157.0482 C   0  0  0  0  0  0  0  0  0  0  0  0
  151.1895  140.4211  156.4187 C   0  0  0  0  0  0  0  0  0  0  0  0
  152.0237  139.4649  155.5592 C   0  0  0  0  0  0  0  0  0  0  0  0
  151.3503  138.0940  155.6817 C   0  0  0  0  0  0  0  0  0  0  0  0
  146.1505  141.4021  152.9407 H   0  0  0  0  0  0  0  0  0  0  0  0
  147.7960  141.9330  153.2830 H   0  0  0  0  0  0  0  0  0  0  0  0
  146.6544  141.6916  154.6050 H   0  0  0  0  0  0  0  0  0  0  0  0
  146.5922  139.2296  154.1014 H   0  0  0  0  0  0  0  0  0  0  0  0
  147.7336  139.4678  152.7813 H   0  0  0  0  0  0  0  0  0  0  0  0
  149.0747  137.8075  154.1622 H   0  0  0  0  0  0  0  0  0  0  0  0
  147.3374  138.4777  156.6368 H   0  0  0  0  0  0  0  0  0  0  0  0
  147.1636  137.0635  155.5238 H   0  0  0  0  0  0  0  0  0  0  0  0
  149.3626  136.1941  156.1330 H   0  0  0  0  0  0  0  0  0  0  0  0
  148.8883  137.8775  158.6035 H   0  0  0  0  0  0  0  0  0  0  0  0
  149.7841  135.7277  160.7181 H   0  0  0  0  0  0  0  0  0  0  0  0
  148.6221  137.0113  160.5631 H   0  0  0  0  0  0  0  0  0  0  0  0
  146.4160  130.8375  160.8382 H   0  0  0  0  0  0  0  0  0  0  0  0
  148.1407  131.1147  160.6098 H   0  0  0  0  0  0  0  0  0  0  0  0
  147.0112  131.4411  159.2929 H   0  0  0  0  0  0  0  0  0  0  0  0
  145.2041  132.5929  162.0979 H   0  0  0  0  0  0  0  0  0  0  0  0
  145.0594  134.9120  162.8139 H   0  0  0  0  0  0  0  0  0  0  0  0
  149.1717  140.1237  157.1895 H   0  0  0  0  0  0  0  0  0  0  0  0
  150.4255  139.2479  158.0394 H   0  0  0  0  0  0  0  0  0  0  0  0
  150.7443  141.1910  155.7873 H   0  0  0  0  0  0  0  0  0  0  0  0
  151.7902  140.9249  157.1764 H   0  0  0  0  0  0  0  0  0  0  0  0
  152.0160  139.7993  154.5211 H   0  0  0  0  0  0  0  0  0  0  0  0
  153.0638  139.4258  155.8836 H   0  0  0  0  0  0  0  0  0  0  0  0
  151.8769  137.4977  156.4281 H   0  0  0  0  0  0  0  0  0  0  0  0
  151.4040  137.5400  154.7442 H   0  0  0  0  0  0  0  0  0  0  0  0
  1  2  1  0  0  0  0
  1 24  1  0  0  0  0
  1 25  1  0  0  0  0
  1 26  1  0  0  0  0
  2  3  1  0  0  0  0
  2 27  1  0  0  0  0
  2 28  1  0  0  0  0
  3  4  1  0  0  0  0
  4 19  1  0  0  0  0
  4  5  1  0  0  0  0
  4 29  1  0  0  0  0
  5  6  1  0  0  0  0
  5 30  1  0  0  0  0
  5 31  1  0  0  0  0
  6  7  1  0  0  0  0
  6 19  1  0  0  0  0
  6 32  1  0  0  0  0
  7  8  1  0  0  0  0
  7 33  1  0  0  0  0
  8  9  2  0  0  0  0
  8 10  1  0  0  0  0
 10 11  1  0  0  0  0
 10 34  1  0  0  0  0
 10 35  1  0  0  0  0
 11 17  1  0  0  0  0
 11 12  1  0  0  0  0
 12 13  2  0  0  0  0
 13 14  1  0  0  0  0
 13 15  1  0  0  0  0
 14 36  1  0  0  0  0
 14 37  1  0  0  0  0
 14 38  1  0  0  0  0
 15 16  2  0  0  0  0
 15 39  1  0  0  0  0
 16 17  1  0  0  0  0
 16 40  1  0  0  0  0
 17 18  2  0  0  0  0
 19 23  1  0  0  0  0
 19 20  1  0  0  0  0
 20 21  1  0  0  0  0
 20 41  1  0  0  0  0
 20 42  1  0  0  0  0
 21 22  1  0  0  0  0
 21 43  1  0  0  0  0
 21 44  1  0  0  0  0
 22 23  1  0  0  0  0
 22 45  1  0  0  0  0
 22 46  1  0  0  0  0
 23 47  1  0  0  0  0
 23 48  1  0  0  0  0
M  END
> <s_m_source_file>
AV-unprocessed.smi

> <i_m_source_file_index>
716

> <i_lp_mmshare_version>
43012

> <i_f3d_flags>
0

> <s_epik_input>
W0NIMl0xW0NIMl1bQ0gyXVtDSDJdQzEyW0NASF0oT1tDSDJdW0NIM10pW0NIMl1bQ0BIXTJbTkhdQyg9TylbQ0gyXW4zbmMoW0NIM10pW2NIXVtjSF1jMz1P

> <s_epik_cmdline>
J2VwaWtfcHl0aG9uJywgJy1waCcsICc3LjAnLCAnLXRuJywgJzgnLCAnLW1hJywgJzIwMCcsICctbWV0YWxfYmluZGluZycsICctaW1hZScsICc8aW5maWxlLm1hZT4nLCAnLW9tYWUnLCAnPG91dGZpbGUubWFlPic=

> <r_lp_tautomer_probability>
1

> <r_epik_Ionization_Penalty>
4.75561e-08

> <r_epik_Ionization_Penalty_Charging>
2.86617e-08

> <r_epik_Ionization_Penalty_Neutral>
1.88944e-08

> <r_epik_State_Penalty>
-0

> <r_epik_Charging_Adjusted_Penalty>
2.86617e-08

> <i_epik_Tot_Q>
0

> <i_epik_Tot_abs_Q>
0

> <r_epik_Metal_State_Penalty>
-0

> <b_epik_Metal_Only>
0

> <s_lp_Force_Field>
OPLS_2005

> <r_lp_Energy>
50.3273

> <b_lp_Chiralities_Consistent>
1

> <s_lp_Variant>
AV-unprocessed.smi:716-3

> <Gold.Version>
5.8.1

> <Gold.Id.Protein>
6NUR|6NUR_protein|mol2

> <Gold.PLP.Fitness>
39.9233

> <Gold.PLP.PLP>
-33.8340

> <Gold.PLP.part.hbond>
-3.0000

> <Gold.PLP.part.metal>
0.0000

> <Gold.PLP.part.buried>
-3.1097

> <Gold.PLP.part.nonpolar>
-27.8275

> <Gold.PLP.part.repulsive>
0.2085

> <Gold.PLP.ligand.clash>
0.0000

> <Gold.PLP.ligand.torsion>
0.4426

> <Gold.PLP.Chemscore.Hbond>
2.2103

> <Gold.PLP.Chemscore.CHOScore>
0.0000

> <Gold.PLP.Chemscore.Metal>
0.0000

> <Gold.Chemscore.Hbonds>
donor molecule, donor type, donor heavy atom, donor atom, acceptor molecule, acceptor atom, score
      P1  H  6896  6909       L1     9  0.32

> <Gold.PLP.Chemscore.Internal.Correction>
0.3436

> <Gold.Rescore>
     Score         DG    S(hbond)    S(metal)    S(lipo)     H(rot)  DE(clash)    DE(int)     intcor
     13.98     -15.59       1.62        0.00      78.24       1.73       0.03       1.59       ----

> <Gold.Chemscore.Fitness>
13.9761

> <Gold.Chemscore.DG>
-15.5939

> <Gold.Chemscore.ZeroCoef>
-5.4800

> <Gold.Chemscore.Hbond>
1.6172

> <Gold.Chemscore.Metal>
0.0000

> <Gold.Chemscore.Lipo>
78.2350

> <Gold.Chemscore.Internal_Hbond>
0.0000

> <Gold.Chemscore.DEClash>
0.0287

> <Gold.Chemscore.DEInternal>
1.5891

> <Gold.Chemscore.Rot>
1.7348

> <Gold.Chemscore.Internal.Correction>
   9.000000E+99

> <Gold.Chemscore.Hbonds>
donor molecule, donor type, donor heavy atom, donor atom, acceptor molecule, acceptor atom, score
      P1  H  6896  6909       L1     9  0.01
      P1  H  6934  6947       L1    18  0.01

> <Gold.Chemscore.Hbond.Weighted>
-5.4015

> <Gold.Chemscore.Metal.Weighted>
-0.0000

> <Gold.Chemscore.Lipo.Weighted>
-9.1535

> <Gold.Chemscore.Internal_Hbond.Weighted>
0.0000

> <Gold.Chemscore.DEClash.Weighted>
0.0287

> <Gold.Chemscore.DEInternal.Weighted>
1.5891

> <Gold.Chemscore.Rot.Weighted>
4.4411

> <Gold.Chemscore.Internal.Correction.Weighted>
   9.000000E+99

> <Gold.Protein.RotatedTorsions>
[ 6907 6896 6895 6894 ] final   38.22 input  -60.11 | X-H torsion
[ 7974 7965 7964 7962 ] final  -72.52 input  175.53 | X-H torsion
[ 8008 7997 7996 7995 ] final   96.73 input   59.86 | X-H torsion
[ 10167 10162 10161 10158 ] final  -78.59 input  -65.29 | X-H torsion
[ 10718 10713 10712 10709 ] final  -89.50 input   66.30 | X-H torsion
[ 10763 10752 10751 10750 ] final -139.71 input  -60.55 | X-H torsion
[ 11005 11000 10999 10996 ] final  -45.63 input  -57.11 | X-H torsion

> <Gold.Protein.ActiveResidues>
 VAL166  LYS551  ARG553  GLY616  TRP617  ASP618  TYR619  PRO620  LYS621  CYS622 
 ASP623  PHE694  ASN695  SER759  ASP760  ASP761  ALA762  ILE779  LEU786  VAL792 
 PHE793  MET794  SER795  GLU796  ALA797  LYS798  CYS799  TRP800  GLU811  SER814 

> <Gold.Protein.RotatedAtoms>
  152.1535  134.8969  160.0546 H   0  0  0  0  0  0  0  0  0  0  0  0  # atno 6907 bound_to 6896
  151.9992  133.3814  159.4183 H   0  0  0  0  0  0  0  0  0  0  0  0  # atno 6908 bound_to 6896
  150.6878  134.3775  159.5063 H   0  0  0  0  0  0  0  0  0  0  0  0  # atno 6909 bound_to 6896
  145.6640  140.9243  143.0918 H   0  0  0  0  0  0  0  0  0  0  0  0  # atno 7974 bound_to 7965
  156.0827  140.3268  155.7714 H   0  0  0  0  0  0  0  0  0  0  0  0  # atno 8008 bound_to 7997
  155.5126  140.0578  157.2938 H   0  0  0  0  0  0  0  0  0  0  0  0  # atno 8009 bound_to 7997
  154.4591  140.1958  156.0311 H   0  0  0  0  0  0  0  0  0  0  0  0  # atno 8010 bound_to 7997
  140.4669  143.2437  151.8264 H   0  0  0  0  0  0  0  0  0  0  0  0  # atno 10167 bound_to 10162
  155.9984  130.4874  150.5181 H   0  0  0  0  0  0  0  0  0  0  0  0  # atno 10718 bound_to 10713
  154.8601  135.3574  154.5590 H   0  0  0  0  0  0  0  0  0  0  0  0  # atno 10763 bound_to 10752
  153.6205  135.7006  153.5317 H   0  0  0  0  0  0  0  0  0  0  0  0  # atno 10764 bound_to 10752
  153.3132  135.4172  155.1314 H   0  0  0  0  0  0  0  0  0  0  0  0  # atno 10765 bound_to 10752
  141.0528  133.6737  156.3040 H   0  0  0  0  0  0  0  0  0  0  0  0  # atno 11005 bound_to 11000
  144.7079  139.8486  143.7424 LP  0  0  0  0  0  0  0  0  0  0  0  0  # atno 17320 bound_to 7965
  146.1101  139.4105  143.0293 LP  0  0  0  0  0  0  0  0  0  0  0  0  # atno 17321 bound_to 7965
  139.4813  144.4940  151.9148 LP  0  0  0  0  0  0  0  0  0  0  0  0  # atno 17342 bound_to 10162
  140.4025  144.2474  150.5892 LP  0  0  0  0  0  0  0  0  0  0  0  0  # atno 17343 bound_to 10162
  157.3145  131.0670  151.1976 LP  0  0  0  0  0  0  0  0  0  0  0  0  # atno 17370 bound_to 10713
  157.2911  130.6796  149.6114 LP  0  0  0  0  0  0  0  0  0  0  0  0  # atno 17371 bound_to 10713
  140.6023  134.5542  157.5519 LP  0  0  0  0  0  0  0  0  0  0  0  0  # atno 17394 bound_to 11000
  139.9364  134.7867  156.0791 LP  0  0  0  0  0  0  0  0  0  0  0  0  # atno 17395 bound_to 11000

$$$$
