AV-unprocessed.smi:2424|AV-procd|sdf|9572|dock5
  -GOLD-   2272013203D 1   1.00000     0.00000
 Structure written by MMmdl.
 49 50  0  0  0  0  0  0  0  0  2 V2000
  142.9454  134.8648  152.7630 C   0  0  0  0  0  0  0  0  0  0  0  0
  144.2300  134.8398  153.6093 C   0  0  0  0  0  0  0  0  0  0  0  0
  145.5006  134.2604  152.9406 C   0  0  0  0  0  0  0  0  0  0  0  0
  145.7638  135.1056  151.6609 C   0  0  0  0  0  0  0  0  0  0  0  0
  145.5912  136.6305  151.7984 C   0  0  0  0  0  0  0  0  0  0  0  0
  146.7394  134.0293  153.8596 C   0  0  2  0  0  0  0  0  0  0  0  0
  147.7942  135.0304  153.7385 N   0  0  0  0  0  0  0  0  0  0  0  0
  148.3533  135.6714  154.7733 C   0  0  0  0  0  0  0  0  0  0  0  0
  148.0320  135.4679  155.9437 O   0  0  0  0  0  0  0  0  0  0  0  0
  149.2827  136.5449  154.3476 N   0  0  0  0  0  0  0  0  0  0  0  0
  150.0857  137.4083  155.1038 C   0  0  0  0  0  0  0  0  0  0  0  0
  150.6669  138.5122  154.5137 C   0  0  0  0  0  0  0  0  0  0  0  0
  151.4648  139.4492  155.0701 N   0  5  0  0  0  0  0  0  0  0  0  0
  151.7669  139.3315  156.3949 C   0  0  0  0  0  0  0  0  0  0  0  0
  152.4883  140.1460  156.9693 O   0  0  0  0  0  0  0  0  0  0  0  0
  151.2094  138.1939  157.1541 C   0  0  0  0  0  0  0  0  0  0  0  0
  151.5459  138.0671  158.6303 C   0  0  0  0  0  0  0  0  0  0  0  0
  150.4143  137.2926  156.5247 C   0  0  0  0  0  0  0  0  0  0  0  0
  147.0593  132.7438  153.0899 C   0  0  1  0  0  0  0  0  0  0  0  0
  147.7071  131.5868  153.8400 C   0  0  0  0  0  0  0  0  0  0  0  0
  145.5542  132.7139  152.7782 C   0  0  2  0  0  0  0  0  0  0  0  0
  145.2327  132.2663  151.4706 O   0  0  0  0  0  0  0  0  0  0  0  0
  145.2534  130.8564  151.3345 C   0  0  0  0  0  0  0  0  0  0  0  0
  142.1484  135.3755  153.3035 H   0  0  0  0  0  0  0  0  0  0  0  0
  142.5839  133.8595  152.5471 H   0  0  0  0  0  0  0  0  0  0  0  0
  143.0823  135.3912  151.8193 H   0  0  0  0  0  0  0  0  0  0  0  0
  144.4239  135.8662  153.9213 H   0  0  0  0  0  0  0  0  0  0  0  0
  144.0062  134.2893  154.5241 H   0  0  0  0  0  0  0  0  0  0  0  0
  146.7762  134.9221  151.2998 H   0  0  0  0  0  0  0  0  0  0  0  0
  145.1139  134.7762  150.8505 H   0  0  0  0  0  0  0  0  0  0  0  0
  145.7200  137.1121  150.8290 H   0  0  0  0  0  0  0  0  0  0  0  0
  146.3333  137.0655  152.4674 H   0  0  0  0  0  0  0  0  0  0  0  0
  144.6051  136.9076  152.1666 H   0  0  0  0  0  0  0  0  0  0  0  0
  146.4935  133.7896  154.8950 H   0  0  0  0  0  0  0  0  0  0  0  0
  148.1127  135.2542  152.8072 H   0  0  0  0  0  0  0  0  0  0  0  0
  149.4289  136.5964  153.3500 H   0  0  0  0  0  0  0  0  0  0  0  0
  150.4609  138.6647  153.4323 H   0  0  0  0  0  0  0  0  0  0  0  0
  151.0704  137.1916  159.0736 H   0  0  0  0  0  0  0  0  0  0  0  0
  151.2051  138.9477  159.1758 H   0  0  0  0  0  0  0  0  0  0  0  0
  152.6234  137.9716  158.7683 H   0  0  0  0  0  0  0  0  0  0  0  0
  150.0259  136.4763  157.1115 H   0  0  0  0  0  0  0  0  0  0  0  0
  147.6201  132.9738  152.1821 H   0  0  0  0  0  0  0  0  0  0  0  0
  147.1074  131.2820  154.6979 H   0  0  0  0  0  0  0  0  0  0  0  0
  148.6935  131.8651  154.2111 H   0  0  0  0  0  0  0  0  0  0  0  0
  147.8338  130.7151  153.1990 H   0  0  0  0  0  0  0  0  0  0  0  0
  144.9809  132.1929  153.5471 H   0  0  0  0  0  0  0  0  0  0  0  0
  144.9407  130.5845  150.3264 H   0  0  0  0  0  0  0  0  0  0  0  0
  144.5694  130.3801  152.0379 H   0  0  0  0  0  0  0  0  0  0  0  0
  146.2544  130.4560  151.4905 H   0  0  0  0  0  0  0  0  0  0  0  0
  1  2  1  0  0  0  0
  1 24  1  0  0  0  0
  1 25  1  0  0  0  0
  1 26  1  0  0  0  0
  2  3  1  0  0  0  0
  2 27  1  0  0  0  0
  2 28  1  0  0  0  0
  3 21  1  0  0  0  0
  3  4  1  0  0  0  0
  3  6  1  0  0  0  0
  4  5  1  0  0  0  0
  4 29  1  0  0  0  0
  4 30  1  0  0  0  0
  5 31  1  0  0  0  0
  5 32  1  0  0  0  0
  5 33  1  0  0  0  0
  6  7  1  0  0  0  0
  6 19  1  0  0  0  0
  6 34  1  0  0  0  0
  7  8  1  0  0  0  0
  7 35  1  0  0  0  0
  8  9  2  0  0  0  0
  8 10  1  0  0  0  0
 10 11  1  0  0  0  0
 10 36  1  0  0  0  0
 11 18  1  0  0  0  0
 11 12  2  0  0  0  0
 12 13  1  0  0  0  0
 12 37  1  0  0  0  0
 13 14  1  0  0  0  0
 14 15  2  0  0  0  0
 14 16  1  0  0  0  0
 16 17  1  0  0  0  0
 16 18  2  0  0  0  0
 17 38  1  0  0  0  0
 17 39  1  0  0  0  0
 17 40  1  0  0  0  0
 18 41  1  0  0  0  0
 19 20  1  0  0  0  0
 19 21  1  0  0  0  0
 19 42  1  0  0  0  0
 20 43  1  0  0  0  0
 20 44  1  0  0  0  0
 20 45  1  0  0  0  0
 21 22  1  0  0  0  0
 21 46  1  0  0  0  0
 22 23  1  0  0  0  0
 23 47  1  0  0  0  0
 23 48  1  0  0  0  0
 23 49  1  0  0  0  0
M  CHG  1  13  -1
M  END
> <s_m_source_file>
AV-unprocessed.smi

> <i_m_source_file_index>
2424

> <i_lp_mmshare_version>
43012

> <i_f3d_flags>
0

> <s_epik_input>
W0NIM11PW0NAQEhdMVtDQEhdKFtDSDNdKVtDQEBIXShDMShbQ0gyXVtDSDNdKVtDSDJdW0NIM10pW05IXUMoPU8pW05IXWMyW2NIXVtuSF1jKD1PKWMoW0NIM10pW2NIXTI=

> <s_epik_cmdline>
J2VwaWtfcHl0aG9uJywgJy1waCcsICc3LjAnLCAnLXRuJywgJzgnLCAnLW1hJywgJzIwMCcsICctbWV0YWxfYmluZGluZycsICctaW1hZScsICc8aW5maWxlLm1hZT4nLCAnLW9tYWUnLCAnPG91dGZpbGUubWFlPic=

> <r_lp_tautomer_probability>
1

> <r_epik_Ionization_Penalty>
7.6122

> <r_epik_Ionization_Penalty_Charging>
1.53843

> <r_epik_Ionization_Penalty_Neutral>
6.07377

> <r_epik_State_Penalty>
6.07371

> <r_epik_Charging_Adjusted_Penalty>
7.61214

> <i_epik_Tot_Q>
-1

> <i_epik_Tot_abs_Q>
1

> <r_epik_Metal_State_Penalty>
2.02136

> <b_epik_Metal_Only>
1

> <s_lp_Force_Field>
OPLS_2005

> <r_lp_Energy>
40.6297

> <b_lp_Chiralities_Consistent>
1

> <s_lp_Variant>
AV-unprocessed.smi:2424-14

> <Gold.Version>
5.8.1

> <Gold.Id.Protein>
6NUR|6NUR_protein|mol2

> <Gold.PLP.Fitness>
38.7492

> <Gold.PLP.PLP>
-27.5043

> <Gold.PLP.part.hbond>
-3.5432

> <Gold.PLP.part.metal>
0.0000

> <Gold.PLP.part.buried>
-2.2830

> <Gold.PLP.part.nonpolar>
-20.9799

> <Gold.PLP.part.repulsive>
0.2010

> <Gold.PLP.ligand.clash>
0.0000

> <Gold.PLP.ligand.torsion>
0.6104

> <Gold.PLP.Chemscore.Hbond>
3.9673

> <Gold.PLP.Chemscore.CHOScore>
0.0000

> <Gold.PLP.Chemscore.Metal>
0.0000

> <Gold.Chemscore.Hbonds>
donor molecule, donor type, donor heavy atom, donor atom, acceptor molecule, acceptor atom, score
      L1  H     7    35       P1  7948  0.99
      L1  H    10    36       P1  7948  1.00
      P1  H  7989  7998       L1    13  0.78
      P1  H  7997  8009       L1    15  1.00

> <Gold.PLP.Chemscore.Internal.Correction>
0.5638

> <Gold.Rescore>
     Score         DG    S(hbond)    S(metal)    S(lipo)     H(rot)  DE(clash)    DE(int)     intcor
     18.97     -20.11       3.03        0.00      71.72       1.52       0.50       0.64       ----

> <Gold.Chemscore.Fitness>
18.9663

> <Gold.Chemscore.DG>
-20.1077

> <Gold.Chemscore.ZeroCoef>
-5.4800

> <Gold.Chemscore.Hbond>
3.0324

> <Gold.Chemscore.Metal>
0.0000

> <Gold.Chemscore.Lipo>
71.7230

> <Gold.Chemscore.Internal_Hbond>
0.0000

> <Gold.Chemscore.DEClash>
0.4966

> <Gold.Chemscore.DEInternal>
0.6449

> <Gold.Chemscore.Rot>
1.5204

> <Gold.Chemscore.Internal.Correction>
   9.000000E+99

> <Gold.Chemscore.Hbonds>
donor molecule, donor type, donor heavy atom, donor atom, acceptor molecule, acceptor atom, score
      L1  H     7    35       P1  7948  0.89
      L1  H    10    36       P1  7948  0.73
      P1  H  7989  7998       L1    13  0.27
      P1  H  7997  8009       L1    15  0.90

> <Gold.Chemscore.Hbond.Weighted>
-10.1284

> <Gold.Chemscore.Metal.Weighted>
-0.0000

> <Gold.Chemscore.Lipo.Weighted>
-8.3916

> <Gold.Chemscore.Internal_Hbond.Weighted>
0.0000

> <Gold.Chemscore.DEClash.Weighted>
0.4966

> <Gold.Chemscore.DEInternal.Weighted>
0.6449

> <Gold.Chemscore.Rot.Weighted>
3.8922

> <Gold.Chemscore.Internal.Correction.Weighted>
   9.000000E+99

> <Gold.Protein.RotatedTorsions>
[ 6907 6896 6895 6894 ] final -109.51 input  -60.11 | X-H torsion
[ 7974 7965 7964 7962 ] final  -53.93 input  175.53 | X-H torsion
[ 8008 7997 7996 7995 ] final -169.34 input   59.86 | X-H torsion
[ 10167 10162 10161 10158 ] final -172.58 input  -65.29 | X-H torsion
[ 10718 10713 10712 10709 ] final  -86.98 input   66.30 | X-H torsion
[ 10763 10752 10751 10750 ] final  173.53 input  -60.55 | X-H torsion
[ 11005 11000 10999 10996 ] final  -20.23 input  -57.11 | X-H torsion

> <Gold.Protein.ActiveResidues>
 VAL166  LYS551  ARG553  GLY616  TRP617  ASP618  TYR619  PRO620  LYS621  CYS622 
 ASP623  PHE694  ASN695  SER759  ASP760  ASP761  ALA762  ILE779  LEU786  VAL792 
 PHE793  MET794  SER795  GLU796  ALA797  LYS798  CYS799  TRP800  GLU811  SER814 

> <Gold.Protein.RotatedAtoms>
  150.7566  133.9519  159.3488 H   0  0  0  0  0  0  0  0  0  0  0  0  # atno 6907 bound_to 6896
  151.7437  135.0846  160.0329 H   0  0  0  0  0  0  0  0  0  0  0  0  # atno 6908 bound_to 6896
  152.3512  133.6144  159.5982 H   0  0  0  0  0  0  0  0  0  0  0  0  # atno 6909 bound_to 6896
  145.8913  140.8068  142.9790 H   0  0  0  0  0  0  0  0  0  0  0  0  # atno 7974 bound_to 7965
  155.9036  140.1045  157.1332 H   0  0  0  0  0  0  0  0  0  0  0  0  # atno 8008 bound_to 7997
  154.4029  140.1288  156.4532 H   0  0  0  0  0  0  0  0  0  0  0  0  # atno 8009 bound_to 7997
  155.7393  140.3467  155.5099 H   0  0  0  0  0  0  0  0  0  0  0  0  # atno 8010 bound_to 7997
  139.5736  144.1584  152.1419 H   0  0  0  0  0  0  0  0  0  0  0  0  # atno 10167 bound_to 10162
  155.9987  130.4784  150.4797 H   0  0  0  0  0  0  0  0  0  0  0  0  # atno 10718 bound_to 10713
  154.4413  135.2762  155.1846 H   0  0  0  0  0  0  0  0  0  0  0  0  # atno 10763 bound_to 10752
  154.3711  135.6108  153.5744 H   0  0  0  0  0  0  0  0  0  0  0  0  # atno 10764 bound_to 10752
  152.9841  135.5857  154.4741 H   0  0  0  0  0  0  0  0  0  0  0  0  # atno 10765 bound_to 10752
  140.8444  133.7902  155.9896 H   0  0  0  0  0  0  0  0  0  0  0  0  # atno 11005 bound_to 11000
  144.6730  140.1534  143.7428 LP  0  0  0  0  0  0  0  0  0  0  0  0  # atno 17320 bound_to 7965
  145.8904  139.2373  143.1552 LP  0  0  0  0  0  0  0  0  0  0  0  0  # atno 17321 bound_to 7965
  140.1122  144.5447  150.6917 LP  0  0  0  0  0  0  0  0  0  0  0  0  # atno 17342 bound_to 10162
  140.7020  143.2441  151.4837 LP  0  0  0  0  0  0  0  0  0  0  0  0  # atno 17343 bound_to 10162
  157.2803  131.0605  151.2202 LP  0  0  0  0  0  0  0  0  0  0  0  0  # atno 17370 bound_to 10713
  157.3250  130.6956  149.6291 LP  0  0  0  0  0  0  0  0  0  0  0  0  # atno 17371 bound_to 10713
  140.8860  134.2554  157.5120 LP  0  0  0  0  0  0  0  0  0  0  0  0  # atno 17394 bound_to 11000
  139.8703  134.9638  156.4474 LP  0  0  0  0  0  0  0  0  0  0  0  0  # atno 17395 bound_to 11000

$$$$
