AV-unprocessed.smi:3240|AV-procd|sdf|12383|dock8
  -GOLD-   2272018243D 1   1.00000     0.00000
 Structure written by MMmdl.
 43 44  0  0  0  0  0  0  0  0  1 V2000
  153.1725  143.5875  162.6724 C   0  0  0  0  0  0  0  0  0  0  0  0
  153.0394  142.7300  161.4474 C   0  0  0  0  0  0  0  0  0  0  0  0
  153.7013  141.5015  161.1643 C   0  0  0  0  0  0  0  0  0  0  0  0
  153.3626  140.9930  159.9909 N   0  0  0  0  0  0  0  0  0  0  0  0
  152.4808  141.8793  159.4801 N   0  0  0  0  0  0  0  0  0  0  0  0
  151.8882  141.6449  158.1726 C   0  0  0  0  0  0  0  0  0  0  0  0
  150.9392  140.4206  158.1304 C   0  0  2  0  0  0  0  0  0  0  0  0
  151.7012  139.0944  157.9808 C   0  0  0  0  0  0  0  0  0  0  0  0
  149.9270  140.5183  157.0732 N   0  0  0  0  0  0  0  0  0  0  0  0
  150.4077  140.2944  155.7077 C   0  0  0  0  0  0  0  0  0  0  0  0
  149.2603  140.2987  154.6725 C   0  0  0  0  0  0  0  0  0  0  0  0
  149.8458  140.5176  153.4014 O   0  0  0  0  0  0  0  0  0  0  0  0
  148.5903  138.9044  154.6440 C   0  0  0  0  0  0  0  0  0  0  0  0
  147.3701  138.8385  153.7078 C   0  0  0  0  0  0  0  0  0  0  0  0
  146.3416  139.9226  154.0576 C   0  0  0  0  0  0  0  0  0  0  0  0
  146.9837  141.3159  154.0254 C   0  0  0  0  0  0  0  0  0  0  0  0
  148.2028  141.3950  154.9618 C   0  0  0  0  0  0  0  0  0  0  0  0
  152.2622  142.9328  160.3427 C   0  0  0  0  0  0  0  0  0  0  0  0
  154.2163  143.7274  162.9540 H   0  0  0  0  0  0  0  0  0  0  0  0
  152.6642  143.1448  163.5291 H   0  0  0  0  0  0  0  0  0  0  0  0
  152.7457  144.5795  162.5221 H   0  0  0  0  0  0  0  0  0  0  0  0
  154.4134  140.9664  161.7750 H   0  0  0  0  0  0  0  0  0  0  0  0
  151.3337  142.5390  157.8830 H   0  0  0  0  0  0  0  0  0  0  0  0
  152.6902  141.5552  157.4405 H   0  0  0  0  0  0  0  0  0  0  0  0
  150.4250  140.3803  159.0914 H   0  0  0  0  0  0  0  0  0  0  0  0
  152.4664  138.9930  158.7509 H   0  0  0  0  0  0  0  0  0  0  0  0
  152.1932  139.0181  157.0104 H   0  0  0  0  0  0  0  0  0  0  0  0
  151.0262  138.2430  158.0748 H   0  0  0  0  0  0  0  0  0  0  0  0
  149.4710  141.4242  157.1214 H   0  0  0  0  0  0  0  0  0  0  0  0
  151.1419  141.0564  155.4424 H   0  0  0  0  0  0  0  0  0  0  0  0
  150.9237  139.3369  155.6480 H   0  0  0  0  0  0  0  0  0  0  0  0
  149.5510  139.8368  152.8162 H   0  0  0  0  0  0  0  0  0  0  0  0
  149.3154  138.1421  154.3553 H   0  0  0  0  0  0  0  0  0  0  0  0
  148.2656  138.6426  155.6521 H   0  0  0  0  0  0  0  0  0  0  0  0
  147.6896  138.9564  152.6718 H   0  0  0  0  0  0  0  0  0  0  0  0
  146.9066  137.8537  153.7746 H   0  0  0  0  0  0  0  0  0  0  0  0
  145.5041  139.8815  153.3604 H   0  0  0  0  0  0  0  0  0  0  0  0
  145.9299  139.7313  155.0495 H   0  0  0  0  0  0  0  0  0  0  0  0
  147.2849  141.5570  153.0053 H   0  0  0  0  0  0  0  0  0  0  0  0
  146.2487  142.0682  154.3129 H   0  0  0  0  0  0  0  0  0  0  0  0
  147.8582  141.2960  155.9918 H   0  0  0  0  0  0  0  0  0  0  0  0
  148.6457  142.3886  154.8858 H   0  0  0  0  0  0  0  0  0  0  0  0
  151.5811  143.7344  160.0992 H   0  0  0  0  0  0  0  0  0  0  0  0
  1  2  1  0  0  0  0
  1 19  1  0  0  0  0
  1 20  1  0  0  0  0
  1 21  1  0  0  0  0
  2 18  2  0  0  0  0
  2  3  1  0  0  0  0
  3  4  2  0  0  0  0
  3 22  1  0  0  0  0
  4  5  1  0  0  0  0
  5  6  1  0  0  0  0
  5 18  1  0  0  0  0
  6  7  1  0  0  0  0
  6 23  1  0  0  0  0
  6 24  1  0  0  0  0
  7  8  1  0  0  0  0
  7  9  1  0  0  0  0
  7 25  1  0  0  0  0
  8 26  1  0  0  0  0
  8 27  1  0  0  0  0
  8 28  1  0  0  0  0
  9 10  1  0  0  0  0
  9 29  1  0  0  0  0
 10 11  1  0  0  0  0
 10 30  1  0  0  0  0
 10 31  1  0  0  0  0
 11 17  1  0  0  0  0
 11 12  1  0  0  0  0
 11 13  1  0  0  0  0
 12 32  1  0  0  0  0
 13 14  1  0  0  0  0
 13 33  1  0  0  0  0
 13 34  1  0  0  0  0
 14 15  1  0  0  0  0
 14 35  1  0  0  0  0
 14 36  1  0  0  0  0
 15 16  1  0  0  0  0
 15 37  1  0  0  0  0
 15 38  1  0  0  0  0
 16 17  1  0  0  0  0
 16 39  1  0  0  0  0
 16 40  1  0  0  0  0
 17 41  1  0  0  0  0
 17 42  1  0  0  0  0
 18 43  1  0  0  0  0
M  END
> <s_m_source_file>
AV-unprocessed.smi

> <i_m_source_file_index>
3240

> <i_lp_mmshare_version>
43012

> <i_f3d_flags>
0

> <s_epik_input>
W0NIM11jMVtjSF1ubihbY0hdMSlbQ0gyXVtDQEhdKFtDSDNdKVtOSF1bQ0gyXUMyKFtPSF0pW0NIMl1bQ0gyXVtDSDJdW0NIMl1bQ0gyXTI=

> <s_epik_cmdline>
J2VwaWtfcHl0aG9uJywgJy1waCcsICc3LjAnLCAnLXRuJywgJzgnLCAnLW1hJywgJzIwMCcsICctbWV0YWxfYmluZGluZycsICctaW1hZScsICc8aW5maWxlLm1hZT4nLCAnLW9tYWUnLCAnPG91dGZpbGUubWFlPic=

> <r_lp_tautomer_probability>
1

> <r_epik_Ionization_Penalty>
2.35969

> <r_epik_Ionization_Penalty_Charging>
0

> <r_epik_Ionization_Penalty_Neutral>
2.35969

> <r_epik_State_Penalty>
2.51455

> <r_epik_Charging_Adjusted_Penalty>
2.51455

> <i_epik_Tot_Q>
0

> <i_epik_Tot_abs_Q>
0

> <r_epik_Metal_State_Penalty>
2.51446

> <b_epik_Metal_Only>
0

> <s_lp_Force_Field>
OPLS_2005

> <r_lp_Energy>
22.0798

> <b_lp_Chiralities_Consistent>
1

> <s_lp_Variant>
AV-unprocessed.smi:3240-3

> <Gold.Version>
5.8.1

> <Gold.Id.Protein>
6NUR|6NUR_protein|mol2

> <Gold.PLP.Fitness>
43.5693

> <Gold.PLP.PLP>
-38.7027

> <Gold.PLP.part.hbond>
-1.8570

> <Gold.PLP.part.metal>
0.0000

> <Gold.PLP.part.buried>
-3.3607

> <Gold.PLP.part.nonpolar>
-33.1932

> <Gold.PLP.part.repulsive>
0.0000

> <Gold.PLP.ligand.clash>
0.0000

> <Gold.PLP.ligand.torsion>
0.6665

> <Gold.PLP.Chemscore.Hbond>
2.0400

> <Gold.PLP.Chemscore.CHOScore>
0.0000

> <Gold.PLP.Chemscore.Metal>
0.0000

> <Gold.Chemscore.Hbonds>
donor molecule, donor type, donor heavy atom, donor atom, acceptor molecule, acceptor atom, score
      L1  H    12    32       P1  7957  0.42
      P1  H  7989  7998       L1    12  0.43
      P1  H  8011  8017       L1    12  0.65

> <Gold.PLP.Chemscore.Internal.Correction>
0.0795

> <Gold.Rescore>
     Score         DG    S(hbond)    S(metal)    S(lipo)     H(rot)  DE(clash)    DE(int)     intcor
     16.43     -17.21       1.42        0.00     104.59       2.04       0.27       0.52       ----

> <Gold.Chemscore.Fitness>
16.4325

> <Gold.Chemscore.DG>
-17.2145

> <Gold.Chemscore.ZeroCoef>
-5.4800

> <Gold.Chemscore.Hbond>
1.4167

> <Gold.Chemscore.Metal>
0.0000

> <Gold.Chemscore.Lipo>
104.5901

> <Gold.Chemscore.Internal_Hbond>
0.0000

> <Gold.Chemscore.DEClash>
0.2650

> <Gold.Chemscore.DEInternal>
0.5170

> <Gold.Chemscore.Rot>
2.0447

> <Gold.Chemscore.Internal.Correction>
   9.000000E+99

> <Gold.Chemscore.Hbonds>
donor molecule, donor type, donor heavy atom, donor atom, acceptor molecule, acceptor atom, score
      L1  H    12    32       P1  7957  0.42
      P1  H  7989  7998       L1    12  0.35
      P1  H  8011  8017       L1    12  0.42

> <Gold.Chemscore.Hbond.Weighted>
-4.7319

> <Gold.Chemscore.Metal.Weighted>
-0.0000

> <Gold.Chemscore.Lipo.Weighted>
-12.2370

> <Gold.Chemscore.Internal_Hbond.Weighted>
0.0000

> <Gold.Chemscore.DEClash.Weighted>
0.2650

> <Gold.Chemscore.DEInternal.Weighted>
0.5170

> <Gold.Chemscore.Rot.Weighted>
5.2344

> <Gold.Chemscore.Internal.Correction.Weighted>
   9.000000E+99

> <Gold.Protein.RotatedTorsions>
[ 6907 6896 6895 6894 ] final -120.39 input  -60.11 | X-H torsion
[ 7974 7965 7964 7962 ] final  -91.91 input  175.53 | X-H torsion
[ 8008 7997 7996 7995 ] final  158.14 input   59.86 | X-H torsion
[ 10167 10162 10161 10158 ] final   39.39 input  -65.29 | X-H torsion
[ 10718 10713 10712 10709 ] final  174.52 input   66.30 | X-H torsion
[ 10763 10752 10751 10750 ] final   66.73 input  -60.55 | X-H torsion
[ 11005 11000 10999 10996 ] final    2.77 input  -57.11 | X-H torsion

> <Gold.Protein.ActiveResidues>
 VAL166  LYS551  ARG553  GLY616  TRP617  ASP618  TYR619  PRO620  LYS621  CYS622 
 ASP623  PHE694  ASN695  SER759  ASP760  ASP761  ALA762  ILE779  LEU786  VAL792 
 PHE793  MET794  SER795  GLU796  ALA797  LYS798  CYS799  TRP800  GLU811  SER814 

> <Gold.Protein.RotatedAtoms>
  150.8389  133.7969  159.3068 H   0  0  0  0  0  0  0  0  0  0  0  0  # atno 6907 bound_to 6896
  151.5676  135.1062  159.9997 H   0  0  0  0  0  0  0  0  0  0  0  0  # atno 6908 bound_to 6896
  152.4456  133.7488  159.6738 H   0  0  0  0  0  0  0  0  0  0  0  0  # atno 6909 bound_to 6896
  145.4069  140.9542  143.2256 H   0  0  0  0  0  0  0  0  0  0  0  0  # atno 7974 bound_to 7965
  156.2321  140.1866  156.7216 H   0  0  0  0  0  0  0  0  0  0  0  0  # atno 8008 bound_to 7997
  154.6040  140.0631  156.9434 H   0  0  0  0  0  0  0  0  0  0  0  0  # atno 8009 bound_to 7997
  155.2126  140.3301  155.4329 H   0  0  0  0  0  0  0  0  0  0  0  0  # atno 8010 bound_to 7997
  140.3844  144.1937  150.6130 H   0  0  0  0  0  0  0  0  0  0  0  0  # atno 10167 bound_to 10162
  156.9484  131.0023  151.2954 H   0  0  0  0  0  0  0  0  0  0  0  0  # atno 10718 bound_to 10713
  153.0153  135.5309  154.6870 H   0  0  0  0  0  0  0  0  0  0  0  0  # atno 10763 bound_to 10752
  154.6015  135.2868  155.0533 H   0  0  0  0  0  0  0  0  0  0  0  0  # atno 10764 bound_to 10752
  154.1588  135.6551  153.5033 H   0  0  0  0  0  0  0  0  0  0  0  0  # atno 10765 bound_to 10752
  140.6005  133.9840  155.8130 H   0  0  0  0  0  0  0  0  0  0  0  0  # atno 11005 bound_to 11000
  144.8335  139.5588  143.6933 LP  0  0  0  0  0  0  0  0  0  0  0  0  # atno 17320 bound_to 7965
  146.2724  139.6668  142.9286 LP  0  0  0  0  0  0  0  0  0  0  0  0  # atno 17321 bound_to 7965
  140.4905  143.2349  151.8826 LP  0  0  0  0  0  0  0  0  0  0  0  0  # atno 17342 bound_to 10162
  139.4793  144.5171  151.8852 LP  0  0  0  0  0  0  0  0  0  0  0  0  # atno 17343 bound_to 10162
  157.5738  130.8329  149.8428 LP  0  0  0  0  0  0  0  0  0  0  0  0  # atno 17370 bound_to 10713
  156.0374  130.3748  150.1525 LP  0  0  0  0  0  0  0  0  0  0  0  0  # atno 17371 bound_to 10713
  141.0875  133.9968  157.3290 LP  0  0  0  0  0  0  0  0  0  0  0  0  # atno 17394 bound_to 11000
  139.9234  135.0201  156.8148 LP  0  0  0  0  0  0  0  0  0  0  0  0  # atno 17395 bound_to 11000

$$$$
