AV-unprocessed.smi:254|AV-procd|sdf|1948|dock4
  -GOLD-   2262021 83D 1   1.00000     0.00000
 Structure written by MMmdl.
 50 53  0  0  0  0  0  0  0  0  1 V2000
  135.2542  136.6003  155.3391 O   0  0  0  0  0  0  0  0  0  0  0  0
  136.2609  137.2108  154.9830 C   0  0  0  0  0  0  0  0  0  0  0  0
  137.5932  136.5318  154.7238 C   0  0  0  0  0  0  0  0  0  0  0  0
  138.4190  137.6637  154.3214 N   0  0  0  0  0  0  0  0  0  0  0  0
  139.7263  137.5433  153.9738 C   0  0  0  0  0  0  0  0  0  0  0  0
  140.4585  138.6798  153.8330 N   0  0  0  0  0  0  0  0  0  0  0  0
  141.7483  138.6206  153.4910 C   0  0  0  0  0  0  0  0  0  0  0  0
  142.4963  137.5447  153.2452 N   0  0  0  0  0  0  0  0  0  0  0  0
  141.7722  136.3984  153.3857 C   0  0  0  0  0  0  0  0  0  0  0  0
  140.3955  136.3042  153.7421 C   0  0  0  0  0  0  0  0  0  0  0  0
  140.0175  134.9655  153.7782 N   0  0  0  0  0  0  0  0  0  0  0  0
  141.1008  134.3117  153.4607 C   0  0  0  0  0  0  0  0  0  0  0  0
  142.2051  135.0952  153.2182 N   0  0  0  0  0  0  0  0  0  0  0  0
  143.5342  134.6402  152.8460 C   0  0  0  0  0  0  0  0  0  0  0  0
  143.9203  134.9787  151.3827 C   0  0  1  0  0  0  0  0  0  0  0  0
  144.9789  136.1106  151.3314 C   0  0  0  0  0  0  0  0  0  0  0  0
  145.4578  136.3275  150.0211 O   0  0  0  0  0  0  0  0  0  0  0  0
  144.3901  133.6984  150.6375 C   0  0  1  0  0  0  0  0  0  0  0  0
  145.6702  133.0787  151.1752 C   0  0  0  0  0  0  0  0  0  0  0  0
  145.6263  131.6702  150.5931 C   0  0  0  0  0  0  0  0  0  0  0  0
  144.2473  131.3360  150.4980 O   0  0  0  0  0  0  0  0  0  0  0  0
  143.4501  132.4910  150.7378 C   0  0  0  0  0  0  0  0  0  0  0  0
  137.6833  138.9204  154.3203 C   0  0  0  0  0  0  0  0  0  0  0  0
  136.3557  138.5269  154.7626 N   0  0  0  0  0  0  0  0  0  0  0  0
  135.2848  139.5132  154.8869 C   0  0  0  0  0  0  0  0  0  0  0  0
  134.6389  139.8535  153.5319 C   0  0  0  0  0  0  0  0  0  0  0  0
  135.5752  140.3351  152.7156 F   0  0  0  0  0  0  0  0  0  0  0  0
  134.1019  138.7723  152.9674 F   0  0  0  0  0  0  0  0  0  0  0  0
  133.6944  140.7813  153.6887 F   0  0  0  0  0  0  0  0  0  0  0  0
  137.9719  136.0582  155.6303 H   0  0  0  0  0  0  0  0  0  0  0  0
  137.5048  135.7930  153.9264 H   0  0  0  0  0  0  0  0  0  0  0  0
  142.2530  139.5714  153.4025 H   0  0  0  0  0  0  0  0  0  0  0  0
  141.1251  133.2331  153.4011 H   0  0  0  0  0  0  0  0  0  0  0  0
  144.2572  135.0780  153.5353 H   0  0  0  0  0  0  0  0  0  0  0  0
  143.5584  133.5638  153.0150 H   0  0  0  0  0  0  0  0  0  0  0  0
  143.0183  135.3446  150.8897 H   0  0  0  0  0  0  0  0  0  0  0  0
  144.5637  137.0627  151.6589 H   0  0  0  0  0  0  0  0  0  0  0  0
  145.8155  135.8886  151.9945 H   0  0  0  0  0  0  0  0  0  0  0  0
  145.0204  137.0845  149.6622 H   0  0  0  0  0  0  0  0  0  0  0  0
  144.5408  133.9313  149.5821 H   0  0  0  0  0  0  0  0  0  0  0  0
  146.5708  133.6162  150.8775 H   0  0  0  0  0  0  0  0  0  0  0  0
  145.6425  133.0343  152.2651 H   0  0  0  0  0  0  0  0  0  0  0  0
  146.0553  131.6592  149.5907 H   0  0  0  0  0  0  0  0  0  0  0  0
  146.1713  130.9498  151.2034 H   0  0  0  0  0  0  0  0  0  0  0  0
  143.0297  132.4107  151.7413 H   0  0  0  0  0  0  0  0  0  0  0  0
  142.6249  132.5427  150.0272 H   0  0  0  0  0  0  0  0  0  0  0  0
  138.1221  139.6372  155.0156 H   0  0  0  0  0  0  0  0  0  0  0  0
  137.6437  139.3546  153.3203 H   0  0  0  0  0  0  0  0  0  0  0  0
  134.5251  139.1263  155.5674 H   0  0  0  0  0  0  0  0  0  0  0  0
  135.6760  140.4193  155.3523 H   0  0  0  0  0  0  0  0  0  0  0  0
  1  2  2  0  0  0  0
  2 24  1  0  0  0  0
  2  3  1  0  0  0  0
  3  4  1  0  0  0  0
  3 30  1  0  0  0  0
  3 31  1  0  0  0  0
  4  5  1  0  0  0  0
  4 23  1  0  0  0  0
  5 10  1  0  0  0  0
  5  6  2  0  0  0  0
  6  7  1  0  0  0  0
  7  8  2  0  0  0  0
  7 32  1  0  0  0  0
  8  9  1  0  0  0  0
  9 13  1  0  0  0  0
  9 10  2  0  0  0  0
 10 11  1  0  0  0  0
 11 12  2  0  0  0  0
 12 13  1  0  0  0  0
 12 33  1  0  0  0  0
 13 14  1  0  0  0  0
 14 15  1  0  0  0  0
 14 34  1  0  0  0  0
 14 35  1  0  0  0  0
 15 16  1  0  0  0  0
 15 18  1  0  0  0  0
 15 36  1  0  0  0  0
 16 17  1  0  0  0  0
 16 37  1  0  0  0  0
 16 38  1  0  0  0  0
 17 39  1  0  0  0  0
 18 22  1  0  0  0  0
 18 19  1  0  0  0  0
 18 40  1  0  0  0  0
 19 20  1  0  0  0  0
 19 41  1  0  0  0  0
 19 42  1  0  0  0  0
 20 21  1  0  0  0  0
 20 43  1  0  0  0  0
 20 44  1  0  0  0  0
 21 22  1  0  0  0  0
 22 45  1  0  0  0  0
 22 46  1  0  0  0  0
 23 24  1  0  0  0  0
 23 47  1  0  0  0  0
 23 48  1  0  0  0  0
 24 25  1  0  0  0  0
 25 26  1  0  0  0  0
 25 49  1  0  0  0  0
 25 50  1  0  0  0  0
 26 27  1  0  0  0  0
 26 28  1  0  0  0  0
 26 29  1  0  0  0  0
M  END
> <s_m_source_file>
AV-unprocessed.smi

> <i_m_source_file_index>
254

> <i_lp_mmshare_version>
43012

> <i_f3d_flags>
0

> <s_epik_input>
RkMoRikoRilbQ0gyXU4xW0NIMl1OKFtDSDJdQzE9TyljKG5bY0hdbjIpYyhjMjMpbltjSF1uM1tDSDJdW0NASF0oW0NIMl1bT0hdKVtDQEBIXTRbQ0gyXVtDSDJdT1tDSDJdNA==

> <s_epik_cmdline>
J2VwaWtfcHl0aG9uJywgJy1waCcsICc3LjAnLCAnLXRuJywgJzgnLCAnLW1hJywgJzIwMCcsICctbWV0YWxfYmluZGluZycsICctaW1hZScsICc8aW5maWxlLm1hZT4nLCAnLW9tYWUnLCAnPG91dGZpbGUubWFlPic=

> <r_lp_tautomer_probability>
1

> <r_epik_Ionization_Penalty>
0.000292924

> <r_epik_Ionization_Penalty_Charging>
0

> <r_epik_Ionization_Penalty_Neutral>
0.000292924

> <r_epik_State_Penalty>
-0

> <r_epik_Charging_Adjusted_Penalty>
0

> <i_epik_Tot_Q>
0

> <i_epik_Tot_abs_Q>
0

> <r_epik_Metal_State_Penalty>
-0

> <b_epik_Metal_Only>
0

> <s_epik_Chemistry_Notes>
This compound contains an acetal/aminal-like group ( X-CH(R)-Y where X, Y are N, S, or O) that may be acid/base labile, releasing an aldehyde.

> <s_lp_Force_Field>
OPLS_2005

> <r_lp_Energy>
39.6801

> <b_lp_Chiralities_Consistent>
1

> <s_lp_Variant>
AV-unprocessed.smi:254-4

> <Gold.Version>
5.8.1

> <Gold.Id.Protein>
6NUR|6NUR_protein|mol2

> <Gold.PLP.Fitness>
49.5751

> <Gold.PLP.PLP>
-40.2696

> <Gold.PLP.part.hbond>
-5.0000

> <Gold.PLP.part.metal>
0.0000

> <Gold.PLP.part.buried>
-2.7242

> <Gold.PLP.part.nonpolar>
-37.7053

> <Gold.PLP.part.repulsive>
0.7351

> <Gold.PLP.ligand.clash>
0.0000

> <Gold.PLP.ligand.torsion>
1.2176

> <Gold.PLP.Chemscore.Hbond>
2.6084

> <Gold.PLP.Chemscore.CHOScore>
1.2259

> <Gold.PLP.Chemscore.Metal>
0.0000

> <Gold.Chemscore.Hbonds>
donor molecule, donor type, donor heavy atom, donor atom, acceptor molecule, acceptor atom, score
      L1  H    17    39       P1 10171  1.00
      P1  H 10785 10796       L1    21  0.11
      P1  H 11000 11005       L1    11  0.72
      L1  C     7    32       P1 10175  0.54
      L1  C    12    33       P1 10957  0.91

> <Gold.PLP.Chemscore.Internal.Correction>
0.2377

> <Gold.Rescore>
     Score         DG    S(hbond)    S(metal)    S(lipo)     H(rot)  DE(clash)    DE(int)     intcor
      7.68     -10.31       1.58        0.00      68.39       3.30       0.44       2.18       ----

> <Gold.Chemscore.Fitness>
7.6844

> <Gold.Chemscore.DG>
-10.3093

> <Gold.Chemscore.ZeroCoef>
-5.4800

> <Gold.Chemscore.Hbond>
1.5775

> <Gold.Chemscore.Metal>
0.0000

> <Gold.Chemscore.Lipo>
68.3929

> <Gold.Chemscore.Internal_Hbond>
0.0000

> <Gold.Chemscore.DEClash>
0.4436

> <Gold.Chemscore.DEInternal>
2.1812

> <Gold.Chemscore.Rot>
3.2974

> <Gold.Chemscore.Internal.Correction>
   9.000000E+99

> <Gold.Chemscore.Hbonds>
donor molecule, donor type, donor heavy atom, donor atom, acceptor molecule, acceptor atom, score
      L1  H    17    39       P1 10171  0.98
      P1  H 10785 10796       L1    21  0.07
      P1  H 11000 11005       L1    11  0.04

> <Gold.Chemscore.Hbond.Weighted>
-5.2688

> <Gold.Chemscore.Metal.Weighted>
-0.0000

> <Gold.Chemscore.Lipo.Weighted>
-8.0020

> <Gold.Chemscore.Internal_Hbond.Weighted>
0.0000

> <Gold.Chemscore.DEClash.Weighted>
0.4436

> <Gold.Chemscore.DEInternal.Weighted>
2.1812

> <Gold.Chemscore.Rot.Weighted>
8.4414

> <Gold.Chemscore.Internal.Correction.Weighted>
   9.000000E+99

> <Gold.Protein.RotatedTorsions>
[ 6907 6896 6895 6894 ] final  -60.15 input  -60.11 | X-H torsion
[ 7974 7965 7964 7962 ] final   45.60 input  175.53 | X-H torsion
[ 8008 7997 7996 7995 ] final   29.62 input   59.86 | X-H torsion
[ 10167 10162 10161 10158 ] final  -99.28 input  -65.29 | X-H torsion
[ 10718 10713 10712 10709 ] final  162.80 input   66.30 | X-H torsion
[ 10763 10752 10751 10750 ] final -127.07 input  -60.55 | X-H torsion
[ 11005 11000 10999 10996 ] final   56.06 input  -57.11 | X-H torsion

> <Gold.Protein.ActiveResidues>
 VAL166  LYS551  ARG553  GLY616  TRP617  ASP618  TYR619  PRO620  LYS621  CYS622 
 ASP623  PHE694  ASN695  SER759  ASP760  ASP761  ALA762  ILE779  LEU786  VAL792 
 PHE793  MET794  SER795  GLU796  ALA797  LYS798  CYS799  TRP800  GLU811  SER814 

> <Gold.Protein.RotatedAtoms>
  150.7877  134.6876  159.6478 H   0  0  0  0  0  0  0  0  0  0  0  0  # atno 6907 bound_to 6896
  152.3977  134.6335  160.0091 H   0  0  0  0  0  0  0  0  0  0  0  0  # atno 6908 bound_to 6896
  151.6616  133.3280  159.3211 H   0  0  0  0  0  0  0  0  0  0  0  0  # atno 6909 bound_to 6896
  146.0465  139.4946  142.9745 H   0  0  0  0  0  0  0  0  0  0  0  0  # atno 7974 bound_to 7965
  155.0774  140.3206  155.4612 H   0  0  0  0  0  0  0  0  0  0  0  0  # atno 8008 bound_to 7997
  156.2775  140.2101  156.5847 H   0  0  0  0  0  0  0  0  0  0  0  0  # atno 8009 bound_to 7997
  154.7006  140.0507  157.0441 H   0  0  0  0  0  0  0  0  0  0  0  0  # atno 8010 bound_to 7997
  140.2641  143.3387  152.0597 H   0  0  0  0  0  0  0  0  0  0  0  0  # atno 10167 bound_to 10162
  157.1175  131.0484  151.2430 H   0  0  0  0  0  0  0  0  0  0  0  0  # atno 10718 bound_to 10713
  154.8750  135.3974  154.3533 H   0  0  0  0  0  0  0  0  0  0  0  0  # atno 10763 bound_to 10752
  153.4316  135.7025  153.6232 H   0  0  0  0  0  0  0  0  0  0  0  0  # atno 10764 bound_to 10752
  153.4852  135.3760  155.2432 H   0  0  0  0  0  0  0  0  0  0  0  0  # atno 10765 bound_to 10752
  140.0558  134.5672  155.9209 H   0  0  0  0  0  0  0  0  0  0  0  0  # atno 11005 bound_to 11000
  145.6796  141.0194  143.1613 LP  0  0  0  0  0  0  0  0  0  0  0  0  # atno 17320 bound_to 7965
  144.7100  139.8406  143.7417 LP  0  0  0  0  0  0  0  0  0  0  0  0  # atno 17321 bound_to 7965
  139.5008  144.6699  151.6267 LP  0  0  0  0  0  0  0  0  0  0  0  0  # atno 17342 bound_to 10162
  140.5942  143.9725  150.6344 LP  0  0  0  0  0  0  0  0  0  0  0  0  # atno 17343 bound_to 10162
  157.4506  130.7596  149.7147 LP  0  0  0  0  0  0  0  0  0  0  0  0  # atno 17370 bound_to 10713
  155.9836  130.3999  150.3355 LP  0  0  0  0  0  0  0  0  0  0  0  0  # atno 17371 bound_to 10713
  141.1951  133.6586  156.5629 LP  0  0  0  0  0  0  0  0  0  0  0  0  # atno 17394 bound_to 11000
  140.3846  134.7494  157.4683 LP  0  0  0  0  0  0  0  0  0  0  0  0  # atno 17395 bound_to 11000

$$$$
