AV-unprocessed.smi:1875|AV-procd|sdf|7614|dock1
  -GOLD-   22720 9333D 1   1.00000     0.00000
 Structure written by MMmdl.
 47 49  0  0  0  0  0  0  0  0  1 V2000
  142.5628  146.2292  154.8013 C   0  0  0  0  0  0  0  0  0  0  0  0
  143.5909  145.3737  154.0903 C   0  0  0  0  0  0  0  0  0  0  0  0
  143.8870  145.7033  152.8290 N   0  0  0  0  0  0  0  0  0  0  0  0
  144.8044  144.9386  152.1976 C   0  0  0  0  0  0  0  0  0  0  0  0
  145.4241  143.8443  152.8343 C   0  0  0  0  0  0  0  0  0  0  0  0
  145.0302  143.5940  154.1660 C   0  0  0  0  0  0  0  0  0  0  0  0
  145.6180  142.4438  154.9585 C   0  0  0  0  0  0  0  0  0  0  0  0
  146.3590  141.5145  154.1117 N   0  0  0  0  0  0  0  0  0  0  0  0
  147.7910  141.7962  154.0657 C   0  0  0  0  0  0  0  0  0  0  0  0
  148.4960  141.3307  155.3507 C   0  0  2  0  0  0  0  0  0  0  0  0
  148.3386  142.3341  156.3347 O   0  0  0  0  0  0  0  0  0  0  0  0
  150.0003  141.0916  155.1178 C   0  0  0  0  0  0  0  0  0  0  0  0
  150.7025  140.7251  156.3350 N   0  0  0  0  0  0  0  0  0  0  0  0
  151.0273  139.4843  156.7465 C   0  0  0  0  0  0  0  0  0  0  0  0
  151.6720  139.3763  157.9048 N   0  0  0  0  0  0  0  0  0  0  0  0
  151.7786  140.7021  158.2890 C   0  0  0  0  0  0  0  0  0  0  0  0
  152.3628  141.2800  159.4373 C   0  0  0  0  0  0  0  0  0  0  0  0
  152.3545  142.6801  159.6283 C   0  0  0  0  0  0  0  0  0  0  0  0
  152.9911  143.2583  160.8799 C   0  0  0  0  0  0  0  0  0  0  0  0
  151.7569  143.5260  158.6595 C   0  0  0  0  0  0  0  0  0  0  0  0
  151.7365  145.0331  158.8435 C   0  0  0  0  0  0  0  0  0  0  0  0
  151.1698  142.9655  157.5056 C   0  0  0  0  0  0  0  0  0  0  0  0
  151.1824  141.5706  157.3285 C   0  0  0  0  0  0  0  0  0  0  0  0
  144.1114  144.3625  154.7921 N   0  0  0  0  0  0  0  0  0  0  0  0
  142.2008  147.0348  154.1611 H   0  0  0  0  0  0  0  0  0  0  0  0
  142.9963  146.6764  155.6962 H   0  0  0  0  0  0  0  0  0  0  0  0
  141.7075  145.6228  155.1004 H   0  0  0  0  0  0  0  0  0  0  0  0
  145.0465  145.2016  151.1784 H   0  0  0  0  0  0  0  0  0  0  0  0
  146.1578  143.2344  152.3287 H   0  0  0  0  0  0  0  0  0  0  0  0
  146.2721  142.8548  155.7285 H   0  0  0  0  0  0  0  0  0  0  0  0
  144.8153  141.9186  155.4783 H   0  0  0  0  0  0  0  0  0  0  0  0
  145.9807  141.5444  153.1703 H   0  0  0  0  0  0  0  0  0  0  0  0
  148.2248  141.2679  153.2156 H   0  0  0  0  0  0  0  0  0  0  0  0
  147.9727  142.8582  153.8931 H   0  0  0  0  0  0  0  0  0  0  0  0
  148.0409  140.4069  155.7116 H   0  0  0  0  0  0  0  0  0  0  0  0
  148.6180  143.1585  155.9657 H   0  0  0  0  0  0  0  0  0  0  0  0
  150.1464  140.2921  154.3905 H   0  0  0  0  0  0  0  0  0  0  0  0
  150.4693  141.9829  154.6980 H   0  0  0  0  0  0  0  0  0  0  0  0
  150.7773  138.6110  156.1617 H   0  0  0  0  0  0  0  0  0  0  0  0
  152.8184  140.6352  160.1743 H   0  0  0  0  0  0  0  0  0  0  0  0
  152.2564  143.8191  161.4580 H   0  0  0  0  0  0  0  0  0  0  0  0
  153.8108  143.9277  160.6182 H   0  0  0  0  0  0  0  0  0  0  0  0
  153.3921  142.4732  161.5218 H   0  0  0  0  0  0  0  0  0  0  0  0
  151.2534  145.5303  158.0020 H   0  0  0  0  0  0  0  0  0  0  0  0
  152.7518  145.4220  158.9237 H   0  0  0  0  0  0  0  0  0  0  0  0
  151.1901  145.2997  159.7485 H   0  0  0  0  0  0  0  0  0  0  0  0
  150.7107  143.5971  156.7597 H   0  0  0  0  0  0  0  0  0  0  0  0
  1  2  1  0  0  0  0
  1 25  1  0  0  0  0
  1 26  1  0  0  0  0
  1 27  1  0  0  0  0
  2 24  1  0  0  0  0
  2  3  2  0  0  0  0
  3  4  1  0  0  0  0
  4  5  2  0  0  0  0
  4 28  1  0  0  0  0
  5  6  1  0  0  0  0
  5 29  1  0  0  0  0
  6  7  1  0  0  0  0
  6 24  2  0  0  0  0
  7  8  1  0  0  0  0
  7 30  1  0  0  0  0
  7 31  1  0  0  0  0
  8  9  1  0  0  0  0
  8 32  1  0  0  0  0
  9 10  1  0  0  0  0
  9 33  1  0  0  0  0
  9 34  1  0  0  0  0
 10 11  1  0  0  0  0
 10 12  1  0  0  0  0
 10 35  1  0  0  0  0
 11 36  1  0  0  0  0
 12 13  1  0  0  0  0
 12 37  1  0  0  0  0
 12 38  1  0  0  0  0
 13 23  1  0  0  0  0
 13 14  1  0  0  0  0
 14 15  2  0  0  0  0
 14 39  1  0  0  0  0
 15 16  1  0  0  0  0
 16 23  2  0  0  0  0
 16 17  1  0  0  0  0
 17 18  2  0  0  0  0
 17 40  1  0  0  0  0
 18 19  1  0  0  0  0
 18 20  1  0  0  0  0
 19 41  1  0  0  0  0
 19 42  1  0  0  0  0
 19 43  1  0  0  0  0
 20 21  1  0  0  0  0
 20 22  2  0  0  0  0
 21 44  1  0  0  0  0
 21 45  1  0  0  0  0
 21 46  1  0  0  0  0
 22 23  1  0  0  0  0
 22 47  1  0  0  0  0
M  END
> <s_m_source_file>
AV-unprocessed.smi

> <i_m_source_file_index>
1875

> <i_lp_mmshare_version>
43012

> <i_f3d_flags>
0

> <s_epik_input>
W0NIM11jMW5bY0hdW2NIXWMobjEpW0NIMl1bTkhdW0NIMl1bQ0BIXShbT0hdKVtDSDJdbihbY0hdbjIpYyhjMjMpW2NIXWMoW0NIM10pYyhbY0hdMylbQ0gzXQ==

> <s_epik_cmdline>
J2VwaWtfcHl0aG9uJywgJy1waCcsICc3LjAnLCAnLXRuJywgJzgnLCAnLW1hJywgJzIwMCcsICctbWV0YWxfYmluZGluZycsICctaW1hZScsICc8aW5maWxlLm1hZT4nLCAnLW9tYWUnLCAnPG91dGZpbGUubWFlPic=

> <r_lp_tautomer_probability>
1

> <r_epik_Ionization_Penalty>
1.21192

> <r_epik_Ionization_Penalty_Charging>
0

> <r_epik_Ionization_Penalty_Neutral>
1.21192

> <r_epik_State_Penalty>
1.26105

> <r_epik_Charging_Adjusted_Penalty>
1.26105

> <i_epik_Tot_Q>
0

> <i_epik_Tot_abs_Q>
0

> <r_epik_Metal_State_Penalty>
1.2224

> <b_epik_Metal_Only>
0

> <s_epik_Chemistry_Notes>
This compound contains an electron-poor aromatic ring that is susceptible to covalent hydrolysis at low pH, typically resulting in measured values for nitrogen ring protonation that are around two units higher than predicted values.

> <s_lp_Force_Field>
OPLS_2005

> <r_lp_Energy>
12.1971

> <b_lp_Chiralities_Consistent>
1

> <s_lp_Variant>
AV-unprocessed.smi:1875-3

> <Gold.Version>
5.8.1

> <Gold.Id.Protein>
6NUR|6NUR_protein|mol2

> <Gold.PLP.Fitness>
57.2124

> <Gold.PLP.PLP>
-55.9779

> <Gold.PLP.part.hbond>
-2.9598

> <Gold.PLP.part.metal>
0.0000

> <Gold.PLP.part.buried>
-5.4869

> <Gold.PLP.part.nonpolar>
-48.0792

> <Gold.PLP.part.repulsive>
0.2298

> <Gold.PLP.ligand.clash>
0.0000

> <Gold.PLP.ligand.torsion>
0.9971

> <Gold.PLP.Chemscore.Hbond>
1.0000

> <Gold.PLP.Chemscore.CHOScore>
0.0000

> <Gold.PLP.Chemscore.Metal>
0.0000

> <Gold.Chemscore.Hbonds>
donor molecule, donor type, donor heavy atom, donor atom, acceptor molecule, acceptor atom, score
      L1  H    11    36       P1  8028  1.00

> <Gold.PLP.Chemscore.Internal.Correction>
0.2287

> <Gold.Rescore>
     Score         DG    S(hbond)    S(metal)    S(lipo)     H(rot)  DE(clash)    DE(int)     intcor
     15.78     -17.22       0.96        0.00     132.64       2.72       0.22       1.22       ----

> <Gold.Chemscore.Fitness>
15.7846

> <Gold.Chemscore.DG>
-17.2194

> <Gold.Chemscore.ZeroCoef>
-5.4800

> <Gold.Chemscore.Hbond>
0.9554

> <Gold.Chemscore.Metal>
0.0000

> <Gold.Chemscore.Lipo>
132.6369

> <Gold.Chemscore.Internal_Hbond>
0.0000

> <Gold.Chemscore.DEClash>
0.2196

> <Gold.Chemscore.DEInternal>
1.2152

> <Gold.Chemscore.Rot>
2.7228

> <Gold.Chemscore.Internal.Correction>
   9.000000E+99

> <Gold.Chemscore.Hbonds>
donor molecule, donor type, donor heavy atom, donor atom, acceptor molecule, acceptor atom, score
      L1  H    11    36       P1  8028  0.98

> <Gold.Chemscore.Hbond.Weighted>
-3.1911

> <Gold.Chemscore.Metal.Weighted>
-0.0000

> <Gold.Chemscore.Lipo.Weighted>
-15.5185

> <Gold.Chemscore.Internal_Hbond.Weighted>
0.0000

> <Gold.Chemscore.DEClash.Weighted>
0.2196

> <Gold.Chemscore.DEInternal.Weighted>
1.2152

> <Gold.Chemscore.Rot.Weighted>
6.9702

> <Gold.Chemscore.Internal.Correction.Weighted>
   9.000000E+99

> <Gold.Protein.RotatedTorsions>
[ 6907 6896 6895 6894 ] final -142.70 input  -60.11 | X-H torsion
[ 7974 7965 7964 7962 ] final  109.16 input  175.53 | X-H torsion
[ 8008 7997 7996 7995 ] final  122.32 input   59.86 | X-H torsion
[ 10167 10162 10161 10158 ] final -126.32 input  -65.29 | X-H torsion
[ 10718 10713 10712 10709 ] final  135.39 input   66.30 | X-H torsion
[ 10763 10752 10751 10750 ] final -104.23 input  -60.55 | X-H torsion
[ 11005 11000 10999 10996 ] final   99.26 input  -57.11 | X-H torsion

> <Gold.Protein.ActiveResidues>
 VAL166  LYS551  ARG553  GLY616  TRP617  ASP618  TYR619  PRO620  LYS621  CYS622 
 ASP623  PHE694  ASN695  SER759  ASP760  ASP761  ALA762  ILE779  LEU786  VAL792 
 PHE793  MET794  SER795  GLU796  ALA797  LYS798  CYS799  TRP800  GLU811  SER814 

> <Gold.Protein.RotatedAtoms>
  151.0905  133.5319  159.2614 H   0  0  0  0  0  0  0  0  0  0  0  0  # atno 6907 bound_to 6896
  151.2188  135.0510  159.8951 H   0  0  0  0  0  0  0  0  0  0  0  0  # atno 6908 bound_to 6896
  152.5433  134.0711  159.8248 H   0  0  0  0  0  0  0  0  0  0  0  0  # atno 6909 bound_to 6896
  145.2714  139.2665  143.3964 H   0  0  0  0  0  0  0  0  0  0  0  0  # atno 7974 bound_to 7965
  156.2723  140.2788  156.1448 H   0  0  0  0  0  0  0  0  0  0  0  0  # atno 8008 bound_to 7997
  155.0915  140.0388  157.2687 H   0  0  0  0  0  0  0  0  0  0  0  0  # atno 8009 bound_to 7997
  154.6885  140.2624  155.6842 H   0  0  0  0  0  0  0  0  0  0  0  0  # atno 8010 bound_to 7997
  139.9727  143.5828  152.2407 H   0  0  0  0  0  0  0  0  0  0  0  0  # atno 10167 bound_to 10162
  157.4575  131.1071  150.9959 H   0  0  0  0  0  0  0  0  0  0  0  0  # atno 10718 bound_to 10713
  154.7864  135.4794  153.9954 H   0  0  0  0  0  0  0  0  0  0  0  0  # atno 10763 bound_to 10752
  153.1566  135.6801  153.8811 H   0  0  0  0  0  0  0  0  0  0  0  0  # atno 10764 bound_to 10752
  153.8438  135.3176  155.3406 H   0  0  0  0  0  0  0  0  0  0  0  0  # atno 10765 bound_to 10752
  139.8771  134.9087  156.4578 H   0  0  0  0  0  0  0  0  0  0  0  0  # atno 11005 bound_to 11000
  146.3245  140.3157  142.8630 LP  0  0  0  0  0  0  0  0  0  0  0  0  # atno 17320 bound_to 7965
  144.9332  140.7998  143.5676 LP  0  0  0  0  0  0  0  0  0  0  0  0  # atno 17321 bound_to 7965
  139.6469  144.7658  151.2226 LP  0  0  0  0  0  0  0  0  0  0  0  0  # atno 17342 bound_to 10162
  140.7516  143.6225  150.8500 LP  0  0  0  0  0  0  0  0  0  0  0  0  # atno 17343 bound_to 10162
  157.0768  130.5886  149.5413 LP  0  0  0  0  0  0  0  0  0  0  0  0  # atno 17370 bound_to 10713
  156.0014  130.5093  150.7676 LP  0  0  0  0  0  0  0  0  0  0  0  0  # atno 17371 bound_to 10713
  140.8885  133.7865  155.9545 LP  0  0  0  0  0  0  0  0  0  0  0  0  # atno 17394 bound_to 11000
  140.8778  134.2648  157.5159 LP  0  0  0  0  0  0  0  0  0  0  0  0  # atno 17395 bound_to 11000

$$$$
