AV-unprocessed.smi:178|AV-procd|sdf|1447|dock8
  -GOLD-   2262019243D 1   1.00000     0.00000
 Structure written by MMmdl.
 50 52  0  0  0  0  0  0  0  0  1 V2000
  150.8415  145.0655  159.3265 C   0  0  0  0  0  0  0  0  0  0  0  0
  151.9533  144.6739  158.5401 O   0  0  0  0  0  0  0  0  0  0  0  0
  152.6597  143.5825  159.1041 C   0  0  0  0  0  0  0  0  0  0  0  0
  152.1104  142.2782  158.5052 C   0  0  0  0  0  0  0  0  0  0  0  0
  152.5009  141.0940  159.2736 N   0  0  0  0  0  0  0  0  0  0  0  0
  153.3908  141.2639  160.4192 C   0  0  0  0  0  0  0  0  0  0  0  0
  154.2528  140.0229  160.6860 C   0  0  0  0  0  0  0  0  0  0  0  0
  155.3573  139.8933  159.7249 C   0  0  0  0  0  0  0  0  0  0  0  0
  156.2270  139.7914  158.9690 N   0  0  0  0  0  0  0  0  0  0  0  0
  152.1681  139.8512  158.8187 C   0  0  0  0  0  0  0  0  0  0  0  0
  151.9390  138.8773  159.7401 N   0  0  0  0  0  0  0  0  0  0  0  0
  151.6118  137.6389  159.3645 C   0  0  0  0  0  0  0  0  0  0  0  0
  151.4586  137.1566  158.1321 N   0  0  0  0  0  0  0  0  0  0  0  0
  151.6820  138.1200  157.1948 C   0  0  0  0  0  0  0  0  0  0  0  0
  152.0343  139.4799  157.4438 C   0  0  0  0  0  0  0  0  0  0  0  0
  152.1528  140.1503  156.2298 N   0  0  0  0  0  0  0  0  0  0  0  0
  151.8979  139.2460  155.3260 C   0  0  0  0  0  0  0  0  0  0  0  0
  151.6169  137.9935  155.8179 N   0  0  0  0  0  0  0  0  0  0  0  0
  151.3065  136.8034  155.0415 C   0  0  0  0  0  0  0  0  0  0  0  0
  149.8430  136.3252  155.2011 C   0  0  1  0  0  0  0  0  0  0  0  0
  148.9875  137.2722  154.5819 O   0  0  0  0  0  0  0  0  0  0  0  0
  149.6011  134.9737  154.5444 C   0  0  0  0  0  0  0  0  0  0  0  0
  148.4078  134.4361  155.3222 C   0  0  0  0  0  0  0  0  0  0  0  0
  148.6635  134.8408  156.6586 O   0  0  0  0  0  0  0  0  0  0  0  0
  149.4079  136.0582  156.6651 C   0  0  2  0  0  0  0  0  0  0  0  0
  148.5986  137.1667  157.3614 C   0  0  0  0  0  0  0  0  0  0  0  0
  150.3296  145.8997  158.8463 H   0  0  0  0  0  0  0  0  0  0  0  0
  151.1554  145.3897  160.3195 H   0  0  0  0  0  0  0  0  0  0  0  0
  150.1265  144.2489  159.4345 H   0  0  0  0  0  0  0  0  0  0  0  0
  153.7251  143.6814  158.8913 H   0  0  0  0  0  0  0  0  0  0  0  0
  152.5403  143.5857  160.1880 H   0  0  0  0  0  0  0  0  0  0  0  0
  151.0217  142.3341  158.4767 H   0  0  0  0  0  0  0  0  0  0  0  0
  152.4245  142.1759  157.4659 H   0  0  0  0  0  0  0  0  0  0  0  0
  154.0439  142.1153  160.2252 H   0  0  0  0  0  0  0  0  0  0  0  0
  152.8232  141.5422  161.3066 H   0  0  0  0  0  0  0  0  0  0  0  0
  154.6866  140.0540  161.6852 H   0  0  0  0  0  0  0  0  0  0  0  0
  153.6513  139.1164  160.6231 H   0  0  0  0  0  0  0  0  0  0  0  0
  151.4505  136.9339  160.1666 H   0  0  0  0  0  0  0  0  0  0  0  0
  151.9153  139.4695  154.2693 H   0  0  0  0  0  0  0  0  0  0  0  0
  151.5267  137.0077  153.9927 H   0  0  0  0  0  0  0  0  0  0  0  0
  151.9946  136.0143  155.3481 H   0  0  0  0  0  0  0  0  0  0  0  0
  148.9464  137.0800  153.6576 H   0  0  0  0  0  0  0  0  0  0  0  0
  149.4220  135.0324  153.4701 H   0  0  0  0  0  0  0  0  0  0  0  0
  150.4562  134.3151  154.7040 H   0  0  0  0  0  0  0  0  0  0  0  0
  147.4808  134.8964  154.9775 H   0  0  0  0  0  0  0  0  0  0  0  0
  148.3039  133.3539  155.2427 H   0  0  0  0  0  0  0  0  0  0  0  0
  150.2932  135.8511  157.2671 H   0  0  0  0  0  0  0  0  0  0  0  0
  149.1398  138.1128  157.3633 H   0  0  0  0  0  0  0  0  0  0  0  0
  148.3956  136.9004  158.3989 H   0  0  0  0  0  0  0  0  0  0  0  0
  147.6375  137.3298  156.8733 H   0  0  0  0  0  0  0  0  0  0  0  0
  1  2  1  0  0  0  0
  1 27  1  0  0  0  0
  1 28  1  0  0  0  0
  1 29  1  0  0  0  0
  2  3  1  0  0  0  0
  3  4  1  0  0  0  0
  3 30  1  0  0  0  0
  3 31  1  0  0  0  0
  4  5  1  0  0  0  0
  4 32  1  0  0  0  0
  4 33  1  0  0  0  0
  5  6  1  0  0  0  0
  5 10  1  0  0  0  0
  6  7  1  0  0  0  0
  6 34  1  0  0  0  0
  6 35  1  0  0  0  0
  7  8  1  0  0  0  0
  7 36  1  0  0  0  0
  7 37  1  0  0  0  0
  8  9  3  0  0  0  0
 10 15  1  0  0  0  0
 10 11  2  0  0  0  0
 11 12  1  0  0  0  0
 12 13  2  0  0  0  0
 12 38  1  0  0  0  0
 13 14  1  0  0  0  0
 14 18  1  0  0  0  0
 14 15  2  0  0  0  0
 15 16  1  0  0  0  0
 16 17  2  0  0  0  0
 17 18  1  0  0  0  0
 17 39  1  0  0  0  0
 18 19  1  0  0  0  0
 19 20  1  0  0  0  0
 19 40  1  0  0  0  0
 19 41  1  0  0  0  0
 20 25  1  0  0  0  0
 20 21  1  0  0  0  0
 20 22  1  0  0  0  0
 21 42  1  0  0  0  0
 22 23  1  0  0  0  0
 22 43  1  0  0  0  0
 22 44  1  0  0  0  0
 23 24  1  0  0  0  0
 23 45  1  0  0  0  0
 23 46  1  0  0  0  0
 24 25  1  0  0  0  0
 25 26  1  0  0  0  0
 25 47  1  0  0  0  0
 26 48  1  0  0  0  0
 26 49  1  0  0  0  0
 26 50  1  0  0  0  0
M  END
> <s_m_source_file>
AV-unprocessed.smi

> <i_m_source_file_index>
178

> <i_lp_mmshare_version>
43012

> <i_f3d_flags>
0

> <s_epik_input>
W0NIM11PW0NIMl1bQ0gyXU4oW0NIMl1bQ0gyXUMjTiljKG5bY0hdbjEpYyhjMTIpbltjSF1uMltDSDJdW0NAQF0zKFtPSF0pW0NIMl1bQ0gyXU9bQ0BIXTNbQ0gzXQ==

> <s_epik_cmdline>
J2VwaWtfcHl0aG9uJywgJy1waCcsICc3LjAnLCAnLXRuJywgJzgnLCAnLW1hJywgJzIwMCcsICctbWV0YWxfYmluZGluZycsICctaW1hZScsICc8aW5maWxlLm1hZT4nLCAnLW9tYWUnLCAnPG91dGZpbGUubWFlPic=

> <r_lp_tautomer_probability>
1

> <r_epik_Ionization_Penalty>
0.000885317

> <r_epik_Ionization_Penalty_Charging>
0

> <r_epik_Ionization_Penalty_Neutral>
0.000885317

> <r_epik_State_Penalty>
0.00047273

> <r_epik_Charging_Adjusted_Penalty>
0.00047273

> <i_epik_Tot_Q>
0

> <i_epik_Tot_abs_Q>
0

> <r_epik_Metal_State_Penalty>
-0

> <b_epik_Metal_Only>
0

> <s_lp_Force_Field>
OPLS_2005

> <r_lp_Energy>
28.3017

> <b_lp_Chiralities_Consistent>
1

> <s_lp_Variant>
AV-unprocessed.smi:178-3

> <Gold.Version>
5.8.1

> <Gold.Id.Protein>
6NUR|6NUR_protein|mol2

> <Gold.PLP.Fitness>
42.1303

> <Gold.PLP.PLP>
-35.5703

> <Gold.PLP.part.hbond>
-3.0843

> <Gold.PLP.part.metal>
0.0000

> <Gold.PLP.part.buried>
-1.0773

> <Gold.PLP.part.nonpolar>
-31.4893

> <Gold.PLP.part.repulsive>
0.1054

> <Gold.PLP.ligand.clash>
0.0113

> <Gold.PLP.ligand.torsion>
1.2880

> <Gold.PLP.Chemscore.Hbond>
3.0000

> <Gold.PLP.Chemscore.CHOScore>
0.0000

> <Gold.PLP.Chemscore.Metal>
0.0000

> <Gold.Chemscore.Hbonds>
donor molecule, donor type, donor heavy atom, donor atom, acceptor molecule, acceptor atom, score
      L1  H    21    42       P1  7948  1.00
      P1  H  7997  8008       L1     9  1.00
      P1  H  7997  8009       L1    16  0.48

> <Gold.PLP.Chemscore.Internal.Correction>
0.1474

> <Gold.Rescore>
     Score         DG    S(hbond)    S(metal)    S(lipo)     H(rot)  DE(clash)    DE(int)     intcor
      7.30     -12.71       2.02        0.00      78.01       3.37       1.31       4.11       ----

> <Gold.Chemscore.Fitness>
7.2956

> <Gold.Chemscore.DG>
-12.7100

> <Gold.Chemscore.ZeroCoef>
-5.4800

> <Gold.Chemscore.Hbond>
2.0173

> <Gold.Chemscore.Metal>
0.0000

> <Gold.Chemscore.Lipo>
78.0133

> <Gold.Chemscore.Internal_Hbond>
0.0000

> <Gold.Chemscore.DEClash>
1.3050

> <Gold.Chemscore.DEInternal>
4.1095

> <Gold.Chemscore.Rot>
3.3732

> <Gold.Chemscore.Internal.Correction>
   9.000000E+99

> <Gold.Chemscore.Hbonds>
donor molecule, donor type, donor heavy atom, donor atom, acceptor molecule, acceptor atom, score
      L1  H    21    42       P1  7948  0.98
      P1  H  7997  8008       L1     9  0.74
      P1  H  7997  8009       L1    16  0.02

> <Gold.Chemscore.Hbond.Weighted>
-6.7378

> <Gold.Chemscore.Metal.Weighted>
-0.0000

> <Gold.Chemscore.Lipo.Weighted>
-9.1276

> <Gold.Chemscore.Internal_Hbond.Weighted>
0.0000

> <Gold.Chemscore.DEClash.Weighted>
1.3050

> <Gold.Chemscore.DEInternal.Weighted>
4.1095

> <Gold.Chemscore.Rot.Weighted>
8.6354

> <Gold.Chemscore.Internal.Correction.Weighted>
   9.000000E+99

> <Gold.Protein.RotatedTorsions>
[ 6907 6896 6895 6894 ] final  130.70 input  -60.11 | X-H torsion
[ 7974 7965 7964 7962 ] final  111.96 input  175.53 | X-H torsion
[ 8008 7997 7996 7995 ] final -150.81 input   59.86 | X-H torsion
[ 10167 10162 10161 10158 ] final   68.56 input  -65.29 | X-H torsion
[ 10718 10713 10712 10709 ] final   69.12 input   66.30 | X-H torsion
[ 10763 10752 10751 10750 ] final   56.22 input  -60.55 | X-H torsion
[ 11005 11000 10999 10996 ] final   32.91 input  -57.11 | X-H torsion

> <Gold.Protein.ActiveResidues>
 VAL166  LYS551  ARG553  GLY616  TRP617  ASP618  TYR619  PRO620  LYS621  CYS622 
 ASP623  PHE694  ASN695  SER759  ASP760  ASP761  ALA762  ILE779  LEU786  VAL792 
 PHE793  MET794  SER795  GLU796  ALA797  LYS798  CYS799  TRP800  GLU811  SER814 

> <Gold.Protein.RotatedAtoms>
  152.3500  133.6168  159.5937 H   0  0  0  0  0  0  0  0  0  0  0  0  # atno 6907 bound_to 6896
  150.7532  133.9589  159.3518 H   0  0  0  0  0  0  0  0  0  0  0  0  # atno 6908 bound_to 6896
  151.7442  135.0848  160.0371 H   0  0  0  0  0  0  0  0  0  0  0  0  # atno 6909 bound_to 6896
  145.2356  139.2800  143.4145 H   0  0  0  0  0  0  0  0  0  0  0  0  # atno 7974 bound_to 7965
  155.6294  140.0690  157.2653 H   0  0  0  0  0  0  0  0  0  0  0  0  # atno 8008 bound_to 7997
  154.4209  140.1770  156.1505 H   0  0  0  0  0  0  0  0  0  0  0  0  # atno 8009 bound_to 7997
  155.9945  140.3342  155.6788 H   0  0  0  0  0  0  0  0  0  0  0  0  # atno 8010 bound_to 7997
  140.0774  144.5101  150.7185 H   0  0  0  0  0  0  0  0  0  0  0  0  # atno 10167 bound_to 10162
  157.6328  130.9409  150.0471 H   0  0  0  0  0  0  0  0  0  0  0  0  # atno 10718 bound_to 10713
  152.9828  135.5683  154.5194 H   0  0  0  0  0  0  0  0  0  0  0  0  # atno 10763 bound_to 10752
  154.4685  135.2784  155.1662 H   0  0  0  0  0  0  0  0  0  0  0  0  # atno 10764 bound_to 10752
  154.3220  135.6267  153.5565 H   0  0  0  0  0  0  0  0  0  0  0  0  # atno 10765 bound_to 10752
  140.2686  134.3109  155.7835 H   0  0  0  0  0  0  0  0  0  0  0  0  # atno 11005 bound_to 11000
  146.3342  140.2704  142.8605 LP  0  0  0  0  0  0  0  0  0  0  0  0  # atno 17320 bound_to 7965
  144.9636  140.8299  143.5498 LP  0  0  0  0  0  0  0  0  0  0  0  0  # atno 17321 bound_to 7965
  140.7095  143.2494  151.4624 LP  0  0  0  0  0  0  0  0  0  0  0  0  # atno 17342 bound_to 10162
  139.5800  144.1732  152.1955 LP  0  0  0  0  0  0  0  0  0  0  0  0  # atno 17343 bound_to 10162
  156.1544  130.3643  149.9390 LP  0  0  0  0  0  0  0  0  0  0  0  0  # atno 17370 bound_to 10713
  156.7403  130.9077  151.3631 LP  0  0  0  0  0  0  0  0  0  0  0  0  # atno 17371 bound_to 10713
  141.2180  133.7453  156.9299 LP  0  0  0  0  0  0  0  0  0  0  0  0  # atno 17394 bound_to 11000
  140.1395  134.9303  157.2448 LP  0  0  0  0  0  0  0  0  0  0  0  0  # atno 17395 bound_to 11000

$$$$
