AV-unprocessed.smi:3340|AV-procd|sdf|12881|dock6
  -GOLD-   2272019283D 1   1.00000     0.00000
 Structure written by MMmdl.
 41 42  0  0  0  0  0  0  0  0  1 V2000
  152.8551  141.9064  160.2075 C   0  0  0  0  0  0  0  0  0  0  0  0
  152.8969  140.7919  159.1593 C   0  0  0  0  0  0  0  0  0  0  0  0
  153.8902  140.0651  159.1301 O   0  0  0  0  0  0  0  0  0  0  0  0
  151.8532  140.6403  158.3089 N   0  0  0  0  0  0  0  0  0  0  0  0
  150.6905  141.5415  158.3075 C   0  0  0  0  0  0  0  0  0  0  0  0
  150.6247  142.2765  156.9533 C   0  0  0  0  0  0  0  0  0  0  0  0
  150.5343  141.2767  155.8719 N   0  0  0  0  0  0  0  0  0  0  0  0
  149.4472  141.0299  155.0987 C   0  0  0  0  0  0  0  0  0  0  0  0
  149.4774  140.3037  154.1040 O   0  0  0  0  0  0  0  0  0  0  0  0
  148.3335  141.6839  155.4718 N   0  0  0  0  0  0  0  0  0  0  0  0
  147.0411  141.6174  154.7960 C   0  0  2  0  0  0  0  0  0  0  0  0
  146.7332  142.9838  154.1622 C   0  0  0  0  0  0  0  0  0  0  0  0
  145.9506  141.1469  155.7825 C   0  0  0  0  0  0  0  0  0  0  0  0
  145.9686  141.8857  157.0307 N   0  0  0  0  0  0  0  0  0  0  0  0
  145.9043  143.2641  157.1861 C   0  0  0  0  0  0  0  0  0  0  0  0
  145.9480  143.5096  158.5400 C   0  0  0  0  0  0  0  0  0  0  0  0
  146.0332  142.3039  159.2326 N   0  0  0  0  0  0  0  0  0  0  0  0
  146.0371  141.3874  158.2730 C   0  0  0  0  0  0  0  0  0  0  0  0
  151.7064  140.3881  155.8750 C   0  0  0  0  0  0  0  0  0  0  0  0
  151.7722  139.6476  157.2255 C   0  0  0  0  0  0  0  0  0  0  0  0
  152.0055  141.7746  160.8782 H   0  0  0  0  0  0  0  0  0  0  0  0
  152.7837  142.8841  159.7302 H   0  0  0  0  0  0  0  0  0  0  0  0
  153.7616  141.8987  160.8136 H   0  0  0  0  0  0  0  0  0  0  0  0
  149.7826  140.9575  158.4657 H   0  0  0  0  0  0  0  0  0  0  0  0
  150.7210  142.2725  159.1162 H   0  0  0  0  0  0  0  0  0  0  0  0
  149.7987  142.9872  156.9710 H   0  0  0  0  0  0  0  0  0  0  0  0
  151.5239  142.8772  156.8094 H   0  0  0  0  0  0  0  0  0  0  0  0
  148.3894  142.2777  156.2865 H   0  0  0  0  0  0  0  0  0  0  0  0
  147.1127  140.8923  153.9830 H   0  0  0  0  0  0  0  0  0  0  0  0
  145.8187  142.9526  153.5694 H   0  0  0  0  0  0  0  0  0  0  0  0
  147.5383  143.2970  153.4967 H   0  0  0  0  0  0  0  0  0  0  0  0
  146.6109  143.7553  154.9232 H   0  0  0  0  0  0  0  0  0  0  0  0
  144.9599  141.2610  155.3405 H   0  0  0  0  0  0  0  0  0  0  0  0
  146.0727  140.0855  156.0039 H   0  0  0  0  0  0  0  0  0  0  0  0
  145.8375  143.9365  156.3435 H   0  0  0  0  0  0  0  0  0  0  0  0
  145.9235  144.4533  159.0644 H   0  0  0  0  0  0  0  0  0  0  0  0
  146.0954  140.3286  158.4790 H   0  0  0  0  0  0  0  0  0  0  0  0
  151.6898  139.6658  155.0578 H   0  0  0  0  0  0  0  0  0  0  0  0
  152.6093  140.9821  155.7263 H   0  0  0  0  0  0  0  0  0  0  0  0
  152.6040  138.9455  157.2108 H   0  0  0  0  0  0  0  0  0  0  0  0
  150.8766  139.0404  157.3649 H   0  0  0  0  0  0  0  0  0  0  0  0
  1  2  1  0  0  0  0
  1 21  1  0  0  0  0
  1 22  1  0  0  0  0
  1 23  1  0  0  0  0
  2  3  2  0  0  0  0
  2  4  1  0  0  0  0
  4 20  1  0  0  0  0
  4  5  1  0  0  0  0
  5  6  1  0  0  0  0
  5 24  1  0  0  0  0
  5 25  1  0  0  0  0
  6  7  1  0  0  0  0
  6 26  1  0  0  0  0
  6 27  1  0  0  0  0
  7  8  1  0  0  0  0
  7 19  1  0  0  0  0
  8  9  2  0  0  0  0
  8 10  1  0  0  0  0
 10 11  1  0  0  0  0
 10 28  1  0  0  0  0
 11 12  1  0  0  0  0
 11 13  1  0  0  0  0
 11 29  1  0  0  0  0
 12 30  1  0  0  0  0
 12 31  1  0  0  0  0
 12 32  1  0  0  0  0
 13 14  1  0  0  0  0
 13 33  1  0  0  0  0
 13 34  1  0  0  0  0
 14 18  1  0  0  0  0
 14 15  1  0  0  0  0
 15 16  2  0  0  0  0
 15 35  1  0  0  0  0
 16 17  1  0  0  0  0
 16 36  1  0  0  0  0
 17 18  2  0  0  0  0
 18 37  1  0  0  0  0
 19 20  1  0  0  0  0
 19 38  1  0  0  0  0
 19 39  1  0  0  0  0
 20 40  1  0  0  0  0
 20 41  1  0  0  0  0
M  END
> <s_m_source_file>
AV-unprocessed.smi

> <i_m_source_file_index>
3340

> <i_lp_mmshare_version>
43012

> <i_f3d_flags>
0

> <s_epik_input>
W0NIM11DKD1PKU4xW0NIMl1bQ0gyXU4oW0NIMl1bQ0gyXTEpQyg9TylbTkhdW0NASF0oW0NIM10pW0NIMl1uMltjSF1bY0hdbltjSF0y

> <s_epik_cmdline>
J2VwaWtfcHl0aG9uJywgJy1waCcsICc3LjAnLCAnLXRuJywgJzgnLCAnLW1hJywgJzIwMCcsICctbWV0YWxfYmluZGluZycsICctaW1hZScsICc8aW5maWxlLm1hZT4nLCAnLW9tYWUnLCAnPG91dGZpbGUubWFlPic=

> <r_lp_tautomer_probability>
1

> <r_epik_Ionization_Penalty>
0.622948

> <r_epik_Ionization_Penalty_Charging>
0.622904

> <r_epik_Ionization_Penalty_Neutral>
4.39259e-05

> <r_epik_State_Penalty>
0.639086

> <r_epik_Charging_Adjusted_Penalty>
1.26199

> <i_epik_Tot_Q>
0

> <i_epik_Tot_abs_Q>
0

> <r_epik_Metal_State_Penalty>
0.307185

> <b_epik_Metal_Only>
0

> <s_lp_Force_Field>
OPLS_2005

> <r_lp_Energy>
49.2595

> <b_lp_Chiralities_Consistent>
1

> <s_lp_Variant>
AV-unprocessed.smi:3340-3

> <Gold.Version>
5.8.1

> <Gold.Id.Protein>
6NUR|6NUR_protein|mol2

> <Gold.PLP.Fitness>
39.2898

> <Gold.PLP.PLP>
-32.0475

> <Gold.PLP.part.hbond>
-3.2456

> <Gold.PLP.part.metal>
0.0000

> <Gold.PLP.part.buried>
-3.6515

> <Gold.PLP.part.nonpolar>
-26.3813

> <Gold.PLP.part.repulsive>
1.5311

> <Gold.PLP.ligand.clash>
0.0000

> <Gold.PLP.ligand.torsion>
0.2409

> <Gold.PLP.Chemscore.Hbond>
2.5579

> <Gold.PLP.Chemscore.CHOScore>
0.0000

> <Gold.PLP.Chemscore.Metal>
0.0000

> <Gold.Chemscore.Hbonds>
donor molecule, donor type, donor heavy atom, donor atom, acceptor molecule, acceptor atom, score
      P1  H  6934  6946       L1    17  0.26
      P1  H  7989  7998       L1     9  0.20
      P1  H  7997  8008       L1     3  0.76

> <Gold.PLP.Chemscore.Internal.Correction>
0.0502

> <Gold.Rescore>
     Score         DG    S(hbond)    S(metal)    S(lipo)     H(rot)  DE(clash)    DE(int)     intcor
     11.23     -12.78       1.57        0.00      53.65       1.65       1.28       0.28       ----

> <Gold.Chemscore.Fitness>
11.2273

> <Gold.Chemscore.DG>
-12.7830

> <Gold.Chemscore.ZeroCoef>
-5.4800

> <Gold.Chemscore.Hbond>
1.5697

> <Gold.Chemscore.Metal>
0.0000

> <Gold.Chemscore.Lipo>
53.6470

> <Gold.Chemscore.Internal_Hbond>
0.0000

> <Gold.Chemscore.DEClash>
1.2780

> <Gold.Chemscore.DEInternal>
0.2777

> <Gold.Chemscore.Rot>
1.6471

> <Gold.Chemscore.Internal.Correction>
   9.000000E+99

> <Gold.Chemscore.Hbonds>
donor molecule, donor type, donor heavy atom, donor atom, acceptor molecule, acceptor atom, score
      P1  H  6934  6946       L1    17  0.01
      P1  H  7989  7998       L1     9  0.03
      P1  H  7997  8008       L1     3  0.66

> <Gold.Chemscore.Hbond.Weighted>
-5.2429

> <Gold.Chemscore.Metal.Weighted>
-0.0000

> <Gold.Chemscore.Lipo.Weighted>
-6.2767

> <Gold.Chemscore.Internal_Hbond.Weighted>
0.0000

> <Gold.Chemscore.DEClash.Weighted>
1.2780

> <Gold.Chemscore.DEInternal.Weighted>
0.2777

> <Gold.Chemscore.Rot.Weighted>
4.2166

> <Gold.Chemscore.Internal.Correction.Weighted>
   9.000000E+99

> <Gold.Protein.RotatedTorsions>
[ 6907 6896 6895 6894 ] final   59.84 input  -60.11 | X-H torsion
[ 7974 7965 7964 7962 ] final   56.05 input  175.53 | X-H torsion
[ 8008 7997 7996 7995 ] final -110.84 input   59.86 | X-H torsion
[ 10167 10162 10161 10158 ] final   79.79 input  -65.29 | X-H torsion
[ 10718 10713 10712 10709 ] final   -4.93 input   66.30 | X-H torsion
[ 10763 10752 10751 10750 ] final  143.89 input  -60.55 | X-H torsion
[ 11005 11000 10999 10996 ] final  164.15 input  -57.11 | X-H torsion

> <Gold.Protein.ActiveResidues>
 VAL166  LYS551  ARG553  GLY616  TRP617  ASP618  TYR619  PRO620  LYS621  CYS622 
 ASP623  PHE694  ASN695  SER759  ASP760  ASP761  ALA762  ILE779  LEU786  VAL792 
 PHE793  MET794  SER795  GLU796  ALA797  LYS798  CYS799  TRP800  GLU811  SER814 

> <Gold.Protein.RotatedAtoms>
  152.3950  134.6379  160.0092 H   0  0  0  0  0  0  0  0  0  0  0  0  # atno 6907 bound_to 6896
  151.6602  133.3311  159.3180 H   0  0  0  0  0  0  0  0  0  0  0  0  # atno 6908 bound_to 6896
  150.7859  134.6887  159.6529 H   0  0  0  0  0  0  0  0  0  0  0  0  # atno 6909 bound_to 6896
  145.9440  139.3913  143.0346 H   0  0  0  0  0  0  0  0  0  0  0  0  # atno 7974 bound_to 7965
  154.9806  140.0396  157.2276 H   0  0  0  0  0  0  0  0  0  0  0  0  # atno 8008 bound_to 7997
  154.7717  140.2803  155.6110 H   0  0  0  0  0  0  0  0  0  0  0  0  # atno 8009 bound_to 7997
  156.2922  140.2608  156.2521 H   0  0  0  0  0  0  0  0  0  0  0  0  # atno 8010 bound_to 7997
  139.9566  144.5990  150.8111 H   0  0  0  0  0  0  0  0  0  0  0  0  # atno 10167 bound_to 10162
  156.7541  130.5249  149.5798 H   0  0  0  0  0  0  0  0  0  0  0  0  # atno 10718 bound_to 10713
  153.9799  135.2942  155.3421 H   0  0  0  0  0  0  0  0  0  0  0  0  # atno 10763 bound_to 10752
  154.7275  135.5082  153.8913 H   0  0  0  0  0  0  0  0  0  0  0  0  # atno 10764 bound_to 10752
  153.0859  135.6693  154.0063 H   0  0  0  0  0  0  0  0  0  0  0  0  # atno 10765 bound_to 10752
  140.2430  134.8036  157.3429 H   0  0  0  0  0  0  0  0  0  0  0  0  # atno 11005 bound_to 11000
  145.8262  140.9654  143.0873 LP  0  0  0  0  0  0  0  0  0  0  0  0  # atno 17320 bound_to 7965
  144.6784  140.0104  143.7484 LP  0  0  0  0  0  0  0  0  0  0  0  0  # atno 17321 bound_to 7965
  140.7566  143.3070  151.2938 LP  0  0  0  0  0  0  0  0  0  0  0  0  # atno 17342 bound_to 10162
  139.6586  144.0230  152.2677 LP  0  0  0  0  0  0  0  0  0  0  0  0  # atno 17343 bound_to 10162
  156.1382  130.6226  151.0430 LP  0  0  0  0  0  0  0  0  0  0  0  0  # atno 17370 bound_to 10713
  157.6764  131.0849  150.7483 LP  0  0  0  0  0  0  0  0  0  0  0  0  # atno 17371 bound_to 10713
  140.1634  134.4699  155.7879 LP  0  0  0  0  0  0  0  0  0  0  0  0  # atno 17394 bound_to 11000
  141.2209  133.6911  156.7584 LP  0  0  0  0  0  0  0  0  0  0  0  0  # atno 17395 bound_to 11000

$$$$
