AV-unprocessed.smi:149|AV-procd|sdf|1235|dock5
  -GOLD-   2262018443D 1   1.00000     0.00000
 Structure written by MMmdl.
 60 64  0  0  0  0  0  0  0  0  2 V2000
  153.3102  129.8668  155.0147 C   0  0  0  0  0  0  0  0  0  0  0  0
  152.1489  129.5595  155.9822 C   0  0  1  0  0  0  0  0  0  0  0  0
  151.1169  130.6998  155.9661 C   0  0  0  0  0  0  0  0  0  0  0  0
  150.0493  130.2678  155.0720 N   0  0  0  0  0  0  0  0  0  0  0  0
  149.3208  131.1661  154.3596 C   0  0  0  0  0  0  0  0  0  0  0  0
  149.6941  132.4731  154.3804 N   0  0  0  0  0  0  0  0  0  0  0  0
  149.0034  133.3864  153.6928 C   0  0  0  0  0  0  0  0  0  0  0  0
  147.9274  133.2127  152.9250 N   0  0  0  0  0  0  0  0  0  0  0  0
  147.5504  131.9025  152.8847 C   0  0  0  0  0  0  0  0  0  0  0  0
  148.1864  130.8237  153.5656 C   0  0  0  0  0  0  0  0  0  0  0  0
  147.5282  129.6345  153.2737 N   0  0  0  0  0  0  0  0  0  0  0  0
  146.5574  129.9889  152.4780 C   0  0  0  0  0  0  0  0  0  0  0  0
  146.4940  131.3334  152.1900 N   0  0  0  0  0  0  0  0  0  0  0  0
  145.5274  131.9761  151.3432 C   0  0  0  0  0  0  0  0  0  0  0  0
  145.9518  132.8432  150.1567 C   0  0  0  0  0  0  0  0  0  0  0  0
  144.7095  133.7365  150.3758 C   0  0  0  0  0  0  0  0  0  0  0  0
  144.9609  135.2474  150.2419 C   0  0  0  0  0  0  0  0  0  0  0  0
  144.0283  135.9931  150.9979 O   0  0  0  0  0  0  0  0  0  0  0  0
  143.4718  133.3513  149.5404 C   0  0  0  0  0  0  0  0  0  0  0  0
  143.5394  133.8889  148.2350 O   0  0  0  0  0  0  0  0  0  0  0  0
  144.7245  133.1868  151.8215 C   0  0  0  0  0  0  0  0  0  0  0  0
  150.3323  128.9356  154.5597 C   0  0  0  0  0  0  0  0  0  0  0  0
  151.2973  128.3354  155.5875 C   0  0  1  0  0  0  0  0  0  0  0  0
  152.0703  127.1525  155.1150 N   0  3  0  0  0  0  0  0  0  0  0  0
  153.3067  126.9234  155.9063 C   0  0  0  0  0  0  0  0  0  0  0  0
  154.0967  125.7291  155.3465 C   0  0  0  0  0  0  0  0  0  0  0  0
  153.2725  124.5714  155.3493 O   0  0  0  0  0  0  0  0  0  0  0  0
  152.1268  124.7377  154.5253 C   0  0  0  0  0  0  0  0  0  0  0  0
  151.2714  125.9017  155.0534 C   0  0  0  0  0  0  0  0  0  0  0  0
  152.9584  130.0037  153.9920 H   0  0  0  0  0  0  0  0  0  0  0  0
  154.0537  129.0706  155.0064 H   0  0  0  0  0  0  0  0  0  0  0  0
  153.8248  130.7820  155.3084 H   0  0  0  0  0  0  0  0  0  0  0  0
  152.5573  129.4404  156.9863 H   0  0  0  0  0  0  0  0  0  0  0  0
  150.6961  130.8474  156.9613 H   0  0  0  0  0  0  0  0  0  0  0  0
  151.5663  131.6414  155.6478 H   0  0  0  0  0  0  0  0  0  0  0  0
  149.3642  134.4017  153.7683 H   0  0  0  0  0  0  0  0  0  0  0  0
  145.8577  129.2707  152.0761 H   0  0  0  0  0  0  0  0  0  0  0  0
  144.8466  131.1934  151.0034 H   0  0  0  0  0  0  0  0  0  0  0  0
  146.8897  133.3734  150.3286 H   0  0  0  0  0  0  0  0  0  0  0  0
  145.9741  132.3186  149.2009 H   0  0  0  0  0  0  0  0  0  0  0  0
  145.9696  135.5164  150.5558 H   0  0  0  0  0  0  0  0  0  0  0  0
  144.8712  135.5627  149.2018 H   0  0  0  0  0  0  0  0  0  0  0  0
  143.9958  136.8719  150.6515 H   0  0  0  0  0  0  0  0  0  0  0  0
  143.3595  132.2692  149.4683 H   0  0  0  0  0  0  0  0  0  0  0  0
  142.5553  133.7182  150.0028 H   0  0  0  0  0  0  0  0  0  0  0  0
  144.4003  134.2567  148.1064 H   0  0  0  0  0  0  0  0  0  0  0  0
  143.7451  132.9395  152.2322 H   0  0  0  0  0  0  0  0  0  0  0  0
  145.2818  133.8217  152.5119 H   0  0  0  0  0  0  0  0  0  0  0  0
  149.4179  128.3481  154.4696 H   0  0  0  0  0  0  0  0  0  0  0  0
  150.7981  129.0068  153.5758 H   0  0  0  0  0  0  0  0  0  0  0  0
  150.7088  128.0320  156.4560 H   0  0  0  0  0  0  0  0  0  0  0  0
  153.9413  127.8091  155.8934 H   0  0  0  0  0  0  0  0  0  0  0  0
  153.0441  126.7373  156.9489 H   0  0  0  0  0  0  0  0  0  0  0  0
  154.4554  125.9356  154.3367 H   0  0  0  0  0  0  0  0  0  0  0  0
  154.9747  125.5376  155.9636 H   0  0  0  0  0  0  0  0  0  0  0  0
  152.4290  124.9140  153.4917 H   0  0  0  0  0  0  0  0  0  0  0  0
  151.5496  123.8130  154.5343 H   0  0  0  0  0  0  0  0  0  0  0  0
  150.8871  125.6632  156.0462 H   0  0  0  0  0  0  0  0  0  0  0  0
  150.4105  126.0263  154.3970 H   0  0  0  0  0  0  0  0  0  0  0  0
  152.3580  127.3556  154.1684 H   0  0  0  0  0  0  0  0  0  0  0  0
  1  2  1  0  0  0  0
  1 30  1  0  0  0  0
  1 31  1  0  0  0  0
  1 32  1  0  0  0  0
  2 23  1  0  0  0  0
  2  3  1  0  0  0  0
  2 33  1  0  0  0  0
  3  4  1  0  0  0  0
  3 34  1  0  0  0  0
  3 35  1  0  0  0  0
  4  5  1  0  0  0  0
  4 22  1  0  0  0  0
  5 10  1  0  0  0  0
  5  6  2  0  0  0  0
  6  7  1  0  0  0  0
  7  8  2  0  0  0  0
  7 36  1  0  0  0  0
  8  9  1  0  0  0  0
  9 13  1  0  0  0  0
  9 10  2  0  0  0  0
 10 11  1  0  0  0  0
 11 12  2  0  0  0  0
 12 13  1  0  0  0  0
 12 37  1  0  0  0  0
 13 14  1  0  0  0  0
 14 21  1  0  0  0  0
 14 15  1  0  0  0  0
 14 38  1  0  0  0  0
 15 16  1  0  0  0  0
 15 39  1  0  0  0  0
 15 40  1  0  0  0  0
 16 17  1  0  0  0  0
 16 19  1  0  0  0  0
 16 21  1  0  0  0  0
 17 18  1  0  0  0  0
 17 41  1  0  0  0  0
 17 42  1  0  0  0  0
 18 43  1  0  0  0  0
 19 20  1  0  0  0  0
 19 44  1  0  0  0  0
 19 45  1  0  0  0  0
 20 46  1  0  0  0  0
 21 47  1  0  0  0  0
 21 48  1  0  0  0  0
 22 23  1  0  0  0  0
 22 49  1  0  0  0  0
 22 50  1  0  0  0  0
 23 24  1  0  0  0  0
 23 51  1  0  0  0  0
 24 29  1  0  0  0  0
 24 25  1  0  0  0  0
 24 60  1  0  0  0  0
 25 26  1  0  0  0  0
 25 52  1  0  0  0  0
 25 53  1  0  0  0  0
 26 27  1  0  0  0  0
 26 54  1  0  0  0  0
 26 55  1  0  0  0  0
 27 28  1  0  0  0  0
 28 29  1  0  0  0  0
 28 56  1  0  0  0  0
 28 57  1  0  0  0  0
 29 58  1  0  0  0  0
 29 59  1  0  0  0  0
M  CHG  1  24   1
M  END
> <s_m_source_file>
AV-unprocessed.smi

> <i_m_source_file_index>
149

> <i_lp_mmshare_version>
43012

> <i_f3d_flags>
0

> <s_epik_input>
W0NIMl0xW0NIMl1PW0NIMl1bQ0gyXU4xW0NAQEhdMltDSDJdTihbQ0gyXVtDQEhdMltDSDNdKWMobltjSF1uMyljKGMzNCluW2NIXW40W0NIXShbQ0gyXTUpW0NIMl1DNShbQ0gyXVtPSF0pW0NIMl1bT0hd

> <s_epik_cmdline>
J2VwaWtfcHl0aG9uJywgJy1waCcsICc3LjAnLCAnLXRuJywgJzgnLCAnLW1hJywgJzIwMCcsICctbWV0YWxfYmluZGluZycsICctaW1hZScsICc8aW5maWxlLm1hZT4nLCAnLW9tYWUnLCAnPG91dGZpbGUubWFlPic=

> <r_lp_tautomer_probability>
1

> <r_epik_Ionization_Penalty>
0.404847

> <r_epik_Ionization_Penalty_Charging>
0.404623

> <r_epik_Ionization_Penalty_Neutral>
0.000224096

> <r_epik_State_Penalty>
0.238803

> <r_epik_Charging_Adjusted_Penalty>
0.643425

> <i_epik_Tot_Q>
1

> <i_epik_Tot_abs_Q>
1

> <r_epik_Metal_State_Penalty>
0.239083

> <b_epik_Metal_Only>
0

> <s_lp_Force_Field>
OPLS_2005

> <r_lp_Energy>
70.5457

> <b_lp_Chiralities_Consistent>
1

> <s_lp_Variant>
AV-unprocessed.smi:149-2

> <Gold.Version>
5.8.1

> <Gold.Id.Protein>
6NUR|6NUR_protein|mol2

> <Gold.PLP.Fitness>
51.9366

> <Gold.PLP.PLP>
-40.6203

> <Gold.PLP.part.hbond>
-4.7851

> <Gold.PLP.part.metal>
0.0000

> <Gold.PLP.part.buried>
3.0159

> <Gold.PLP.part.nonpolar>
-38.8577

> <Gold.PLP.part.repulsive>
0.4028

> <Gold.PLP.ligand.clash>
0.0000

> <Gold.PLP.ligand.torsion>
1.0490

> <Gold.PLP.Chemscore.Hbond>
3.8288

> <Gold.PLP.Chemscore.CHOScore>
0.4052

> <Gold.PLP.Chemscore.Metal>
0.0000

> <Gold.Chemscore.Hbonds>
donor molecule, donor type, donor heavy atom, donor atom, acceptor molecule, acceptor atom, score
      L1  H    18    43       P1 10171  1.00
      L1  H    20    46       P1  7921  1.00
      P1  H 10192 10197       L1    20  0.42
      L1  C     7    36       P1  7948  0.37

> <Gold.PLP.Chemscore.Internal.Correction>
0.7123

> <Gold.Rescore>
     Score         DG    S(hbond)    S(metal)    S(lipo)     H(rot)  DE(clash)    DE(int)     intcor
     15.79     -18.65       3.46        0.00      81.52       3.09       1.97       0.89       ----

> <Gold.Chemscore.Fitness>
15.7877

> <Gold.Chemscore.DG>
-18.6484

> <Gold.Chemscore.ZeroCoef>
-5.4800

> <Gold.Chemscore.Hbond>
3.4564

> <Gold.Chemscore.Metal>
0.0000

> <Gold.Chemscore.Lipo>
81.5165

> <Gold.Chemscore.Internal_Hbond>
0.0000

> <Gold.Chemscore.DEClash>
1.9735

> <Gold.Chemscore.DEInternal>
0.8872

> <Gold.Chemscore.Rot>
3.0912

> <Gold.Chemscore.Internal.Correction>
   9.000000E+99

> <Gold.Chemscore.Hbonds>
donor molecule, donor type, donor heavy atom, donor atom, acceptor molecule, acceptor atom, score
      L1  H    18    43       P1 10171  1.00
      L1  H    20    46       P1  7921  1.00
      L1  H    24    60       P1 10737  0.03
      P1  H 10192 10197       L1    20  0.29

> <Gold.Chemscore.Hbond.Weighted>
-11.5444

> <Gold.Chemscore.Metal.Weighted>
-0.0000

> <Gold.Chemscore.Lipo.Weighted>
-9.5374

> <Gold.Chemscore.Internal_Hbond.Weighted>
0.0000

> <Gold.Chemscore.DEClash.Weighted>
1.9735

> <Gold.Chemscore.DEInternal.Weighted>
0.8872

> <Gold.Chemscore.Rot.Weighted>
7.9135

> <Gold.Chemscore.Internal.Correction.Weighted>
   9.000000E+99

> <Gold.Protein.RotatedTorsions>
[ 6907 6896 6895 6894 ] final -175.57 input  -60.11 | X-H torsion
[ 7974 7965 7964 7962 ] final -127.93 input  175.53 | X-H torsion
[ 8008 7997 7996 7995 ] final   59.00 input   59.86 | X-H torsion
[ 10167 10162 10161 10158 ] final -156.91 input  -65.29 | X-H torsion
[ 10718 10713 10712 10709 ] final  113.11 input   66.30 | X-H torsion
[ 10763 10752 10751 10750 ] final -122.79 input  -60.55 | X-H torsion
[ 11005 11000 10999 10996 ] final  179.63 input  -57.11 | X-H torsion

> <Gold.Protein.ActiveResidues>
 VAL166  LYS551  ARG553  GLY616  TRP617  ASP618  TYR619  PRO620  LYS621  CYS622 
 ASP623  PHE694  ASN695  SER759  ASP760  ASP761  ALA762  ILE779  LEU786  VAL792 
 PHE793  MET794  SER795  GLU796  ALA797  LYS798  CYS799  TRP800  GLU811  SER814 

> <Gold.Protein.RotatedAtoms>
  151.5907  133.3367  159.3026 H   0  0  0  0  0  0  0  0  0  0  0  0  # atno 6907 bound_to 6896
  150.8262  134.7497  159.6826 H   0  0  0  0  0  0  0  0  0  0  0  0  # atno 6908 bound_to 6896
  152.4351  134.5709  159.9972 H   0  0  0  0  0  0  0  0  0  0  0  0  # atno 6909 bound_to 6896
  144.9721  140.7556  143.4664 H   0  0  0  0  0  0  0  0  0  0  0  0  # atno 7974 bound_to 7965
  155.5591  140.3488  155.4487 H   0  0  0  0  0  0  0  0  0  0  0  0  # atno 8008 bound_to 7997
  156.0527  140.1321  157.0057 H   0  0  0  0  0  0  0  0  0  0  0  0  # atno 8009 bound_to 7997
  154.4442  140.1001  156.6385 H   0  0  0  0  0  0  0  0  0  0  0  0  # atno 8010 bound_to 7997
  139.6812  143.9578  152.2338 H   0  0  0  0  0  0  0  0  0  0  0  0  # atno 10167 bound_to 10162
  157.6356  131.0978  150.6993 H   0  0  0  0  0  0  0  0  0  0  0  0  # atno 10718 bound_to 10713
  154.8696  135.4121  154.2838 H   0  0  0  0  0  0  0  0  0  0  0  0  # atno 10763 bound_to 10752
  153.3726  135.7008  153.6632 H   0  0  0  0  0  0  0  0  0  0  0  0  # atno 10764 bound_to 10752
  153.5487  135.3633  155.2722 H   0  0  0  0  0  0  0  0  0  0  0  0  # atno 10765 bound_to 10752
  140.4083  134.6715  157.4600 H   0  0  0  0  0  0  0  0  0  0  0  0  # atno 11005 bound_to 11000
  145.2543  139.2018  143.4925 LP  0  0  0  0  0  0  0  0  0  0  0  0  # atno 17320 bound_to 7965
  146.3385  140.2462  142.8597 LP  0  0  0  0  0  0  0  0  0  0  0  0  # atno 17321 bound_to 7965
  139.9368  144.6707  150.8306 LP  0  0  0  0  0  0  0  0  0  0  0  0  # atno 17342 bound_to 10162
  140.7653  143.3271  151.2492 LP  0  0  0  0  0  0  0  0  0  0  0  0  # atno 17343 bound_to 10162
  156.7325  130.4714  149.5496 LP  0  0  0  0  0  0  0  0  0  0  0  0  # atno 17370 bound_to 10713
  156.1593  130.6363  151.0697 LP  0  0  0  0  0  0  0  0  0  0  0  0  # atno 17371 bound_to 10713
  140.0286  134.6440  155.9138 LP  0  0  0  0  0  0  0  0  0  0  0  0  # atno 17394 bound_to 11000
  141.1831  133.6550  156.5102 LP  0  0  0  0  0  0  0  0  0  0  0  0  # atno 17395 bound_to 11000

$$$$
