AV-unprocessed.smi:2507|AV-procd|sdf|9863|dock3
  -GOLD-   2272013493D 1   1.00000     0.00000
 Structure written by MMmdl.
 44 45  0  0  0  0  0  0  0  0  1 V2000
  152.9024  138.5533  154.5489 C   0  0  0  0  0  0  0  0  0  0  0  0
  151.4836  138.1335  154.1489 C   0  0  0  0  0  0  0  0  0  0  0  0
  150.4723  139.2072  154.4443 C   0  0  0  0  0  0  0  0  0  0  0  0
  150.8616  140.3462  155.0017 N   0  0  0  0  0  0  0  0  0  0  0  0
  149.7332  141.0844  155.1288 N   0  0  0  0  0  0  0  0  0  0  0  0
  149.8128  142.4056  155.7137 C   0  0  0  0  0  0  0  0  0  0  0  0
  148.6192  140.4226  154.6550 C   0  0  0  0  0  0  0  0  0  0  0  0
  149.0701  139.2122  154.2094 C   0  0  0  0  0  0  0  0  0  0  0  0
  148.3391  138.1452  153.6262 N   0  0  0  0  0  0  0  0  0  0  0  0
  147.0904  137.7516  153.9254 C   0  0  0  0  0  0  0  0  0  0  0  0
  146.3579  138.2877  154.7572 O   0  0  0  0  0  0  0  0  0  0  0  0
  146.7278  136.6861  153.1991 N   0  0  0  0  0  0  0  0  0  0  0  0
  145.4340  136.0247  153.2992 C   0  0  0  0  0  0  0  0  0  0  0  0
  145.6122  134.5252  153.5791 C   0  0  0  0  0  0  0  0  0  0  0  0
  145.6143  133.6756  152.2980 C   0  0  2  0  0  0  0  0  0  0  0  0
  144.2583  133.7286  151.5672 C   0  0  0  0  0  0  0  0  0  0  0  0
  144.2712  132.8104  150.3397 C   0  0  0  0  0  0  0  0  0  0  0  0
  144.7072  131.4008  150.7528 C   0  0  0  0  0  0  0  0  0  0  0  0
  146.0311  131.4571  151.5316 C   0  0  0  0  0  0  0  0  0  0  0  0
  145.8979  132.3236  152.6540 O   0  0  0  0  0  0  0  0  0  0  0  0
  153.6195  137.7650  154.3197 H   0  0  0  0  0  0  0  0  0  0  0  0
  152.9657  138.7589  155.6180 H   0  0  0  0  0  0  0  0  0  0  0  0
  153.2123  139.4521  154.0148 H   0  0  0  0  0  0  0  0  0  0  0  0
  151.4674  137.8866  153.0871 H   0  0  0  0  0  0  0  0  0  0  0  0
  151.2166  137.2156  154.6737 H   0  0  0  0  0  0  0  0  0  0  0  0
  148.8359  142.8887  155.6802 H   0  0  0  0  0  0  0  0  0  0  0  0
  150.5274  143.0141  155.1585 H   0  0  0  0  0  0  0  0  0  0  0  0
  150.1360  142.3294  156.7523 H   0  0  0  0  0  0  0  0  0  0  0  0
  147.6349  140.8663  154.6801 H   0  0  0  0  0  0  0  0  0  0  0  0
  148.8248  137.6165  152.9165 H   0  0  0  0  0  0  0  0  0  0  0  0
  147.3880  136.3081  152.5356 H   0  0  0  0  0  0  0  0  0  0  0  0
  144.8488  136.4843  154.0975 H   0  0  0  0  0  0  0  0  0  0  0  0
  144.8851  136.1749  152.3685 H   0  0  0  0  0  0  0  0  0  0  0  0
  146.5393  134.3583  154.1293 H   0  0  0  0  0  0  0  0  0  0  0  0
  144.8039  134.1891  154.2300 H   0  0  0  0  0  0  0  0  0  0  0  0
  146.3969  134.0443  151.6323 H   0  0  0  0  0  0  0  0  0  0  0  0
  143.4618  133.4195  152.2452 H   0  0  0  0  0  0  0  0  0  0  0  0
  144.0309  134.7510  151.2635 H   0  0  0  0  0  0  0  0  0  0  0  0
  143.2861  132.7834  149.8734 H   0  0  0  0  0  0  0  0  0  0  0  0
  144.9619  133.2047  149.5932 H   0  0  0  0  0  0  0  0  0  0  0  0
  143.9368  130.9473  151.3773 H   0  0  0  0  0  0  0  0  0  0  0  0
  144.8127  130.7648  149.8735 H   0  0  0  0  0  0  0  0  0  0  0  0
  146.2997  130.4619  151.8859 H   0  0  0  0  0  0  0  0  0  0  0  0
  146.8463  131.7974  150.8914 H   0  0  0  0  0  0  0  0  0  0  0  0
  1  2  1  0  0  0  0
  1 21  1  0  0  0  0
  1 22  1  0  0  0  0
  1 23  1  0  0  0  0
  2  3  1  0  0  0  0
  2 24  1  0  0  0  0
  2 25  1  0  0  0  0
  3  8  1  0  0  0  0
  3  4  2  0  0  0  0
  4  5  1  0  0  0  0
  5  6  1  0  0  0  0
  5  7  1  0  0  0  0
  6 26  1  0  0  0  0
  6 27  1  0  0  0  0
  6 28  1  0  0  0  0
  7  8  2  0  0  0  0
  7 29  1  0  0  0  0
  8  9  1  0  0  0  0
  9 10  1  0  0  0  0
  9 30  1  0  0  0  0
 10 11  2  0  0  0  0
 10 12  1  0  0  0  0
 12 13  1  0  0  0  0
 12 31  1  0  0  0  0
 13 14  1  0  0  0  0
 13 32  1  0  0  0  0
 13 33  1  0  0  0  0
 14 15  1  0  0  0  0
 14 34  1  0  0  0  0
 14 35  1  0  0  0  0
 15 20  1  0  0  0  0
 15 16  1  0  0  0  0
 15 36  1  0  0  0  0
 16 17  1  0  0  0  0
 16 37  1  0  0  0  0
 16 38  1  0  0  0  0
 17 18  1  0  0  0  0
 17 39  1  0  0  0  0
 17 40  1  0  0  0  0
 18 19  1  0  0  0  0
 18 41  1  0  0  0  0
 18 42  1  0  0  0  0
 19 20  1  0  0  0  0
 19 43  1  0  0  0  0
 19 44  1  0  0  0  0
M  END
> <s_m_source_file>
AV-unprocessed.smi

> <i_m_source_file_index>
2507

> <i_lp_mmshare_version>
43012

> <i_f3d_flags>
0

> <s_epik_input>
W0NIM11bQ0gyXWMxbm4oW0NIM10pW2NIXWMxW05IXUMoPU8pW05IXVtDSDJdW0NIMl1bQ0BASF0yW0NIMl1bQ0gyXVtDSDJdW0NIMl1PMg==

> <s_epik_cmdline>
J2VwaWtfcHl0aG9uJywgJy1waCcsICc3LjAnLCAnLXRuJywgJzgnLCAnLW1hJywgJzIwMCcsICctbWV0YWxfYmluZGluZycsICctaW1hZScsICc8aW5maWxlLm1hZT4nLCAnLW9tYWUnLCAnPG91dGZpbGUubWFlPic=

> <r_lp_tautomer_probability>
1

> <r_epik_Ionization_Penalty>
0.00072031

> <r_epik_Ionization_Penalty_Charging>
0

> <r_epik_Ionization_Penalty_Neutral>
0.00072031

> <r_epik_State_Penalty>
-0

> <r_epik_Charging_Adjusted_Penalty>
0

> <i_epik_Tot_Q>
0

> <i_epik_Tot_abs_Q>
0

> <r_epik_Metal_State_Penalty>
-0

> <b_epik_Metal_Only>
0

> <s_lp_Force_Field>
OPLS_2005

> <r_lp_Energy>
7.60695

> <b_lp_Chiralities_Consistent>
1

> <s_lp_Variant>
AV-unprocessed.smi:2507-1

> <Gold.Version>
5.8.1

> <Gold.Id.Protein>
6NUR|6NUR_protein|mol2

> <Gold.PLP.Fitness>
40.2778

> <Gold.PLP.PLP>
-32.8380

> <Gold.PLP.part.hbond>
-3.0361

> <Gold.PLP.part.metal>
0.0000

> <Gold.PLP.part.buried>
0.0135

> <Gold.PLP.part.nonpolar>
-29.1080

> <Gold.PLP.part.repulsive>
0.3109

> <Gold.PLP.ligand.clash>
0.0000

> <Gold.PLP.ligand.torsion>
0.5007

> <Gold.PLP.Chemscore.Hbond>
2.8000

> <Gold.PLP.Chemscore.CHOScore>
0.0000

> <Gold.PLP.Chemscore.Metal>
0.0000

> <Gold.Chemscore.Hbonds>
donor molecule, donor type, donor heavy atom, donor atom, acceptor molecule, acceptor atom, score
      L1  H     9    30       P1  7948  1.00
      L1  H    12    31       P1  7948  1.00
      P1  H  7989  7998       L1     4  0.60

> <Gold.PLP.Chemscore.Internal.Correction>
0.0412

> <Gold.Rescore>
     Score         DG    S(hbond)    S(metal)    S(lipo)     H(rot)  DE(clash)    DE(int)     intcor
     17.68     -18.22       1.91        0.00      87.40       1.50       0.06       0.48       ----

> <Gold.Chemscore.Fitness>
17.6773

> <Gold.Chemscore.DG>
-18.2205

> <Gold.Chemscore.ZeroCoef>
-5.4800

> <Gold.Chemscore.Hbond>
1.9059

> <Gold.Chemscore.Metal>
0.0000

> <Gold.Chemscore.Lipo>
87.3985

> <Gold.Chemscore.Internal_Hbond>
0.0000

> <Gold.Chemscore.DEClash>
0.0630

> <Gold.Chemscore.DEInternal>
0.4802

> <Gold.Chemscore.Rot>
1.5042

> <Gold.Chemscore.Internal.Correction>
   9.000000E+99

> <Gold.Chemscore.Hbonds>
donor molecule, donor type, donor heavy atom, donor atom, acceptor molecule, acceptor atom, score
      L1  H     9    30       P1  7948  0.97
      L1  H    12    31       P1  7948  0.96
      P1  H  7989  7998       L1     4  0.02

> <Gold.Chemscore.Hbond.Weighted>
-6.3656

> <Gold.Chemscore.Metal.Weighted>
-0.0000

> <Gold.Chemscore.Lipo.Weighted>
-10.2256

> <Gold.Chemscore.Internal_Hbond.Weighted>
0.0000

> <Gold.Chemscore.DEClash.Weighted>
0.0630

> <Gold.Chemscore.DEInternal.Weighted>
0.4802

> <Gold.Chemscore.Rot.Weighted>
3.8507

> <Gold.Chemscore.Internal.Correction.Weighted>
   9.000000E+99

> <Gold.Protein.RotatedTorsions>
[ 6907 6896 6895 6894 ] final  133.74 input  -60.11 | X-H torsion
[ 7974 7965 7964 7962 ] final  -79.99 input  175.53 | X-H torsion
[ 8008 7997 7996 7995 ] final  -31.90 input   59.86 | X-H torsion
[ 10167 10162 10161 10158 ] final  -73.56 input  -65.29 | X-H torsion
[ 10718 10713 10712 10709 ] final  -67.49 input   66.30 | X-H torsion
[ 10763 10752 10751 10750 ] final  -84.35 input  -60.55 | X-H torsion
[ 11005 11000 10999 10996 ] final  101.06 input  -57.11 | X-H torsion

> <Gold.Protein.ActiveResidues>
 VAL166  LYS551  ARG553  GLY616  TRP617  ASP618  TYR619  PRO620  LYS621  CYS622 
 ASP623  PHE694  ASN695  SER759  ASP760  ASP761  ALA762  ILE779  LEU786  VAL792 
 PHE793  MET794  SER795  GLU796  ALA797  LYS798  CYS799  TRP800  GLU811  SER814 

> <Gold.Protein.RotatedAtoms>
  152.3187  133.5830  159.5729 H   0  0  0  0  0  0  0  0  0  0  0  0  # atno 6907 bound_to 6896
  150.7360  134.0044  159.3657 H   0  0  0  0  0  0  0  0  0  0  0  0  # atno 6908 bound_to 6896
  151.7930  135.0731  160.0441 H   0  0  0  0  0  0  0  0  0  0  0  0  # atno 6909 bound_to 6896
  145.5659  140.9474  143.1422 H   0  0  0  0  0  0  0  0  0  0  0  0  # atno 7974 bound_to 7965
  154.4198  140.1752  156.1641 H   0  0  0  0  0  0  0  0  0  0  0  0  # atno 8008 bound_to 7997
  155.9814  140.3377  155.6642 H   0  0  0  0  0  0  0  0  0  0  0  0  # atno 8009 bound_to 7997
  155.6495  140.0689  157.2582 H   0  0  0  0  0  0  0  0  0  0  0  0  # atno 8010 bound_to 7997
  140.5100  143.2346  151.7610 H   0  0  0  0  0  0  0  0  0  0  0  0  # atno 10167 bound_to 10162
  156.0555  130.4279  150.1862 H   0  0  0  0  0  0  0  0  0  0  0  0  # atno 10718 bound_to 10713
  154.5985  135.5523  153.7350 H   0  0  0  0  0  0  0  0  0  0  0  0  # atno 10763 bound_to 10752
  153.0145  135.6360  154.1748 H   0  0  0  0  0  0  0  0  0  0  0  0  # atno 10764 bound_to 10752
  154.1688  135.2893  155.3067 H   0  0  0  0  0  0  0  0  0  0  0  0  # atno 10765 bound_to 10752
  139.8772  134.9167  156.4850 H   0  0  0  0  0  0  0  0  0  0  0  0  # atno 11005 bound_to 11000
  144.7460  139.7318  143.7292 LP  0  0  0  0  0  0  0  0  0  0  0  0  # atno 17320 bound_to 7965
  146.1818  139.5014  142.9861 LP  0  0  0  0  0  0  0  0  0  0  0  0  # atno 17321 bound_to 7965
  139.4893  144.4404  151.9771 LP  0  0  0  0  0  0  0  0  0  0  0  0  # atno 17342 bound_to 10162
  140.3496  144.3105  150.5952 LP  0  0  0  0  0  0  0  0  0  0  0  0  # atno 17343 bound_to 10162
  156.9939  130.9902  151.3408 LP  0  0  0  0  0  0  0  0  0  0  0  0  # atno 17370 bound_to 10713
  157.5520  130.8189  149.8157 LP  0  0  0  0  0  0  0  0  0  0  0  0  # atno 17371 bound_to 10713
  140.8700  133.7995  155.9354 LP  0  0  0  0  0  0  0  0  0  0  0  0  # atno 17394 bound_to 11000
  140.8962  134.2434  157.5067 LP  0  0  0  0  0  0  0  0  0  0  0  0  # atno 17395 bound_to 11000

$$$$
