AV-unprocessed.smi:3173|AV-procd|sdf|12120|dock3
  -GOLD-   2272017563D 1   1.00000     0.00000
 Structure written by MMmdl.
 36 37  0  0  0  0  0  0  0  0  2 V2000
  151.1533  140.4607  155.7464 O   0  0  0  0  0  0  0  0  0  0  0  0
  150.3398  141.3733  155.8937 C   0  0  0  0  0  0  0  0  0  0  0  0
  148.8691  141.1744  155.5107 C   0  0  0  0  0  0  0  0  0  0  0  0
  148.6670  140.2247  154.3115 C   0  0  1  0  0  0  0  0  0  0  0  0
  148.7712  138.7749  154.7092 C   0  0  0  0  0  0  0  0  0  0  0  0
  147.7357  138.0499  154.2915 C   0  0  0  0  0  0  0  0  0  0  0  0
  146.7293  138.8684  153.5319 C   0  0  0  0  0  0  0  0  0  0  0  0
  147.2657  140.3124  153.6485 C   0  0  0  0  0  0  0  0  0  0  0  0
  150.6682  142.5754  156.3918 N   0  0  0  0  0  0  0  0  0  0  0  0
  152.0100  142.9699  156.8050 C   0  0  0  0  0  0  0  0  0  0  0  0
  151.9740  144.0835  157.8655 C   0  0  0  0  0  0  0  0  0  0  0  0
  152.3429  143.5736  159.2450 C   0  0  0  0  0  0  0  0  0  0  0  0
  152.8833  142.2851  159.4474 C   0  0  0  0  0  0  0  0  0  0  0  0
  153.2130  141.8739  160.7557 C   0  0  0  0  0  0  0  0  0  0  0  0
  152.9960  142.7582  161.8325 C   0  0  0  0  0  0  0  0  0  0  0  0
  152.4554  144.0343  161.5730 C   0  0  0  0  0  0  0  0  0  0  0  0
  152.1532  144.3919  160.3055 N   0  3  0  0  0  0  0  0  0  0  0  0
  148.3478  140.7796  156.3833 H   0  0  0  0  0  0  0  0  0  0  0  0
  148.4148  142.1423  155.2921 H   0  0  0  0  0  0  0  0  0  0  0  0
  149.4408  140.4024  153.5628 H   0  0  0  0  0  0  0  0  0  0  0  0
  149.6164  138.3886  155.2602 H   0  0  0  0  0  0  0  0  0  0  0  0
  147.6124  136.9890  154.4526 H   0  0  0  0  0  0  0  0  0  0  0  0
  146.6887  138.5350  152.4943 H   0  0  0  0  0  0  0  0  0  0  0  0
  145.7367  138.7667  153.9718 H   0  0  0  0  0  0  0  0  0  0  0  0
  146.5823  140.8996  154.2634 H   0  0  0  0  0  0  0  0  0  0  0  0
  147.3167  140.8002  152.6746 H   0  0  0  0  0  0  0  0  0  0  0  0
  149.9379  143.2676  156.4803 H   0  0  0  0  0  0  0  0  0  0  0  0
  152.5520  142.1008  157.1824 H   0  0  0  0  0  0  0  0  0  0  0  0
  152.5493  143.3123  155.9215 H   0  0  0  0  0  0  0  0  0  0  0  0
  152.6588  144.8864  157.5889 H   0  0  0  0  0  0  0  0  0  0  0  0
  150.9801  144.5307  157.9120 H   0  0  0  0  0  0  0  0  0  0  0  0
  153.0458  141.6201  158.6115 H   0  0  0  0  0  0  0  0  0  0  0  0
  153.6277  140.8919  160.9310 H   0  0  0  0  0  0  0  0  0  0  0  0
  153.2418  142.4622  162.8421 H   0  0  0  0  0  0  0  0  0  0  0  0
  152.2577  144.7739  162.3351 H   0  0  0  0  0  0  0  0  0  0  0  0
  151.7637  145.3206  160.1417 H   0  0  0  0  0  0  0  0  0  0  0  0
  1  2  2  0  0  0  0
  2  3  1  0  0  0  0
  2  9  1  0  0  0  0
  3  4  1  0  0  0  0
  3 18  1  0  0  0  0
  3 19  1  0  0  0  0
  4  8  1  0  0  0  0
  4  5  1  0  0  0  0
  4 20  1  0  0  0  0
  5  6  2  0  0  0  0
  5 21  1  0  0  0  0
  6  7  1  0  0  0  0
  6 22  1  0  0  0  0
  7  8  1  0  0  0  0
  7 23  1  0  0  0  0
  7 24  1  0  0  0  0
  8 25  1  0  0  0  0
  8 26  1  0  0  0  0
  9 10  1  0  0  0  0
  9 27  1  0  0  0  0
 10 11  1  0  0  0  0
 10 28  1  0  0  0  0
 10 29  1  0  0  0  0
 11 12  1  0  0  0  0
 11 30  1  0  0  0  0
 11 31  1  0  0  0  0
 12 17  1  0  0  0  0
 12 13  2  0  0  0  0
 13 14  1  0  0  0  0
 13 32  1  0  0  0  0
 14 15  2  0  0  0  0
 14 33  1  0  0  0  0
 15 16  1  0  0  0  0
 15 34  1  0  0  0  0
 16 17  2  0  0  0  0
 16 35  1  0  0  0  0
 17 36  1  0  0  0  0
M  CHG  1  17   1
M  END
> <s_m_source_file>
AV-unprocessed.smi

> <i_m_source_file_index>
3173

> <i_lp_mmshare_version>
43012

> <i_f3d_flags>
0

> <s_epik_input>
W0NIMl0xW0NIMl1bQ0hdPVtDSF1bQ0BIXTFbQ0gyXUMoPU8pW05IXVtDSDJdW0NIMl1jMltjSF1bY0hdW2NIXVtjSF1uMg==

> <s_epik_cmdline>
J2VwaWtfcHl0aG9uJywgJy1waCcsICc3LjAnLCAnLXRuJywgJzgnLCAnLW1hJywgJzIwMCcsICctbWV0YWxfYmluZGluZycsICctaW1hZScsICc8aW5maWxlLm1hZT4nLCAnLW9tYWUnLCAnPG91dGZpbGUubWFlPic=

> <r_epik_Ionization_Penalty>
1.86798

> <r_epik_Ionization_Penalty_Charging>
1.86798

> <r_epik_Ionization_Penalty_Neutral>
1.53848e-08

> <r_epik_State_Penalty>
1.98677

> <r_epik_Charging_Adjusted_Penalty>
3.85475

> <i_epik_Tot_Q>
1

> <i_epik_Tot_abs_Q>
1

> <r_epik_Metal_State_Penalty>
2.01174

> <b_epik_Metal_Only>
0

> <s_lp_Force_Field>
OPLS_2005

> <r_lp_Energy>
20.3145

> <b_lp_Chiralities_Consistent>
1

> <s_lp_Variant>
AV-unprocessed.smi:3173-4

> <Gold.Version>
5.8.1

> <Gold.Id.Protein>
6NUR|6NUR_protein|mol2

> <Gold.PLP.Fitness>
44.0976

> <Gold.PLP.PLP>
-41.6061

> <Gold.PLP.part.hbond>
-2.0000

> <Gold.PLP.part.metal>
0.0000

> <Gold.PLP.part.buried>
-2.3956

> <Gold.PLP.part.nonpolar>
-36.4377

> <Gold.PLP.part.repulsive>
0.2135

> <Gold.PLP.ligand.clash>
0.0000

> <Gold.PLP.ligand.torsion>
1.1310

> <Gold.PLP.Chemscore.Hbond>
1.5580

> <Gold.PLP.Chemscore.CHOScore>
0.0000

> <Gold.PLP.Chemscore.Metal>
0.0000

> <Gold.Chemscore.Hbonds>
donor molecule, donor type, donor heavy atom, donor atom, acceptor molecule, acceptor atom, score
      L1  H     9    27       P1  8028  0.98
      P1  H  7989  7998       L1     1  0.20

> <Gold.PLP.Chemscore.Internal.Correction>
0.0796

> <Gold.Rescore>
     Score         DG    S(hbond)    S(metal)    S(lipo)     H(rot)  DE(clash)    DE(int)     intcor
     16.59     -19.47       1.31        0.00     117.44       1.61       1.91       0.97       ----

> <Gold.Chemscore.Fitness>
16.5934

> <Gold.Chemscore.DG>
-19.4682

> <Gold.Chemscore.ZeroCoef>
-5.4800

> <Gold.Chemscore.Hbond>
1.3097

> <Gold.Chemscore.Metal>
0.0000

> <Gold.Chemscore.Lipo>
117.4427

> <Gold.Chemscore.Internal_Hbond>
0.0000

> <Gold.Chemscore.DEClash>
1.9066

> <Gold.Chemscore.DEInternal>
0.9682

> <Gold.Chemscore.Rot>
1.6122

> <Gold.Chemscore.Internal.Correction>
   9.000000E+99

> <Gold.Chemscore.Hbonds>
donor molecule, donor type, donor heavy atom, donor atom, acceptor molecule, acceptor atom, score
      L1  H     9    27       P1  8028  0.92
      P1  H  7989  7998       L1     1  0.03

> <Gold.Chemscore.Hbond.Weighted>
-4.3746

> <Gold.Chemscore.Metal.Weighted>
-0.0000

> <Gold.Chemscore.Lipo.Weighted>
-13.7408

> <Gold.Chemscore.Internal_Hbond.Weighted>
0.0000

> <Gold.Chemscore.DEClash.Weighted>
1.9066

> <Gold.Chemscore.DEInternal.Weighted>
0.9682

> <Gold.Chemscore.Rot.Weighted>
4.1271

> <Gold.Chemscore.Internal.Correction.Weighted>
   9.000000E+99

> <Gold.Protein.RotatedTorsions>
[ 6907 6896 6895 6894 ] final -177.78 input  -60.11 | X-H torsion
[ 7974 7965 7964 7962 ] final   82.93 input  175.53 | X-H torsion
[ 8008 7997 7996 7995 ] final  142.57 input   59.86 | X-H torsion
[ 10167 10162 10161 10158 ] final   90.49 input  -65.29 | X-H torsion
[ 10718 10713 10712 10709 ] final   -3.09 input   66.30 | X-H torsion
[ 10763 10752 10751 10750 ] final   24.58 input  -60.55 | X-H torsion
[ 11005 11000 10999 10996 ] final  152.43 input  -57.11 | X-H torsion

> <Gold.Protein.ActiveResidues>
 VAL166  LYS551  ARG553  GLY616  TRP617  ASP618  TYR619  PRO620  LYS621  CYS622 
 ASP623  PHE694  ASN695  SER759  ASP760  ASP761  ALA762  ILE779  LEU786  VAL792 
 PHE793  MET794  SER795  GLU796  ALA797  LYS798  CYS799  TRP800  GLU811  SER814 

> <Gold.Protein.RotatedAtoms>
  151.6265  133.3335  159.3099 H   0  0  0  0  0  0  0  0  0  0  0  0  # atno 6907 bound_to 6896
  150.8078  134.7218  159.6672 H   0  0  0  0  0  0  0  0  0  0  0  0  # atno 6908 bound_to 6896
  152.4174  134.6021  160.0054 H   0  0  0  0  0  0  0  0  0  0  0  0  # atno 6909 bound_to 6896
  145.6185  139.2381  143.2152 H   0  0  0  0  0  0  0  0  0  0  0  0  # atno 7974 bound_to 7965
  156.2947  140.2285  156.4749 H   0  0  0  0  0  0  0  0  0  0  0  0  # atno 8008 bound_to 7997
  154.7903  140.0454  157.1216 H   0  0  0  0  0  0  0  0  0  0  0  0  # atno 8009 bound_to 7997
  154.9653  140.3059  155.5015 H   0  0  0  0  0  0  0  0  0  0  0  0  # atno 8010 bound_to 7997
  139.8467  144.6614  150.9218 H   0  0  0  0  0  0  0  0  0  0  0  0  # atno 10167 bound_to 10162
  156.7812  130.5331  149.5750 H   0  0  0  0  0  0  0  0  0  0  0  0  # atno 10718 bound_to 10713
  153.0753  135.6602  154.0159 H   0  0  0  0  0  0  0  0  0  0  0  0  # atno 10763 bound_to 10752
  153.9794  135.2956  155.3423 H   0  0  0  0  0  0  0  0  0  0  0  0  # atno 10764 bound_to 10752
  154.7139  135.5193  153.8779 H   0  0  0  0  0  0  0  0  0  0  0  0  # atno 10765 bound_to 10752
  140.1307  134.8803  157.2200 H   0  0  0  0  0  0  0  0  0  0  0  0  # atno 11005 bound_to 11000
  146.1449  140.7006  142.9349 LP  0  0  0  0  0  0  0  0  0  0  0  0  # atno 17320 bound_to 7965
  144.7240  140.4467  143.6986 LP  0  0  0  0  0  0  0  0  0  0  0  0  # atno 17321 bound_to 7965
  140.7792  143.3863  151.1387 LP  0  0  0  0  0  0  0  0  0  0  0  0  # atno 17342 bound_to 10162
  139.7505  143.8786  152.3075 LP  0  0  0  0  0  0  0  0  0  0  0  0  # atno 17343 bound_to 10162
  156.1217  130.6114  151.0203 LP  0  0  0  0  0  0  0  0  0  0  0  0  # atno 17370 bound_to 10713
  157.6645  131.0874  150.7760 LP  0  0  0  0  0  0  0  0  0  0  0  0  # atno 17371 bound_to 10713
  140.2846  134.3311  155.7333 LP  0  0  0  0  0  0  0  0  0  0  0  0  # atno 17394 bound_to 11000
  141.2169  133.7498  156.9413 LP  0  0  0  0  0  0  0  0  0  0  0  0  # atno 17395 bound_to 11000

$$$$
