AV-unprocessed.smi:763|AV-procd|sdf|3635|dock6
  -GOLD-   22720 1 33D 1   1.00000     0.00000
 Structure written by MMmdl.
 44 45  0  0  0  0  0  0  0  0  1 V2000
  145.2767  132.0717  149.7418 C   0  0  0  0  0  0  0  0  0  0  0  0
  144.3757  132.7830  150.5757 O   0  0  0  0  0  0  0  0  0  0  0  0
  144.9692  133.8723  151.2686 C   0  0  0  0  0  0  0  0  0  0  0  0
  146.2958  133.4773  151.9327 C   0  0  0  0  0  0  0  0  0  0  0  0
  146.7761  134.6047  152.6553 O   0  0  0  0  0  0  0  0  0  0  0  0
  146.1888  134.9366  153.8589 C   0  0  0  0  0  0  0  0  0  0  0  0
  144.9727  134.4015  154.1380 N   0  0  0  0  0  0  0  0  0  0  0  0
  144.3675  134.7354  155.2958 C   0  0  0  0  0  0  0  0  0  0  0  0
  144.9328  135.6196  156.2320 C   0  0  0  0  0  0  0  0  0  0  0  0
  146.1936  136.1741  155.9466 C   0  0  0  0  0  0  0  0  0  0  0  0
  146.8474  135.8277  154.7464 C   0  0  0  0  0  0  0  0  0  0  0  0
  148.1060  136.3899  154.4955 N   0  0  0  0  0  0  0  0  0  0  0  0
  149.0402  137.4855  155.4670 S   0  0  0  0  0  0  0  0  0  0  0  0
  148.0604  138.2913  156.2128 O   0  0  0  0  0  0  0  0  0  0  0  0
  150.0173  136.6426  156.1728 O   0  0  0  0  0  0  0  0  0  0  0  0
  149.8691  138.5408  154.1673 C   0  0  1  0  0  0  0  0  0  0  0  0
  149.3965  140.0057  154.2670 C   0  0  0  0  0  0  0  0  0  0  0  0
  149.9701  140.7115  155.5084 C   0  0  0  0  0  0  0  0  0  0  0  0
  151.5068  140.6652  155.5082 C   0  0  0  0  0  0  0  0  0  0  0  0
  152.0289  139.2225  155.4099 C   0  0  0  0  0  0  0  0  0  0  0  0
  151.4172  138.4895  154.1977 C   0  0  1  0  0  0  0  0  0  0  0  0
  151.8840  137.1580  154.1291 O   0  0  0  0  0  0  0  0  0  0  0  0
  144.7354  131.2925  149.2055 H   0  0  0  0  0  0  0  0  0  0  0  0
  146.0666  131.5888  150.3166 H   0  0  0  0  0  0  0  0  0  0  0  0
  145.7340  132.7299  149.0022 H   0  0  0  0  0  0  0  0  0  0  0  0
  145.0989  134.7338  150.6115 H   0  0  0  0  0  0  0  0  0  0  0  0
  144.2669  134.1802  152.0439 H   0  0  0  0  0  0  0  0  0  0  0  0
  146.1315  132.6384  152.6109 H   0  0  0  0  0  0  0  0  0  0  0  0
  147.0254  133.1734  151.1812 H   0  0  0  0  0  0  0  0  0  0  0  0
  143.4021  134.2875  155.4793 H   0  0  0  0  0  0  0  0  0  0  0  0
  144.4133  135.8646  157.1464 H   0  0  0  0  0  0  0  0  0  0  0  0
  146.6555  136.8539  156.6476 H   0  0  0  0  0  0  0  0  0  0  0  0
  148.4204  136.2971  153.5409 H   0  0  0  0  0  0  0  0  0  0  0  0
  149.5256  138.1549  153.2072 H   0  0  0  0  0  0  0  0  0  0  0  0
  149.7142  140.5456  153.3742 H   0  0  0  0  0  0  0  0  0  0  0  0
  148.3079  140.0586  154.2721 H   0  0  0  0  0  0  0  0  0  0  0  0
  149.6329  141.7482  155.5323 H   0  0  0  0  0  0  0  0  0  0  0  0
  149.5872  140.2435  156.4159 H   0  0  0  0  0  0  0  0  0  0  0  0
  151.8868  141.2467  154.6672 H   0  0  0  0  0  0  0  0  0  0  0  0
  151.8939  141.1397  156.4104 H   0  0  0  0  0  0  0  0  0  0  0  0
  153.1158  139.2365  155.3229 H   0  0  0  0  0  0  0  0  0  0  0  0
  151.8130  138.6987  156.3393 H   0  0  0  0  0  0  0  0  0  0  0  0
  151.7823  138.9850  153.2971 H   0  0  0  0  0  0  0  0  0  0  0  0
  151.6684  136.8071  153.2786 H   0  0  0  0  0  0  0  0  0  0  0  0
  1  2  1  0  0  0  0
  1 23  1  0  0  0  0
  1 24  1  0  0  0  0
  1 25  1  0  0  0  0
  2  3  1  0  0  0  0
  3  4  1  0  0  0  0
  3 26  1  0  0  0  0
  3 27  1  0  0  0  0
  4  5  1  0  0  0  0
  4 28  1  0  0  0  0
  4 29  1  0  0  0  0
  5  6  1  0  0  0  0
  6 11  1  0  0  0  0
  6  7  2  0  0  0  0
  7  8  1  0  0  0  0
  8  9  2  0  0  0  0
  8 30  1  0  0  0  0
  9 10  1  0  0  0  0
  9 31  1  0  0  0  0
 10 11  2  0  0  0  0
 10 32  1  0  0  0  0
 11 12  1  0  0  0  0
 12 13  1  0  0  0  0
 12 33  1  0  0  0  0
 13 14  2  0  0  0  0
 13 15  2  0  0  0  0
 13 16  1  0  0  0  0
 16 21  1  0  0  0  0
 16 17  1  0  0  0  0
 16 34  1  0  0  0  0
 17 18  1  0  0  0  0
 17 35  1  0  0  0  0
 17 36  1  0  0  0  0
 18 19  1  0  0  0  0
 18 37  1  0  0  0  0
 18 38  1  0  0  0  0
 19 20  1  0  0  0  0
 19 39  1  0  0  0  0
 19 40  1  0  0  0  0
 20 21  1  0  0  0  0
 20 41  1  0  0  0  0
 20 42  1  0  0  0  0
 21 22  1  0  0  0  0
 21 43  1  0  0  0  0
 22 44  1  0  0  0  0
M  END
> <s_m_source_file>
AV-unprocessed.smi

> <i_m_source_file_index>
763

> <i_lp_mmshare_version>
43012

> <i_f3d_flags>
0

> <s_epik_input>
W0NIM11PW0NIMl1bQ0gyXU9jMW5bY0hdW2NIXVtjSF1jMVtOSF1TKD1PKSg9TylbQ0BASF0yW0NIMl1bQ0gyXVtDSDJdW0NIMl1bQ0BIXTJbT0hd

> <s_epik_cmdline>
J2VwaWtfcHl0aG9uJywgJy1waCcsICc3LjAnLCAnLXRuJywgJzgnLCAnLW1hJywgJzIwMCcsICctbWV0YWxfYmluZGluZycsICctaW1hZScsICc8aW5maWxlLm1hZT4nLCAnLW9tYWUnLCAnPG91dGZpbGUubWFlPic=

> <r_epik_Ionization_Penalty>
0.124685

> <r_epik_Ionization_Penalty_Charging>
0

> <r_epik_Ionization_Penalty_Neutral>
0.124685

> <r_epik_State_Penalty>
0.114154

> <r_epik_Charging_Adjusted_Penalty>
0.114154

> <i_epik_Tot_Q>
0

> <i_epik_Tot_abs_Q>
0

> <r_epik_Metal_State_Penalty>
0.443785

> <b_epik_Metal_Only>
0

> <s_lp_Force_Field>
OPLS_2005

> <r_lp_Energy>
7.3887

> <b_lp_Chiralities_Consistent>
1

> <s_lp_Variant>
AV-unprocessed.smi:763-2

> <Gold.Version>
5.8.1

> <Gold.Id.Protein>
6NUR|6NUR_protein|mol2

> <Gold.PLP.Fitness>
37.8798

> <Gold.PLP.PLP>
-26.9105

> <Gold.PLP.part.hbond>
-2.8777

> <Gold.PLP.part.metal>
0.0000

> <Gold.PLP.part.buried>
-6.0426

> <Gold.PLP.part.nonpolar>
-21.2086

> <Gold.PLP.part.repulsive>
2.3696

> <Gold.PLP.ligand.clash>
0.0000

> <Gold.PLP.ligand.torsion>
1.0527

> <Gold.PLP.Chemscore.Hbond>
2.9120

> <Gold.PLP.Chemscore.CHOScore>
0.9980

> <Gold.PLP.Chemscore.Metal>
0.0000

> <Gold.Chemscore.Hbonds>
donor molecule, donor type, donor heavy atom, donor atom, acceptor molecule, acceptor atom, score
      L1  H    12    33       P1  7948  1.00
      L1  H    22    44       P1  7949  1.00
      P1  H 10752 10765       L1    22  0.38
      L1  C     8    30       P1 10957  0.51

> <Gold.PLP.Chemscore.Internal.Correction>
1.3448

> <Gold.Rescore>
     Score         DG    S(hbond)    S(metal)    S(lipo)     H(rot)  DE(clash)    DE(int)     intcor
     12.34     -16.27       2.77        0.00      65.84       2.41       0.17       3.75       ----

> <Gold.Chemscore.Fitness>
12.3422

> <Gold.Chemscore.DG>
-16.2677

> <Gold.Chemscore.ZeroCoef>
-5.4800

> <Gold.Chemscore.Hbond>
2.7670

> <Gold.Chemscore.Metal>
0.0000

> <Gold.Chemscore.Lipo>
65.8401

> <Gold.Chemscore.Internal_Hbond>
0.0000

> <Gold.Chemscore.DEClash>
0.1748

> <Gold.Chemscore.DEInternal>
3.7507

> <Gold.Chemscore.Rot>
2.4052

> <Gold.Chemscore.Internal.Correction>
   9.000000E+99

> <Gold.Chemscore.Hbonds>
donor molecule, donor type, donor heavy atom, donor atom, acceptor molecule, acceptor atom, score
      L1  H    12    33       P1  7948  1.00
      L1  H    22    44       P1  7949  0.91
      P1  H 10752 10765       L1    22  0.01

> <Gold.Chemscore.Hbond.Weighted>
-9.2418

> <Gold.Chemscore.Metal.Weighted>
-0.0000

> <Gold.Chemscore.Lipo.Weighted>
-7.7033

> <Gold.Chemscore.Internal_Hbond.Weighted>
0.0000

> <Gold.Chemscore.DEClash.Weighted>
0.1748

> <Gold.Chemscore.DEInternal.Weighted>
3.7507

> <Gold.Chemscore.Rot.Weighted>
6.1574

> <Gold.Chemscore.Internal.Correction.Weighted>
   9.000000E+99

> <Gold.Protein.RotatedTorsions>
[ 6907 6896 6895 6894 ] final  -75.00 input  -60.11 | X-H torsion
[ 7974 7965 7964 7962 ] final   30.57 input  175.53 | X-H torsion
[ 8008 7997 7996 7995 ] final   76.19 input   59.86 | X-H torsion
[ 10167 10162 10161 10158 ] final   93.53 input  -65.29 | X-H torsion
[ 10718 10713 10712 10709 ] final  -13.96 input   66.30 | X-H torsion
[ 10763 10752 10751 10750 ] final  171.39 input  -60.55 | X-H torsion
[ 11005 11000 10999 10996 ] final  -69.71 input  -57.11 | X-H torsion

> <Gold.Protein.ActiveResidues>
 VAL166  LYS551  ARG553  GLY616  TRP617  ASP618  TYR619  PRO620  LYS621  CYS622 
 ASP623  PHE694  ASN695  SER759  ASP760  ASP761  ALA762  ILE779  LEU786  VAL792 
 PHE793  MET794  SER795  GLU796  ALA797  LYS798  CYS799  TRP800  GLU811  SER814 

> <Gold.Protein.RotatedAtoms>
  150.7074  134.4786  159.5459 H   0  0  0  0  0  0  0  0  0  0  0  0  # atno 6907 bound_to 6896
  152.2428  134.8209  160.0467 H   0  0  0  0  0  0  0  0  0  0  0  0  # atno 6908 bound_to 6896
  151.8984  133.3497  159.3859 H   0  0  0  0  0  0  0  0  0  0  0  0  # atno 6909 bound_to 6896
  146.1604  139.6771  142.9038 H   0  0  0  0  0  0  0  0  0  0  0  0  # atno 7974 bound_to 7965
  155.8238  140.3469  155.5530 H   0  0  0  0  0  0  0  0  0  0  0  0  # atno 8008 bound_to 7997
  155.8314  140.0927  157.1810 H   0  0  0  0  0  0  0  0  0  0  0  0  # atno 8009 bound_to 7997
  154.4004  140.1411  156.3606 H   0  0  0  0  0  0  0  0  0  0  0  0  # atno 8010 bound_to 7997
  139.8171  144.6748  150.9566 H   0  0  0  0  0  0  0  0  0  0  0  0  # atno 10167 bound_to 10162
  156.6227  130.4880  149.6158 H   0  0  0  0  0  0  0  0  0  0  0  0  # atno 10718 bound_to 10713
  154.4112  135.2756  155.2036 H   0  0  0  0  0  0  0  0  0  0  0  0  # atno 10763 bound_to 10752
  154.4021  135.6042  153.5906 H   0  0  0  0  0  0  0  0  0  0  0  0  # atno 10764 bound_to 10752
  152.9831  135.5929  154.4393 H   0  0  0  0  0  0  0  0  0  0  0  0  # atno 10765 bound_to 10752
  141.1559  133.6771  156.6642 H   0  0  0  0  0  0  0  0  0  0  0  0  # atno 11005 bound_to 11000
  145.4604  141.0432  143.2755 LP  0  0  0  0  0  0  0  0  0  0  0  0  # atno 17320 bound_to 7965
  144.8019  139.6125  143.7068 LP  0  0  0  0  0  0  0  0  0  0  0  0  # atno 17321 bound_to 7965
  140.7815  143.4128  151.0965 LP  0  0  0  0  0  0  0  0  0  0  0  0  # atno 17342 bound_to 10162
  139.7791  143.8382  152.3134 LP  0  0  0  0  0  0  0  0  0  0  0  0  # atno 17343 bound_to 10162
  156.2298  130.6788  151.1452 LP  0  0  0  0  0  0  0  0  0  0  0  0  # atno 17370 bound_to 10713
  157.7223  131.0673  150.6084 LP  0  0  0  0  0  0  0  0  0  0  0  0  # atno 17371 bound_to 10713
  140.3224  134.7996  157.4263 LP  0  0  0  0  0  0  0  0  0  0  0  0  # atno 17394 bound_to 11000
  140.1085  134.5377  155.8287 LP  0  0  0  0  0  0  0  0  0  0  0  0  # atno 17395 bound_to 11000

$$$$
