AV-unprocessed.smi:2804|AV-procd|sdf|10812|dock3
  -GOLD-   2272015253D 1   1.00000     0.00000
 Structure written by MMmdl.
 34 35  0  0  0  0  0  0  0  0  2 V2000
  149.1375  141.4389  154.6899 C   0  0  0  0  0  0  0  0  0  0  0  0
  149.7739  141.2666  156.0728 C   0  0  0  0  0  0  0  0  0  0  0  0
  150.9817  142.1925  156.2828 C   0  0  0  0  0  0  0  0  0  0  0  0
  151.5583  142.0185  157.6137 N   0  0  0  0  0  0  0  0  0  0  0  0
  152.1030  140.8843  158.1136 C   0  0  0  0  0  0  0  0  0  0  0  0
  152.2147  139.8164  157.5108 O   0  0  0  0  0  0  0  0  0  0  0  0
  152.5294  141.1397  159.3774 N   0  0  0  0  0  0  0  0  0  0  0  0
  153.2136  140.2012  160.2820 C   0  0  0  0  0  0  0  0  0  0  0  0
  153.8180  138.9537  159.5737 C   0  0  1  0  0  0  0  0  0  0  0  0
  154.7717  139.3820  158.7813 O   0  5  0  0  0  0  0  0  0  0  0  0
  154.4596  137.9809  160.5935 C   0  0  0  0  0  0  0  0  0  0  0  0
  155.3436  138.6254  161.3577 F   0  0  0  0  0  0  0  0  0  0  0  0
  153.5412  137.4080  161.3750 F   0  0  0  0  0  0  0  0  0  0  0  0
  155.1136  137.0180  159.9419 F   0  0  0  0  0  0  0  0  0  0  0  0
  152.2934  142.4963  159.6672 C   0  0  0  0  0  0  0  0  0  0  0  0
  152.5793  143.2621  160.8118 C   0  0  0  0  0  0  0  0  0  0  0  0
  152.2086  144.6267  160.7891 C   0  0  0  0  0  0  0  0  0  0  0  0
  151.5772  145.1890  159.6497 C   0  0  0  0  0  0  0  0  0  0  0  0
  151.3034  144.3978  158.5097 C   0  0  0  0  0  0  0  0  0  0  0  0
  151.6794  143.0440  158.5607 C   0  0  0  0  0  0  0  0  0  0  0  0
  148.2865  140.7689  154.5675 H   0  0  0  0  0  0  0  0  0  0  0  0
  149.8527  141.2169  153.8974 H   0  0  0  0  0  0  0  0  0  0  0  0
  148.7814  142.4591  154.5454 H   0  0  0  0  0  0  0  0  0  0  0  0
  149.0234  141.4620  156.8398 H   0  0  0  0  0  0  0  0  0  0  0  0
  150.0809  140.2277  156.1990 H   0  0  0  0  0  0  0  0  0  0  0  0
  151.7447  141.9964  155.5289 H   0  0  0  0  0  0  0  0  0  0  0  0
  150.6836  143.2332  156.1454 H   0  0  0  0  0  0  0  0  0  0  0  0
  153.9836  140.7288  160.8487 H   0  0  0  0  0  0  0  0  0  0  0  0
  152.4869  139.8784  161.0278 H   0  0  0  0  0  0  0  0  0  0  0  0
  152.9673  138.4104  159.1594 H   0  0  0  0  0  0  0  0  0  0  0  0
  153.0596  142.8284  161.6764 H   0  0  0  0  0  0  0  0  0  0  0  0
  152.4090  145.2476  161.6497 H   0  0  0  0  0  0  0  0  0  0  0  0
  151.3032  146.2336  159.6522 H   0  0  0  0  0  0  0  0  0  0  0  0
  150.8273  144.8211  157.6379 H   0  0  0  0  0  0  0  0  0  0  0  0
  1  2  1  0  0  0  0
  1 21  1  0  0  0  0
  1 22  1  0  0  0  0
  1 23  1  0  0  0  0
  2  3  1  0  0  0  0
  2 24  1  0  0  0  0
  2 25  1  0  0  0  0
  3  4  1  0  0  0  0
  3 26  1  0  0  0  0
  3 27  1  0  0  0  0
  4 20  1  0  0  0  0
  4  5  1  0  0  0  0
  5  6  2  0  0  0  0
  5  7  1  0  0  0  0
  7  8  1  0  0  0  0
  7 15  1  0  0  0  0
  8  9  1  0  0  0  0
  8 28  1  0  0  0  0
  8 29  1  0  0  0  0
  9 10  1  0  0  0  0
  9 11  1  0  0  0  0
  9 30  1  0  0  0  0
 11 12  1  0  0  0  0
 11 13  1  0  0  0  0
 11 14  1  0  0  0  0
 15 20  2  0  0  0  0
 15 16  1  0  0  0  0
 16 17  2  0  0  0  0
 16 31  1  0  0  0  0
 17 18  1  0  0  0  0
 17 32  1  0  0  0  0
 18 19  2  0  0  0  0
 18 33  1  0  0  0  0
 19 20  1  0  0  0  0
 19 34  1  0  0  0  0
M  CHG  1  10  -1
M  END
> <s_m_source_file>
AV-unprocessed.smi

> <i_m_source_file_index>
2804

> <i_lp_mmshare_version>
43012

> <i_f3d_flags>
0

> <s_epik_input>
W2NIXTFbY0hdW2NIXVtjSF1jKGMxMiluKFtDSDJdW0NIMl1bQ0gzXSljKD1PKW4yW0NIMl1bQ0BIXShbT0hdKUMoRikoRilG

> <s_epik_cmdline>
J2VwaWtfcHl0aG9uJywgJy1waCcsICc3LjAnLCAnLXRuJywgJzgnLCAnLW1hJywgJzIwMCcsICctbWV0YWxfYmluZGluZycsICctaW1hZScsICc8aW5maWxlLm1hZT4nLCAnLW9tYWUnLCAnPG91dGZpbGUubWFlPic=

> <r_epik_Ionization_Penalty>
2.32651

> <r_epik_Ionization_Penalty_Charging>
2.32651

> <r_epik_Ionization_Penalty_Neutral>
0

> <r_epik_State_Penalty>
2.47909

> <r_epik_Charging_Adjusted_Penalty>
4.8056

> <i_epik_Tot_Q>
-1

> <i_epik_Tot_abs_Q>
1

> <r_epik_Metal_State_Penalty>
2.47909

> <b_epik_Metal_Only>
0

> <s_lp_Force_Field>
OPLS_2005

> <r_lp_Energy>
44.9553

> <b_lp_Chiralities_Consistent>
1

> <s_lp_Variant>
AV-unprocessed.smi:2804-4

> <Gold.Version>
5.8.1

> <Gold.Id.Protein>
6NUR|6NUR_protein|mol2

> <Gold.PLP.Fitness>
48.1272

> <Gold.PLP.PLP>
-42.7450

> <Gold.PLP.part.hbond>
-1.0592

> <Gold.PLP.part.metal>
0.0000

> <Gold.PLP.part.buried>
-6.3819

> <Gold.PLP.part.nonpolar>
-35.3376

> <Gold.PLP.part.repulsive>
0.0000

> <Gold.PLP.ligand.clash>
0.0000

> <Gold.PLP.ligand.torsion>
0.3351

> <Gold.PLP.Chemscore.Hbond>
2.0000

> <Gold.PLP.Chemscore.CHOScore>
0.0000

> <Gold.PLP.Chemscore.Metal>
0.0000

> <Gold.Chemscore.Hbonds>
donor molecule, donor type, donor heavy atom, donor atom, acceptor molecule, acceptor atom, score
      P1  H  7997  8009       L1    10  2.00

> <Gold.PLP.Chemscore.Internal.Correction>
0.0524

> <Gold.Rescore>
     Score         DG    S(hbond)    S(metal)    S(lipo)     H(rot)  DE(clash)    DE(int)     intcor
     15.80     -17.57       0.99        0.00     112.53       1.72       0.09       1.68       ----

> <Gold.Chemscore.Fitness>
15.8013

> <Gold.Chemscore.DG>
-17.5670

> <Gold.Chemscore.ZeroCoef>
-5.4800

> <Gold.Chemscore.Hbond>
0.9939

> <Gold.Chemscore.Metal>
0.0000

> <Gold.Chemscore.Lipo>
112.5337

> <Gold.Chemscore.Internal_Hbond>
0.0000

> <Gold.Chemscore.DEClash>
0.0874

> <Gold.Chemscore.DEInternal>
1.6783

> <Gold.Chemscore.Rot>
1.7185

> <Gold.Chemscore.Internal.Correction>
   9.000000E+99

> <Gold.Chemscore.Hbonds>
donor molecule, donor type, donor heavy atom, donor atom, acceptor molecule, acceptor atom, score
      P1  H  7997  8009       L1    10  0.98

> <Gold.Chemscore.Hbond.Weighted>
-3.3198

> <Gold.Chemscore.Metal.Weighted>
-0.0000

> <Gold.Chemscore.Lipo.Weighted>
-13.1664

> <Gold.Chemscore.Internal_Hbond.Weighted>
0.0000

> <Gold.Chemscore.DEClash.Weighted>
0.0874

> <Gold.Chemscore.DEInternal.Weighted>
1.6783

> <Gold.Chemscore.Rot.Weighted>
4.3992

> <Gold.Chemscore.Internal.Correction.Weighted>
   9.000000E+99

> <Gold.Protein.RotatedTorsions>
[ 6907 6896 6895 6894 ] final   15.21 input  -60.11 | X-H torsion
[ 7974 7965 7964 7962 ] final   49.14 input  175.53 | X-H torsion
[ 8008 7997 7996 7995 ] final  104.84 input   59.86 | X-H torsion
[ 10167 10162 10161 10158 ] final   32.95 input  -65.29 | X-H torsion
[ 10718 10713 10712 10709 ] final  -90.15 input   66.30 | X-H torsion
[ 10763 10752 10751 10750 ] final   35.98 input  -60.55 | X-H torsion
[ 11005 11000 10999 10996 ] final   61.80 input  -57.11 | X-H torsion

> <Gold.Protein.ActiveResidues>
 VAL166  LYS551  ARG553  GLY616  TRP617  ASP618  TYR619  PRO620  LYS621  CYS622 
 ASP623  PHE694  ASN695  SER759  ASP760  ASP761  ALA762  ILE779  LEU786  VAL792 
 PHE793  MET794  SER795  GLU796  ALA797  LYS798  CYS799  TRP800  GLU811  SER814 

> <Gold.Protein.RotatedAtoms>
  151.8145  135.0670  160.0416 H   0  0  0  0  0  0  0  0  0  0  0  0  # atno 6907 bound_to 6896
  152.2996  133.5637  159.5618 H   0  0  0  0  0  0  0  0  0  0  0  0  # atno 6908 bound_to 6896
  150.7267  134.0227  159.3749 H   0  0  0  0  0  0  0  0  0  0  0  0  # atno 6909 bound_to 6896
  146.0137  139.4572  142.9940 H   0  0  0  0  0  0  0  0  0  0  0  0  # atno 7974 bound_to 7965
  156.1608  140.3141  155.8803 H   0  0  0  0  0  0  0  0  0  0  0  0  # atno 8008 bound_to 7997
  155.3787  140.0486  157.3061 H   0  0  0  0  0  0  0  0  0  0  0  0  # atno 8009 bound_to 7997
  154.5144  140.2176  155.9104 H   0  0  0  0  0  0  0  0  0  0  0  0  # atno 8010 bound_to 7997
  140.4452  144.1129  150.6181 H   0  0  0  0  0  0  0  0  0  0  0  0  # atno 10167 bound_to 10162
  155.9986  130.4899  150.5280 H   0  0  0  0  0  0  0  0  0  0  0  0  # atno 10718 bound_to 10713
  153.0096  135.6318  154.1913 H   0  0  0  0  0  0  0  0  0  0  0  0  # atno 10763 bound_to 10752
  154.1655  135.2821  155.3098 H   0  0  0  0  0  0  0  0  0  0  0  0  # atno 10764 bound_to 10752
  154.5948  135.5606  153.7375 H   0  0  0  0  0  0  0  0  0  0  0  0  # atno 10765 bound_to 10752
  140.0136  134.6259  155.9743 H   0  0  0  0  0  0  0  0  0  0  0  0  # atno 11005 bound_to 11000
  145.7302  141.0045  143.1356 LP  0  0  0  0  0  0  0  0  0  0  0  0  # atno 17320 bound_to 7965
  144.6963  139.8975  143.7456 LP  0  0  0  0  0  0  0  0  0  0  0  0  # atno 17321 bound_to 7965
  140.4272  143.2584  151.9641 LP  0  0  0  0  0  0  0  0  0  0  0  0  # atno 17342 bound_to 10162
  139.4792  144.5777  151.7984 LP  0  0  0  0  0  0  0  0  0  0  0  0  # atno 17343 bound_to 10162
  157.3232  131.0686  151.1916 LP  0  0  0  0  0  0  0  0  0  0  0  0  # atno 17370 bound_to 10713
  157.2822  130.6755  149.6071 LP  0  0  0  0  0  0  0  0  0  0  0  0  # atno 17371 bound_to 10713
  141.1728  133.6538  156.4714 LP  0  0  0  0  0  0  0  0  0  0  0  0  # atno 17394 bound_to 11000
  140.4510  134.6928  157.5039 LP  0  0  0  0  0  0  0  0  0  0  0  0  # atno 17395 bound_to 11000

$$$$
