AV-unprocessed.smi:3158|AV-procd|sdf|12044|dock1
  -GOLD-   2272017463D 1   1.00000     0.00000
 Structure written by MMmdl.
 40 40  0  0  0  0  0  0  0  0  2 V2000
  151.2913  138.0941  154.0781 C   0  0  0  0  0  0  0  0  0  0  0  0
  150.2862  138.5283  155.1550 C   0  0  0  0  0  0  0  0  0  0  0  0
  148.8444  138.0651  154.8750 C   0  0  1  0  0  0  0  0  0  0  0  0
  148.1496  138.9580  153.8366 C   0  0  0  0  0  0  0  0  0  0  0  0
  148.8414  136.6799  154.4096 N   0  0  0  0  0  0  0  0  0  0  0  0
  148.4750  135.6109  155.1336 C   0  0  0  0  0  0  0  0  0  0  0  0
  148.0976  135.6805  156.3041 O   0  0  0  0  0  0  0  0  0  0  0  0
  148.5594  134.2508  154.4257 C   0  0  1  0  0  0  0  0  0  0  0  0
  148.0771  133.1376  155.3687 C   0  0  0  0  0  0  0  0  0  0  0  0
  147.7656  134.2261  153.1751 N   0  3  0  0  0  0  0  0  0  0  0  0
  147.8324  132.9608  152.4132 C   0  0  0  0  0  0  0  0  0  0  0  0
  146.5604  132.1276  152.6219 C   0  0  0  0  0  0  0  0  0  0  0  0
  145.6344  132.2770  151.5165 N   0  0  0  0  0  0  0  0  0  0  0  0
  145.8544  132.0463  150.1747 C   0  0  0  0  0  0  0  0  0  0  0  0
  144.6900  132.3263  149.5190 C   0  0  0  0  0  0  0  0  0  0  0  0
  143.8046  132.7279  150.5578 C   0  0  0  0  0  0  0  0  0  0  0  0
  144.3730  132.6970  151.7529 N   0  0  0  0  0  0  0  0  0  0  0  0
  152.3018  138.4049  154.3448 H   0  0  0  0  0  0  0  0  0  0  0  0
  151.0576  138.5340  153.1082 H   0  0  0  0  0  0  0  0  0  0  0  0
  151.2981  137.0101  153.9618 H   0  0  0  0  0  0  0  0  0  0  0  0
  150.6111  138.1251  156.1149 H   0  0  0  0  0  0  0  0  0  0  0  0
  150.3140  139.6139  155.2582 H   0  0  0  0  0  0  0  0  0  0  0  0
  148.2867  138.1429  155.8102 H   0  0  0  0  0  0  0  0  0  0  0  0
  148.1200  139.9959  154.1694 H   0  0  0  0  0  0  0  0  0  0  0  0
  147.1204  138.6390  153.6679 H   0  0  0  0  0  0  0  0  0  0  0  0
  148.6684  138.9312  152.8777 H   0  0  0  0  0  0  0  0  0  0  0  0
  149.1449  136.5253  153.4589 H   0  0  0  0  0  0  0  0  0  0  0  0
  149.6014  134.0503  154.1703 H   0  0  0  0  0  0  0  0  0  0  0  0
  148.6649  133.1112  156.2873 H   0  0  0  0  0  0  0  0  0  0  0  0
  148.1694  132.1589  154.8972 H   0  0  0  0  0  0  0  0  0  0  0  0
  147.0310  133.2735  155.6474 H   0  0  0  0  0  0  0  0  0  0  0  0
  146.7982  134.3856  153.4167 H   0  0  0  0  0  0  0  0  0  0  0  0
  147.9595  133.1738  151.3511 H   0  0  0  0  0  0  0  0  0  0  0  0
  148.7087  132.3964  152.7351 H   0  0  0  0  0  0  0  0  0  0  0  0
  146.8058  131.0699  152.7286 H   0  0  0  0  0  0  0  0  0  0  0  0
  146.0548  132.4308  153.5398 H   0  0  0  0  0  0  0  0  0  0  0  0
  146.8090  131.7055  149.8013 H   0  0  0  0  0  0  0  0  0  0  0  0
  144.4998  132.2561  148.4582 H   0  0  0  0  0  0  0  0  0  0  0  0
  142.7732  133.0384  150.4793 H   0  0  0  0  0  0  0  0  0  0  0  0
  148.0802  134.9833  152.5847 H   0  0  0  0  0  0  0  0  0  0  0  0
  1  2  1  0  0  0  0
  1 18  1  0  0  0  0
  1 19  1  0  0  0  0
  1 20  1  0  0  0  0
  2  3  1  0  0  0  0
  2 21  1  0  0  0  0
  2 22  1  0  0  0  0
  3  4  1  0  0  0  0
  3  5  1  0  0  0  0
  3 23  1  0  0  0  0
  4 24  1  0  0  0  0
  4 25  1  0  0  0  0
  4 26  1  0  0  0  0
  5  6  1  0  0  0  0
  5 27  1  0  0  0  0
  6  7  2  0  0  0  0
  6  8  1  0  0  0  0
  8  9  1  0  0  0  0
  8 10  1  0  0  0  0
  8 28  1  0  0  0  0
  9 29  1  0  0  0  0
  9 30  1  0  0  0  0
  9 31  1  0  0  0  0
 10 11  1  0  0  0  0
 10 32  1  0  0  0  0
 10 40  1  0  0  0  0
 11 12  1  0  0  0  0
 11 33  1  0  0  0  0
 11 34  1  0  0  0  0
 12 13  1  0  0  0  0
 12 35  1  0  0  0  0
 12 36  1  0  0  0  0
 13 17  1  0  0  0  0
 13 14  1  0  0  0  0
 14 15  2  0  0  0  0
 14 37  1  0  0  0  0
 15 16  1  0  0  0  0
 15 38  1  0  0  0  0
 16 17  2  0  0  0  0
 16 39  1  0  0  0  0
M  CHG  1  10   1
M  END
> <s_m_source_file>
AV-unprocessed.smi

> <i_m_source_file_index>
3158

> <i_lp_mmshare_version>
43012

> <i_f3d_flags>
0

> <s_epik_input>
W0NIM11bQ0gyXVtDQEhdKFtDSDNdKVtOSF1DKD1PKVtDQEhdKFtDSDNdKVtOSF1bQ0gyXVtDSDJdbjFbY0hdW2NIXVtjSF1uMQ==

> <s_epik_cmdline>
J2VwaWtfcHl0aG9uJywgJy1waCcsICc3LjAnLCAnLXRuJywgJzgnLCAnLW1hJywgJzIwMCcsICctbWV0YWxfYmluZGluZycsICctaW1hZScsICc8aW5maWxlLm1hZT4nLCAnLW9tYWUnLCAnPG91dGZpbGUubWFlPic=

> <r_lp_tautomer_probability>
1

> <r_epik_Ionization_Penalty>
0.20724

> <r_epik_Ionization_Penalty_Charging>
0.207237

> <r_epik_Ionization_Penalty_Neutral>
3.33806e-06

> <r_epik_State_Penalty>
0.197234

> <r_epik_Charging_Adjusted_Penalty>
0.404471

> <i_epik_Tot_Q>
1

> <i_epik_Tot_abs_Q>
1

> <r_epik_Metal_State_Penalty>
0.197524

> <b_epik_Metal_Only>
0

> <s_lp_Force_Field>
OPLS_2005

> <r_lp_Energy>
5.19885

> <b_lp_Chiralities_Consistent>
1

> <s_lp_Variant>
AV-unprocessed.smi:3158-4

> <Gold.Version>
5.8.1

> <Gold.Id.Protein>
6NUR|6NUR_protein|mol2

> <Gold.PLP.Fitness>
41.6161

> <Gold.PLP.PLP>
-28.1970

> <Gold.PLP.part.hbond>
-2.0000

> <Gold.PLP.part.metal>
0.0000

> <Gold.PLP.part.buried>
-2.2883

> <Gold.PLP.part.nonpolar>
-23.0910

> <Gold.PLP.part.repulsive>
0.1599

> <Gold.PLP.ligand.clash>
0.0000

> <Gold.PLP.ligand.torsion>
0.9213

> <Gold.PLP.Chemscore.Hbond>
3.0000

> <Gold.PLP.Chemscore.CHOScore>
2.0000

> <Gold.PLP.Chemscore.Metal>
0.0000

> <Gold.Chemscore.Hbonds>
donor molecule, donor type, donor heavy atom, donor atom, acceptor molecule, acceptor atom, score
      L1  H     5    27       P1  7948  1.00
      L1  H    10    40       P1  7948  2.00
      L1  C    14    37       P1 10747  1.00
      L1  C    16    39       P1 10186  1.00

> <Gold.PLP.Chemscore.Internal.Correction>
0.2616

> <Gold.Rescore>
     Score         DG    S(hbond)    S(metal)    S(lipo)     H(rot)  DE(clash)    DE(int)     intcor
     13.97     -14.96       1.87        0.00      75.98       2.21       0.04       0.95       ----

> <Gold.Chemscore.Fitness>
13.9738

> <Gold.Chemscore.DG>
-14.9642

> <Gold.Chemscore.ZeroCoef>
-5.4800

> <Gold.Chemscore.Hbond>
1.8743

> <Gold.Chemscore.Metal>
0.0000

> <Gold.Chemscore.Lipo>
75.9809

> <Gold.Chemscore.Internal_Hbond>
0.0000

> <Gold.Chemscore.DEClash>
0.0359

> <Gold.Chemscore.DEInternal>
0.9545

> <Gold.Chemscore.Rot>
2.2132

> <Gold.Chemscore.Internal.Correction>
   9.000000E+99

> <Gold.Chemscore.Hbonds>
donor molecule, donor type, donor heavy atom, donor atom, acceptor molecule, acceptor atom, score
      L1  H     5    27       P1  7948  0.96
      L1  H    10    40       P1  7948  0.85

> <Gold.Chemscore.Hbond.Weighted>
-6.2602

> <Gold.Chemscore.Metal.Weighted>
-0.0000

> <Gold.Chemscore.Lipo.Weighted>
-8.8898

> <Gold.Chemscore.Internal_Hbond.Weighted>
0.0000

> <Gold.Chemscore.DEClash.Weighted>
0.0359

> <Gold.Chemscore.DEInternal.Weighted>
0.9545

> <Gold.Chemscore.Rot.Weighted>
5.6658

> <Gold.Chemscore.Internal.Correction.Weighted>
   9.000000E+99

> <Gold.Protein.RotatedTorsions>
[ 6907 6896 6895 6894 ] final  -96.17 input  -60.11 | X-H torsion
[ 7974 7965 7964 7962 ] final -161.72 input  175.53 | X-H torsion
[ 8008 7997 7996 7995 ] final  127.27 input   59.86 | X-H torsion
[ 10167 10162 10161 10158 ] final  -39.07 input  -65.29 | X-H torsion
[ 10718 10713 10712 10709 ] final -108.96 input   66.30 | X-H torsion
[ 10763 10752 10751 10750 ] final   15.07 input  -60.55 | X-H torsion
[ 11005 11000 10999 10996 ] final   12.58 input  -57.11 | X-H torsion

> <Gold.Protein.ActiveResidues>
 VAL166  LYS551  ARG553  GLY616  TRP617  ASP618  TYR619  PRO620  LYS621  CYS622 
 ASP623  PHE694  ASN695  SER759  ASP760  ASP761  ALA762  ILE779  LEU786  VAL792 
 PHE793  MET794  SER795  GLU796  ALA797  LYS798  CYS799  TRP800  GLU811  SER814 

> <Gold.Protein.RotatedAtoms>
  150.6982  134.1544  159.4152 H   0  0  0  0  0  0  0  0  0  0  0  0  # atno 6907 bound_to 6896
  151.9526  135.0159  160.0552 H   0  0  0  0  0  0  0  0  0  0  0  0  # atno 6908 bound_to 6896
  152.1997  133.4797  159.5089 H   0  0  0  0  0  0  0  0  0  0  0  0  # atno 6909 bound_to 6896
  144.7381  140.3357  143.6144 H   0  0  0  0  0  0  0  0  0  0  0  0  # atno 7974 bound_to 7965
  156.2886  140.2673  156.2246 H   0  0  0  0  0  0  0  0  0  0  0  0  # atno 8008 bound_to 7997
  155.0134  140.0387  157.2426 H   0  0  0  0  0  0  0  0  0  0  0  0  # atno 8009 bound_to 7997
  154.7498  140.2741  155.6307 H   0  0  0  0  0  0  0  0  0  0  0  0  # atno 8010 bound_to 7997
  140.7074  143.3237  151.2730 H   0  0  0  0  0  0  0  0  0  0  0  0  # atno 10167 bound_to 10162
  156.0512  130.5739  150.8034 H   0  0  0  0  0  0  0  0  0  0  0  0  # atno 10718 bound_to 10713
  153.1561  135.6787  153.8810 H   0  0  0  0  0  0  0  0  0  0  0  0  # atno 10763 bound_to 10752
  153.8221  135.3129  155.3412 H   0  0  0  0  0  0  0  0  0  0  0  0  # atno 10764 bound_to 10752
  154.7898  135.4841  154.0115 H   0  0  0  0  0  0  0  0  0  0  0  0  # atno 10765 bound_to 10752
  140.4904  134.0846  155.7770 H   0  0  0  0  0  0  0  0  0  0  0  0  # atno 11005 bound_to 11000
  145.7426  139.1769  143.2367 LP  0  0  0  0  0  0  0  0  0  0  0  0  # atno 17320 bound_to 7965
  146.1122  140.7414  142.9498 LP  0  0  0  0  0  0  0  0  0  0  0  0  # atno 17321 bound_to 7965
  139.6699  144.0038  152.2746 LP  0  0  0  0  0  0  0  0  0  0  0  0  # atno 17342 bound_to 10162
  139.9634  144.6543  150.8058 LP  0  0  0  0  0  0  0  0  0  0  0  0  # atno 17343 bound_to 10162
  157.5440  131.0942  150.9788 LP  0  0  0  0  0  0  0  0  0  0  0  0  # atno 17370 bound_to 10713
  157.0064  130.5619  149.5316 LP  0  0  0  0  0  0  0  0  0  0  0  0  # atno 17371 bound_to 10713
  141.1487  133.9008  157.2152 LP  0  0  0  0  0  0  0  0  0  0  0  0  # atno 17394 bound_to 11000
  139.9773  135.0110  156.9662 LP  0  0  0  0  0  0  0  0  0  0  0  0  # atno 17395 bound_to 11000

$$$$
