#       Name:                AV-unprocessed.smi:2022
#       Creating user name   scv26
#       Creation time:       Fri Mar 27 10:44:19 2020


#       File generated by GOLD software.
#

@<TRIPOS>MOLECULE
AV-unprocessed.smi:2022
    41    42     1
SMALL
NO_CHARGES


@<TRIPOS>ATOM
      1 ****        -6.4815  -2.4547   0.7047 C.3            1 S1                 0.0000
      2 ****        -5.1674  -1.7672   0.5589 C.2            1 S1                 0.0000
      3 ****        -3.8997  -2.2230   0.3298 C.2            1 S1                 0.0000
      4 ****        -3.1308  -1.0292   0.3009 C.2            1 S1                 0.0000
      5 ****        -1.7307  -1.0709   0.0798 N.am           1 S1                 0.0000
      6 ****        -0.8824  -0.0313   0.0050 C.2            1 S1                 0.0000
      7 ****        -1.1986   1.1530   0.1232 O.2            1 S1                 0.0000
      8 ****         0.3739  -0.4441  -0.2185 N.am           1 S1                 0.0000
      9 ****         1.5406   0.4231  -0.3913 C.3            1 S1                 0.0000
     10 ****         2.1084   0.8351   0.9857 C.3            1 S1                 0.0000
     11 ****         2.9454   2.1245   0.9567 C.3            1 S1                 0.0000
     12 ****         4.2157   2.0536   0.0959 C.3            1 S1                 0.0000
     13 ****         3.9357   1.8714  -1.4057 C.3            1 S1                 0.0000
     14 ****         3.6211   0.4908  -1.7517 N.am           1 S1                 0.0000
     15 ****         2.5720  -0.2312  -1.3298 C.2            1 S1                 0.0000
     16 ****         2.4394  -1.4035  -1.6808 O.2            1 S1                 0.0000
     17 ****        -3.8625   0.0570   0.4983 N.2            1 S1                 0.0000
     18 ****        -5.1716  -0.4106   0.6638 O.3            1 S1                 0.0000
     19 ****        -6.3527  -3.5365   0.7452 H              1 S1                 0.0000
     20 ****        -7.1327  -2.2233  -0.1383 H              1 S1                 0.0000
     21 ****        -6.9843  -2.1398   1.6193 H              1 S1                 0.0000
     22 ****        -3.5780  -3.2458   0.2015 H              1 S1                 0.0000
     23 ****        -1.3333  -1.9908  -0.0398 H              1 S1                 0.0000
     24 ****         0.5392  -1.4362  -0.3070 H              1 S1                 0.0000
     25 ****         1.1914   1.3220  -0.9031 H              1 S1                 0.0000
     26 ****         1.2872   1.0006   1.6841 H              1 S1                 0.0000
     27 ****         2.6934   0.0176   1.4098 H              1 S1                 0.0000
     28 ****         2.3226   2.9533   0.6180 H              1 S1                 0.0000
     29 ****         3.2342   2.3702   1.9790 H              1 S1                 0.0000
     30 ****         4.7641   2.9866   0.2303 H              1 S1                 0.0000
     31 ****         4.8771   1.2651   0.4574 H              1 S1                 0.0000
     32 ****         3.1431   2.5402  -1.7442 H              1 S1                 0.0000
     33 ****         4.8275   2.1447  -1.9701 H              1 S1                 0.0000
     34 ****         4.2755   0.0279  -2.3658 H              1 S1                 0.0000
     35 ****        -2.1530   1.4016   0.2888 LP             1 S1                 0.0000
     36 ****        -0.5011   1.8662   0.0535 LP             1 S1                 0.0000
     37 ****         1.6584  -1.9372  -1.3565 LP             1 S1                 0.0000
     38 ****         3.1126  -1.8221  -2.2903 LP             1 S1                 0.0000
     39 ****        -3.5479   1.0059   0.5236 LP             1 S1                 0.0000
     40 ****        -5.5127  -0.1439   1.5652 LP             1 S1                 0.0000
     41 ****        -5.7603  -0.0202  -0.0441 LP             1 S1                 0.0000
@<TRIPOS>BOND
    1    1    2 1     
    2    1   19 1     
    3    1   20 1     
    4    1   21 1     
    5    2   18 1     
    6    2    3 2     
    7    3    4 1     
    8    3   22 1     
    9    4    5 1     
   10    4   17 2     
   11    5    6 am    
   12    5   23 1     
   13    6    7 2     
   14    6    8 am    
   15    8    9 1     
   16    8   24 1     
   17    9   15 1     
   18    9   10 1     
   19    9   25 1     
   20   10   11 1     
   21   10   26 1     
   22   10   27 1     
   23   11   12 1     
   24   11   28 1     
   25   11   29 1     
   26   12   13 1     
   27   12   30 1     
   28   12   31 1     
   29   13   14 1     
   30   13   32 1     
   31   13   33 1     
   32   14   15 am    
   33   14   34 1     
   34   15   16 2     
   35   17   18 1     
   36    7   35 1     
   37    7   36 1     
   38   16   37 1     
   39   16   38 1     
   40   17   39 1     
   41   18   40 1     
   42   18   41 1     
@<TRIPOS>SUBSTRUCTURE
      1 S1             1
@<TRIPOS>SET
LONE_PAIRS      STATIC     ATOMS    <user>   **** ""
7 35 36 37 38 39 40 41
DONOR_HYDROGENS      STATIC     ATOMS    <user>   **** ""
3 23 24 34
ATOM$BLUE        STATIC     ATOMS    COLORGROUP SYSTEM
7 35 36 37 38 39 40 41
ATOM$RED        STATIC     ATOMS    COLORGROUP SYSTEM
3 23 24 34
