AV-unprocessed.smi:667|AV-procd|sdf|3257|dock8
  -GOLD-   22720 0213D 1   1.00000     0.00000
 Structure written by MMmdl.
 48 49  0  0  0  0  0  0  0  0  1 V2000
  147.6105  138.7599  153.2046 C   0  0  0  0  0  0  0  0  0  0  0  0
  146.8999  139.5555  154.2620 C   0  0  0  0  0  0  0  0  0  0  0  0
  145.6923  139.1832  154.6524 N   0  0  0  0  0  0  0  0  0  0  0  0
  145.3446  140.0784  155.5988 N   0  0  0  0  0  0  0  0  0  0  0  0
  144.0549  139.9575  156.2504 C   0  0  0  0  0  0  0  0  0  0  0  0
  146.3325  141.0224  155.8019 C   0  0  0  0  0  0  0  0  0  0  0  0
  146.1901  142.1248  156.8016 C   0  0  0  0  0  0  0  0  0  0  0  0
  147.3627  140.7133  154.9541 C   0  0  0  0  0  0  0  0  0  0  0  0
  148.6855  141.4159  154.7846 C   0  0  0  0  0  0  0  0  0  0  0  0
  149.6041  141.0645  155.9545 C   0  0  0  0  0  0  0  0  0  0  0  0
  149.7005  139.8969  156.3321 O   0  0  0  0  0  0  0  0  0  0  0  0
  150.2771  142.0820  156.5139 N   0  0  0  0  0  0  0  0  0  0  0  0
  151.2179  141.9554  157.6215 C   0  0  0  0  0  0  0  0  0  0  0  0
  150.9878  143.0260  158.7176 C   0  0  2  0  0  0  0  0  0  0  0  0
  151.1847  144.4437  158.1978 C   0  0  0  0  0  0  0  0  0  0  0  0
  152.6840  144.6894  158.3860 C   0  0  0  0  0  0  0  0  0  0  0  0
  153.1452  143.6670  159.2648 O   0  0  0  0  0  0  0  0  0  0  0  0
  152.0272  143.0134  159.8514 C   0  0  2  0  0  0  0  0  0  0  0  0
  152.4176  141.6411  160.4461 C   0  0  0  0  0  0  0  0  0  0  0  0
  153.1218  141.7879  161.8061 C   0  0  0  0  0  0  0  0  0  0  0  0
  153.3129  140.8547  159.4751 C   0  0  0  0  0  0  0  0  0  0  0  0
  148.4643  138.2292  153.6263 H   0  0  0  0  0  0  0  0  0  0  0  0
  147.9808  139.4085  152.4104 H   0  0  0  0  0  0  0  0  0  0  0  0
  146.9541  138.0198  152.7449 H   0  0  0  0  0  0  0  0  0  0  0  0
  143.3763  140.7162  155.8604 H   0  0  0  0  0  0  0  0  0  0  0  0
  144.1689  140.0987  157.3255 H   0  0  0  0  0  0  0  0  0  0  0  0
  143.6254  138.9706  156.0717 H   0  0  0  0  0  0  0  0  0  0  0  0
  146.9620  142.8821  156.6676 H   0  0  0  0  0  0  0  0  0  0  0  0
  146.2759  141.7367  157.8165 H   0  0  0  0  0  0  0  0  0  0  0  0
  145.2225  142.6174  156.7062 H   0  0  0  0  0  0  0  0  0  0  0  0
  149.1710  141.1374  153.8486 H   0  0  0  0  0  0  0  0  0  0  0  0
  148.5601  142.4982  154.7444 H   0  0  0  0  0  0  0  0  0  0  0  0
  150.1378  143.0080  156.1362 H   0  0  0  0  0  0  0  0  0  0  0  0
  151.1331  140.9489  158.0320 H   0  0  0  0  0  0  0  0  0  0  0  0
  152.2281  142.0348  157.2187 H   0  0  0  0  0  0  0  0  0  0  0  0
  149.9845  142.9079  159.1288 H   0  0  0  0  0  0  0  0  0  0  0  0
  150.8584  144.5919  157.1681 H   0  0  0  0  0  0  0  0  0  0  0  0
  150.6216  145.1402  158.8206 H   0  0  0  0  0  0  0  0  0  0  0  0
  153.2222  144.6142  157.4407 H   0  0  0  0  0  0  0  0  0  0  0  0
  152.8748  145.6764  158.8081 H   0  0  0  0  0  0  0  0  0  0  0  0
  151.6647  143.6527  160.6594 H   0  0  0  0  0  0  0  0  0  0  0  0
  151.5133  141.0507  160.5936 H   0  0  0  0  0  0  0  0  0  0  0  0
  154.0396  142.3696  161.7147 H   0  0  0  0  0  0  0  0  0  0  0  0
  153.3866  140.8135  162.2172 H   0  0  0  0  0  0  0  0  0  0  0  0
  152.4876  142.2856  162.5395 H   0  0  0  0  0  0  0  0  0  0  0  0
  154.2403  141.3900  159.2684 H   0  0  0  0  0  0  0  0  0  0  0  0
  152.8100  140.6813  158.5232 H   0  0  0  0  0  0  0  0  0  0  0  0
  153.5763  139.8791  159.8850 H   0  0  0  0  0  0  0  0  0  0  0  0
  1  2  1  0  0  0  0
  1 22  1  0  0  0  0
  1 23  1  0  0  0  0
  1 24  1  0  0  0  0
  2  8  1  0  0  0  0
  2  3  2  0  0  0  0
  3  4  1  0  0  0  0
  4  5  1  0  0  0  0
  4  6  1  0  0  0  0
  5 25  1  0  0  0  0
  5 26  1  0  0  0  0
  5 27  1  0  0  0  0
  6  7  1  0  0  0  0
  6  8  2  0  0  0  0
  7 28  1  0  0  0  0
  7 29  1  0  0  0  0
  7 30  1  0  0  0  0
  8  9  1  0  0  0  0
  9 10  1  0  0  0  0
  9 31  1  0  0  0  0
  9 32  1  0  0  0  0
 10 11  2  0  0  0  0
 10 12  1  0  0  0  0
 12 13  1  0  0  0  0
 12 33  1  0  0  0  0
 13 14  1  0  0  0  0
 13 34  1  0  0  0  0
 13 35  1  0  0  0  0
 14 18  1  0  0  0  0
 14 15  1  0  0  0  0
 14 36  1  0  0  0  0
 15 16  1  0  0  0  0
 15 37  1  0  0  0  0
 15 38  1  0  0  0  0
 16 17  1  0  0  0  0
 16 39  1  0  0  0  0
 16 40  1  0  0  0  0
 17 18  1  0  0  0  0
 18 19  1  0  0  0  0
 18 41  1  0  0  0  0
 19 20  1  0  0  0  0
 19 21  1  0  0  0  0
 19 42  1  0  0  0  0
 20 43  1  0  0  0  0
 20 44  1  0  0  0  0
 20 45  1  0  0  0  0
 21 46  1  0  0  0  0
 21 47  1  0  0  0  0
 21 48  1  0  0  0  0
M  END
> <s_m_source_file>
AV-unprocessed.smi

> <i_m_source_file_index>
667

> <i_lp_mmshare_version>
43012

> <i_f3d_flags>
0

> <s_epik_input>
W0NIM11jMW5uKFtDSDNdKWMoW0NIM10pYzFbQ0gyXUMoPU8pW05IXVtDSDJdW0NAQEhdMltDSDJdW0NIMl1PW0NASF0yW0NIXShbQ0gzXSlbQ0gzXQ==

> <s_epik_cmdline>
J2VwaWtfcHl0aG9uJywgJy1waCcsICc3LjAnLCAnLXRuJywgJzgnLCAnLW1hJywgJzIwMCcsICctbWV0YWxfYmluZGluZycsICctaW1hZScsICc8aW5maWxlLm1hZT4nLCAnLW9tYWUnLCAnPG91dGZpbGUubWFlPic=

> <r_lp_tautomer_probability>
1

> <r_epik_Ionization_Penalty>
0.00315488

> <r_epik_Ionization_Penalty_Charging>
0

> <r_epik_Ionization_Penalty_Neutral>
0.00315488

> <r_epik_State_Penalty>
0.00222269

> <r_epik_Charging_Adjusted_Penalty>
0.00222269

> <i_epik_Tot_Q>
0

> <i_epik_Tot_abs_Q>
0

> <r_epik_Metal_State_Penalty>
-0

> <b_epik_Metal_Only>
0

> <s_lp_Force_Field>
OPLS_2005

> <r_lp_Energy>
17.3848

> <b_lp_Chiralities_Consistent>
1

> <s_lp_Variant>
AV-unprocessed.smi:667-3

> <Gold.Version>
5.8.1

> <Gold.Id.Protein>
6NUR|6NUR_protein|mol2

> <Gold.PLP.Fitness>
39.4063

> <Gold.PLP.PLP>
-37.9388

> <Gold.PLP.part.hbond>
-1.0000

> <Gold.PLP.part.metal>
0.0000

> <Gold.PLP.part.buried>
-4.2068

> <Gold.PLP.part.nonpolar>
-32.7108

> <Gold.PLP.part.repulsive>
0.6184

> <Gold.PLP.ligand.clash>
0.0000

> <Gold.PLP.ligand.torsion>
0.7345

> <Gold.PLP.Chemscore.Hbond>
0.9600

> <Gold.PLP.Chemscore.CHOScore>
0.0000

> <Gold.PLP.Chemscore.Metal>
0.0000

> <Gold.Chemscore.Hbonds>
donor molecule, donor type, donor heavy atom, donor atom, acceptor molecule, acceptor atom, score
      L1  H    12    33       P1  8028  0.65

> <Gold.PLP.Chemscore.Internal.Correction>
0.0565

> <Gold.Rescore>
     Score         DG    S(hbond)    S(metal)    S(lipo)     H(rot)  DE(clash)    DE(int)     intcor
     16.81     -17.93       0.93        0.00     113.08       1.52       0.01       1.11       ----

> <Gold.Chemscore.Fitness>
16.8093

> <Gold.Chemscore.DG>
-17.9335

> <Gold.Chemscore.ZeroCoef>
-5.4800

> <Gold.Chemscore.Hbond>
0.9335

> <Gold.Chemscore.Metal>
0.0000

> <Gold.Chemscore.Lipo>
113.0787

> <Gold.Chemscore.Internal_Hbond>
0.0000

> <Gold.Chemscore.DEClash>
0.0093

> <Gold.Chemscore.DEInternal>
1.1149

> <Gold.Chemscore.Rot>
1.5213

> <Gold.Chemscore.Internal.Correction>
   9.000000E+99

> <Gold.Chemscore.Hbonds>
donor molecule, donor type, donor heavy atom, donor atom, acceptor molecule, acceptor atom, score
      L1  H    12    33       P1  8028  0.63

> <Gold.Chemscore.Hbond.Weighted>
-3.1178

> <Gold.Chemscore.Metal.Weighted>
-0.0000

> <Gold.Chemscore.Lipo.Weighted>
-13.2302

> <Gold.Chemscore.Internal_Hbond.Weighted>
0.0000

> <Gold.Chemscore.DEClash.Weighted>
0.0093

> <Gold.Chemscore.DEInternal.Weighted>
1.1149

> <Gold.Chemscore.Rot.Weighted>
3.8945

> <Gold.Chemscore.Internal.Correction.Weighted>
   9.000000E+99

> <Gold.Protein.RotatedTorsions>
[ 6907 6896 6895 6894 ] final -129.89 input  -60.11 | X-H torsion
[ 7974 7965 7964 7962 ] final  -13.77 input  175.53 | X-H torsion
[ 8008 7997 7996 7995 ] final   78.18 input   59.86 | X-H torsion
[ 10167 10162 10161 10158 ] final  -97.87 input  -65.29 | X-H torsion
[ 10718 10713 10712 10709 ] final -161.13 input   66.30 | X-H torsion
[ 10763 10752 10751 10750 ] final   66.81 input  -60.55 | X-H torsion
[ 11005 11000 10999 10996 ] final  -93.74 input  -57.11 | X-H torsion

> <Gold.Protein.ActiveResidues>
 VAL166  LYS551  ARG553  GLY616  TRP617  ASP618  TYR619  PRO620  LYS621  CYS622 
 ASP623  PHE694  ASN695  SER759  ASP760  ASP761  ALA762  ILE779  LEU786  VAL792 
 PHE793  MET794  SER795  GLU796  ALA797  LYS798  CYS799  TRP800  GLU811  SER814 

> <Gold.Protein.RotatedAtoms>
  150.9337  133.6737  159.2805 H   0  0  0  0  0  0  0  0  0  0  0  0  # atno 6907 bound_to 6896
  151.4150  135.0989  159.9606 H   0  0  0  0  0  0  0  0  0  0  0  0  # atno 6908 bound_to 6896
  152.5038  133.8801  159.7397 H   0  0  0  0  0  0  0  0  0  0  0  0  # atno 6909 bound_to 6896
  146.2101  140.3252  142.8394 H   0  0  0  0  0  0  0  0  0  0  0  0  # atno 7974 bound_to 7965
  155.8521  140.3457  155.5700 H   0  0  0  0  0  0  0  0  0  0  0  0  # atno 8008 bound_to 7997
  155.8026  140.0887  157.1968 H   0  0  0  0  0  0  0  0  0  0  0  0  # atno 8009 bound_to 7997
  154.4008  140.1462  156.3280 H   0  0  0  0  0  0  0  0  0  0  0  0  # atno 8010 bound_to 7997
  140.2789  143.3295  152.0461 H   0  0  0  0  0  0  0  0  0  0  0  0  # atno 10167 bound_to 10162
  156.5919  130.8773  151.2892 H   0  0  0  0  0  0  0  0  0  0  0  0  # atno 10718 bound_to 10713
  153.0157  135.5307  154.6882 H   0  0  0  0  0  0  0  0  0  0  0  0  # atno 10763 bound_to 10752
  154.6024  135.2869  155.0523 H   0  0  0  0  0  0  0  0  0  0  0  0  # atno 10764 bound_to 10752
  154.1576  135.6553  153.5030 H   0  0  0  0  0  0  0  0  0  0  0  0  # atno 10765 bound_to 10752
  141.1489  133.7908  157.0202 H   0  0  0  0  0  0  0  0  0  0  0  0  # atno 11005 bound_to 11000
  144.8892  140.7501  143.5937 LP  0  0  0  0  0  0  0  0  0  0  0  0  # atno 17320 bound_to 7965
  145.3174  139.1799  143.4606 LP  0  0  0  0  0  0  0  0  0  0  0  0  # atno 17321 bound_to 7965
  139.4968  144.6605  151.6474 LP  0  0  0  0  0  0  0  0  0  0  0  0  # atno 17342 bound_to 10162
  140.5828  143.9916  150.6278 LP  0  0  0  0  0  0  0  0  0  0  0  0  # atno 17343 bound_to 10162
  157.7301  130.9681  150.1820 LP  0  0  0  0  0  0  0  0  0  0  0  0  # atno 17370 bound_to 10713
  156.2543  130.3704  149.8199 LP  0  0  0  0  0  0  0  0  0  0  0  0  # atno 17371 bound_to 10713
  140.0821  134.9642  157.1641 LP  0  0  0  0  0  0  0  0  0  0  0  0  # atno 17394 bound_to 11000
  140.3562  134.2544  155.7192 LP  0  0  0  0  0  0  0  0  0  0  0  0  # atno 17395 bound_to 11000

$$$$
