AV-unprocessed.smi:215|AV-procd|sdf|1651|dock8
  -GOLD-   2262020 33D 1   1.00000     0.00000
 Structure written by MMmdl.
 59 62  0  0  0  0  0  0  0  0  2 V2000
  145.1366  137.2784  154.8523 C   0  0  0  0  0  0  0  0  0  0  0  0
  146.3576  137.5272  153.9389 C   0  0  1  0  0  0  0  0  0  0  0  0
  145.9811  137.5543  152.4325 C   0  0  2  0  0  0  0  0  0  0  0  0
  146.1881  136.2698  151.6905 N   0  3  2  0  0  0  0  0  0  0  0  0
  145.6234  136.3361  150.3168 C   0  0  0  0  0  0  0  0  0  0  0  0
  145.7421  135.0497  152.4244 C   0  0  0  0  0  0  0  0  0  0  0  0
  144.2166  134.9574  152.6190 C   0  0  0  0  0  0  0  0  0  0  0  0
  143.7911  133.6133  152.5323 O   0  0  0  0  0  0  0  0  0  0  0  0
  146.8521  138.6933  151.8751 C   0  0  0  0  0  0  0  0  0  0  0  0
  146.9736  139.6747  153.0328 C   0  0  0  0  0  0  0  0  0  0  0  0
  146.9351  138.8382  154.2187 N   0  0  0  0  0  0  0  0  0  0  0  0
  147.6057  139.1740  155.3530 C   0  0  0  0  0  0  0  0  0  0  0  0
  147.3784  138.4236  156.4630 N   0  0  0  0  0  0  0  0  0  0  0  0
  148.0097  138.6931  157.6087 C   0  0  0  0  0  0  0  0  0  0  0  0
  148.8983  139.6534  157.8635 N   0  0  0  0  0  0  0  0  0  0  0  0
  149.1323  140.4164  156.7582 C   0  0  0  0  0  0  0  0  0  0  0  0
  148.5310  140.2546  155.4756 C   0  0  0  0  0  0  0  0  0  0  0  0
  149.0013  141.2447  154.6184 N   0  0  0  0  0  0  0  0  0  0  0  0
  149.8302  141.9412  155.3458 C   0  0  0  0  0  0  0  0  0  0  0  0
  149.9905  141.4952  156.6369 N   0  0  0  0  0  0  0  0  0  0  0  0
  150.8023  142.0887  157.6589 C   0  0  0  0  0  0  0  0  0  0  0  0
  150.1847  142.9230  158.7867 C   0  0  0  0  0  0  0  0  0  0  0  0
  151.4535  143.8067  158.8094 C   0  0  0  0  0  0  0  0  0  0  0  0
  151.2376  145.3190  159.0169 C   0  0  0  0  0  0  0  0  0  0  0  0
  150.7966  145.6314  160.3232 O   0  0  0  0  0  0  0  0  0  0  0  0
  152.5171  143.3549  159.8286 C   0  0  0  0  0  0  0  0  0  0  0  0
  151.9980  143.3247  161.1430 O   0  0  0  0  0  0  0  0  0  0  0  0
  151.6721  143.3131  157.3604 C   0  0  0  0  0  0  0  0  0  0  0  0
  147.1305  136.7769  154.1004 H   0  0  0  0  0  0  0  0  0  0  0  0
  144.9342  137.8494  152.3384 H   0  0  0  0  0  0  0  0  0  0  0  0
  144.6437  136.3308  154.6440 H   0  0  0  0  0  0  0  0  0  0  0  0
  144.3897  138.0632  154.7269 H   0  0  0  0  0  0  0  0  0  0  0  0
  145.4156  137.2676  155.9053 H   0  0  0  0  0  0  0  0  0  0  0  0
  144.5334  136.3655  150.3451 H   0  0  0  0  0  0  0  0  0  0  0  0
  145.9275  135.4840  149.7114 H   0  0  0  0  0  0  0  0  0  0  0  0
  145.9681  137.2161  149.7760 H   0  0  0  0  0  0  0  0  0  0  0  0
  146.0297  134.1520  151.8815 H   0  0  0  0  0  0  0  0  0  0  0  0
  146.2455  135.0079  153.3912 H   0  0  0  0  0  0  0  0  0  0  0  0
  143.9527  135.3309  153.6088 H   0  0  0  0  0  0  0  0  0  0  0  0
  143.6643  135.5712  151.9089 H   0  0  0  0  0  0  0  0  0  0  0  0
  143.3408  133.3845  153.3317 H   0  0  0  0  0  0  0  0  0  0  0  0
  147.8437  138.3162  151.6190 H   0  0  0  0  0  0  0  0  0  0  0  0
  146.4318  139.1665  150.9874 H   0  0  0  0  0  0  0  0  0  0  0  0
  147.8919  140.2588  152.9577 H   0  0  0  0  0  0  0  0  0  0  0  0
  146.1271  140.3619  153.0544 H   0  0  0  0  0  0  0  0  0  0  0  0
  147.7700  138.0456  158.4392 H   0  0  0  0  0  0  0  0  0  0  0  0
  150.3529  142.8018  154.9545 H   0  0  0  0  0  0  0  0  0  0  0  0
  151.4085  141.2782  158.0670 H   0  0  0  0  0  0  0  0  0  0  0  0
  149.2862  143.4524  158.4660 H   0  0  0  0  0  0  0  0  0  0  0  0
  149.9974  142.3668  159.7057 H   0  0  0  0  0  0  0  0  0  0  0  0
  152.1603  145.8709  158.8353 H   0  0  0  0  0  0  0  0  0  0  0  0
  150.4956  145.7088  158.3196 H   0  0  0  0  0  0  0  0  0  0  0  0
  151.5168  146.0151  160.7995 H   0  0  0  0  0  0  0  0  0  0  0  0
  152.9018  142.3648  159.5812 H   0  0  0  0  0  0  0  0  0  0  0  0
  153.3778  144.0240  159.8269 H   0  0  0  0  0  0  0  0  0  0  0  0
  151.0598  143.2235  161.0936 H   0  0  0  0  0  0  0  0  0  0  0  0
  152.7048  143.0761  157.1027 H   0  0  0  0  0  0  0  0  0  0  0  0
  151.2254  143.9616  156.6050 H   0  0  0  0  0  0  0  0  0  0  0  0
  147.1881  136.1717  151.5850 H   0  0  0  0  0  0  0  0  0  0  0  0
  1  2  1  0  0  0  0
  1 31  1  0  0  0  0
  1 32  1  0  0  0  0
  1 33  1  0  0  0  0
  2 29  1  0  0  0  0
  2 11  1  0  0  0  0
  2  3  1  0  0  0  0
  3 30  1  0  0  0  0
  3  4  1  0  0  0  0
  3  9  1  0  0  0  0
  4  5  1  0  0  0  0
  4  6  1  0  0  0  0
  4 59  1  0  0  0  0
  5 34  1  0  0  0  0
  5 35  1  0  0  0  0
  5 36  1  0  0  0  0
  6  7  1  0  0  0  0
  6 37  1  0  0  0  0
  6 38  1  0  0  0  0
  7  8  1  0  0  0  0
  7 39  1  0  0  0  0
  7 40  1  0  0  0  0
  8 41  1  0  0  0  0
  9 10  1  0  0  0  0
  9 42  1  0  0  0  0
  9 43  1  0  0  0  0
 10 11  1  0  0  0  0
 10 44  1  0  0  0  0
 10 45  1  0  0  0  0
 11 12  1  0  0  0  0
 12 17  1  0  0  0  0
 12 13  2  0  0  0  0
 13 14  1  0  0  0  0
 14 15  2  0  0  0  0
 14 46  1  0  0  0  0
 15 16  1  0  0  0  0
 16 20  1  0  0  0  0
 16 17  2  0  0  0  0
 17 18  1  0  0  0  0
 18 19  2  0  0  0  0
 19 20  1  0  0  0  0
 19 47  1  0  0  0  0
 20 21  1  0  0  0  0
 21 28  1  0  0  0  0
 21 22  1  0  0  0  0
 21 48  1  0  0  0  0
 22 23  1  0  0  0  0
 22 49  1  0  0  0  0
 22 50  1  0  0  0  0
 23 24  1  0  0  0  0
 23 26  1  0  0  0  0
 23 28  1  0  0  0  0
 24 25  1  0  0  0  0
 24 51  1  0  0  0  0
 24 52  1  0  0  0  0
 25 53  1  0  0  0  0
 26 27  1  0  0  0  0
 26 54  1  0  0  0  0
 26 55  1  0  0  0  0
 27 56  1  0  0  0  0
 28 57  1  0  0  0  0
 28 58  1  0  0  0  0
M  CHG  1   4   1
M  END
> <s_m_source_file>
AV-unprocessed.smi

> <i_m_source_file_index>
215

> <i_lp_mmshare_version>
43012

> <i_f3d_flags>
0

> <s_epik_input>
W09IXVtDSDJdW0NIMl1OKFtDSDNdKVtDQEBIXShbQ0BIXTFbQ0gzXSlbQ0gyXVtDSDJdTjFjKG5bY0hdbjIpYyhjMjMpbltjSF1uM1tDSF0oW0NIMl00KVtDSDJdQzQoW0NIMl1bT0hdKVtDSDJdW09IXQ==

> <s_epik_cmdline>
J2VwaWtfcHl0aG9uJywgJy1waCcsICc3LjAnLCAnLXRuJywgJzgnLCAnLW1hJywgJzIwMCcsICctbWV0YWxfYmluZGluZycsICctaW1hZScsICc8aW5maWxlLm1hZT4nLCAnLW9tYWUnLCAnPG91dGZpbGUubWFlPic=

> <r_lp_tautomer_probability>
1

> <r_epik_Ionization_Penalty>
0.0036237

> <r_epik_Ionization_Penalty_Charging>
0.0032725

> <r_epik_Ionization_Penalty_Neutral>
0.000351196

> <r_epik_State_Penalty>
-0

> <r_epik_Charging_Adjusted_Penalty>
0.0032725

> <i_epik_Tot_Q>
1

> <i_epik_Tot_abs_Q>
1

> <r_epik_Metal_State_Penalty>
-0

> <b_epik_Metal_Only>
0

> <s_lp_Force_Field>
OPLS_2005

> <r_lp_Energy>
68.3917

> <b_lp_Chiralities_Consistent>
1

> <s_lp_Variant>
AV-unprocessed.smi:215-2

> <Gold.Version>
5.8.1

> <Gold.Id.Protein>
6NUR|6NUR_protein|mol2

> <Gold.PLP.Fitness>
48.1954

> <Gold.PLP.PLP>
-38.8808

> <Gold.PLP.part.hbond>
-3.8203

> <Gold.PLP.part.metal>
0.0000

> <Gold.PLP.part.buried>
-3.2282

> <Gold.PLP.part.nonpolar>
-33.0352

> <Gold.PLP.part.repulsive>
0.1885

> <Gold.PLP.ligand.clash>
0.0000

> <Gold.PLP.ligand.torsion>
0.9955

> <Gold.PLP.Chemscore.Hbond>
3.0000

> <Gold.PLP.Chemscore.CHOScore>
0.5737

> <Gold.PLP.Chemscore.Metal>
0.0000

> <Gold.Chemscore.Hbonds>
donor molecule, donor type, donor heavy atom, donor atom, acceptor molecule, acceptor atom, score
      L1  H     4    59       P1  7948  2.00
      L1  H     8    41       P1 10957  0.37
      L1  C    19    47       P1  8028  0.47

> <Gold.PLP.Chemscore.Internal.Correction>
0.5844

> <Gold.Rescore>
     Score         DG    S(hbond)    S(metal)    S(lipo)     H(rot)  DE(clash)    DE(int)     intcor
      8.13     -11.95       1.86        0.00     100.10       4.48       0.79       3.03       ----

> <Gold.Chemscore.Fitness>
8.1341

> <Gold.Chemscore.DG>
-11.9529

> <Gold.Chemscore.ZeroCoef>
-5.4800

> <Gold.Chemscore.Hbond>
1.8642

> <Gold.Chemscore.Metal>
0.0000

> <Gold.Chemscore.Lipo>
100.1019

> <Gold.Chemscore.Internal_Hbond>
0.0000

> <Gold.Chemscore.DEClash>
0.7936

> <Gold.Chemscore.DEInternal>
3.0251

> <Gold.Chemscore.Rot>
4.4787

> <Gold.Chemscore.Internal.Correction>
   9.000000E+99

> <Gold.Chemscore.Hbonds>
donor molecule, donor type, donor heavy atom, donor atom, acceptor molecule, acceptor atom, score
      L1  H     4    59       P1  7948  1.00
      L1  H     8    41       P1 10957  0.35

> <Gold.Chemscore.Hbond.Weighted>
-6.2264

> <Gold.Chemscore.Metal.Weighted>
-0.0000

> <Gold.Chemscore.Lipo.Weighted>
-11.7119

> <Gold.Chemscore.Internal_Hbond.Weighted>
0.0000

> <Gold.Chemscore.DEClash.Weighted>
0.7936

> <Gold.Chemscore.DEInternal.Weighted>
3.0251

> <Gold.Chemscore.Rot.Weighted>
11.4655

> <Gold.Chemscore.Internal.Correction.Weighted>
   9.000000E+99

> <Gold.Protein.RotatedTorsions>
[ 6907 6896 6895 6894 ] final  -93.34 input  -60.11 | X-H torsion
[ 7974 7965 7964 7962 ] final  -14.90 input  175.53 | X-H torsion
[ 8008 7997 7996 7995 ] final -110.03 input   59.86 | X-H torsion
[ 10167 10162 10161 10158 ] final  -35.06 input  -65.29 | X-H torsion
[ 10718 10713 10712 10709 ] final  114.01 input   66.30 | X-H torsion
[ 10763 10752 10751 10750 ] final  -67.39 input  -60.55 | X-H torsion
[ 11005 11000 10999 10996 ] final -142.32 input  -57.11 | X-H torsion

> <Gold.Protein.ActiveResidues>
 VAL166  LYS551  ARG553  GLY616  TRP617  ASP618  TYR619  PRO620  LYS621  CYS622 
 ASP623  PHE694  ASN695  SER759  ASP760  ASP761  ALA762  ILE779  LEU786  VAL792 
 PHE793  MET794  SER795  GLU796  ALA797  LYS798  CYS799  TRP800  GLU811  SER814 

> <Gold.Protein.RotatedAtoms>
  150.6921  134.1982  159.4311 H   0  0  0  0  0  0  0  0  0  0  0  0  # atno 6907 bound_to 6896
  151.9950  134.9956  160.0572 H   0  0  0  0  0  0  0  0  0  0  0  0  # atno 6908 bound_to 6896
  152.1632  133.4560  159.4908 H   0  0  0  0  0  0  0  0  0  0  0  0  # atno 6909 bound_to 6896
  146.2055  140.3415  142.8408 H   0  0  0  0  0  0  0  0  0  0  0  0  # atno 7974 bound_to 7965
  154.9683  140.0398  157.2222 H   0  0  0  0  0  0  0  0  0  0  0  0  # atno 8008 bound_to 7997
  154.7824  140.2821  155.6031 H   0  0  0  0  0  0  0  0  0  0  0  0  # atno 8009 bound_to 7997
  156.2938  140.2589  156.2653 H   0  0  0  0  0  0  0  0  0  0  0  0  # atno 8010 bound_to 7997
  140.7173  143.3504  151.2168 H   0  0  0  0  0  0  0  0  0  0  0  0  # atno 10167 bound_to 10162
  157.6306  131.0992  150.7123 H   0  0  0  0  0  0  0  0  0  0  0  0  # atno 10718 bound_to 10713
  154.3738  135.6089  153.5754 H   0  0  0  0  0  0  0  0  0  0  0  0  # atno 10763 bound_to 10752
  152.9789  135.5844  154.4490 H   0  0  0  0  0  0  0  0  0  0  0  0  # atno 10764 bound_to 10752
  154.4249  135.2846  155.1929 H   0  0  0  0  0  0  0  0  0  0  0  0  # atno 10765 bound_to 10752
  140.8236  134.2601  157.4889 H   0  0  0  0  0  0  0  0  0  0  0  0  # atno 11005 bound_to 11000
  144.8782  140.7364  143.6003 LP  0  0  0  0  0  0  0  0  0  0  0  0  # atno 17320 bound_to 7965
  145.3335  139.1752  143.4524 LP  0  0  0  0  0  0  0  0  0  0  0  0  # atno 17321 bound_to 7965
  139.7033  143.9496  152.2915 LP  0  0  0  0  0  0  0  0  0  0  0  0  # atno 17342 bound_to 10162
  139.9197  144.6807  150.8475 LP  0  0  0  0  0  0  0  0  0  0  0  0  # atno 17343 bound_to 10162
  156.7463  130.4755  149.5466 LP  0  0  0  0  0  0  0  0  0  0  0  0  # atno 17370 bound_to 10713
  156.1507  130.6308  151.0591 LP  0  0  0  0  0  0  0  0  0  0  0  0  # atno 17371 bound_to 10713
  139.8707  134.9549  156.4189 LP  0  0  0  0  0  0  0  0  0  0  0  0  # atno 17394 bound_to 11000
  140.9072  133.7737  155.9749 LP  0  0  0  0  0  0  0  0  0  0  0  0  # atno 17395 bound_to 11000

$$$$
