AV-unprocessed.smi:2234|AV-procd|sdf|9042|dock1
  -GOLD-   2272012253D 1   1.00000     0.00000
 Structure written by MMmdl.
 21 22  0  0  0  0  0  0  0  0  2 V2000
  153.0393  138.9526  154.9420 O   0  0  0  0  0  0  0  0  0  0  0  0
  151.9748  139.4186  155.4063 C   0  0  0  0  0  0  0  0  0  0  0  0
  150.9624  139.7127  154.7332 O   0  5  0  0  0  0  0  0  0  0  0  0
  151.9168  139.6762  156.9176 C   0  0  2  0  0  0  0  0  0  0  0  0
  151.8277  141.1477  157.2782 C   0  0  0  0  0  0  0  0  0  0  0  0
  152.5398  141.1469  158.5907 C   0  0  0  0  0  0  0  0  0  0  0  0
  152.4106  142.2117  159.6149 C   0  0  0  0  0  0  0  0  0  0  0  0
  151.9464  143.4997  159.2663 C   0  0  0  0  0  0  0  0  0  0  0  0
  151.8439  144.4821  160.2703 C   0  0  0  0  0  0  0  0  0  0  0  0
  152.2123  144.1389  161.5858 C   0  0  0  0  0  0  0  0  0  0  0  0
  152.6607  142.9143  161.9338 N   0  0  0  0  0  0  0  0  0  0  0  0
  152.7571  141.9763  160.9662 C   0  0  0  0  0  0  0  0  0  0  0  0
  153.2458  140.1036  158.7307 N   0  0  0  0  0  0  0  0  0  0  0  0
  153.1128  139.2855  157.5813 O   0  0  0  0  0  0  0  0  0  0  0  0
  151.0792  139.1248  157.3490 H   0  0  0  0  0  0  0  0  0  0  0  0
  152.3538  141.7965  156.5758 H   0  0  0  0  0  0  0  0  0  0  0  0
  150.7942  141.4798  157.3788 H   0  0  0  0  0  0  0  0  0  0  0  0
  151.6738  143.7454  158.2505 H   0  0  0  0  0  0  0  0  0  0  0  0
  151.4923  145.4762  160.0366 H   0  0  0  0  0  0  0  0  0  0  0  0
  152.1467  144.8684  162.3796 H   0  0  0  0  0  0  0  0  0  0  0  0
  153.1208  141.0127  161.2915 H   0  0  0  0  0  0  0  0  0  0  0  0
  1  2  2  0  0  0  0
  2  3  1  0  0  0  0
  2  4  1  0  0  0  0
  4 14  1  0  0  0  0
  4  5  1  0  0  0  0
  4 15  1  0  0  0  0
  5  6  1  0  0  0  0
  5 16  1  0  0  0  0
  5 17  1  0  0  0  0
  6  7  1  0  0  0  0
  6 13  2  0  0  0  0
  7 12  1  0  0  0  0
  7  8  2  0  0  0  0
  8  9  1  0  0  0  0
  8 18  1  0  0  0  0
  9 10  2  0  0  0  0
  9 19  1  0  0  0  0
 10 11  1  0  0  0  0
 10 20  1  0  0  0  0
 11 12  2  0  0  0  0
 12 21  1  0  0  0  0
 13 14  1  0  0  0  0
M  CHG  1   3  -1
M  END
> <s_m_source_file>
AV-unprocessed.smi

> <i_m_source_file_index>
2234

> <i_lp_mmshare_version>
43012

> <i_f3d_flags>
0

> <s_epik_input>
Tz1DKFtPSF0pW0NAQEhdMVtDSDJdQyg9Tk8xKWMyW2NIXVtjSF1bY0hdbltjSF0y

> <s_epik_cmdline>
J2VwaWtfcHl0aG9uJywgJy1waCcsICc3LjAnLCAnLXRuJywgJzgnLCAnLW1hJywgJzIwMCcsICctbWV0YWxfYmluZGluZycsICctaW1hZScsICc8aW5maWxlLm1hZT4nLCAnLW9tYWUnLCAnPG91dGZpbGUubWFlPic=

> <r_lp_tautomer_probability>
1

> <r_epik_Ionization_Penalty>
0.000239258

> <r_epik_Ionization_Penalty_Charging>
3.09051e-05

> <r_epik_Ionization_Penalty_Neutral>
0.000208353

> <r_epik_State_Penalty>
-0

> <r_epik_Charging_Adjusted_Penalty>
3.09051e-05

> <i_epik_Tot_Q>
-1

> <i_epik_Tot_abs_Q>
1

> <r_epik_Metal_State_Penalty>
-0

> <b_epik_Metal_Only>
0

> <s_epik_Chemistry_Notes>
This compound has an imine and may undergo hydrolysis.

> <s_lp_Force_Field>
OPLS_2005

> <r_lp_Energy>
16.9969

> <b_lp_Chiralities_Consistent>
1

> <s_lp_Variant>
AV-unprocessed.smi:2234-1

> <Gold.Version>
5.8.1

> <Gold.Id.Protein>
6NUR|6NUR_protein|mol2

> <Gold.PLP.Fitness>
40.6341

> <Gold.PLP.PLP>
-32.0245

> <Gold.PLP.part.hbond>
-4.1478

> <Gold.PLP.part.metal>
0.0000

> <Gold.PLP.part.buried>
-4.5859

> <Gold.PLP.part.nonpolar>
-22.5950

> <Gold.PLP.part.repulsive>
0.1809

> <Gold.PLP.ligand.clash>
0.0000

> <Gold.PLP.ligand.torsion>
0.2096

> <Gold.PLP.Chemscore.Hbond>
3.0000

> <Gold.PLP.Chemscore.CHOScore>
0.0000

> <Gold.PLP.Chemscore.Metal>
0.0000

> <Gold.Chemscore.Hbonds>
donor molecule, donor type, donor heavy atom, donor atom, acceptor molecule, acceptor atom, score
      P1  H  7989  7998       L1     3  1.00
      P1  H  7997  8008       L1     1  1.59

> <Gold.PLP.Chemscore.Internal.Correction>
0.0288

> <Gold.Rescore>
     Score         DG    S(hbond)    S(metal)    S(lipo)     H(rot)  DE(clash)    DE(int)     intcor
     15.53     -17.42       1.61        0.00      77.92       1.00       1.56       0.33       ----

> <Gold.Chemscore.Fitness>
15.5343

> <Gold.Chemscore.DG>
-17.4181

> <Gold.Chemscore.ZeroCoef>
-5.4800

> <Gold.Chemscore.Hbond>
1.6113

> <Gold.Chemscore.Metal>
0.0000

> <Gold.Chemscore.Lipo>
77.9188

> <Gold.Chemscore.Internal_Hbond>
0.0000

> <Gold.Chemscore.DEClash>
1.5578

> <Gold.Chemscore.DEInternal>
0.3260

> <Gold.Chemscore.Rot>
1.0000

> <Gold.Chemscore.Internal.Correction>
   9.000000E+99

> <Gold.Chemscore.Hbonds>
donor molecule, donor type, donor heavy atom, donor atom, acceptor molecule, acceptor atom, score
      P1  H  7989  7998       L1     3  0.35
      P1  H  7997  8008       L1     1  0.31

> <Gold.Chemscore.Hbond.Weighted>
-5.3816

> <Gold.Chemscore.Metal.Weighted>
-0.0000

> <Gold.Chemscore.Lipo.Weighted>
-9.1165

> <Gold.Chemscore.Internal_Hbond.Weighted>
0.0000

> <Gold.Chemscore.DEClash.Weighted>
1.5578

> <Gold.Chemscore.DEInternal.Weighted>
0.3260

> <Gold.Chemscore.Rot.Weighted>
2.5600

> <Gold.Chemscore.Internal.Correction.Weighted>
   9.000000E+99

> <Gold.Protein.RotatedTorsions>
[ 6907 6896 6895 6894 ] final    5.63 input  -60.11 | X-H torsion
[ 7974 7965 7964 7962 ] final -106.87 input  175.53 | X-H torsion
[ 8008 7997 7996 7995 ] final   -8.61 input   59.86 | X-H torsion
[ 10167 10162 10161 10158 ] final -160.12 input  -65.29 | X-H torsion
[ 10718 10713 10712 10709 ] final -178.68 input   66.30 | X-H torsion
[ 10763 10752 10751 10750 ] final  -17.68 input  -60.55 | X-H torsion
[ 11005 11000 10999 10996 ] final -144.24 input  -57.11 | X-H torsion

> <Gold.Protein.ActiveResidues>
 VAL166  LYS551  ARG553  GLY616  TRP617  ASP618  TYR619  PRO620  LYS621  CYS622 
 ASP623  PHE694  ASN695  SER759  ASP760  ASP761  ALA762  ILE779  LEU786  VAL792 
 PHE793  MET794  SER795  GLU796  ALA797  LYS798  CYS799  TRP800  GLU811  SER814 

> <Gold.Protein.RotatedAtoms>
  151.6607  135.0989  160.0178 H   0  0  0  0  0  0  0  0  0  0  0  0  # atno 6907 bound_to 6896
  152.3948  133.6727  159.6276 H   0  0  0  0  0  0  0  0  0  0  0  0  # atno 6908 bound_to 6896
  150.7857  133.8809  159.3326 H   0  0  0  0  0  0  0  0  0  0  0  0  # atno 6909 bound_to 6896
  145.2125  140.9102  143.3306 H   0  0  0  0  0  0  0  0  0  0  0  0  # atno 7974 bound_to 7965
  154.5725  140.2376  155.8171 H   0  0  0  0  0  0  0  0  0  0  0  0  # atno 8008 bound_to 7997
  156.2117  140.3024  155.9706 H   0  0  0  0  0  0  0  0  0  0  0  0  # atno 8009 bound_to 7997
  155.2687  140.0417  157.2995 H   0  0  0  0  0  0  0  0  0  0  0  0  # atno 8010 bound_to 7997
  139.6563  143.9993  152.2196 H   0  0  0  0  0  0  0  0  0  0  0  0  # atno 10167 bound_to 10162
  156.8479  130.9709  151.3095 H   0  0  0  0  0  0  0  0  0  0  0  0  # atno 10718 bound_to 10713
  153.5776  135.7006  153.5477 H   0  0  0  0  0  0  0  0  0  0  0  0  # atno 10763 bound_to 10752
  153.3289  135.4053  155.1479 H   0  0  0  0  0  0  0  0  0  0  0  0  # atno 10764 bound_to 10752
  154.8623  135.3714  154.5302 H   0  0  0  0  0  0  0  0  0  0  0  0  # atno 10765 bound_to 10752
  140.8045  134.2818  157.4966 H   0  0  0  0  0  0  0  0  0  0  0  0  # atno 11005 bound_to 11000
  144.9843  139.3752  143.6246 LP  0  0  0  0  0  0  0  0  0  0  0  0  # atno 17320 bound_to 7965
  146.3394  139.8997  142.8796 LP  0  0  0  0  0  0  0  0  0  0  0  0  # atno 17321 bound_to 7965
  139.9720  144.6487  150.7980 LP  0  0  0  0  0  0  0  0  0  0  0  0  # atno 17342 bound_to 10162
  140.7560  143.3058  151.2965 LP  0  0  0  0  0  0  0  0  0  0  0  0  # atno 17343 bound_to 10162
  157.6320  130.8736  149.9290 LP  0  0  0  0  0  0  0  0  0  0  0  0  # atno 17370 bound_to 10713
  156.0844  130.3669  150.0516 LP  0  0  0  0  0  0  0  0  0  0  0  0  # atno 17371 bound_to 10713
  139.8719  134.9448  156.3892 LP  0  0  0  0  0  0  0  0  0  0  0  0  # atno 17394 bound_to 11000
  140.9261  133.7611  155.9967 LP  0  0  0  0  0  0  0  0  0  0  0  0  # atno 17395 bound_to 11000

$$$$
