AV-unprocessed.smi:2888|AV-procd|sdf|11100|dock9
  -GOLD-   2272015573D 1   1.00000     0.00000
 Structure written by MMmdl.
 33 35  0  0  0  0  0  0  0  0  1 V2000
  151.8747  145.6625  159.8769 C   0  0  0  0  0  0  0  0  0  0  0  0
  151.7886  144.2783  159.2702 C   0  0  0  0  0  0  0  0  0  0  0  0
  152.6508  143.2382  159.6760 C   0  0  0  0  0  0  0  0  0  0  0  0
  152.4681  141.9955  159.0337 C   0  0  0  0  0  0  0  0  0  0  0  0
  153.3229  140.7939  159.3763 C   0  0  0  0  0  0  0  0  0  0  0  0
  151.5207  141.8155  158.0865 N   0  0  0  0  0  0  0  0  0  0  0  0
  150.7575  142.8686  157.7827 C   0  0  0  0  0  0  0  0  0  0  0  0
  149.7935  142.6455  156.8169 N   0  0  0  0  0  0  0  0  0  0  0  0
  149.4009  141.3268  156.3362 C   0  0  2  0  0  0  0  0  0  0  0  0
  150.5877  140.4954  155.8329 C   0  0  0  0  0  0  0  0  0  0  0  0
  150.1506  140.1539  154.4031 C   0  0  1  0  0  0  0  0  0  0  0  0
  148.9671  139.1769  154.3744 C   0  0  0  0  0  0  0  0  0  0  0  0
  147.8110  140.0740  154.8160 C   0  0  0  0  0  0  0  0  0  0  0  0
  148.5258  141.4074  155.0740 C   0  0  2  0  0  0  0  0  0  0  0  0
  149.5031  141.3623  154.0465 O   0  0  0  0  0  0  0  0  0  0  0  0
  150.8427  144.0898  158.3243 N   0  0  0  0  0  0  0  0  0  0  0  0
  152.7152  145.7384  160.5673 H   0  0  0  0  0  0  0  0  0  0  0  0
  150.9604  145.8920  160.4245 H   0  0  0  0  0  0  0  0  0  0  0  0
  152.0067  146.4123  159.0964 H   0  0  0  0  0  0  0  0  0  0  0  0
  153.4055  143.3847  160.4347 H   0  0  0  0  0  0  0  0  0  0  0  0
  154.1260  141.0651  160.0618 H   0  0  0  0  0  0  0  0  0  0  0  0
  153.7723  140.3762  158.4749 H   0  0  0  0  0  0  0  0  0  0  0  0
  152.7166  140.0211  159.8490 H   0  0  0  0  0  0  0  0  0  0  0  0
  149.4648  143.4508  156.3043 H   0  0  0  0  0  0  0  0  0  0  0  0
  148.8605  140.8090  157.1299 H   0  0  0  0  0  0  0  0  0  0  0  0
  151.5096  141.0789  155.8136 H   0  0  0  0  0  0  0  0  0  0  0  0
  150.7651  139.6067  156.4395 H   0  0  0  0  0  0  0  0  0  0  0  0
  150.9733  139.8740  153.7447 H   0  0  0  0  0  0  0  0  0  0  0  0
  148.7954  138.8007  153.3653 H   0  0  0  0  0  0  0  0  0  0  0  0
  149.1199  138.3241  155.0367 H   0  0  0  0  0  0  0  0  0  0  0  0
  147.0802  140.1774  154.0131 H   0  0  0  0  0  0  0  0  0  0  0  0
  147.2953  139.6977  155.7001 H   0  0  0  0  0  0  0  0  0  0  0  0
  147.8624  142.2725  155.0352 H   0  0  0  0  0  0  0  0  0  0  0  0
  1  2  1  0  0  0  0
  1 17  1  0  0  0  0
  1 18  1  0  0  0  0
  1 19  1  0  0  0  0
  2 16  1  0  0  0  0
  2  3  2  0  0  0  0
  3  4  1  0  0  0  0
  3 20  1  0  0  0  0
  4  5  1  0  0  0  0
  4  6  2  0  0  0  0
  5 21  1  0  0  0  0
  5 22  1  0  0  0  0
  5 23  1  0  0  0  0
  6  7  1  0  0  0  0
  7  8  1  0  0  0  0
  7 16  2  0  0  0  0
  8  9  1  0  0  0  0
  8 24  1  0  0  0  0
  9 14  1  0  0  0  0
  9 10  1  0  0  0  0
  9 25  1  0  0  0  0
 10 11  1  0  0  0  0
 10 26  1  0  0  0  0
 10 27  1  0  0  0  0
 11 15  1  0  0  0  0
 11 12  1  0  0  0  0
 11 28  1  0  0  0  0
 12 13  1  0  0  0  0
 12 29  1  0  0  0  0
 12 30  1  0  0  0  0
 13 14  1  0  0  0  0
 13 31  1  0  0  0  0
 13 32  1  0  0  0  0
 14 15  1  0  0  0  0
 14 33  1  0  0  0  0
M  END
> <s_m_source_file>
AV-unprocessed.smi

> <i_m_source_file_index>
2888

> <i_lp_mmshare_version>
43012

> <i_f3d_flags>
0

> <s_epik_input>
W0NIM11jMVtjSF1jKFtDSDNdKW5jKG4xKVtOSF1bQ0BIXShbQ0gyXVtDQEBIXTIzKVtDQEBIXShPMylbQ0gyXVtDSDJdMg==

> <s_epik_cmdline>
J2VwaWtfcHl0aG9uJywgJy1waCcsICc3LjAnLCAnLXRuJywgJzgnLCAnLW1hJywgJzIwMCcsICctbWV0YWxfYmluZGluZycsICctaW1hZScsICc8aW5maWxlLm1hZT4nLCAnLW9tYWUnLCAnPG91dGZpbGUubWFlPic=

> <r_lp_tautomer_probability>
1

> <r_epik_Ionization_Penalty>
0.00890508

> <r_epik_Ionization_Penalty_Charging>
0

> <r_epik_Ionization_Penalty_Neutral>
0.00890508

> <r_epik_State_Penalty>
0.0067342

> <r_epik_Charging_Adjusted_Penalty>
0.0067342

> <i_epik_Tot_Q>
0

> <i_epik_Tot_abs_Q>
0

> <r_epik_Metal_State_Penalty>
0.00663442

> <b_epik_Metal_Only>
0

> <s_lp_Force_Field>
OPLS_2005

> <r_lp_Energy>
31.5378

> <b_lp_Chiralities_Consistent>
1

> <s_lp_Variant>
AV-unprocessed.smi:2888-1

> <Gold.Version>
5.8.1

> <Gold.Id.Protein>
6NUR|6NUR_protein|mol2

> <Gold.PLP.Fitness>
38.7689

> <Gold.PLP.PLP>
-33.7891

> <Gold.PLP.part.hbond>
-3.0000

> <Gold.PLP.part.metal>
0.0000

> <Gold.PLP.part.buried>
-1.7172

> <Gold.PLP.part.nonpolar>
-29.5514

> <Gold.PLP.part.repulsive>
0.3977

> <Gold.PLP.ligand.clash>
0.0000

> <Gold.PLP.ligand.torsion>
0.1138

> <Gold.PLP.Chemscore.Hbond>
1.7296

> <Gold.PLP.Chemscore.CHOScore>
0.0000

> <Gold.PLP.Chemscore.Metal>
0.0000

> <Gold.Chemscore.Hbonds>
donor molecule, donor type, donor heavy atom, donor atom, acceptor molecule, acceptor atom, score
      L1  H     8    24       P1  8028  1.00
      P1  H  8011  8017       L1    15  0.72

> <Gold.PLP.Chemscore.Internal.Correction>
0.0187

> <Gold.Rescore>
     Score         DG    S(hbond)    S(metal)    S(lipo)     H(rot)  DE(clash)    DE(int)     intcor
     16.36     -19.15       1.65        0.00      91.76       1.00       1.26       1.53       ----

> <Gold.Chemscore.Fitness>
16.3568

> <Gold.Chemscore.DG>
-19.1528

> <Gold.Chemscore.ZeroCoef>
-5.4800

> <Gold.Chemscore.Hbond>
1.6459

> <Gold.Chemscore.Metal>
0.0000

> <Gold.Chemscore.Lipo>
91.7555

> <Gold.Chemscore.Internal_Hbond>
0.0000

> <Gold.Chemscore.DEClash>
1.2617

> <Gold.Chemscore.DEInternal>
1.5343

> <Gold.Chemscore.Rot>
1.0000

> <Gold.Chemscore.Internal.Correction>
   9.000000E+99

> <Gold.Chemscore.Hbonds>
donor molecule, donor type, donor heavy atom, donor atom, acceptor molecule, acceptor atom, score
      L1  H     8    24       P1  8028  0.93
      P1  H  8011  8017       L1    15  0.67

> <Gold.Chemscore.Hbond.Weighted>
-5.4974

> <Gold.Chemscore.Metal.Weighted>
-0.0000

> <Gold.Chemscore.Lipo.Weighted>
-10.7354

> <Gold.Chemscore.Internal_Hbond.Weighted>
0.0000

> <Gold.Chemscore.DEClash.Weighted>
1.2617

> <Gold.Chemscore.DEInternal.Weighted>
1.5343

> <Gold.Chemscore.Rot.Weighted>
2.5600

> <Gold.Chemscore.Internal.Correction.Weighted>
   9.000000E+99

> <Gold.Protein.RotatedTorsions>
[ 6907 6896 6895 6894 ] final  -59.32 input  -60.11 | X-H torsion
[ 7974 7965 7964 7962 ] final -115.70 input  175.53 | X-H torsion
[ 8008 7997 7996 7995 ] final  138.19 input   59.86 | X-H torsion
[ 10167 10162 10161 10158 ] final -124.01 input  -65.29 | X-H torsion
[ 10718 10713 10712 10709 ] final  120.42 input   66.30 | X-H torsion
[ 10763 10752 10751 10750 ] final -141.05 input  -60.55 | X-H torsion
[ 11005 11000 10999 10996 ] final  147.59 input  -57.11 | X-H torsion

> <Gold.Protein.ActiveResidues>
 VAL166  LYS551  ARG553  GLY616  TRP617  ASP618  TYR619  PRO620  LYS621  CYS622 
 ASP623  PHE694  ASN695  SER759  ASP760  ASP761  ALA762  ILE779  LEU786  VAL792 
 PHE793  MET794  SER795  GLU796  ALA797  LYS798  CYS799  TRP800  GLU811  SER814 

> <Gold.Protein.RotatedAtoms>
  150.7940  134.6984  159.6536 H   0  0  0  0  0  0  0  0  0  0  0  0  # atno 6907 bound_to 6896
  152.4049  134.6220  160.0063 H   0  0  0  0  0  0  0  0  0  0  0  0  # atno 6908 bound_to 6896
  151.6481  133.3285  159.3181 H   0  0  0  0  0  0  0  0  0  0  0  0  # atno 6909 bound_to 6896
  145.1053  140.8578  143.3902 H   0  0  0  0  0  0  0  0  0  0  0  0  # atno 7974 bound_to 7965
  156.2999  140.2400  156.4033 H   0  0  0  0  0  0  0  0  0  0  0  0  # atno 8008 bound_to 7997
  154.8508  140.0424  157.1622 H   0  0  0  0  0  0  0  0  0  0  0  0  # atno 8009 bound_to 7997
  154.9001  140.2975  155.5326 H   0  0  0  0  0  0  0  0  0  0  0  0  # atno 8010 bound_to 7997
  139.9973  143.5577  152.2318 H   0  0  0  0  0  0  0  0  0  0  0  0  # atno 10167 bound_to 10162
  157.5892  131.1066  150.8032 H   0  0  0  0  0  0  0  0  0  0  0  0  # atno 10718 bound_to 10713
  154.8558  135.3535  154.5805 H   0  0  0  0  0  0  0  0  0  0  0  0  # atno 10763 bound_to 10752
  153.6416  135.6998  153.5244 H   0  0  0  0  0  0  0  0  0  0  0  0  # atno 10764 bound_to 10752
  153.2966  135.4218  155.1174 H   0  0  0  0  0  0  0  0  0  0  0  0  # atno 10765 bound_to 10752
  140.0888  134.9053  157.1618 H   0  0  0  0  0  0  0  0  0  0  0  0  # atno 11005 bound_to 11000
  145.0908  139.2891  143.5736 LP  0  0  0  0  0  0  0  0  0  0  0  0  # atno 17320 bound_to 7965
  146.3528  140.0445  142.8640 LP  0  0  0  0  0  0  0  0  0  0  0  0  # atno 17321 bound_to 7965
  139.6297  144.7642  151.2563 LP  0  0  0  0  0  0  0  0  0  0  0  0  # atno 17342 bound_to 10162
  140.7432  143.6502  150.8255 LP  0  0  0  0  0  0  0  0  0  0  0  0  # atno 17343 bound_to 10162
  156.8459  130.5064  149.5316 LP  0  0  0  0  0  0  0  0  0  0  0  0  # atno 17370 bound_to 10713
  156.0945  130.5921  150.9789 LP  0  0  0  0  0  0  0  0  0  0  0  0  # atno 17371 bound_to 10713
  140.3382  134.2734  155.7216 LP  0  0  0  0  0  0  0  0  0  0  0  0  # atno 17394 bound_to 11000
  141.2071  133.7814  157.0137 LP  0  0  0  0  0  0  0  0  0  0  0  0  # atno 17395 bound_to 11000

$$$$
