AV-unprocessed.smi:883|AV-procd|sdf|4040|dock6
  -GOLD-   22720 1533D 1   1.00000     0.00000
 Structure written by MMmdl.
 29 31  0  0  0  0  0  0  0  0  1 V2000
  151.9538  137.5080  154.0119 N   0  0  0  0  0  0  0  0  0  0  0  0
  151.5733  138.4354  154.5896 C   0  0  0  0  0  0  0  0  0  0  0  0
  151.0960  139.6001  155.3150 C   0  0  0  0  0  0  0  0  0  0  0  0
  150.0242  140.3695  154.8212 C   0  0  0  0  0  0  0  0  0  0  0  0
  149.6005  141.4931  155.5579 C   0  0  0  0  0  0  0  0  0  0  0  0
  150.2634  141.8072  156.7632 C   0  0  0  0  0  0  0  0  0  0  0  0
  149.8364  142.9279  157.4896 N   0  0  0  0  0  0  0  0  0  0  0  0
  150.2002  143.1077  158.8919 C   0  0  2  0  0  0  0  0  0  0  0  0
  149.9117  144.5186  159.4102 C   0  0  0  0  0  0  0  0  0  0  0  0
  151.2713  144.9229  159.9976 C   0  0  2  0  0  0  0  0  0  0  0  0
  152.2818  145.2644  158.8951 C   0  0  0  0  0  0  0  0  0  0  0  0
  152.5966  143.8829  158.3248 C   0  0  0  0  0  0  0  0  0  0  0  0
  151.7076  142.9712  159.1879 C   0  0  1  0  0  0  0  0  0  0  0  0
  151.7693  143.6652  160.4225 O   0  0  0  0  0  0  0  0  0  0  0  0
  151.2904  141.0646  157.2413 N   0  0  0  0  0  0  0  0  0  0  0  0
  151.6940  139.9895  156.5305 C   0  0  0  0  0  0  0  0  0  0  0  0
  149.5328  140.1096  153.8944 H   0  0  0  0  0  0  0  0  0  0  0  0
  148.7825  142.1009  155.1996 H   0  0  0  0  0  0  0  0  0  0  0  0
  149.4253  143.7075  156.9971 H   0  0  0  0  0  0  0  0  0  0  0  0
  149.6439  142.3949  159.5026 H   0  0  0  0  0  0  0  0  0  0  0  0
  149.5796  145.2134  158.6373 H   0  0  0  0  0  0  0  0  0  0  0  0
  149.1459  144.4861  160.1859 H   0  0  0  0  0  0  0  0  0  0  0  0
  151.2077  145.6730  160.7863 H   0  0  0  0  0  0  0  0  0  0  0  0
  151.8713  145.9478  158.1514 H   0  0  0  0  0  0  0  0  0  0  0  0
  153.1800  145.7169  159.3170 H   0  0  0  0  0  0  0  0  0  0  0  0
  152.3853  143.8029  157.2584 H   0  0  0  0  0  0  0  0  0  0  0  0
  153.6498  143.6433  158.4758 H   0  0  0  0  0  0  0  0  0  0  0  0
  152.0577  141.9401  159.2425 H   0  0  0  0  0  0  0  0  0  0  0  0
  152.5183  139.4290  156.9476 H   0  0  0  0  0  0  0  0  0  0  0  0
  1  2  3  0  0  0  0
  2  3  1  0  0  0  0
  3 16  1  0  0  0  0
  3  4  2  0  0  0  0
  4  5  1  0  0  0  0
  4 17  1  0  0  0  0
  5  6  2  0  0  0  0
  5 18  1  0  0  0  0
  6  7  1  0  0  0  0
  6 15  1  0  0  0  0
  7  8  1  0  0  0  0
  7 19  1  0  0  0  0
  8 13  1  0  0  0  0
  8  9  1  0  0  0  0
  8 20  1  0  0  0  0
  9 10  1  0  0  0  0
  9 21  1  0  0  0  0
  9 22  1  0  0  0  0
 10 14  1  0  0  0  0
 10 11  1  0  0  0  0
 10 23  1  0  0  0  0
 11 12  1  0  0  0  0
 11 24  1  0  0  0  0
 11 25  1  0  0  0  0
 12 13  1  0  0  0  0
 12 26  1  0  0  0  0
 12 27  1  0  0  0  0
 13 14  1  0  0  0  0
 13 28  1  0  0  0  0
 15 16  2  0  0  0  0
 16 29  1  0  0  0  0
M  END
> <s_m_source_file>
AV-unprocessed.smi

> <i_m_source_file_index>
883

> <i_lp_mmshare_version>
43012

> <i_f3d_flags>
0

> <s_epik_input>
TiNDYzFbY0hdW2NIXWMobltjSF0xKVtOSF1bQ0BIXShbQ0gyXVtDQEBIXTIzKVtDQEBIXShPMylbQ0gyXVtDSDJdMg==

> <s_epik_cmdline>
J2VwaWtfcHl0aG9uJywgJy1waCcsICc3LjAnLCAnLXRuJywgJzgnLCAnLW1hJywgJzIwMCcsICctbWV0YWxfYmluZGluZycsICctaW1hZScsICc8aW5maWxlLm1hZT4nLCAnLW9tYWUnLCAnPG91dGZpbGUubWFlPic=

> <r_lp_tautomer_probability>
1

> <r_epik_Ionization_Penalty>
1.50983e-05

> <r_epik_Ionization_Penalty_Charging>
0

> <r_epik_Ionization_Penalty_Neutral>
1.50983e-05

> <r_epik_State_Penalty>
-0

> <r_epik_Charging_Adjusted_Penalty>
0

> <i_epik_Tot_Q>
0

> <i_epik_Tot_abs_Q>
0

> <r_epik_Metal_State_Penalty>
-0

> <b_epik_Metal_Only>
0

> <s_lp_Force_Field>
OPLS_2005

> <r_lp_Energy>
39.3985

> <b_lp_Chiralities_Consistent>
1

> <s_lp_Variant>
AV-unprocessed.smi:883-3

> <Gold.Version>
5.8.1

> <Gold.Id.Protein>
6NUR|6NUR_protein|mol2

> <Gold.PLP.Fitness>
41.9452

> <Gold.PLP.PLP>
-36.7396

> <Gold.PLP.part.hbond>
-2.0000

> <Gold.PLP.part.metal>
0.0000

> <Gold.PLP.part.buried>
-5.2729

> <Gold.PLP.part.nonpolar>
-31.3027

> <Gold.PLP.part.repulsive>
0.2821

> <Gold.PLP.ligand.clash>
0.0000

> <Gold.PLP.ligand.torsion>
0.1738

> <Gold.PLP.Chemscore.Hbond>
1.8480

> <Gold.PLP.Chemscore.CHOScore>
0.0000

> <Gold.PLP.Chemscore.Metal>
0.0000

> <Gold.Chemscore.Hbonds>
donor molecule, donor type, donor heavy atom, donor atom, acceptor molecule, acceptor atom, score
      L1  H     7    19       P1  8028  1.00
      P1  H 10752 10764       L1     1  0.83

> <Gold.PLP.Chemscore.Internal.Correction>
0.0091

> <Gold.Rescore>
     Score         DG    S(hbond)    S(metal)    S(lipo)     H(rot)  DE(clash)    DE(int)     intcor
     18.55     -20.03       1.95        0.00      90.61       1.00       0.14       1.33       ----

> <Gold.Chemscore.Fitness>
18.5541

> <Gold.Chemscore.DG>
-20.0281

> <Gold.Chemscore.ZeroCoef>
-5.4800

> <Gold.Chemscore.Hbond>
1.9481

> <Gold.Chemscore.Metal>
0.0000

> <Gold.Chemscore.Lipo>
90.6108

> <Gold.Chemscore.Internal_Hbond>
0.0000

> <Gold.Chemscore.DEClash>
0.1431

> <Gold.Chemscore.DEInternal>
1.3308

> <Gold.Chemscore.Rot>
1.0000

> <Gold.Chemscore.Internal.Correction>
   9.000000E+99

> <Gold.Chemscore.Hbonds>
donor molecule, donor type, donor heavy atom, donor atom, acceptor molecule, acceptor atom, score
      L1  H     7    19       P1  8028  0.82
      P1  H 10752 10764       L1     1  0.77

> <Gold.Chemscore.Hbond.Weighted>
-6.5066

> <Gold.Chemscore.Metal.Weighted>
-0.0000

> <Gold.Chemscore.Lipo.Weighted>
-10.6015

> <Gold.Chemscore.Internal_Hbond.Weighted>
0.0000

> <Gold.Chemscore.DEClash.Weighted>
0.1431

> <Gold.Chemscore.DEInternal.Weighted>
1.3308

> <Gold.Chemscore.Rot.Weighted>
2.5600

> <Gold.Chemscore.Internal.Correction.Weighted>
   9.000000E+99

> <Gold.Protein.RotatedTorsions>
[ 6907 6896 6895 6894 ] final   83.14 input  -60.11 | X-H torsion
[ 7974 7965 7964 7962 ] final -166.95 input  175.53 | X-H torsion
[ 8008 7997 7996 7995 ] final   76.79 input   59.86 | X-H torsion
[ 10167 10162 10161 10158 ] final  -17.27 input  -65.29 | X-H torsion
[ 10718 10713 10712 10709 ] final  -19.65 input   66.30 | X-H torsion
[ 10763 10752 10751 10750 ] final  -86.39 input  -60.55 | X-H torsion
[ 11005 11000 10999 10996 ] final  -80.18 input  -57.11 | X-H torsion

> <Gold.Protein.ActiveResidues>
 VAL166  LYS551  ARG553  GLY616  TRP617  ASP618  TYR619  PRO620  LYS621  CYS622 
 ASP623  PHE694  ASN695  SER759  ASP760  ASP761  ALA762  ILE779  LEU786  VAL792 
 PHE793  MET794  SER795  GLU796  ALA797  LYS798  CYS799  TRP800  GLU811  SER814 

> <Gold.Protein.RotatedAtoms>
  152.5319  134.2941  159.9053 H   0  0  0  0  0  0  0  0  0  0  0  0  # atno 6907 bound_to 6896
  151.2893  133.4166  159.2639 H   0  0  0  0  0  0  0  0  0  0  0  0  # atno 6908 bound_to 6896
  151.0215  134.9488  159.8119 H   0  0  0  0  0  0  0  0  0  0  0  0  # atno 6909 bound_to 6896
  144.7234  140.2590  143.6267 H   0  0  0  0  0  0  0  0  0  0  0  0  # atno 7974 bound_to 7965
  155.8324  140.3465  155.5580 H   0  0  0  0  0  0  0  0  0  0  0  0  # atno 8008 bound_to 7997
  155.8228  140.0915  157.1859 H   0  0  0  0  0  0  0  0  0  0  0  0  # atno 8009 bound_to 7997
  154.4004  140.1427  156.3507 H   0  0  0  0  0  0  0  0  0  0  0  0  # atno 8010 bound_to 7997
  140.7245  143.5032  150.9843 H   0  0  0  0  0  0  0  0  0  0  0  0  # atno 10167 bound_to 10162
  156.5428  130.4682  149.6490 H   0  0  0  0  0  0  0  0  0  0  0  0  # atno 10718 bound_to 10713
  154.6219  135.5451  153.7584 H   0  0  0  0  0  0  0  0  0  0  0  0  # atno 10763 bound_to 10752
  153.0242  135.6415  154.1428 H   0  0  0  0  0  0  0  0  0  0  0  0  # atno 10764 bound_to 10752
  154.1362  135.2911  155.3152 H   0  0  0  0  0  0  0  0  0  0  0  0  # atno 10765 bound_to 10752
  141.1668  133.7138  156.8234 H   0  0  0  0  0  0  0  0  0  0  0  0  # atno 11005 bound_to 11000
  145.8154  139.2021  143.1969 LP  0  0  0  0  0  0  0  0  0  0  0  0  # atno 17320 bound_to 7965
  146.0560  140.8020  142.9758 LP  0  0  0  0  0  0  0  0  0  0  0  0  # atno 17321 bound_to 7965
  139.8742  143.7153  152.3163 LP  0  0  0  0  0  0  0  0  0  0  0  0  # atno 17342 bound_to 10162
  139.7413  144.7558  151.0648 LP  0  0  0  0  0  0  0  0  0  0  0  0  # atno 17343 bound_to 10162
  156.2956  130.7148  151.2008 LP  0  0  0  0  0  0  0  0  0  0  0  0  # atno 17370 bound_to 10713
  157.7402  131.0520  150.5181 LP  0  0  0  0  0  0  0  0  0  0  0  0  # atno 17371 bound_to 10713
  140.2103  134.8832  157.3267 LP  0  0  0  0  0  0  0  0  0  0  0  0  # atno 17394 bound_to 11000
  140.2094  134.4157  155.7621 LP  0  0  0  0  0  0  0  0  0  0  0  0  # atno 17395 bound_to 11000

$$$$
