AV-unprocessed.smi:198|AV-procd|sdf|1553|dock9
  -GOLD-   2262019423D 1   1.00000     0.00000
 Structure written by MMmdl.
 59 63  0  0  0  0  0  0  0  0  2 V2000
  147.4291  141.8802  156.1511 C   0  0  0  0  0  0  0  0  0  0  0  0
  148.8621  142.1884  155.9355 N   0  3  2  0  0  0  0  0  0  0  0  0
  149.3817  141.7307  154.6222 C   0  0  0  0  0  0  0  0  0  0  0  0
  149.5859  140.2068  154.5853 C   0  0  0  0  0  0  0  0  0  0  0  0
  150.5025  139.7412  155.7392 C   0  0  1  0  0  0  0  0  0  0  0  0
  149.9714  140.2496  157.1005 C   0  0  1  0  0  0  0  0  0  0  0  0
  150.9550  139.8618  158.2215 C   0  0  0  0  0  0  0  0  0  0  0  0
  151.2148  138.3474  158.2261 C   0  0  0  0  0  0  0  0  0  0  0  0
  151.6584  137.8492  156.8353 C   0  0  0  0  0  0  0  0  0  0  0  0
  150.7555  138.2936  155.7722 N   0  0  0  0  0  0  0  0  0  0  0  0
  149.7245  137.4620  155.4864 C   0  0  0  0  0  0  0  0  0  0  0  0
  148.4428  137.9004  155.5838 N   0  0  0  0  0  0  0  0  0  0  0  0
  147.4309  137.0852  155.2721 C   0  0  0  0  0  0  0  0  0  0  0  0
  147.4784  135.8212  154.8458 N   0  0  0  0  0  0  0  0  0  0  0  0
  148.7649  135.3774  154.7500 C   0  0  0  0  0  0  0  0  0  0  0  0
  149.9361  136.1276  155.0483 C   0  0  0  0  0  0  0  0  0  0  0  0
  151.0679  135.3566  154.8207 N   0  0  0  0  0  0  0  0  0  0  0  0
  150.5926  134.2141  154.4051 C   0  0  0  0  0  0  0  0  0  0  0  0
  149.2178  134.1334  154.3453 N   0  0  0  0  0  0  0  0  0  0  0  0
  148.4270  133.0198  153.9024 C   0  0  0  0  0  0  0  0  0  0  0  0
  148.2746  132.6585  152.4225 C   0  0  0  0  0  0  0  0  0  0  0  0
  146.8399  132.1542  152.7070 C   0  0  0  0  0  0  0  0  0  0  0  0
  145.7650  132.5380  151.6749 C   0  0  0  0  0  0  0  0  0  0  0  0
  146.2488  132.4547  150.3499 O   0  0  0  0  0  0  0  0  0  0  0  0
  146.6930  130.6593  153.0613 C   0  0  0  0  0  0  0  0  0  0  0  0
  146.8152  129.8291  151.9249 O   0  0  0  0  0  0  0  0  0  0  0  0
  146.9006  133.0861  153.9394 C   0  0  0  0  0  0  0  0  0  0  0  0
  149.7387  141.7758  157.0613 C   0  0  0  0  0  0  0  0  0  0  0  0
  147.2448  140.8075  156.2079 H   0  0  0  0  0  0  0  0  0  0  0  0
  146.8253  142.2838  155.3381 H   0  0  0  0  0  0  0  0  0  0  0  0
  147.0777  142.3328  157.0790 H   0  0  0  0  0  0  0  0  0  0  0  0
  148.7086  142.0456  153.8238 H   0  0  0  0  0  0  0  0  0  0  0  0
  150.3337  142.2292  154.4353 H   0  0  0  0  0  0  0  0  0  0  0  0
  148.6133  139.7167  154.6367 H   0  0  0  0  0  0  0  0  0  0  0  0
  150.0230  139.9250  153.6270 H   0  0  0  0  0  0  0  0  0  0  0  0
  151.4759  140.2052  155.5715 H   0  0  0  0  0  0  0  0  0  0  0  0
  149.0179  139.7640  157.3108 H   0  0  0  0  0  0  0  0  0  0  0  0
  151.8999  140.3890  158.0825 H   0  0  0  0  0  0  0  0  0  0  0  0
  150.5654  140.1725  159.1916 H   0  0  0  0  0  0  0  0  0  0  0  0
  151.9783  138.1037  158.9651 H   0  0  0  0  0  0  0  0  0  0  0  0
  150.3126  137.8261  158.5450 H   0  0  0  0  0  0  0  0  0  0  0  0
  152.6556  138.2305  156.6119 H   0  0  0  0  0  0  0  0  0  0  0  0
  151.7388  136.7611  156.8334 H   0  0  0  0  0  0  0  0  0  0  0  0
  146.4417  137.5059  155.3782 H   0  0  0  0  0  0  0  0  0  0  0  0
  151.2433  133.3985  154.1267 H   0  0  0  0  0  0  0  0  0  0  0  0
  148.7849  132.1495  154.4550 H   0  0  0  0  0  0  0  0  0  0  0  0
  148.2851  133.5233  151.7581 H   0  0  0  0  0  0  0  0  0  0  0  0
  148.9717  131.8961  152.0739 H   0  0  0  0  0  0  0  0  0  0  0  0
  144.8814  131.9059  151.7691 H   0  0  0  0  0  0  0  0  0  0  0  0
  145.4260  133.5622  151.8332 H   0  0  0  0  0  0  0  0  0  0  0  0
  146.8270  131.7097  150.2877 H   0  0  0  0  0  0  0  0  0  0  0  0
  147.4528  130.3460  153.7777 H   0  0  0  0  0  0  0  0  0  0  0  0
  145.7319  130.4614  153.5374 H   0  0  0  0  0  0  0  0  0  0  0  0
  147.4111  130.2418  151.3176 H   0  0  0  0  0  0  0  0  0  0  0  0
  146.4552  132.6792  154.8477 H   0  0  0  0  0  0  0  0  0  0  0  0
  146.5258  134.0920  153.7402 H   0  0  0  0  0  0  0  0  0  0  0  0
  150.6947  142.2896  156.9503 H   0  0  0  0  0  0  0  0  0  0  0  0
  149.3139  142.1229  158.0041 H   0  0  0  0  0  0  0  0  0  0  0  0
  148.9076  143.1973  155.9097 H   0  0  0  0  0  0  0  0  0  0  0  0
  1  2  1  0  0  0  0
  1 29  1  0  0  0  0
  1 30  1  0  0  0  0
  1 31  1  0  0  0  0
  2 28  1  0  0  0  0
  2  3  1  0  0  0  0
  2 59  1  0  0  0  0
  3  4  1  0  0  0  0
  3 32  1  0  0  0  0
  3 33  1  0  0  0  0
  4  5  1  0  0  0  0
  4 34  1  0  0  0  0
  4 35  1  0  0  0  0
  5 10  1  0  0  0  0
  5  6  1  0  0  0  0
  5 36  1  0  0  0  0
  6  7  1  0  0  0  0
  6 28  1  0  0  0  0
  6 37  1  0  0  0  0
  7  8  1  0  0  0  0
  7 38  1  0  0  0  0
  7 39  1  0  0  0  0
  8  9  1  0  0  0  0
  8 40  1  0  0  0  0
  8 41  1  0  0  0  0
  9 10  1  0  0  0  0
  9 42  1  0  0  0  0
  9 43  1  0  0  0  0
 10 11  1  0  0  0  0
 11 16  1  0  0  0  0
 11 12  2  0  0  0  0
 12 13  1  0  0  0  0
 13 14  2  0  0  0  0
 13 44  1  0  0  0  0
 14 15  1  0  0  0  0
 15 19  1  0  0  0  0
 15 16  2  0  0  0  0
 16 17  1  0  0  0  0
 17 18  2  0  0  0  0
 18 19  1  0  0  0  0
 18 45  1  0  0  0  0
 19 20  1  0  0  0  0
 20 27  1  0  0  0  0
 20 21  1  0  0  0  0
 20 46  1  0  0  0  0
 21 22  1  0  0  0  0
 21 47  1  0  0  0  0
 21 48  1  0  0  0  0
 22 23  1  0  0  0  0
 22 25  1  0  0  0  0
 22 27  1  0  0  0  0
 23 24  1  0  0  0  0
 23 49  1  0  0  0  0
 23 50  1  0  0  0  0
 24 51  1  0  0  0  0
 25 26  1  0  0  0  0
 25 52  1  0  0  0  0
 25 53  1  0  0  0  0
 26 54  1  0  0  0  0
 27 55  1  0  0  0  0
 27 56  1  0  0  0  0
 28 57  1  0  0  0  0
 28 58  1  0  0  0  0
M  CHG  1   2   1
M  END
> <s_m_source_file>
AV-unprocessed.smi

> <i_m_source_file_index>
198

> <i_lp_mmshare_version>
43012

> <i_f3d_flags>
0

> <s_epik_input>
W0NIMl0xW0NIMl1OKFtDSDNdKVtDSDJdW0NAQEhdKFtDQEhdMTIpW0NIMl1bQ0gyXVtDSDJdTjJjKG5bY0hdbjMpYyhjMzQpbltjSF1uNFtDSF0oW0NIMl01KVtDSDJdQzUoW0NIMl1bT0hdKVtDSDJdW09IXQ==

> <s_epik_cmdline>
J2VwaWtfcHl0aG9uJywgJy1waCcsICc3LjAnLCAnLXRuJywgJzgnLCAnLW1hJywgJzIwMCcsICctbWV0YWxfYmluZGluZycsICctaW1hZScsICc8aW5maWxlLm1hZT4nLCAnLW9tYWUnLCAnPG91dGZpbGUubWFlPic=

> <r_lp_tautomer_probability>
1

> <r_epik_Ionization_Penalty>
0.00239938

> <r_epik_Ionization_Penalty_Charging>
0.00138697

> <r_epik_Ionization_Penalty_Neutral>
0.00101241

> <r_epik_State_Penalty>
-0

> <r_epik_Charging_Adjusted_Penalty>
0.00138697

> <i_epik_Tot_Q>
1

> <i_epik_Tot_abs_Q>
1

> <r_epik_Metal_State_Penalty>
-0

> <b_epik_Metal_Only>
0

> <s_lp_Force_Field>
OPLS_2005

> <r_lp_Energy>
59.1545

> <b_lp_Chiralities_Consistent>
1

> <s_lp_Variant>
AV-unprocessed.smi:198-2

> <Gold.Version>
5.8.1

> <Gold.Id.Protein>
6NUR|6NUR_protein|mol2

> <Gold.PLP.Fitness>
45.0286

> <Gold.PLP.PLP>
-31.6786

> <Gold.PLP.part.hbond>
-4.0000

> <Gold.PLP.part.metal>
0.0000

> <Gold.PLP.part.buried>
-1.7547

> <Gold.PLP.part.nonpolar>
-24.4701

> <Gold.PLP.part.repulsive>
0.3192

> <Gold.PLP.ligand.clash>
0.0000

> <Gold.PLP.ligand.torsion>
1.2415

> <Gold.PLP.Chemscore.Hbond>
4.9750

> <Gold.PLP.Chemscore.CHOScore>
0.0000

> <Gold.PLP.Chemscore.Metal>
0.0000

> <Gold.Chemscore.Hbonds>
donor molecule, donor type, donor heavy atom, donor atom, acceptor molecule, acceptor atom, score
      L1  H     2    59       P1  8028  2.00
      L1  H    24    51       P1 10747  0.31
      L1  H    26    54       P1 10747  1.00
      P1  H 10752 10764       L1    17  0.99

> <Gold.PLP.Chemscore.Internal.Correction>
0.9078

> <Gold.Rescore>
     Score         DG    S(hbond)    S(metal)    S(lipo)     H(rot)  DE(clash)    DE(int)     intcor
     12.94     -19.03       3.61        0.00      80.24       3.08       2.02       4.08       ----

> <Gold.Chemscore.Fitness>
12.9355

> <Gold.Chemscore.DG>
-19.0339

> <Gold.Chemscore.ZeroCoef>
-5.4800

> <Gold.Chemscore.Hbond>
3.6067

> <Gold.Chemscore.Metal>
0.0000

> <Gold.Chemscore.Lipo>
80.2354

> <Gold.Chemscore.Internal_Hbond>
0.0000

> <Gold.Chemscore.DEClash>
2.0164

> <Gold.Chemscore.DEInternal>
4.0820

> <Gold.Chemscore.Rot>
3.0781

> <Gold.Chemscore.Internal.Correction>
   9.000000E+99

> <Gold.Chemscore.Hbonds>
donor molecule, donor type, donor heavy atom, donor atom, acceptor molecule, acceptor atom, score
      L1  H     2    59       P1  8028  0.94
      L1  H    24    51       P1 10747  0.29
      L1  H    26    54       P1 10747  0.98
      P1  H 10752 10764       L1    17  0.86

> <Gold.Chemscore.Hbond.Weighted>
-12.0464

> <Gold.Chemscore.Metal.Weighted>
-0.0000

> <Gold.Chemscore.Lipo.Weighted>
-9.3875

> <Gold.Chemscore.Internal_Hbond.Weighted>
0.0000

> <Gold.Chemscore.DEClash.Weighted>
2.0164

> <Gold.Chemscore.DEInternal.Weighted>
4.0820

> <Gold.Chemscore.Rot.Weighted>
7.8800

> <Gold.Chemscore.Internal.Correction.Weighted>
   9.000000E+99

> <Gold.Protein.RotatedTorsions>
[ 6907 6896 6895 6894 ] final  -96.69 input  -60.11 | X-H torsion
[ 7974 7965 7964 7962 ] final   51.31 input  175.53 | X-H torsion
[ 8008 7997 7996 7995 ] final  -66.72 input   59.86 | X-H torsion
[ 10167 10162 10161 10158 ] final  155.84 input  -65.29 | X-H torsion
[ 10718 10713 10712 10709 ] final   50.58 input   66.30 | X-H torsion
[ 10763 10752 10751 10750 ] final  -55.58 input  -60.55 | X-H torsion
[ 11005 11000 10999 10996 ] final   61.20 input  -57.11 | X-H torsion

> <Gold.Protein.ActiveResidues>
 VAL166  LYS551  ARG553  GLY616  TRP617  ASP618  TYR619  PRO620  LYS621  CYS622 
 ASP623  PHE694  ASN695  SER759  ASP760  ASP761  ALA762  ILE779  LEU786  VAL792 
 PHE793  MET794  SER795  GLU796  ALA797  LYS798  CYS799  TRP800  GLU811  SER814 

> <Gold.Protein.RotatedAtoms>
  150.6995  134.1464  159.4123 H   0  0  0  0  0  0  0  0  0  0  0  0  # atno 6907 bound_to 6896
  151.9448  135.0194  160.0547 H   0  0  0  0  0  0  0  0  0  0  0  0  # atno 6908 bound_to 6896
  152.2062  133.4842  159.5122 H   0  0  0  0  0  0  0  0  0  0  0  0  # atno 6909 bound_to 6896
  145.9926  139.4355  143.0064 H   0  0  0  0  0  0  0  0  0  0  0  0  # atno 7974 bound_to 7965
  154.4753  140.0907  156.7245 H   0  0  0  0  0  0  0  0  0  0  0  0  # atno 8008 bound_to 7997
  155.4614  140.3461  155.4295 H   0  0  0  0  0  0  0  0  0  0  0  0  # atno 8009 bound_to 7997
  156.1105  140.1446  156.9333 H   0  0  0  0  0  0  0  0  0  0  0  0  # atno 8010 bound_to 7997
  139.4821  144.5062  151.8094 H   0  0  0  0  0  0  0  0  0  0  0  0  # atno 10167 bound_to 10162
  157.4899  130.8369  149.8190 H   0  0  0  0  0  0  0  0  0  0  0  0  # atno 10718 bound_to 10713
  154.1930  135.6424  153.5065 H   0  0  0  0  0  0  0  0  0  0  0  0  # atno 10763 bound_to 10752
  153.0030  135.5433  154.6395 H   0  0  0  0  0  0  0  0  0  0  0  0  # atno 10764 bound_to 10752
  154.5788  135.2923  155.0726 H   0  0  0  0  0  0  0  0  0  0  0  0  # atno 10765 bound_to 10752
  140.0178  134.6199  155.9684 H   0  0  0  0  0  0  0  0  0  0  0  0  # atno 11005 bound_to 11000
  145.7607  140.9936  143.1201 LP  0  0  0  0  0  0  0  0  0  0  0  0  # atno 17320 bound_to 7965
  144.6893  139.9327  143.7472 LP  0  0  0  0  0  0  0  0  0  0  0  0  # atno 17321 bound_to 7965
  140.4560  144.1788  150.5901 LP  0  0  0  0  0  0  0  0  0  0  0  0  # atno 17342 bound_to 10162
  140.4535  143.2477  151.9316 LP  0  0  0  0  0  0  0  0  0  0  0  0  # atno 17343 bound_to 10162
  156.0167  130.3811  150.2088 LP  0  0  0  0  0  0  0  0  0  0  0  0  # atno 17370 bound_to 10713
  157.0276  130.9998  151.3321 LP  0  0  0  0  0  0  0  0  0  0  0  0  # atno 17371 bound_to 10713
  141.1754  133.6540  156.4809 LP  0  0  0  0  0  0  0  0  0  0  0  0  # atno 17394 bound_to 11000
  140.4440  134.6989  157.5006 LP  0  0  0  0  0  0  0  0  0  0  0  0  # atno 17395 bound_to 11000

$$$$
