AV-unprocessed.smi:3044|AV-procd|sdf|11607|dock5
  -GOLD-   2272016583D 1   1.00000     0.00000
 Structure written by MMmdl.
 41 42  0  0  0  0  0  0  0  0  1 V2000
  153.0513  143.1108  162.8077 C   0  0  0  0  0  0  0  0  0  0  0  0
  152.7889  143.3308  161.3277 C   0  0  0  0  0  0  0  0  0  0  0  0
  152.2245  144.5170  161.0080 N   0  0  0  0  0  0  0  0  0  0  0  0
  151.9654  144.7711  159.7086 C   0  0  0  0  0  0  0  0  0  0  0  0
  152.2470  143.8599  158.6737 C   0  0  0  0  0  0  0  0  0  0  0  0
  152.8351  142.6255  159.0078 C   0  0  0  0  0  0  0  0  0  0  0  0
  153.1292  142.3490  160.3650 C   0  0  0  0  0  0  0  0  0  0  0  0
  153.7040  141.1242  160.8033 N   0  0  0  0  0  0  0  0  0  0  0  0
  154.0157  140.0343  160.0774 C   0  0  0  0  0  0  0  0  0  0  0  0
  153.8183  139.9207  158.8683 O   0  0  0  0  0  0  0  0  0  0  0  0
  154.6612  138.8762  160.8403 C   0  0  0  0  0  0  0  0  0  0  0  0
  153.8320  137.7238  160.7451 O   0  0  0  0  0  0  0  0  0  0  0  0
  154.1308  136.7022  161.6865 C   0  0  2  0  0  0  0  0  0  0  0  0
  153.8961  137.2898  163.0880 C   0  0  0  0  0  0  0  0  0  0  0  0
  154.2734  136.2834  164.1852 C   0  0  0  0  0  0  0  0  0  0  0  0
  155.7286  135.8146  164.0296 C   0  0  0  0  0  0  0  0  0  0  0  0
  155.9857  135.2224  162.6303 C   0  0  2  0  0  0  0  0  0  0  0  0
  157.4430  134.7641  162.4757 C   0  0  0  0  0  0  0  0  0  0  0  0
  155.5924  136.2322  161.5338 C   0  0  0  0  0  0  0  0  0  0  0  0
  154.1152  142.9509  162.9841 H   0  0  0  0  0  0  0  0  0  0  0  0
  152.5078  142.2355  163.1640 H   0  0  0  0  0  0  0  0  0  0  0  0
  152.7364  143.9681  163.4039 H   0  0  0  0  0  0  0  0  0  0  0  0
  151.5144  145.7273  159.4876 H   0  0  0  0  0  0  0  0  0  0  0  0
  152.0126  144.1001  157.6472 H   0  0  0  0  0  0  0  0  0  0  0  0
  153.0356  141.9118  158.2237 H   0  0  0  0  0  0  0  0  0  0  0  0
  154.0035  141.1049  161.7676 H   0  0  0  0  0  0  0  0  0  0  0  0
  155.6428  138.6744  160.4094 H   0  0  0  0  0  0  0  0  0  0  0  0
  154.8056  139.1695  161.8804 H   0  0  0  0  0  0  0  0  0  0  0  0
  153.4523  135.8577  161.5504 H   0  0  0  0  0  0  0  0  0  0  0  0
  154.4873  138.1985  163.2100 H   0  0  0  0  0  0  0  0  0  0  0  0
  152.8517  137.5833  163.1980 H   0  0  0  0  0  0  0  0  0  0  0  0
  154.1317  136.7341  165.1678 H   0  0  0  0  0  0  0  0  0  0  0  0
  153.6041  135.4232  164.1399 H   0  0  0  0  0  0  0  0  0  0  0  0
  156.4010  136.6558  164.2038 H   0  0  0  0  0  0  0  0  0  0  0  0
  155.9572  135.0739  164.7965 H   0  0  0  0  0  0  0  0  0  0  0  0
  155.3514  134.3419  162.5175 H   0  0  0  0  0  0  0  0  0  0  0  0
  158.1346  135.6018  162.5719 H   0  0  0  0  0  0  0  0  0  0  0  0
  157.6094  134.3055  161.5004 H   0  0  0  0  0  0  0  0  0  0  0  0
  157.7058  134.0268  163.2347 H   0  0  0  0  0  0  0  0  0  0  0  0
  155.7429  135.7775  160.5548 H   0  0  0  0  0  0  0  0  0  0  0  0
  156.2568  137.0964  161.5761 H   0  0  0  0  0  0  0  0  0  0  0  0
  1  2  1  0  0  0  0
  1 20  1  0  0  0  0
  1 21  1  0  0  0  0
  1 22  1  0  0  0  0
  2  7  1  0  0  0  0
  2  3  2  0  0  0  0
  3  4  1  0  0  0  0
  4  5  2  0  0  0  0
  4 23  1  0  0  0  0
  5  6  1  0  0  0  0
  5 24  1  0  0  0  0
  6  7  2  0  0  0  0
  6 25  1  0  0  0  0
  7  8  1  0  0  0  0
  8  9  1  0  0  0  0
  8 26  1  0  0  0  0
  9 10  2  0  0  0  0
  9 11  1  0  0  0  0
 11 12  1  0  0  0  0
 11 27  1  0  0  0  0
 11 28  1  0  0  0  0
 12 13  1  0  0  0  0
 13 19  1  0  0  0  0
 13 14  1  0  0  0  0
 13 29  1  0  0  0  0
 14 15  1  0  0  0  0
 14 30  1  0  0  0  0
 14 31  1  0  0  0  0
 15 16  1  0  0  0  0
 15 32  1  0  0  0  0
 15 33  1  0  0  0  0
 16 17  1  0  0  0  0
 16 34  1  0  0  0  0
 16 35  1  0  0  0  0
 17 18  1  0  0  0  0
 17 19  1  0  0  0  0
 17 36  1  0  0  0  0
 18 37  1  0  0  0  0
 18 38  1  0  0  0  0
 18 39  1  0  0  0  0
 19 40  1  0  0  0  0
 19 41  1  0  0  0  0
M  END
> <s_m_source_file>
AV-unprocessed.smi

> <i_m_source_file_index>
3044

> <i_lp_mmshare_version>
43012

> <i_f3d_flags>
0

> <s_epik_input>
W0NIM11jMW5bY0hdW2NIXVtjSF1jMVtOSF1DKD1PKVtDSDJdT1tDQEBIXTJbQ0gyXVtDSDJdW0NIMl1bQ0BASF0oW0NIM10pW0NIMl0y

> <s_epik_cmdline>
J2VwaWtfcHl0aG9uJywgJy1waCcsICc3LjAnLCAnLXRuJywgJzgnLCAnLW1hJywgJzIwMCcsICctbWV0YWxfYmluZGluZycsICctaW1hZScsICc8aW5maWxlLm1hZT4nLCAnLW9tYWUnLCAnPG91dGZpbGUubWFlPic=

> <r_epik_Ionization_Penalty>
0.0077122

> <r_epik_Ionization_Penalty_Charging>
0

> <r_epik_Ionization_Penalty_Neutral>
0.0077122

> <r_epik_State_Penalty>
0.00577497

> <r_epik_Charging_Adjusted_Penalty>
0.00577497

> <i_epik_Tot_Q>
0

> <i_epik_Tot_abs_Q>
0

> <r_epik_Metal_State_Penalty>
-0

> <b_epik_Metal_Only>
0

> <s_lp_Force_Field>
OPLS_2005

> <r_lp_Energy>
17.0629

> <b_lp_Chiralities_Consistent>
1

> <s_lp_Variant>
AV-unprocessed.smi:3044-3

> <Gold.Version>
5.8.1

> <Gold.Id.Protein>
6NUR|6NUR_protein|mol2

> <Gold.PLP.Fitness>
45.5079

> <Gold.PLP.PLP>
-42.6256

> <Gold.PLP.part.hbond>
-1.0000

> <Gold.PLP.part.metal>
0.0000

> <Gold.PLP.part.buried>
-4.4368

> <Gold.PLP.part.nonpolar>
-36.5988

> <Gold.PLP.part.repulsive>
0.1996

> <Gold.PLP.ligand.clash>
0.0000

> <Gold.PLP.ligand.torsion>
0.0672

> <Gold.PLP.Chemscore.Hbond>
1.0000

> <Gold.PLP.Chemscore.CHOScore>
0.0000

> <Gold.PLP.Chemscore.Metal>
0.0000

> <Gold.Chemscore.Hbonds>
donor molecule, donor type, donor heavy atom, donor atom, acceptor molecule, acceptor atom, score
      P1  H  7997  8009       L1    10  1.00

> <Gold.PLP.Chemscore.Internal.Correction>
0.0167

> <Gold.Rescore>
     Score         DG    S(hbond)    S(metal)    S(lipo)     H(rot)  DE(clash)    DE(int)     intcor
     18.26     -19.86       0.98        0.00     123.51       1.31       0.18       1.42       ----

> <Gold.Chemscore.Fitness>
18.2629

> <Gold.Chemscore.DG>
-19.8621

> <Gold.Chemscore.ZeroCoef>
-5.4800

> <Gold.Chemscore.Hbond>
0.9807

> <Gold.Chemscore.Metal>
0.0000

> <Gold.Chemscore.Lipo>
123.5129

> <Gold.Chemscore.Internal_Hbond>
0.0000

> <Gold.Chemscore.DEClash>
0.1776

> <Gold.Chemscore.DEInternal>
1.4216

> <Gold.Chemscore.Rot>
1.3064

> <Gold.Chemscore.Internal.Correction>
   9.000000E+99

> <Gold.Chemscore.Hbonds>
donor molecule, donor type, donor heavy atom, donor atom, acceptor molecule, acceptor atom, score
      P1  H  7997  8009       L1    10  0.98

> <Gold.Chemscore.Hbond.Weighted>
-3.2754

> <Gold.Chemscore.Metal.Weighted>
-0.0000

> <Gold.Chemscore.Lipo.Weighted>
-14.4510

> <Gold.Chemscore.Internal_Hbond.Weighted>
0.0000

> <Gold.Chemscore.DEClash.Weighted>
0.1776

> <Gold.Chemscore.DEInternal.Weighted>
1.4216

> <Gold.Chemscore.Rot.Weighted>
3.3443

> <Gold.Chemscore.Internal.Correction.Weighted>
   9.000000E+99

> <Gold.Protein.RotatedTorsions>
[ 6907 6896 6895 6894 ] final   50.63 input  -60.11 | X-H torsion
[ 7974 7965 7964 7962 ] final  -93.71 input  175.53 | X-H torsion
[ 8008 7997 7996 7995 ] final  139.02 input   59.86 | X-H torsion
[ 10167 10162 10161 10158 ] final   57.38 input  -65.29 | X-H torsion
[ 10718 10713 10712 10709 ] final  -71.59 input   66.30 | X-H torsion
[ 10763 10752 10751 10750 ] final   56.83 input  -60.55 | X-H torsion
[ 11005 11000 10999 10996 ] final  132.86 input  -57.11 | X-H torsion

> <Gold.Protein.ActiveResidues>
 VAL166  LYS551  ARG553  GLY616  TRP617  ASP618  TYR619  PRO620  LYS621  CYS622 
 ASP623  PHE694  ASN695  SER759  ASP760  ASP761  ALA762  ILE779  LEU786  VAL792 
 PHE793  MET794  SER795  GLU796  ALA797  LYS798  CYS799  TRP800  GLU811  SER814 

> <Gold.Protein.RotatedAtoms>
  152.3040  134.7578  160.0351 H   0  0  0  0  0  0  0  0  0  0  0  0  # atno 6907 bound_to 6896
  151.8081  133.3373  159.3555 H   0  0  0  0  0  0  0  0  0  0  0  0  # atno 6908 bound_to 6896
  150.7287  134.5619  159.5891 H   0  0  0  0  0  0  0  0  0  0  0  0  # atno 6909 bound_to 6896
  145.3830  140.9519  143.2383 H   0  0  0  0  0  0  0  0  0  0  0  0  # atno 7974 bound_to 7965
  156.2993  140.2378  156.4170 H   0  0  0  0  0  0  0  0  0  0  0  0  # atno 8008 bound_to 7997
  154.8390  140.0429  157.1549 H   0  0  0  0  0  0  0  0  0  0  0  0  # atno 8009 bound_to 7997
  154.9124  140.2992  155.5263 H   0  0  0  0  0  0  0  0  0  0  0  0  # atno 8010 bound_to 7997
  140.1986  144.4011  150.6539 H   0  0  0  0  0  0  0  0  0  0  0  0  # atno 10167 bound_to 10162
  156.0356  130.4354  150.2466 H   0  0  0  0  0  0  0  0  0  0  0  0  # atno 10718 bound_to 10713
  152.9839  135.5663  154.5292 H   0  0  0  0  0  0  0  0  0  0  0  0  # atno 10763 bound_to 10752
  154.4767  135.2787  155.1604 H   0  0  0  0  0  0  0  0  0  0  0  0  # atno 10764 bound_to 10752
  154.3130  135.6284  153.5527 H   0  0  0  0  0  0  0  0  0  0  0  0  # atno 10765 bound_to 10752
  139.9816  134.9546  156.9642 H   0  0  0  0  0  0  0  0  0  0  0  0  # atno 11005 bound_to 11000
  144.8494  139.5345  143.6863 LP  0  0  0  0  0  0  0  0  0  0  0  0  # atno 17320 bound_to 7965
  146.2833  139.6936  142.9213 LP  0  0  0  0  0  0  0  0  0  0  0  0  # atno 17321 bound_to 7965
  140.6406  143.2203  151.6298 LP  0  0  0  0  0  0  0  0  0  0  0  0  # atno 17342 bound_to 10162
  139.5226  144.3157  152.0954 LP  0  0  0  0  0  0  0  0  0  0  0  0  # atno 17343 bound_to 10162
  157.0565  131.0078  151.3236 LP  0  0  0  0  0  0  0  0  0  0  0  0  # atno 17370 bound_to 10713
  157.5102  130.7933  149.7696 LP  0  0  0  0  0  0  0  0  0  0  0  0  # atno 17371 bound_to 10713
  140.5086  134.1025  155.7265 LP  0  0  0  0  0  0  0  0  0  0  0  0  # atno 17394 bound_to 11000
  141.1487  133.9008  157.2152 LP  0  0  0  0  0  0  0  0  0  0  0  0  # atno 17395 bound_to 11000

$$$$
