AV-unprocessed.smi:1178|AV-procd|sdf|4957|dock2
  -GOLD-   22720 3543D 1   1.00000     0.00000
 Structure written by MMmdl.
 32 33  0  0  0  0  0  0  0  0  2 V2000
  145.9996  137.9362  155.7574 O   0  0  0  0  0  0  0  0  0  0  0  0
  147.2117  138.1486  155.7700 C   0  0  0  0  0  0  0  0  0  0  0  0
  147.8663  138.8198  154.5497 C   0  0  0  0  0  0  0  0  0  0  0  0
  149.3259  139.0053  154.6489 N   0  0  0  0  0  0  0  0  0  0  0  0
  150.1366  137.8640  154.5163 C   0  0  0  0  0  0  0  0  0  0  0  0
  151.4795  137.9339  154.5870 C   0  0  0  0  0  0  0  0  0  0  0  0
  152.0920  139.2381  154.8072 C   0  0  0  0  0  0  0  0  0  0  0  0
  153.3167  139.3209  154.8740 O   0  0  0  0  0  0  0  0  0  0  0  0
  151.2632  140.3161  154.9283 N   0  5  0  0  0  0  0  0  0  0  0  0
  149.8989  140.2302  154.8534 C   0  0  0  0  0  0  0  0  0  0  0  0
  149.1700  141.2169  154.9563 O   0  0  0  0  0  0  0  0  0  0  0  0
  147.9927  137.8222  156.8121 N   0  0  0  0  0  0  0  0  0  0  0  0
  147.5250  137.1763  158.0283 C   0  0  0  0  0  0  0  0  0  0  0  0
  148.6559  136.3568  158.6701 C   0  0  0  0  0  0  0  0  0  0  0  0
  148.2207  135.7466  159.9328 N   0  0  0  0  0  0  0  0  0  0  0  0
  147.6790  136.4641  160.9440 C   0  0  0  0  0  0  0  0  0  0  0  0
  147.4846  137.6790  160.9195 O   0  0  0  0  0  0  0  0  0  0  0  0
  147.3127  135.6379  162.1827 C   0  0  0  0  0  0  0  0  0  0  0  0
  147.7903  133.9569  161.7740 S   0  0  0  0  0  0  0  0  0  0  0  0
  148.3593  134.4365  160.1978 C   0  0  0  0  0  0  0  0  0  0  0  0
  148.8472  133.6128  159.4244 O   0  0  0  0  0  0  0  0  0  0  0  0
  147.6202  138.2361  153.6611 H   0  0  0  0  0  0  0  0  0  0  0  0
  147.3791  139.7834  154.3948 H   0  0  0  0  0  0  0  0  0  0  0  0
  149.6043  136.9388  154.3507 H   0  0  0  0  0  0  0  0  0  0  0  0
  152.0879  137.0479  154.4814 H   0  0  0  0  0  0  0  0  0  0  0  0
  148.9807  138.0218  156.7449 H   0  0  0  0  0  0  0  0  0  0  0  0
  147.1656  137.9365  158.7235 H   0  0  0  0  0  0  0  0  0  0  0  0
  146.6799  136.5283  157.7901 H   0  0  0  0  0  0  0  0  0  0  0  0
  148.9935  135.5840  157.9770 H   0  0  0  0  0  0  0  0  0  0  0  0
  149.5275  136.9927  158.8362 H   0  0  0  0  0  0  0  0  0  0  0  0
  147.8603  135.9903  163.0571 H   0  0  0  0  0  0  0  0  0  0  0  0
  146.2427  135.6955  162.3836 H   0  0  0  0  0  0  0  0  0  0  0  0
  1  2  2  0  0  0  0
  2  3  1  0  0  0  0
  2 12  1  0  0  0  0
  3  4  1  0  0  0  0
  3 22  1  0  0  0  0
  3 23  1  0  0  0  0
  4 10  1  0  0  0  0
  4  5  1  0  0  0  0
  5  6  2  0  0  0  0
  5 24  1  0  0  0  0
  6  7  1  0  0  0  0
  6 25  1  0  0  0  0
  7  8  2  0  0  0  0
  7  9  1  0  0  0  0
  9 10  1  0  0  0  0
 10 11  2  0  0  0  0
 12 13  1  0  0  0  0
 12 26  1  0  0  0  0
 13 14  1  0  0  0  0
 13 27  1  0  0  0  0
 13 28  1  0  0  0  0
 14 15  1  0  0  0  0
 14 29  1  0  0  0  0
 14 30  1  0  0  0  0
 15 20  1  0  0  0  0
 15 16  1  0  0  0  0
 16 17  2  0  0  0  0
 16 18  1  0  0  0  0
 18 19  1  0  0  0  0
 18 31  1  0  0  0  0
 18 32  1  0  0  0  0
 19 20  1  0  0  0  0
 20 21  2  0  0  0  0
M  CHG  1   9  -1
M  END
> <s_m_source_file>
AV-unprocessed.smi

> <i_m_source_file_index>
1178

> <i_lp_mmshare_version>
43012

> <i_f3d_flags>
0

> <s_epik_input>
Tz1jMVtuSF1jKD1PKVtjSF1bY0hdbjFbQ0gyXUMoPU8pW05IXVtDSDJdW0NIMl1OMkMoPU8pW0NIMl1TQzI9Tw==

> <s_epik_cmdline>
J2VwaWtfcHl0aG9uJywgJy1waCcsICc3LjAnLCAnLXRuJywgJzgnLCAnLW1hJywgJzIwMCcsICctbWV0YWxfYmluZGluZycsICctaW1hZScsICc8aW5maWxlLm1hZT4nLCAnLW9tYWUnLCAnPG91dGZpbGUubWFlPic=

> <r_lp_tautomer_probability>
0.999537

> <r_epik_Ionization_Penalty>
3.05962

> <r_epik_Ionization_Penalty_Charging>
2.46074e-08

> <r_epik_Ionization_Penalty_Neutral>
3.05962

> <r_epik_State_Penalty>
3.05863

> <r_epik_Charging_Adjusted_Penalty>
3.05863

> <i_epik_Tot_Q>
-1

> <i_epik_Tot_abs_Q>
1

> <r_epik_Metal_State_Penalty>
0.458209

> <b_epik_Metal_Only>
1

> <s_lp_Force_Field>
OPLS_2005

> <r_lp_Energy>
17.4268

> <b_lp_Chiralities_Consistent>
1

> <s_lp_Variant>
AV-unprocessed.smi:1178-2

> <Gold.Version>
5.8.1

> <Gold.Id.Protein>
6NUR|6NUR_protein|mol2

> <Gold.PLP.Fitness>
45.0314

> <Gold.PLP.PLP>
-30.4781

> <Gold.PLP.part.hbond>
-4.8635

> <Gold.PLP.part.metal>
0.0000

> <Gold.PLP.part.buried>
-1.6947

> <Gold.PLP.part.nonpolar>
-23.3062

> <Gold.PLP.part.repulsive>
0.2023

> <Gold.PLP.ligand.clash>
0.0000

> <Gold.PLP.ligand.torsion>
0.3883

> <Gold.PLP.Chemscore.Hbond>
4.2869

> <Gold.PLP.Chemscore.CHOScore>
0.7848

> <Gold.PLP.Chemscore.Metal>
0.0000

> <Gold.Chemscore.Hbonds>
donor molecule, donor type, donor heavy atom, donor atom, acceptor molecule, acceptor atom, score
      P1  H  6896  6909       L1    21  0.78
      P1  H  6931  6943       L1    17  0.59
      P1  H  6934  6947       L1    17  0.59
      P1  H  7989  7998       L1     9  0.65
      P1  H  7997  8009       L1     8  1.00
      L1  C     5    24       P1  7948  0.56

> <Gold.PLP.Chemscore.Internal.Correction>
0.1150

> <Gold.Rescore>
     Score         DG    S(hbond)    S(metal)    S(lipo)     H(rot)  DE(clash)    DE(int)     intcor
     11.08     -11.45       2.73        0.00      36.83       2.91       0.01       0.36       ----

> <Gold.Chemscore.Fitness>
11.0831

> <Gold.Chemscore.DG>
-11.4515

> <Gold.Chemscore.ZeroCoef>
-5.4800

> <Gold.Chemscore.Hbond>
2.7275

> <Gold.Chemscore.Metal>
0.0000

> <Gold.Chemscore.Lipo>
36.8294

> <Gold.Chemscore.Internal_Hbond>
0.0000

> <Gold.Chemscore.DEClash>
0.0060

> <Gold.Chemscore.DEInternal>
0.3625

> <Gold.Chemscore.Rot>
2.9092

> <Gold.Chemscore.Internal.Correction>
   9.000000E+99

> <Gold.Chemscore.Hbonds>
donor molecule, donor type, donor heavy atom, donor atom, acceptor molecule, acceptor atom, score
      P1  H  6896  6909       L1    21  0.54
      P1  H  6931  6943       L1    17  0.15
      P1  H  6934  6947       L1    17  0.56
      P1  H  7989  7998       L1     9  0.02
      P1  H  7997  8009       L1     8  1.00

> <Gold.Chemscore.Hbond.Weighted>
-9.1099

> <Gold.Chemscore.Metal.Weighted>
-0.0000

> <Gold.Chemscore.Lipo.Weighted>
-4.3090

> <Gold.Chemscore.Internal_Hbond.Weighted>
0.0000

> <Gold.Chemscore.DEClash.Weighted>
0.0060

> <Gold.Chemscore.DEInternal.Weighted>
0.3625

> <Gold.Chemscore.Rot.Weighted>
7.4474

> <Gold.Chemscore.Internal.Correction.Weighted>
   9.000000E+99

> <Gold.Protein.RotatedTorsions>
[ 6907 6896 6895 6894 ] final    7.38 input  -60.11 | X-H torsion
[ 7974 7965 7964 7962 ] final  158.90 input  175.53 | X-H torsion
[ 8008 7997 7996 7995 ] final -129.86 input   59.86 | X-H torsion
[ 10167 10162 10161 10158 ] final  146.45 input  -65.29 | X-H torsion
[ 10718 10713 10712 10709 ] final   95.29 input   66.30 | X-H torsion
[ 10763 10752 10751 10750 ] final  176.76 input  -60.55 | X-H torsion
[ 11005 11000 10999 10996 ] final -112.83 input  -57.11 | X-H torsion

> <Gold.Protein.ActiveResidues>
 VAL166  LYS551  ARG553  GLY616  TRP617  ASP618  TYR619  PRO620  LYS621  CYS622 
 ASP623  PHE694  ASN695  SER759  ASP760  ASP761  ALA762  ILE779  LEU786  VAL792 
 PHE793  MET794  SER795  GLU796  ALA797  LYS798  CYS799  TRP800  GLU811  SER814 

> <Gold.Protein.RotatedAtoms>
  151.6889  135.0949  160.0229 H   0  0  0  0  0  0  0  0  0  0  0  0  # atno 6907 bound_to 6896
  152.3790  133.6516  159.6155 H   0  0  0  0  0  0  0  0  0  0  0  0  # atno 6908 bound_to 6896
  150.7732  133.9061  159.3397 H   0  0  0  0  0  0  0  0  0  0  0  0  # atno 6909 bound_to 6896
  144.7820  139.7542  143.6256 H   0  0  0  0  0  0  0  0  0  0  0  0  # atno 7974 bound_to 7965
  155.2862  140.0446  157.3019 H   0  0  0  0  0  0  0  0  0  0  0  0  # atno 8008 bound_to 7997
  154.5568  140.2334  155.8366 H   0  0  0  0  0  0  0  0  0  0  0  0  # atno 8009 bound_to 7997
  156.2014  140.3024  155.9541 H   0  0  0  0  0  0  0  0  0  0  0  0  # atno 8010 bound_to 7997
  139.4907  144.5828  151.6837 H   0  0  0  0  0  0  0  0  0  0  0  0  # atno 10167 bound_to 10162
  157.6940  131.0540  150.4316 H   0  0  0  0  0  0  0  0  0  0  0  0  # atno 10718 bound_to 10713
  154.4855  135.2776  155.1538 H   0  0  0  0  0  0  0  0  0  0  0  0  # atno 10763 bound_to 10752
  154.3230  135.6205  153.5520 H   0  0  0  0  0  0  0  0  0  0  0  0  # atno 10764 bound_to 10752
  152.9881  135.5747  154.5265 H   0  0  0  0  0  0  0  0  0  0  0  0  # atno 10765 bound_to 10752
  141.0651  133.9472  157.2593 H   0  0  0  0  0  0  0  0  0  0  0  0  # atno 11005 bound_to 11000
  146.2033  139.5341  142.9729 LP  0  0  0  0  0  0  0  0  0  0  0  0  # atno 17320 bound_to 7965
  145.6025  141.0353  143.2010 LP  0  0  0  0  0  0  0  0  0  0  0  0  # atno 17321 bound_to 7965
  140.5438  144.0536  150.6099 LP  0  0  0  0  0  0  0  0  0  0  0  0  # atno 17342 bound_to 10162
  140.3567  143.2931  152.0428 LP  0  0  0  0  0  0  0  0  0  0  0  0  # atno 17343 bound_to 10162
  156.4682  130.4047  149.6534 LP  0  0  0  0  0  0  0  0  0  0  0  0  # atno 17370 bound_to 10713
  156.3624  130.7488  151.2462 LP  0  0  0  0  0  0  0  0  0  0  0  0  # atno 17371 bound_to 10713
  139.9469  135.0182  156.8878 LP  0  0  0  0  0  0  0  0  0  0  0  0  # atno 17394 bound_to 11000
  140.5789  134.0371  155.7457 LP  0  0  0  0  0  0  0  0  0  0  0  0  # atno 17395 bound_to 11000

$$$$
