AV-unprocessed.smi:2154|AV-procd|sdf|8777|dock2
  -GOLD-   2272011553D 1   1.00000     0.00000
 Structure written by MMmdl.
 31 32  0  0  0  0  0  0  0  0  2 V2000
  153.5627  142.0033  159.8878 C   0  0  0  0  0  0  0  0  0  0  0  0
  152.8326  142.8802  158.8933 C   0  0  1  0  0  0  0  0  0  0  0  0
  151.6265  142.3568  158.1467 C   0  0  0  0  0  0  0  0  0  0  0  0
  151.4550  143.4211  159.2044 C   0  0  2  0  0  0  0  0  0  0  0  0
  151.0804  144.8394  158.8295 C   0  0  0  0  0  0  0  0  0  0  0  0
  149.6989  145.1801  159.1398 N   0  0  0  0  0  0  0  0  0  0  0  0
  149.0793  144.9745  160.3140 C   0  0  0  0  0  0  0  0  0  0  0  0
  149.6412  144.4743  161.2882 O   0  0  0  0  0  0  0  0  0  0  0  0
  147.6042  145.3954  160.4399 C   0  0  0  0  0  0  0  0  0  0  0  0
  146.6481  144.2822  160.5879 N   0  0  0  0  0  0  0  0  0  0  0  0
  145.7170  144.3617  161.6386 C   0  0  0  0  0  0  0  0  0  0  0  0
  144.8012  143.3977  161.8514 C   0  0  0  0  0  0  0  0  0  0  0  0
  144.7901  142.2469  160.9572 C   0  0  0  0  0  0  0  0  0  0  0  0
  143.9618  141.3565  161.1372 O   0  0  0  0  0  0  0  0  0  0  0  0
  145.7116  142.2167  159.9505 N   0  5  0  0  0  0  0  0  0  0  0  0
  146.6368  143.2047  159.7455 C   0  0  0  0  0  0  0  0  0  0  0  0
  147.4542  143.1617  158.8259 O   0  0  0  0  0  0  0  0  0  0  0  0
  152.8616  141.3798  160.4436 H   0  0  0  0  0  0  0  0  0  0  0  0
  154.1145  142.6215  160.5961 H   0  0  0  0  0  0  0  0  0  0  0  0
  154.2681  141.3546  159.3681 H   0  0  0  0  0  0  0  0  0  0  0  0
  153.4913  143.5348  158.3257 H   0  0  0  0  0  0  0  0  0  0  0  0
  151.5128  142.6528  157.1057 H   0  0  0  0  0  0  0  0  0  0  0  0
  151.2749  141.3551  158.3857 H   0  0  0  0  0  0  0  0  0  0  0  0
  151.0172  143.0917  160.1453 H   0  0  0  0  0  0  0  0  0  0  0  0
  151.7706  145.5106  159.3425 H   0  0  0  0  0  0  0  0  0  0  0  0
  151.2400  144.9868  157.7608 H   0  0  0  0  0  0  0  0  0  0  0  0
  149.1557  145.5928  158.3947 H   0  0  0  0  0  0  0  0  0  0  0  0
  147.5133  146.0850  161.2806 H   0  0  0  0  0  0  0  0  0  0  0  0
  147.3487  145.9897  159.5616 H   0  0  0  0  0  0  0  0  0  0  0  0
  145.7896  145.2486  162.2509 H   0  0  0  0  0  0  0  0  0  0  0  0
  144.0917  143.4752  162.6620 H   0  0  0  0  0  0  0  0  0  0  0  0
  1  2  1  0  0  0  0
  1 18  1  0  0  0  0
  1 19  1  0  0  0  0
  1 20  1  0  0  0  0
  2  4  1  0  0  0  0
  2  3  1  0  0  0  0
  2 21  1  0  0  0  0
  3  4  1  0  0  0  0
  3 22  1  0  0  0  0
  3 23  1  0  0  0  0
  4  5  1  0  0  0  0
  4 24  1  0  0  0  0
  5  6  1  0  0  0  0
  5 25  1  0  0  0  0
  5 26  1  0  0  0  0
  6  7  1  0  0  0  0
  6 27  1  0  0  0  0
  7  8  2  0  0  0  0
  7  9  1  0  0  0  0
  9 10  1  0  0  0  0
  9 28  1  0  0  0  0
  9 29  1  0  0  0  0
 10 16  1  0  0  0  0
 10 11  1  0  0  0  0
 11 12  2  0  0  0  0
 11 30  1  0  0  0  0
 12 13  1  0  0  0  0
 12 31  1  0  0  0  0
 13 14  2  0  0  0  0
 13 15  1  0  0  0  0
 15 16  1  0  0  0  0
 16 17  2  0  0  0  0
M  CHG  1  15  -1
M  END
> <s_m_source_file>
AV-unprocessed.smi

> <i_m_source_file_index>
2154

> <i_lp_mmshare_version>
43012

> <i_f3d_flags>
0

> <s_epik_input>
W0NIM11bQ0BASF0xW0NIMl1bQ0BIXTFbQ0gyXVtOSF1DKD1PKVtDSDJdbjJbY0hdW2NIXWMoPU8pW25IXWMyPU8=

> <s_epik_cmdline>
J2VwaWtfcHl0aG9uJywgJy1waCcsICc3LjAnLCAnLXRuJywgJzgnLCAnLW1hJywgJzIwMCcsICctbWV0YWxfYmluZGluZycsICctaW1hZScsICc8aW5maWxlLm1hZT4nLCAnLW9tYWUnLCAnPG91dGZpbGUubWFlPic=

> <r_lp_tautomer_probability>
0.999537

> <r_epik_Ionization_Penalty>
3.12283

> <r_epik_Ionization_Penalty_Charging>
2.83566e-08

> <r_epik_Ionization_Penalty_Neutral>
3.12283

> <r_epik_State_Penalty>
3.12192

> <r_epik_Charging_Adjusted_Penalty>
3.12192

> <i_epik_Tot_Q>
-1

> <i_epik_Tot_abs_Q>
1

> <r_epik_Metal_State_Penalty>
0.463748

> <b_epik_Metal_Only>
1

> <s_lp_Force_Field>
OPLS_2005

> <r_lp_Energy>
24.2191

> <b_lp_Chiralities_Consistent>
1

> <s_lp_Variant>
AV-unprocessed.smi:2154-8

> <Gold.Version>
5.8.1

> <Gold.Id.Protein>
6NUR|6NUR_protein|mol2

> <Gold.PLP.Fitness>
45.7938

> <Gold.PLP.PLP>
-37.2695

> <Gold.PLP.part.hbond>
-4.3499

> <Gold.PLP.part.metal>
0.0000

> <Gold.PLP.part.buried>
-6.7897

> <Gold.PLP.part.nonpolar>
-28.0376

> <Gold.PLP.part.repulsive>
1.8431

> <Gold.PLP.ligand.clash>
0.0000

> <Gold.PLP.ligand.torsion>
0.5314

> <Gold.PLP.Chemscore.Hbond>
3.0164

> <Gold.PLP.Chemscore.CHOScore>
0.0000

> <Gold.PLP.Chemscore.Metal>
0.0000

> <Gold.Chemscore.Hbonds>
donor molecule, donor type, donor heavy atom, donor atom, acceptor molecule, acceptor atom, score
      L1  H     6    27       P1  8029  1.00
      P1  H  6933  6944       L1     8  0.05
      P1  H  6934  6946       L1    15  1.71

> <Gold.PLP.Chemscore.Internal.Correction>
0.5381

> <Gold.Rescore>
     Score         DG    S(hbond)    S(metal)    S(lipo)     H(rot)  DE(clash)    DE(int)     intcor
      9.48     -13.01       1.24        0.00      71.97       1.96       0.15       3.38       ----

> <Gold.Chemscore.Fitness>
9.4788

> <Gold.Chemscore.DG>
-13.0060

> <Gold.Chemscore.ZeroCoef>
-5.4800

> <Gold.Chemscore.Hbond>
1.2351

> <Gold.Chemscore.Metal>
0.0000

> <Gold.Chemscore.Lipo>
71.9726

> <Gold.Chemscore.Internal_Hbond>
0.0000

> <Gold.Chemscore.DEClash>
0.1512

> <Gold.Chemscore.DEInternal>
3.3761

> <Gold.Chemscore.Rot>
1.9609

> <Gold.Chemscore.Internal.Correction>
   9.000000E+99

> <Gold.Chemscore.Hbonds>
donor molecule, donor type, donor heavy atom, donor atom, acceptor molecule, acceptor atom, score
      L1  H     6    27       P1  8029  0.96
      P1  H  6933  6944       L1     8  0.02
      P1  H  6934  6946       L1    15  0.04

> <Gold.Chemscore.Hbond.Weighted>
-4.1252

> <Gold.Chemscore.Metal.Weighted>
-0.0000

> <Gold.Chemscore.Lipo.Weighted>
-8.4208

> <Gold.Chemscore.Internal_Hbond.Weighted>
0.0000

> <Gold.Chemscore.DEClash.Weighted>
0.1512

> <Gold.Chemscore.DEInternal.Weighted>
3.3761

> <Gold.Chemscore.Rot.Weighted>
5.0200

> <Gold.Chemscore.Internal.Correction.Weighted>
   9.000000E+99

> <Gold.Protein.RotatedTorsions>
[ 6907 6896 6895 6894 ] final   48.06 input  -60.11 | X-H torsion
[ 7974 7965 7964 7962 ] final -104.59 input  175.53 | X-H torsion
[ 8008 7997 7996 7995 ] final  -20.16 input   59.86 | X-H torsion
[ 10167 10162 10161 10158 ] final  156.11 input  -65.29 | X-H torsion
[ 10718 10713 10712 10709 ] final -130.41 input   66.30 | X-H torsion
[ 10763 10752 10751 10750 ] final  -69.67 input  -60.55 | X-H torsion
[ 11005 11000 10999 10996 ] final   56.72 input  -57.11 | X-H torsion

> <Gold.Protein.ActiveResidues>
 VAL166  LYS551  ARG553  GLY616  TRP617  ASP618  TYR619  PRO620  LYS621  CYS622 
 ASP623  PHE694  ASN695  SER759  ASP760  ASP761  ALA762  ILE779  LEU786  VAL792 
 PHE793  MET794  SER795  GLU796  ALA797  LYS798  CYS799  TRP800  GLU811  SER814 

> <Gold.Protein.RotatedAtoms>
  152.2752  134.7889  160.0406 H   0  0  0  0  0  0  0  0  0  0  0  0  # atno 6907 bound_to 6896
  151.8488  133.3431  159.3674 H   0  0  0  0  0  0  0  0  0  0  0  0  # atno 6908 bound_to 6896
  150.7167  134.5248  159.5715 H   0  0  0  0  0  0  0  0  0  0  0  0  # atno 6909 bound_to 6896
  145.2412  140.9206  143.3148 H   0  0  0  0  0  0  0  0  0  0  0  0  # atno 7974 bound_to 7965
  154.4788  140.2069  155.9813 H   0  0  0  0  0  0  0  0  0  0  0  0  # atno 8008 bound_to 7997
  156.1132  140.3225  155.8072 H   0  0  0  0  0  0  0  0  0  0  0  0  # atno 8009 bound_to 7997
  155.4598  140.0523  157.2983 H   0  0  0  0  0  0  0  0  0  0  0  0  # atno 8010 bound_to 7997
  139.4821  144.5038  151.8128 H   0  0  0  0  0  0  0  0  0  0  0  0  # atno 10167 bound_to 10162
  156.2142  130.6938  151.0684 H   0  0  0  0  0  0  0  0  0  0  0  0  # atno 10718 bound_to 10713
  154.4067  135.6018  153.5928 H   0  0  0  0  0  0  0  0  0  0  0  0  # atno 10763 bound_to 10752
  152.9789  135.5919  154.4119 H   0  0  0  0  0  0  0  0  0  0  0  0  # atno 10764 bound_to 10752
  154.3926  135.2842  155.2124 H   0  0  0  0  0  0  0  0  0  0  0  0  # atno 10765 bound_to 10752
  140.0507  134.5741  155.9267 H   0  0  0  0  0  0  0  0  0  0  0  0  # atno 11005 bound_to 11000
  144.9587  139.4003  143.6366 LP  0  0  0  0  0  0  0  0  0  0  0  0  # atno 17320 bound_to 7965
  146.3328  139.8630  142.8853 LP  0  0  0  0  0  0  0  0  0  0  0  0  # atno 17321 bound_to 7965
  140.4534  144.1823  150.5899 LP  0  0  0  0  0  0  0  0  0  0  0  0  # atno 17342 bound_to 10162
  140.4561  143.2467  151.9283 LP  0  0  0  0  0  0  0  0  0  0  0  0  # atno 17343 bound_to 10162
  157.7054  131.0758  150.6683 LP  0  0  0  0  0  0  0  0  0  0  0  0  # atno 17370 bound_to 10713
  156.6743  130.4548  149.5647 LP  0  0  0  0  0  0  0  0  0  0  0  0  # atno 17371 bound_to 10713
  141.1929  133.6577  156.5523 LP  0  0  0  0  0  0  0  0  0  0  0  0  # atno 17394 bound_to 11000
  140.3921  134.7431  157.4728 LP  0  0  0  0  0  0  0  0  0  0  0  0  # atno 17395 bound_to 11000

$$$$
