AV-unprocessed.smi:1672|AV-procd|sdf|6703|dock5
  -GOLD-   22720 7443D 1   1.00000     0.00000
 Structure written by MMmdl.
 48 50  0  0  0  0  0  0  0  0  2 V2000
  143.6261  136.2664  152.4629 C   0  0  0  0  0  0  0  0  0  0  0  0
  145.0685  135.7815  152.2344 C   0  0  2  0  0  0  0  0  0  0  0  0
  145.8819  135.6975  153.5391 C   0  0  0  0  0  0  0  0  0  0  0  0
  146.2911  137.0864  154.0613 C   0  0  0  0  0  0  0  0  0  0  0  0
  147.0384  137.8500  153.0294 N   0  3  2  0  0  0  0  0  0  0  0  0
  147.5728  139.1328  153.5553 C   0  0  0  0  0  0  0  0  0  0  0  0
  148.9381  138.9664  154.2504 C   0  0  2  0  0  0  0  0  0  0  0  0
  148.7552  138.1963  155.4223 O   0  0  0  0  0  0  0  0  0  0  0  0
  149.5600  140.3292  154.6170 C   0  0  0  0  0  0  0  0  0  0  0  0
  150.6271  140.2169  155.6043 N   0  0  0  0  0  0  0  0  0  0  0  0
  151.6521  139.3264  155.6398 C   0  0  0  0  0  0  0  0  0  0  0  0
  151.8504  138.2785  154.5859 C   0  0  0  0  0  0  0  0  0  0  0  0
  151.6135  136.9681  155.0538 O   0  0  0  0  0  0  0  0  0  0  0  0
  152.4875  139.4460  156.6720 N   0  0  0  0  0  0  0  0  0  0  0  0
  151.9654  140.5197  157.3656 C   0  0  0  0  0  0  0  0  0  0  0  0
  152.4027  141.1446  158.5554 C   0  0  0  0  0  0  0  0  0  0  0  0
  151.6984  142.2465  159.0832 C   0  0  0  0  0  0  0  0  0  0  0  0
  150.5504  142.7390  158.4296 C   0  0  0  0  0  0  0  0  0  0  0  0
  150.0980  142.1312  157.2428 C   0  0  0  0  0  0  0  0  0  0  0  0
  150.8031  141.0296  156.7212 C   0  0  0  0  0  0  0  0  0  0  0  0
  146.2419  138.0083  151.7833 C   0  0  0  0  0  0  0  0  0  0  0  0
  145.8316  136.6403  151.2093 C   0  0  0  0  0  0  0  0  0  0  0  0
  143.5896  137.2738  152.8759 H   0  0  0  0  0  0  0  0  0  0  0  0
  143.0991  135.6080  153.1542 H   0  0  0  0  0  0  0  0  0  0  0  0
  143.0647  136.2729  151.5281 H   0  0  0  0  0  0  0  0  0  0  0  0
  144.9933  134.7722  151.8274 H   0  0  0  0  0  0  0  0  0  0  0  0
  145.3185  135.1609  154.3034 H   0  0  0  0  0  0  0  0  0  0  0  0
  146.7830  135.1089  153.3602 H   0  0  0  0  0  0  0  0  0  0  0  0
  145.4143  137.6542  154.3752 H   0  0  0  0  0  0  0  0  0  0  0  0
  146.9154  136.9588  154.9466 H   0  0  0  0  0  0  0  0  0  0  0  0
  147.6413  139.8536  152.7393 H   0  0  0  0  0  0  0  0  0  0  0  0
  146.8715  139.5575  154.2759 H   0  0  0  0  0  0  0  0  0  0  0  0
  149.6286  138.4288  153.6038 H   0  0  0  0  0  0  0  0  0  0  0  0
  149.5881  137.8208  155.6669 H   0  0  0  0  0  0  0  0  0  0  0  0
  149.9521  140.8160  153.7245 H   0  0  0  0  0  0  0  0  0  0  0  0
  148.7952  141.0008  155.0099 H   0  0  0  0  0  0  0  0  0  0  0  0
  151.2047  138.4865  153.7329 H   0  0  0  0  0  0  0  0  0  0  0  0
  152.8757  138.3302  154.2173 H   0  0  0  0  0  0  0  0  0  0  0  0
  151.1322  137.0241  155.8653 H   0  0  0  0  0  0  0  0  0  0  0  0
  153.2819  140.7762  159.0628 H   0  0  0  0  0  0  0  0  0  0  0  0
  152.0416  142.7170  159.9929 H   0  0  0  0  0  0  0  0  0  0  0  0
  150.0174  143.5842  158.8402 H   0  0  0  0  0  0  0  0  0  0  0  0
  149.2186  142.5073  156.7416 H   0  0  0  0  0  0  0  0  0  0  0  0
  145.3595  138.6164  151.9866 H   0  0  0  0  0  0  0  0  0  0  0  0
  146.8177  138.5424  151.0287 H   0  0  0  0  0  0  0  0  0  0  0  0
  146.7296  136.1066  150.8947 H   0  0  0  0  0  0  0  0  0  0  0  0
  145.2315  136.7766  150.3088 H   0  0  0  0  0  0  0  0  0  0  0  0
  147.8448  137.2878  152.7953 H   0  0  0  0  0  0  0  0  0  0  0  0
  1  2  1  0  0  0  0
  1 23  1  0  0  0  0
  1 24  1  0  0  0  0
  1 25  1  0  0  0  0
  2 22  1  0  0  0  0
  2  3  1  0  0  0  0
  2 26  1  0  0  0  0
  3  4  1  0  0  0  0
  3 27  1  0  0  0  0
  3 28  1  0  0  0  0
  4  5  1  0  0  0  0
  4 29  1  0  0  0  0
  4 30  1  0  0  0  0
  5  6  1  0  0  0  0
  5 21  1  0  0  0  0
  5 48  1  0  0  0  0
  6  7  1  0  0  0  0
  6 31  1  0  0  0  0
  6 32  1  0  0  0  0
  7  8  1  0  0  0  0
  7  9  1  0  0  0  0
  7 33  1  0  0  0  0
  8 34  1  0  0  0  0
  9 10  1  0  0  0  0
  9 35  1  0  0  0  0
  9 36  1  0  0  0  0
 10 20  1  0  0  0  0
 10 11  1  0  0  0  0
 11 12  1  0  0  0  0
 11 14  2  0  0  0  0
 12 13  1  0  0  0  0
 12 37  1  0  0  0  0
 12 38  1  0  0  0  0
 13 39  1  0  0  0  0
 14 15  1  0  0  0  0
 15 20  2  0  0  0  0
 15 16  1  0  0  0  0
 16 17  2  0  0  0  0
 16 40  1  0  0  0  0
 17 18  1  0  0  0  0
 17 41  1  0  0  0  0
 18 19  2  0  0  0  0
 18 42  1  0  0  0  0
 19 20  1  0  0  0  0
 19 43  1  0  0  0  0
 21 22  1  0  0  0  0
 21 44  1  0  0  0  0
 21 45  1  0  0  0  0
 22 46  1  0  0  0  0
 22 47  1  0  0  0  0
M  CHG  1   5   1
M  END
> <s_m_source_file>
AV-unprocessed.smi

> <i_m_source_file_index>
1672

> <i_lp_mmshare_version>
43012

> <i_f3d_flags>
0

> <s_epik_input>
W0NIM11bQ0hdMVtDSDJdW0NIMl1OKFtDSDJdW0NIMl0xKVtDSDJdW0NASF0oW09IXSlbQ0gyXW4oYyhuMilbQ0gyXVtPSF0pYyhjMjMpW2NIXVtjSF1bY0hdW2NIXTM=

> <s_epik_cmdline>
J2VwaWtfcHl0aG9uJywgJy1waCcsICc3LjAnLCAnLXRuJywgJzgnLCAnLW1hJywgJzIwMCcsICctbWV0YWxfYmluZGluZycsICctaW1hZScsICc8aW5maWxlLm1hZT4nLCAnLW9tYWUnLCAnPG91dGZpbGUubWFlPic=

> <r_epik_Ionization_Penalty>
0.0498263

> <r_epik_Ionization_Penalty_Charging>
0.00181365

> <r_epik_Ionization_Penalty_Neutral>
0.0480127

> <r_epik_State_Penalty>
0.0408546

> <r_epik_Charging_Adjusted_Penalty>
0.0426682

> <i_epik_Tot_Q>
1

> <i_epik_Tot_abs_Q>
1

> <r_epik_Metal_State_Penalty>
4.22946e-05

> <b_epik_Metal_Only>
0

> <s_lp_Force_Field>
OPLS_2005

> <r_lp_Energy>
23.4925

> <b_lp_Chiralities_Consistent>
1

> <s_lp_Variant>
AV-unprocessed.smi:1672-3

> <Gold.Version>
5.8.1

> <Gold.Id.Protein>
6NUR|6NUR_protein|mol2

> <Gold.PLP.Fitness>
49.4078

> <Gold.PLP.PLP>
-38.9007

> <Gold.PLP.part.hbond>
-3.0000

> <Gold.PLP.part.metal>
0.0000

> <Gold.PLP.part.buried>
-0.1618

> <Gold.PLP.part.nonpolar>
-35.8500

> <Gold.PLP.part.repulsive>
0.0423

> <Gold.PLP.ligand.clash>
0.0000

> <Gold.PLP.ligand.torsion>
0.7998

> <Gold.PLP.Chemscore.Hbond>
4.0000

> <Gold.PLP.Chemscore.CHOScore>
0.0000

> <Gold.PLP.Chemscore.Metal>
0.0000

> <Gold.Chemscore.Hbonds>
donor molecule, donor type, donor heavy atom, donor atom, acceptor molecule, acceptor atom, score
      L1  H     5    48       P1  7948  2.00
      P1  H  7997  8009       L1    14  0.85
      P1  H 10752 10763       L1    13  0.99

> <Gold.PLP.Chemscore.Internal.Correction>
0.1067

> <Gold.Rescore>
     Score         DG    S(hbond)    S(metal)    S(lipo)     H(rot)  DE(clash)    DE(int)     intcor
     14.10     -16.96       2.29        0.00      95.81       2.88       0.24       2.61       ----

> <Gold.Chemscore.Fitness>
14.1047

> <Gold.Chemscore.DG>
-16.9550

> <Gold.Chemscore.ZeroCoef>
-5.4800

> <Gold.Chemscore.Hbond>
2.2851

> <Gold.Chemscore.Metal>
0.0000

> <Gold.Chemscore.Lipo>
95.8116

> <Gold.Chemscore.Internal_Hbond>
0.0000

> <Gold.Chemscore.DEClash>
0.2378

> <Gold.Chemscore.DEInternal>
2.6126

> <Gold.Chemscore.Rot>
2.8778

> <Gold.Chemscore.Internal.Correction>
   9.000000E+99

> <Gold.Chemscore.Hbonds>
donor molecule, donor type, donor heavy atom, donor atom, acceptor molecule, acceptor atom, score
      L1  H     5    48       P1  7948  1.00
      P1  H  7997  8009       L1    14  0.14
      P1  H 10752 10763       L1    13  0.73

> <Gold.Chemscore.Hbond.Weighted>
-7.6321

> <Gold.Chemscore.Metal.Weighted>
-0.0000

> <Gold.Chemscore.Lipo.Weighted>
-11.2100

> <Gold.Chemscore.Internal_Hbond.Weighted>
0.0000

> <Gold.Chemscore.DEClash.Weighted>
0.2378

> <Gold.Chemscore.DEInternal.Weighted>
2.6126

> <Gold.Chemscore.Rot.Weighted>
7.3671

> <Gold.Chemscore.Internal.Correction.Weighted>
   9.000000E+99

> <Gold.Protein.RotatedTorsions>
[ 6907 6896 6895 6894 ] final   86.87 input  -60.11 | X-H torsion
[ 7974 7965 7964 7962 ] final   31.40 input  175.53 | X-H torsion
[ 8008 7997 7996 7995 ] final  178.23 input   59.86 | X-H torsion
[ 10167 10162 10161 10158 ] final  103.41 input  -65.29 | X-H torsion
[ 10718 10713 10712 10709 ] final  -16.50 input   66.30 | X-H torsion
[ 10763 10752 10751 10750 ] final   41.76 input  -60.55 | X-H torsion
[ 11005 11000 10999 10996 ] final   19.44 input  -57.11 | X-H torsion

> <Gold.Protein.ActiveResidues>
 VAL166  LYS551  ARG553  GLY616  TRP617  ASP618  TYR619  PRO620  LYS621  CYS622 
 ASP623  PHE694  ASN695  SER759  ASP760  ASP761  ALA762  ILE779  LEU786  VAL792 
 PHE793  MET794  SER795  GLU796  ALA797  LYS798  CYS799  TRP800  GLU811  SER814 

> <Gold.Protein.RotatedAtoms>
  152.5402  134.2364  159.8844 H   0  0  0  0  0  0  0  0  0  0  0  0  # atno 6907 bound_to 6896
  151.2334  133.4431  159.2612 H   0  0  0  0  0  0  0  0  0  0  0  0  # atno 6908 bound_to 6896
  151.0694  134.9802  159.8357 H   0  0  0  0  0  0  0  0  0  0  0  0  # atno 6909 bound_to 6896
  146.1552  139.6661  142.9071 H   0  0  0  0  0  0  0  0  0  0  0  0  # atno 7974 bound_to 7965
  156.0569  140.1338  156.9986 H   0  0  0  0  0  0  0  0  0  0  0  0  # atno 8008 bound_to 7997
  154.4462  140.0999  156.6530 H   0  0  0  0  0  0  0  0  0  0  0  0  # atno 8009 bound_to 7997
  155.5438  140.3461  155.4455 H   0  0  0  0  0  0  0  0  0  0  0  0  # atno 8010 bound_to 7997
  139.7265  144.7046  151.0789 H   0  0  0  0  0  0  0  0  0  0  0  0  # atno 10167 bound_to 10162
  156.5867  130.4788  149.6297 H   0  0  0  0  0  0  0  0  0  0  0  0  # atno 10718 bound_to 10713
  152.9900  135.6152  154.2840 H   0  0  0  0  0  0  0  0  0  0  0  0  # atno 10763 bound_to 10752
  154.2568  135.2783  155.2796 H   0  0  0  0  0  0  0  0  0  0  0  0  # atno 10764 bound_to 10752
  154.5240  135.5806  153.6762 H   0  0  0  0  0  0  0  0  0  0  0  0  # atno 10765 bound_to 10752
  140.4137  134.1591  155.7668 H   0  0  0  0  0  0  0  0  0  0  0  0  # atno 11005 bound_to 11000
  145.4726  141.0436  143.2690 LP  0  0  0  0  0  0  0  0  0  0  0  0  # atno 17320 bound_to 7965
  144.7954  139.6244  143.7095 LP  0  0  0  0  0  0  0  0  0  0  0  0  # atno 17321 bound_to 7965
  140.7763  143.5098  150.9667 LP  0  0  0  0  0  0  0  0  0  0  0  0  # atno 17342 bound_to 10162
  139.8786  143.7101  152.3159 LP  0  0  0  0  0  0  0  0  0  0  0  0  # atno 17343 bound_to 10162
  156.2584  130.6948  151.1709 LP  0  0  0  0  0  0  0  0  0  0  0  0  # atno 17370 bound_to 10713
  157.7313  131.0609  150.5682 LP  0  0  0  0  0  0  0  0  0  0  0  0  # atno 17371 bound_to 10713
  141.1811  133.8412  157.1254 LP  0  0  0  0  0  0  0  0  0  0  0  0  # atno 17394 bound_to 11000
  140.0249  134.9928  157.0666 LP  0  0  0  0  0  0  0  0  0  0  0  0  # atno 17395 bound_to 11000

$$$$
