AV-unprocessed.smi:2329|AV-procd|sdf|9308|dock7
  -GOLD-   2272012523D 1   1.00000     0.00000
 Structure written by MMmdl.
 45 48  0  0  0  0  0  0  0  0  1 V2000
  146.0933  137.7470  162.8591 C   0  0  0  0  0  0  0  0  0  0  0  0
  146.8470  136.7641  161.9883 C   0  0  0  0  0  0  0  0  0  0  0  0
  146.8482  135.3863  162.2826 C   0  0  0  0  0  0  0  0  0  0  0  0
  147.5670  134.5277  161.4318 C   0  0  0  0  0  0  0  0  0  0  0  0
  148.2504  135.0777  160.3303 C   0  0  0  0  0  0  0  0  0  0  0  0
  148.1986  136.4718  160.1065 C   0  0  0  0  0  0  0  0  0  0  0  0
  148.9204  136.9245  158.9713 N   0  0  0  0  0  0  0  0  0  0  0  0
  148.8071  138.0992  158.3200 C   0  0  0  0  0  0  0  0  0  0  0  0
  148.0125  138.9915  158.6108 O   0  0  0  0  0  0  0  0  0  0  0  0
  149.6667  138.2382  157.2957 N   0  0  0  0  0  0  0  0  0  0  0  0
  149.7992  139.3920  156.3914 C   0  0  2  0  0  0  0  0  0  0  0  0
  150.6835  139.1344  155.1657 C   0  0  2  0  0  0  0  0  0  0  0  0
  151.1575  137.9327  154.4297 C   0  0  0  0  0  0  0  0  0  0  0  0
  152.6223  138.3970  154.2164 C   0  0  0  0  0  0  0  0  0  0  0  0
  152.7855  139.5868  155.0292 O   0  0  0  0  0  0  0  0  0  0  0  0
  151.8550  139.4190  156.0817 C   0  0  1  0  0  0  0  0  0  0  0  0
  150.9226  140.4182  156.8074 C   0  0  0  0  0  0  0  0  0  0  0  0
  150.8497  141.8472  156.2302 C   0  0  0  0  0  0  0  0  0  0  0  0
  150.9844  142.8426  157.3841 C   0  0  0  0  0  0  0  0  0  0  0  0
  151.6932  142.0614  158.4804 C   0  0  0  0  0  0  0  0  0  0  0  0
  151.1693  140.6395  158.3047 C   0  0  0  0  0  0  0  0  0  0  0  0
  147.5026  137.2921  160.9324 N   0  0  0  0  0  0  0  0  0  0  0  0
  145.6206  137.2456  163.7041 H   0  0  0  0  0  0  0  0  0  0  0  0
  145.3155  138.2459  162.2802 H   0  0  0  0  0  0  0  0  0  0  0  0
  146.7715  138.5060  163.2501 H   0  0  0  0  0  0  0  0  0  0  0  0
  146.3137  134.9951  163.1358 H   0  0  0  0  0  0  0  0  0  0  0  0
  147.5943  133.4645  161.6199 H   0  0  0  0  0  0  0  0  0  0  0  0
  148.8077  134.4323  159.6666 H   0  0  0  0  0  0  0  0  0  0  0  0
  149.6215  136.2887  158.6208 H   0  0  0  0  0  0  0  0  0  0  0  0
  150.3113  137.4769  157.1380 H   0  0  0  0  0  0  0  0  0  0  0  0
  148.8499  139.8750  156.1547 H   0  0  0  0  0  0  0  0  0  0  0  0
  150.5126  139.9442  154.4490 H   0  0  0  0  0  0  0  0  0  0  0  0
  151.1023  137.0268  155.0346 H   0  0  0  0  0  0  0  0  0  0  0  0
  150.6249  137.7713  153.4923 H   0  0  0  0  0  0  0  0  0  0  0  0
  153.3237  137.6229  154.5302 H   0  0  0  0  0  0  0  0  0  0  0  0
  152.8262  138.6368  153.1725 H   0  0  0  0  0  0  0  0  0  0  0  0
  152.1459  138.5761  156.7169 H   0  0  0  0  0  0  0  0  0  0  0  0
  151.6652  142.0102  155.5245 H   0  0  0  0  0  0  0  0  0  0  0  0
  149.9244  142.0239  155.6808 H   0  0  0  0  0  0  0  0  0  0  0  0
  151.5194  143.7490  157.0991 H   0  0  0  0  0  0  0  0  0  0  0  0
  149.9927  143.1365  157.7304 H   0  0  0  0  0  0  0  0  0  0  0  0
  152.7703  142.0810  158.3088 H   0  0  0  0  0  0  0  0  0  0  0  0
  151.5037  142.4620  159.4766 H   0  0  0  0  0  0  0  0  0  0  0  0
  150.2330  140.5370  158.8551 H   0  0  0  0  0  0  0  0  0  0  0  0
  151.8629  139.9113  158.7259 H   0  0  0  0  0  0  0  0  0  0  0  0
  1  2  1  0  0  0  0
  1 23  1  0  0  0  0
  1 24  1  0  0  0  0
  1 25  1  0  0  0  0
  2 22  1  0  0  0  0
  2  3  2  0  0  0  0
  3  4  1  0  0  0  0
  3 26  1  0  0  0  0
  4  5  2  0  0  0  0
  4 27  1  0  0  0  0
  5  6  1  0  0  0  0
  5 28  1  0  0  0  0
  6  7  1  0  0  0  0
  6 22  2  0  0  0  0
  7  8  1  0  0  0  0
  7 29  1  0  0  0  0
  8  9  2  0  0  0  0
  8 10  1  0  0  0  0
 10 11  1  0  0  0  0
 10 30  1  0  0  0  0
 11 17  1  0  0  0  0
 11 12  1  0  0  0  0
 11 31  1  0  0  0  0
 12 16  1  0  0  0  0
 12 13  1  0  0  0  0
 12 32  1  0  0  0  0
 13 14  1  0  0  0  0
 13 33  1  0  0  0  0
 13 34  1  0  0  0  0
 14 15  1  0  0  0  0
 14 35  1  0  0  0  0
 14 36  1  0  0  0  0
 15 16  1  0  0  0  0
 16 17  1  0  0  0  0
 16 37  1  0  0  0  0
 17 21  1  0  0  0  0
 17 18  1  0  0  0  0
 18 19  1  0  0  0  0
 18 38  1  0  0  0  0
 18 39  1  0  0  0  0
 19 20  1  0  0  0  0
 19 40  1  0  0  0  0
 19 41  1  0  0  0  0
 20 21  1  0  0  0  0
 20 42  1  0  0  0  0
 20 43  1  0  0  0  0
 21 44  1  0  0  0  0
 21 45  1  0  0  0  0
M  END
> <s_m_source_file>
AV-unprocessed.smi

> <i_m_source_file_index>
2329

> <i_lp_mmshare_version>
43012

> <i_f3d_flags>
0

> <s_epik_input>
W0NIM11jMVtjSF1bY0hdW2NIXWMobjEpW05IXUMoPU8pW05IXVtDQEBIXTJbQ0BASF0oW0NIMl1bQ0gyXU8zKVtDQEhdM0MyNFtDSDJdW0NIMl1bQ0gyXVtDSDJdNA==

> <s_epik_cmdline>
J2VwaWtfcHl0aG9uJywgJy1waCcsICc3LjAnLCAnLXRuJywgJzgnLCAnLW1hJywgJzIwMCcsICctbWV0YWxfYmluZGluZycsICctaW1hZScsICc8aW5maWxlLm1hZT4nLCAnLW9tYWUnLCAnPG91dGZpbGUubWFlPic=

> <r_lp_tautomer_probability>
1

> <r_epik_Ionization_Penalty>
8.97002e-05

> <r_epik_Ionization_Penalty_Charging>
0

> <r_epik_Ionization_Penalty_Neutral>
8.97002e-05

> <r_epik_State_Penalty>
-0

> <r_epik_Charging_Adjusted_Penalty>
0

> <i_epik_Tot_Q>
0

> <i_epik_Tot_abs_Q>
0

> <r_epik_Metal_State_Penalty>
-0

> <b_epik_Metal_Only>
0

> <s_lp_Force_Field>
OPLS_2005

> <r_lp_Energy>
90.3412

> <b_lp_Chiralities_Consistent>
1

> <s_lp_Variant>
AV-unprocessed.smi:2329-7

> <Gold.Version>
5.8.1

> <Gold.Id.Protein>
6NUR|6NUR_protein|mol2

> <Gold.PLP.Fitness>
49.2524

> <Gold.PLP.PLP>
-40.8359

> <Gold.PLP.part.hbond>
-5.0000

> <Gold.PLP.part.metal>
0.0000

> <Gold.PLP.part.buried>
-5.4721

> <Gold.PLP.part.nonpolar>
-30.5376

> <Gold.PLP.part.repulsive>
0.2053

> <Gold.PLP.ligand.clash>
0.0000

> <Gold.PLP.ligand.torsion>
0.2964

> <Gold.PLP.Chemscore.Hbond>
2.9133

> <Gold.PLP.Chemscore.CHOScore>
0.0000

> <Gold.PLP.Chemscore.Metal>
0.0000

> <Gold.Chemscore.Hbonds>
donor molecule, donor type, donor heavy atom, donor atom, acceptor molecule, acceptor atom, score
      P1  H  6931  6943       L1    22  0.77
      P1  H  6934  6947       L1    22  0.99
      P1  H  7989  7998       L1    15  0.13
      P1  H  7997  8008       L1    15  1.00

> <Gold.PLP.Chemscore.Internal.Correction>
0.2694

> <Gold.Rescore>
     Score         DG    S(hbond)    S(metal)    S(lipo)     H(rot)  DE(clash)    DE(int)     intcor
     19.49     -21.04       1.70        0.00     106.31       1.00       0.02       1.52       ----

> <Gold.Chemscore.Fitness>
19.4949

> <Gold.Chemscore.DG>
-21.0368

> <Gold.Chemscore.ZeroCoef>
-5.4800

> <Gold.Chemscore.Hbond>
1.7002

> <Gold.Chemscore.Metal>
0.0000

> <Gold.Chemscore.Lipo>
106.3103

> <Gold.Chemscore.Internal_Hbond>
0.0000

> <Gold.Chemscore.DEClash>
0.0202

> <Gold.Chemscore.DEInternal>
1.5216

> <Gold.Chemscore.Rot>
1.0000

> <Gold.Chemscore.Internal.Correction>
   9.000000E+99

> <Gold.Chemscore.Hbonds>
donor molecule, donor type, donor heavy atom, donor atom, acceptor molecule, acceptor atom, score
      P1  H  6931  6943       L1    22  0.06
      P1  H  6934  6947       L1    22  0.57
      P1  H  7997  8008       L1    15  0.71

> <Gold.Chemscore.Hbond.Weighted>
-5.6785

> <Gold.Chemscore.Metal.Weighted>
-0.0000

> <Gold.Chemscore.Lipo.Weighted>
-12.4383

> <Gold.Chemscore.Internal_Hbond.Weighted>
0.0000

> <Gold.Chemscore.DEClash.Weighted>
0.0202

> <Gold.Chemscore.DEInternal.Weighted>
1.5216

> <Gold.Chemscore.Rot.Weighted>
2.5600

> <Gold.Chemscore.Internal.Correction.Weighted>
   9.000000E+99

> <Gold.Protein.RotatedTorsions>
[ 6907 6896 6895 6894 ] final   20.95 input  -60.11 | X-H torsion
[ 7974 7965 7964 7962 ] final  -14.13 input  175.53 | X-H torsion
[ 8008 7997 7996 7995 ] final   -6.56 input   59.86 | X-H torsion
[ 10167 10162 10161 10158 ] final    6.56 input  -65.29 | X-H torsion
[ 10718 10713 10712 10709 ] final -161.07 input   66.30 | X-H torsion
[ 10763 10752 10751 10750 ] final  119.28 input  -60.55 | X-H torsion
[ 11005 11000 10999 10996 ] final  -80.62 input  -57.11 | X-H torsion

> <Gold.Protein.ActiveResidues>
 VAL166  LYS551  ARG553  GLY616  TRP617  ASP618  TYR619  PRO620  LYS621  CYS622 
 ASP623  PHE694  ASN695  SER759  ASP760  ASP761  ALA762  ILE779  LEU786  VAL792 
 PHE793  MET794  SER795  GLU796  ALA797  LYS798  CYS799  TRP800  GLU811  SER814 

> <Gold.Protein.RotatedAtoms>
  151.9043  135.0365  160.0508 H   0  0  0  0  0  0  0  0  0  0  0  0  # atno 6907 bound_to 6896
  152.2332  133.5071  159.5236 H   0  0  0  0  0  0  0  0  0  0  0  0  # atno 6908 bound_to 6896
  150.7031  134.1104  159.4041 H   0  0  0  0  0  0  0  0  0  0  0  0  # atno 6909 bound_to 6896
  146.2087  140.3303  142.8398 H   0  0  0  0  0  0  0  0  0  0  0  0  # atno 7974 bound_to 7965
  154.5926  140.2430  155.7901 H   0  0  0  0  0  0  0  0  0  0  0  0  # atno 8008 bound_to 7997
  156.2257  140.2983  156.0015 H   0  0  0  0  0  0  0  0  0  0  0  0  # atno 8009 bound_to 7997
  155.2348  140.0405  157.2957 H   0  0  0  0  0  0  0  0  0  0  0  0  # atno 8010 bound_to 7997
  140.6421  143.7749  150.7443 H   0  0  0  0  0  0  0  0  0  0  0  0  # atno 10167 bound_to 10162
  156.5911  130.8770  151.2890 H   0  0  0  0  0  0  0  0  0  0  0  0  # atno 10718 bound_to 10713
  153.5805  135.3485  155.2873 H   0  0  0  0  0  0  0  0  0  0  0  0  # atno 10763 bound_to 10752
  154.8668  135.4181  154.2625 H   0  0  0  0  0  0  0  0  0  0  0  0  # atno 10764 bound_to 10752
  153.3410  135.7050  153.6937 H   0  0  0  0  0  0  0  0  0  0  0  0  # atno 10765 bound_to 10752
  141.1668  133.7158  156.8299 H   0  0  0  0  0  0  0  0  0  0  0  0  # atno 11005 bound_to 11000
  144.8857  140.7459  143.5958 LP  0  0  0  0  0  0  0  0  0  0  0  0  # atno 17320 bound_to 7965
  145.3224  139.1784  143.4580 LP  0  0  0  0  0  0  0  0  0  0  0  0  # atno 17321 bound_to 7965
  140.1383  143.4464  152.2210 LP  0  0  0  0  0  0  0  0  0  0  0  0  # atno 17342 bound_to 10162
  139.5630  144.7418  151.4100 LP  0  0  0  0  0  0  0  0  0  0  0  0  # atno 17343 bound_to 10162
  157.7303  130.9684  150.1828 LP  0  0  0  0  0  0  0  0  0  0  0  0  # atno 17370 bound_to 10713
  156.2549  130.3704  149.8192 LP  0  0  0  0  0  0  0  0  0  0  0  0  # atno 17371 bound_to 10713
  140.2058  134.8863  157.3220 LP  0  0  0  0  0  0  0  0  0  0  0  0  # atno 17394 bound_to 11000
  140.2139  134.4105  155.7599 LP  0  0  0  0  0  0  0  0  0  0  0  0  # atno 17395 bound_to 11000

$$$$
