AV-unprocessed.smi:196|AV-procd|sdf|1537|dock9
  -GOLD-   2262019393D 1   1.00000     0.00000
 Structure written by MMmdl.
 47 50  0  0  0  0  0  0  0  0  1 V2000
  147.5503  133.1172  152.5524 C   0  0  0  0  0  0  0  0  0  0  0  0
  146.4364  133.2641  151.5037 C   0  0  1  0  0  0  0  0  0  0  0  0
  146.5335  132.2395  150.5149 O   0  0  0  0  0  0  0  0  0  0  0  0
  145.3043  131.5331  150.4179 C   0  0  0  0  0  0  0  0  0  0  0  0
  144.2557  132.5240  150.9056 C   0  0  0  0  0  0  0  0  0  0  0  0
  144.9831  133.2468  152.0302 C   0  0  1  0  0  0  0  0  0  0  0  0
  144.8795  132.4606  153.2074 O   0  0  0  0  0  0  0  0  0  0  0  0
  144.4338  134.6607  152.3336 C   0  0  0  0  0  0  0  0  0  0  0  0
  145.3104  135.4531  153.1814 N   0  0  0  0  0  0  0  0  0  0  0  0
  145.6744  135.1722  154.4793 C   0  0  0  0  0  0  0  0  0  0  0  0
  146.4754  136.0408  155.0339 N   0  0  0  0  0  0  0  0  0  0  0  0
  146.6870  136.9862  154.0385 C   0  0  0  0  0  0  0  0  0  0  0  0
  147.4510  138.1807  153.9618 C   0  0  0  0  0  0  0  0  0  0  0  0
  148.1713  138.6231  155.0266 N   0  0  0  0  0  0  0  0  0  0  0  0
  147.6645  139.8998  155.5186 C   0  0  0  0  0  0  0  0  0  0  0  0
  148.6082  140.9835  154.9714 C   0  0  2  0  0  0  0  0  0  0  0  0
  148.0200  141.6918  154.0068 F   0  0  0  0  0  0  0  0  0  0  0  0
  149.8177  140.2223  154.4136 C   0  0  0  0  0  0  0  0  0  0  0  0
  149.6296  138.7956  154.9554 C   0  0  2  0  0  0  0  0  0  0  0  0
  150.4422  137.6942  154.2412 C   0  0  0  0  0  0  0  0  0  0  0  0
  150.4004  137.6768  152.9064 N   0  0  0  0  0  0  0  0  0  0  0  0
  151.1344  136.8979  154.8735 O   0  0  0  0  0  0  0  0  0  0  0  0
  147.4041  138.8835  152.7982 N   0  0  0  0  0  0  0  0  0  0  0  0
  146.6811  138.4326  151.7692 C   0  0  0  0  0  0  0  0  0  0  0  0
  145.9346  137.3289  151.6942 N   0  0  0  0  0  0  0  0  0  0  0  0
  145.9631  136.6320  152.8661 C   0  0  0  0  0  0  0  0  0  0  0  0
  148.8944  141.6841  155.7563 H   0  0  0  0  0  0  0  0  0  0  0  0
  149.9782  138.7802  155.9897 H   0  0  0  0  0  0  0  0  0  0  0  0
  147.4716  133.8886  153.3186 H   0  0  0  0  0  0  0  0  0  0  0  0
  148.5317  133.2098  152.0876 H   0  0  0  0  0  0  0  0  0  0  0  0
  147.5130  132.1452  153.0449 H   0  0  0  0  0  0  0  0  0  0  0  0
  146.6009  134.1988  150.9654 H   0  0  0  0  0  0  0  0  0  0  0  0
  145.1191  131.1901  149.4000 H   0  0  0  0  0  0  0  0  0  0  0  0
  145.3417  130.6602  151.0710 H   0  0  0  0  0  0  0  0  0  0  0  0
  144.0243  133.2202  150.0985 H   0  0  0  0  0  0  0  0  0  0  0  0
  143.3241  132.0482  151.2153 H   0  0  0  0  0  0  0  0  0  0  0  0
  143.9714  132.4296  153.4667 H   0  0  0  0  0  0  0  0  0  0  0  0
  144.2685  135.2075  151.4043 H   0  0  0  0  0  0  0  0  0  0  0  0
  143.4612  134.5926  152.8226 H   0  0  0  0  0  0  0  0  0  0  0  0
  145.3202  134.2983  155.0065 H   0  0  0  0  0  0  0  0  0  0  0  0
  146.6243  140.0926  155.2465 H   0  0  0  0  0  0  0  0  0  0  0  0
  147.7053  139.8798  156.6084 H   0  0  0  0  0  0  0  0  0  0  0  0
  149.8069  140.2326  153.3228 H   0  0  0  0  0  0  0  0  0  0  0  0
  150.7604  140.6651  154.7366 H   0  0  0  0  0  0  0  0  0  0  0  0
  150.9190  136.9789  152.3937 H   0  0  0  0  0  0  0  0  0  0  0  0
  149.8520  138.3676  152.4146 H   0  0  0  0  0  0  0  0  0  0  0  0
  146.7030  139.0439  150.8791 H   0  0  0  0  0  0  0  0  0  0  0  0
  1  2  1  0  0  0  0
  1 29  1  0  0  0  0
  1 30  1  0  0  0  0
  1 31  1  0  0  0  0
  2  6  1  0  0  0  0
  2  3  1  0  0  0  0
  2 32  1  0  0  0  0
  3  4  1  0  0  0  0
  4  5  1  0  0  0  0
  4 33  1  0  0  0  0
  4 34  1  0  0  0  0
  5  6  1  0  0  0  0
  5 35  1  0  0  0  0
  5 36  1  0  0  0  0
  6  7  1  0  0  0  0
  6  8  1  0  0  0  0
  7 37  1  0  0  0  0
  8  9  1  0  0  0  0
  8 38  1  0  0  0  0
  8 39  1  0  0  0  0
  9 26  1  0  0  0  0
  9 10  1  0  0  0  0
 10 11  2  0  0  0  0
 10 40  1  0  0  0  0
 11 12  1  0  0  0  0
 12 26  2  0  0  0  0
 12 13  1  0  0  0  0
 13 14  1  0  0  0  0
 13 23  2  0  0  0  0
 14 19  1  0  0  0  0
 14 15  1  0  0  0  0
 15 16  1  0  0  0  0
 15 41  1  0  0  0  0
 15 42  1  0  0  0  0
 16 27  1  0  0  0  0
 16 17  1  0  0  0  0
 16 18  1  0  0  0  0
 18 19  1  0  0  0  0
 18 43  1  0  0  0  0
 18 44  1  0  0  0  0
 19 28  1  0  0  0  0
 19 20  1  0  0  0  0
 20 21  1  0  0  0  0
 20 22  2  0  0  0  0
 21 45  1  0  0  0  0
 21 46  1  0  0  0  0
 23 24  1  0  0  0  0
 24 25  2  0  0  0  0
 24 47  1  0  0  0  0
 25 26  1  0  0  0  0
M  END
> <s_m_source_file>
AV-unprocessed.smi

> <i_m_source_file_index>
196

> <i_lp_mmshare_version>
43012

> <i_f3d_flags>
0

> <s_epik_input>
W0NIMl0xW0NIMl1PW0NAQEhdKFtDSDNdKVtDQEBdMShbT0hdKVtDSDJdbihbY0hdbjIpYyhjMjMpbltjSF1uYzNONFtDSDJdW0NASF0oRilbQ0gyXVtDQEhdNEMoPU8pW05IMl0=

> <s_epik_cmdline>
J2VwaWtfcHl0aG9uJywgJy1waCcsICc3LjAnLCAnLXRuJywgJzgnLCAnLW1hJywgJzIwMCcsICctbWV0YWxfYmluZGluZycsICctaW1hZScsICc8aW5maWxlLm1hZT4nLCAnLW9tYWUnLCAnPG91dGZpbGUubWFlPic=

> <r_lp_tautomer_probability>
1

> <r_epik_Ionization_Penalty>
0.000857933

> <r_epik_Ionization_Penalty_Charging>
0

> <r_epik_Ionization_Penalty_Neutral>
0.000857933

> <r_epik_State_Penalty>
0.000462053

> <r_epik_Charging_Adjusted_Penalty>
0.000462053

> <i_epik_Tot_Q>
0

> <i_epik_Tot_abs_Q>
0

> <r_epik_Metal_State_Penalty>
-0

> <b_epik_Metal_Only>
0

> <s_lp_Force_Field>
OPLS_2005

> <r_lp_Energy>
51.2848

> <b_lp_Chiralities_Consistent>
1

> <s_lp_Variant>
AV-unprocessed.smi:196-10

> <Gold.Version>
5.8.1

> <Gold.Id.Protein>
6NUR|6NUR_protein|mol2

> <Gold.PLP.Fitness>
38.6262

> <Gold.PLP.PLP>
-27.6650

> <Gold.PLP.part.hbond>
-4.9342

> <Gold.PLP.part.metal>
0.0000

> <Gold.PLP.part.buried>
2.7613

> <Gold.PLP.part.nonpolar>
-26.8559

> <Gold.PLP.part.repulsive>
1.7488

> <Gold.PLP.ligand.clash>
0.0000

> <Gold.PLP.ligand.torsion>
0.4083

> <Gold.PLP.Chemscore.Hbond>
3.8705

> <Gold.PLP.Chemscore.CHOScore>
0.0359

> <Gold.PLP.Chemscore.Metal>
0.0000

> <Gold.Chemscore.Hbonds>
donor molecule, donor type, donor heavy atom, donor atom, acceptor molecule, acceptor atom, score
      L1  H     7    37       P1 10957  0.87
      L1  H    21    45       P1  7949  0.43
      L1  H    21    46       P1  7957  0.76
      P1  H 10752 10764       L1    22  0.41

> <Gold.PLP.Chemscore.Internal.Correction>
0.0588

> <Gold.Rescore>
     Score         DG    S(hbond)    S(metal)    S(lipo)     H(rot)  DE(clash)    DE(int)     intcor
      9.39     -11.70       2.33        0.00      53.14       3.04       1.76       0.55       ----

> <Gold.Chemscore.Fitness>
9.3920

> <Gold.Chemscore.DG>
-11.7039

> <Gold.Chemscore.ZeroCoef>
-5.4800

> <Gold.Chemscore.Hbond>
2.3329

> <Gold.Chemscore.Metal>
0.0000

> <Gold.Chemscore.Lipo>
53.1432

> <Gold.Chemscore.Internal_Hbond>
0.0000

> <Gold.Chemscore.DEClash>
1.7612

> <Gold.Chemscore.DEInternal>
0.5507

> <Gold.Chemscore.Rot>
3.0413

> <Gold.Chemscore.Internal.Correction>
   9.000000E+99

> <Gold.Chemscore.Hbonds>
donor molecule, donor type, donor heavy atom, donor atom, acceptor molecule, acceptor atom, score
      L1  H     7    37       P1 10957  0.19
      L1  H    21    45       P1  7949  0.05
      L1  H    21    46       P1  7957  0.12
      P1  H 10752 10764       L1    22  0.41

> <Gold.Chemscore.Hbond.Weighted>
-7.7917

> <Gold.Chemscore.Metal.Weighted>
-0.0000

> <Gold.Chemscore.Lipo.Weighted>
-6.2178

> <Gold.Chemscore.Internal_Hbond.Weighted>
0.0000

> <Gold.Chemscore.DEClash.Weighted>
1.7612

> <Gold.Chemscore.DEInternal.Weighted>
0.5507

> <Gold.Chemscore.Rot.Weighted>
7.7856

> <Gold.Chemscore.Internal.Correction.Weighted>
   9.000000E+99

> <Gold.Protein.RotatedTorsions>
[ 6907 6896 6895 6894 ] final  153.59 input  -60.11 | X-H torsion
[ 7974 7965 7964 7962 ] final -101.72 input  175.53 | X-H torsion
[ 8008 7997 7996 7995 ] final -131.71 input   59.86 | X-H torsion
[ 10167 10162 10161 10158 ] final  113.65 input  -65.29 | X-H torsion
[ 10718 10713 10712 10709 ] final   74.09 input   66.30 | X-H torsion
[ 10763 10752 10751 10750 ] final  -78.47 input  -60.55 | X-H torsion
[ 11005 11000 10999 10996 ] final   -6.96 input  -57.11 | X-H torsion

> <Gold.Protein.ActiveResidues>
 VAL166  LYS551  ARG553  GLY616  TRP617  ASP618  TYR619  PRO620  LYS621  CYS622 
 ASP623  PHE694  ASN695  SER759  ASP760  ASP761  ALA762  ILE779  LEU786  VAL792 
 PHE793  MET794  SER795  GLU796  ALA797  LYS798  CYS799  TRP800  GLU811  SER814 

> <Gold.Protein.RotatedAtoms>
  152.0705  133.4104  159.4456 H   0  0  0  0  0  0  0  0  0  0  0  0  # atno 6907 bound_to 6896
  150.6863  134.3097  159.4750 H   0  0  0  0  0  0  0  0  0  0  0  0  # atno 6908 bound_to 6896
  152.0928  134.9395  160.0622 H   0  0  0  0  0  0  0  0  0  0  0  0  # atno 6909 bound_to 6896
  145.2779  140.9318  143.2949 H   0  0  0  0  0  0  0  0  0  0  0  0  # atno 7974 bound_to 7965
  155.3168  140.0460  157.3037 H   0  0  0  0  0  0  0  0  0  0  0  0  # atno 8008 bound_to 7997
  154.5402  140.2285  155.8620 H   0  0  0  0  0  0  0  0  0  0  0  0  # atno 8009 bound_to 7997
  156.1873  140.3059  155.9270 H   0  0  0  0  0  0  0  0  0  0  0  0  # atno 8010 bound_to 7997
  139.6446  144.7126  151.2168 H   0  0  0  0  0  0  0  0  0  0  0  0  # atno 10167 bound_to 10162
  157.6577  130.9661  150.1162 H   0  0  0  0  0  0  0  0  0  0  0  0  # atno 10718 bound_to 10713
  154.5263  135.5728  153.6722 H   0  0  0  0  0  0  0  0  0  0  0  0  # atno 10763 bound_to 10752
  152.9929  135.6194  154.2687 H   0  0  0  0  0  0  0  0  0  0  0  0  # atno 10764 bound_to 10752
  154.2611  135.2856  155.2757 H   0  0  0  0  0  0  0  0  0  0  0  0  # atno 10765 bound_to 10752
  140.7076  133.8936  155.8727 H   0  0  0  0  0  0  0  0  0  0  0  0  # atno 11005 bound_to 11000
  144.9278  139.4334  143.6510 LP  0  0  0  0  0  0  0  0  0  0  0  0  # atno 17320 bound_to 7965
  146.3226  139.8173  142.8934 LP  0  0  0  0  0  0  0  0  0  0  0  0  # atno 17321 bound_to 7965
  140.7508  143.6253  150.8474 LP  0  0  0  0  0  0  0  0  0  0  0  0  # atno 17342 bound_to 10162
  139.9894  143.5863  152.2915 LP  0  0  0  0  0  0  0  0  0  0  0  0  # atno 17343 bound_to 10162
  156.2045  130.3662  149.8746 LP  0  0  0  0  0  0  0  0  0  0  0  0  # atno 17370 bound_to 10713
  156.6641  130.8794  151.3552 LP  0  0  0  0  0  0  0  0  0  0  0  0  # atno 17371 bound_to 10713
  141.0112  134.1018  157.4220 LP  0  0  0  0  0  0  0  0  0  0  0  0  # atno 17394 bound_to 11000
  139.8880  135.0094  156.6594 LP  0  0  0  0  0  0  0  0  0  0  0  0  # atno 17395 bound_to 11000

$$$$
