AV-unprocessed.smi:3292|AV-procd|sdf|12626|dock4
  -GOLD-   2272018563D 1   1.00000     0.00000
 Structure written by MMmdl.
 38 39  0  0  0  0  0  0  0  0  1 V2000
  143.8233  136.5763  152.0958 C   0  0  0  0  0  0  0  0  0  0  0  0
  144.9333  135.5129  152.0511 C   0  0  1  0  0  0  0  0  0  0  0  0
  145.0929  134.8594  150.6607 C   0  0  0  0  0  0  0  0  0  0  0  0
  144.8104  133.4366  150.6744 N   0  0  0  0  0  0  0  0  0  0  0  0
  145.4712  132.4609  151.4090 C   0  0  0  0  0  0  0  0  0  0  0  0
  144.8661  131.2626  151.1043 C   0  0  0  0  0  0  0  0  0  0  0  0
  143.8406  131.4751  150.1860 N   0  0  0  0  0  0  0  0  0  0  0  0
  143.8702  132.7849  149.9763 C   0  0  0  0  0  0  0  0  0  0  0  0
  146.1932  136.1191  152.4725 N   0  0  0  0  0  0  0  0  0  0  0  0
  146.3410  136.9519  153.5125 C   0  0  0  0  0  0  0  0  0  0  0  0
  145.4216  137.2991  154.2542 O   0  0  0  0  0  0  0  0  0  0  0  0
  147.6102  137.3630  153.6436 N   0  0  0  0  0  0  0  0  0  0  0  0
  148.0997  138.2801  154.6683 C   0  0  0  0  0  0  0  0  0  0  0  0
  149.4954  138.8333  154.3241 C   0  0  2  0  0  0  0  0  0  0  0  0
  150.6355  137.9536  154.7946 C   0  0  0  0  0  0  0  0  0  0  0  0
  151.8202  138.9153  154.7549 C   0  0  0  0  0  0  0  0  0  0  0  0
  151.2814  140.2130  154.9929 O   0  0  0  0  0  0  0  0  0  0  0  0
  149.8588  140.1562  155.0006 C   0  0  0  0  0  0  0  0  0  0  0  0
  142.8462  136.1443  151.8789 H   0  0  0  0  0  0  0  0  0  0  0  0
  144.0051  137.3697  151.3703 H   0  0  0  0  0  0  0  0  0  0  0  0
  143.7603  137.0352  153.0829 H   0  0  0  0  0  0  0  0  0  0  0  0
  144.6674  134.7365  152.7713 H   0  0  0  0  0  0  0  0  0  0  0  0
  144.4299  135.3386  149.9387 H   0  0  0  0  0  0  0  0  0  0  0  0
  146.1090  134.9947  150.2882 H   0  0  0  0  0  0  0  0  0  0  0  0
  146.2926  132.6948  152.0701 H   0  0  0  0  0  0  0  0  0  0  0  0
  145.0893  130.2716  151.4711 H   0  0  0  0  0  0  0  0  0  0  0  0
  143.1884  133.2823  149.3019 H   0  0  0  0  0  0  0  0  0  0  0  0
  147.0104  135.8952  151.9236 H   0  0  0  0  0  0  0  0  0  0  0  0
  148.2905  137.0194  152.9817 H   0  0  0  0  0  0  0  0  0  0  0  0
  147.3913  139.0939  154.8329 H   0  0  0  0  0  0  0  0  0  0  0  0
  148.1505  137.7279  155.6069 H   0  0  0  0  0  0  0  0  0  0  0  0
  149.5797  138.9576  153.2430 H   0  0  0  0  0  0  0  0  0  0  0  0
  150.4609  137.6200  155.8185 H   0  0  0  0  0  0  0  0  0  0  0  0
  150.7843  137.0729  154.1697 H   0  0  0  0  0  0  0  0  0  0  0  0
  152.5852  138.6605  155.4885 H   0  0  0  0  0  0  0  0  0  0  0  0
  152.2828  138.9095  153.7674 H   0  0  0  0  0  0  0  0  0  0  0  0
  149.4245  141.0195  154.4961 H   0  0  0  0  0  0  0  0  0  0  0  0
  149.5209  140.1651  156.0377 H   0  0  0  0  0  0  0  0  0  0  0  0
  1  2  1  0  0  0  0
  1 19  1  0  0  0  0
  1 20  1  0  0  0  0
  1 21  1  0  0  0  0
  2  3  1  0  0  0  0
  2  9  1  0  0  0  0
  2 22  1  0  0  0  0
  3  4  1  0  0  0  0
  3 23  1  0  0  0  0
  3 24  1  0  0  0  0
  4  8  1  0  0  0  0
  4  5  1  0  0  0  0
  5  6  2  0  0  0  0
  5 25  1  0  0  0  0
  6  7  1  0  0  0  0
  6 26  1  0  0  0  0
  7  8  2  0  0  0  0
  8 27  1  0  0  0  0
  9 10  1  0  0  0  0
  9 28  1  0  0  0  0
 10 11  2  0  0  0  0
 10 12  1  0  0  0  0
 12 13  1  0  0  0  0
 12 29  1  0  0  0  0
 13 14  1  0  0  0  0
 13 30  1  0  0  0  0
 13 31  1  0  0  0  0
 14 18  1  0  0  0  0
 14 15  1  0  0  0  0
 14 32  1  0  0  0  0
 15 16  1  0  0  0  0
 15 33  1  0  0  0  0
 15 34  1  0  0  0  0
 16 17  1  0  0  0  0
 16 35  1  0  0  0  0
 16 36  1  0  0  0  0
 17 18  1  0  0  0  0
 18 37  1  0  0  0  0
 18 38  1  0  0  0  0
M  END
> <s_m_source_file>
AV-unprocessed.smi

> <i_m_source_file_index>
3292

> <i_lp_mmshare_version>
43012

> <i_f3d_flags>
0

> <s_epik_input>
W2NIXTFuW2NIXVtjSF1uMVtDSDJdW0NAQEhdKFtDSDNdKVtOSF1DKD1PKVtOSF1bQ0gyXVtDQEBIXTJbQ0gyXVtDSDJdT1tDSDJdMg==

> <s_epik_cmdline>
J2VwaWtfcHl0aG9uJywgJy1waCcsICc3LjAnLCAnLXRuJywgJzgnLCAnLW1hJywgJzIwMCcsICctbWV0YWxfYmluZGluZycsICctaW1hZScsICc8aW5maWxlLm1hZT4nLCAnLW9tYWUnLCAnPG91dGZpbGUubWFlPic=

> <r_lp_tautomer_probability>
1

> <r_epik_Ionization_Penalty>
0.621291

> <r_epik_Ionization_Penalty_Charging>
0.621234

> <r_epik_Ionization_Penalty_Neutral>
5.72199e-05

> <r_epik_State_Penalty>
0.637278

> <r_epik_Charging_Adjusted_Penalty>
1.25851

> <i_epik_Tot_Q>
0

> <i_epik_Tot_abs_Q>
0

> <r_epik_Metal_State_Penalty>
0.306757

> <b_epik_Metal_Only>
0

> <s_lp_Force_Field>
OPLS_2005

> <r_lp_Energy>
18.3972

> <b_lp_Chiralities_Consistent>
1

> <s_lp_Variant>
AV-unprocessed.smi:3292-6

> <Gold.Version>
5.8.1

> <Gold.Id.Protein>
6NUR|6NUR_protein|mol2

> <Gold.PLP.Fitness>
44.0224

> <Gold.PLP.PLP>
-32.8526

> <Gold.PLP.part.hbond>
-3.8637

> <Gold.PLP.part.metal>
0.0000

> <Gold.PLP.part.buried>
-4.3842

> <Gold.PLP.part.nonpolar>
-25.6602

> <Gold.PLP.part.repulsive>
0.3075

> <Gold.PLP.ligand.clash>
0.0000

> <Gold.PLP.ligand.torsion>
1.2889

> <Gold.PLP.Chemscore.Hbond>
3.5422

> <Gold.PLP.Chemscore.CHOScore>
1.0000

> <Gold.PLP.Chemscore.Metal>
0.0000

> <Gold.Chemscore.Hbonds>
donor molecule, donor type, donor heavy atom, donor atom, acceptor molecule, acceptor atom, score
      L1  H     9    28       P1  7948  0.85
      L1  H    12    29       P1  7948  0.98
      P1  H  7989  7998       L1    17  0.85
      P1  H 10785 10796       L1     7  0.70
      L1  C     8    27       P1 10186  1.00

> <Gold.PLP.Chemscore.Internal.Correction>
0.1211

> <Gold.Rescore>
     Score         DG    S(hbond)    S(metal)    S(lipo)     H(rot)  DE(clash)    DE(int)     intcor
     12.94     -15.97       2.65        0.00      61.10       2.16       0.17       2.85       ----

> <Gold.Chemscore.Fitness>
12.9417

> <Gold.Chemscore.DG>
-15.9700

> <Gold.Chemscore.ZeroCoef>
-5.4800

> <Gold.Chemscore.Hbond>
2.6541

> <Gold.Chemscore.Metal>
0.0000

> <Gold.Chemscore.Lipo>
61.1024

> <Gold.Chemscore.Internal_Hbond>
0.0000

> <Gold.Chemscore.DEClash>
0.1745

> <Gold.Chemscore.DEInternal>
2.8538

> <Gold.Chemscore.Rot>
2.1577

> <Gold.Chemscore.Internal.Correction>
   9.000000E+99

> <Gold.Chemscore.Hbonds>
donor molecule, donor type, donor heavy atom, donor atom, acceptor molecule, acceptor atom, score
      L1  H     9    28       P1  7948  0.84
      L1  H    12    29       P1  7948  0.91
      P1  H  7989  7998       L1    17  0.06
      P1  H 10785 10796       L1     7  0.66

> <Gold.Chemscore.Hbond.Weighted>
-8.8647

> <Gold.Chemscore.Metal.Weighted>
-0.0000

> <Gold.Chemscore.Lipo.Weighted>
-7.1490

> <Gold.Chemscore.Internal_Hbond.Weighted>
0.0000

> <Gold.Chemscore.DEClash.Weighted>
0.1745

> <Gold.Chemscore.DEInternal.Weighted>
2.8538

> <Gold.Chemscore.Rot.Weighted>
5.5237

> <Gold.Chemscore.Internal.Correction.Weighted>
   9.000000E+99

> <Gold.Protein.RotatedTorsions>
[ 6907 6896 6895 6894 ] final  168.29 input  -60.11 | X-H torsion
[ 7974 7965 7964 7962 ] final -167.05 input  175.53 | X-H torsion
[ 8008 7997 7996 7995 ] final  -16.95 input   59.86 | X-H torsion
[ 10167 10162 10161 10158 ] final  146.80 input  -65.29 | X-H torsion
[ 10718 10713 10712 10709 ] final  -40.79 input   66.30 | X-H torsion
[ 10763 10752 10751 10750 ] final   55.55 input  -60.55 | X-H torsion
[ 11005 11000 10999 10996 ] final -179.94 input  -57.11 | X-H torsion

> <Gold.Protein.ActiveResidues>
 VAL166  LYS551  ARG553  GLY616  TRP617  ASP618  TYR619  PRO620  LYS621  CYS622 
 ASP623  PHE694  ASN695  SER759  ASP760  ASP761  ALA762  ILE779  LEU786  VAL792 
 PHE793  MET794  SER795  GLU796  ALA797  LYS798  CYS799  TRP800  GLU811  SER814 

> <Gold.Protein.RotatedAtoms>
  151.8499  133.3438  159.3669 H   0  0  0  0  0  0  0  0  0  0  0  0  # atno 6907 bound_to 6896
  150.7209  134.5309  159.5709 H   0  0  0  0  0  0  0  0  0  0  0  0  # atno 6908 bound_to 6896
  152.2801  134.7839  160.0449 H   0  0  0  0  0  0  0  0  0  0  0  0  # atno 6909 bound_to 6896
  144.7231  140.2576  143.6269 H   0  0  0  0  0  0  0  0  0  0  0  0  # atno 7974 bound_to 7965
  154.5015  140.2156  155.9338 H   0  0  0  0  0  0  0  0  0  0  0  0  # atno 8008 bound_to 7997
  156.1439  140.3174  155.8507 H   0  0  0  0  0  0  0  0  0  0  0  0  # atno 8009 bound_to 7997
  155.4067  140.0488  157.3024 H   0  0  0  0  0  0  0  0  0  0  0  0  # atno 8010 bound_to 7997
  139.4901  144.5802  151.6886 H   0  0  0  0  0  0  0  0  0  0  0  0  # atno 10167 bound_to 10162
  156.2774  130.4213  149.8373 H   0  0  0  0  0  0  0  0  0  0  0  0  # atno 10718 bound_to 10713
  152.9818  135.5707  154.5085 H   0  0  0  0  0  0  0  0  0  0  0  0  # atno 10763 bound_to 10752
  154.4593  135.2781  155.1726 H   0  0  0  0  0  0  0  0  0  0  0  0  # atno 10764 bound_to 10752
  154.3321  135.6247  153.5610 H   0  0  0  0  0  0  0  0  0  0  0  0  # atno 10765 bound_to 10752
  140.4130  134.6674  157.4624 H   0  0  0  0  0  0  0  0  0  0  0  0  # atno 11005 bound_to 11000
  145.8168  139.2026  143.1961 LP  0  0  0  0  0  0  0  0  0  0  0  0  # atno 17320 bound_to 7965
  146.0549  140.8031  142.9763 LP  0  0  0  0  0  0  0  0  0  0  0  0  # atno 17321 bound_to 7965
  140.5407  144.0583  150.6087 LP  0  0  0  0  0  0  0  0  0  0  0  0  # atno 17342 bound_to 10162
  140.3605  143.2911  152.0389 LP  0  0  0  0  0  0  0  0  0  0  0  0  # atno 17343 bound_to 10162
  156.5833  130.8475  151.3388 LP  0  0  0  0  0  0  0  0  0  0  0  0  # atno 17370 bound_to 10713
  157.7303  130.9684  150.1829 LP  0  0  0  0  0  0  0  0  0  0  0  0  # atno 17371 bound_to 10713
  140.0254  134.6485  155.9181 LP  0  0  0  0  0  0  0  0  0  0  0  0  # atno 17394 bound_to 11000
  141.1814  133.6547  156.5034 LP  0  0  0  0  0  0  0  0  0  0  0  0  # atno 17395 bound_to 11000

$$$$
