AV-unprocessed.smi:72|AV-procd|sdf|714|dock4
  -GOLD-   2262017 33D 1   1.00000     0.00000
 Structure written by MMmdl.
 28 29  0  0  0  0  0  0  0  0  2 V2000
  154.3080  138.3703  154.3791 N   0  0  0  0  0  0  0  0  0  0  0  0
  153.0706  138.5636  154.5227 C   0  0  0  0  0  0  0  0  0  0  0  0
  152.1191  137.6375  153.9483 N   0  0  0  0  0  0  0  0  0  0  0  0
  150.8569  137.8864  154.1167 C   0  0  0  0  0  0  0  0  0  0  0  0
  150.3946  139.0546  154.8535 N   0  0  0  0  0  0  0  0  0  0  0  0
  148.9131  139.3221  155.0420 C   0  0  1  0  0  0  0  0  0  0  0  0
  148.3074  139.4289  153.7871 O   0  0  0  0  0  0  0  0  0  0  0  0
  147.0516  138.7583  153.8010 C   0  0  1  0  0  0  0  0  0  0  0  0
  146.6069  138.3806  152.3768 C   0  0  0  0  0  0  0  0  0  0  0  0
  146.9692  139.3978  151.4671 O   0  0  0  0  0  0  0  0  0  0  0  0
  147.2900  137.5793  154.7547 C   0  0  1  0  0  0  0  0  0  0  0  0
  147.9139  136.4975  154.0820 O   0  0  0  0  0  0  0  0  0  0  0  0
  148.1876  138.2020  155.8189 C   0  0  1  0  0  0  0  0  0  0  0  0
  149.0194  137.2572  156.4711 O   0  0  0  0  0  0  0  0  0  0  0  0
  151.3512  139.9371  155.4228 C   0  0  0  0  0  0  0  0  0  0  0  0
  150.9430  140.9014  156.0702 O   0  0  0  0  0  0  0  0  0  0  0  0
  152.6752  139.6725  155.2380 N   0  5  0  0  0  0  0  0  0  0  0  0
  148.8317  140.2935  155.5313 H   0  0  0  0  0  0  0  0  0  0  0  0
  146.3152  139.4205  154.2611 H   0  0  0  0  0  0  0  0  0  0  0  0
  146.3560  137.2144  155.1831 H   0  0  0  0  0  0  0  0  0  0  0  0
  147.5621  138.6862  156.5700 H   0  0  0  0  0  0  0  0  0  0  0  0
  154.5063  137.5376  153.8435 H   0  0  0  0  0  0  0  0  0  0  0  0
  150.0697  137.2417  153.7244 H   0  0  0  0  0  0  0  0  0  0  0  0
  147.0335  137.4258  152.0675 H   0  0  0  0  0  0  0  0  0  0  0  0
  145.5217  138.2813  152.3365 H   0  0  0  0  0  0  0  0  0  0  0  0
  147.8435  139.6894  151.6754 H   0  0  0  0  0  0  0  0  0  0  0  0
  148.1032  136.7691  153.1966 H   0  0  0  0  0  0  0  0  0  0  0  0
  149.4736  137.6970  157.1739 H   0  0  0  0  0  0  0  0  0  0  0  0
  1  2  2  0  0  0  0
  1 22  1  0  0  0  0
  2 17  1  0  0  0  0
  2  3  1  0  0  0  0
  3  4  2  0  0  0  0
  4  5  1  0  0  0  0
  4 23  1  0  0  0  0
  5  6  1  0  0  0  0
  5 15  1  0  0  0  0
  6 18  1  0  0  0  0
  6 13  1  0  0  0  0
  6  7  1  0  0  0  0
  7  8  1  0  0  0  0
  8 19  1  0  0  0  0
  8  9  1  0  0  0  0
  8 11  1  0  0  0  0
  9 10  1  0  0  0  0
  9 24  1  0  0  0  0
  9 25  1  0  0  0  0
 10 26  1  0  0  0  0
 11 20  1  0  0  0  0
 11 12  1  0  0  0  0
 11 13  1  0  0  0  0
 12 27  1  0  0  0  0
 13 21  1  0  0  0  0
 13 14  1  0  0  0  0
 14 28  1  0  0  0  0
 15 16  2  0  0  0  0
 15 17  1  0  0  0  0
M  CHG  1  17  -1
M  END
> <s_m_source_file>
AV-unprocessed.smi

> <i_m_source_file_index>
72

> <i_lp_mmshare_version>
43012

> <i_f3d_flags>
0

> <s_epik_input>
W05IMl1jMW5bY0hdbihjKD1PKW4xKVtDQEBIXTJPW0NASF0oW0NIMl1bT0hdKVtDQEBIXShbT0hdKVtDQEhdMltPSF0=

> <s_epik_cmdline>
J2VwaWtfcHl0aG9uJywgJy1waCcsICc3LjAnLCAnLXRuJywgJzgnLCAnLW1hJywgJzIwMCcsICctbWV0YWxfYmluZGluZycsICctaW1hZScsICc8aW5maWxlLm1hZT4nLCAnLW9tYWUnLCAnPG91dGZpbGUubWFlPic=

> <r_lp_tautomer_probability>
7.17554e-07

> <r_epik_Ionization_Penalty>
12.8705

> <r_epik_Ionization_Penalty_Charging>
5.64144

> <r_epik_Ionization_Penalty_Neutral>
7.22905

> <r_epik_State_Penalty>
3.30104

> <r_epik_Charging_Adjusted_Penalty>
8.94249

> <i_epik_Tot_Q>
-1

> <i_epik_Tot_abs_Q>
1

> <r_epik_Metal_State_Penalty>
0.529074

> <b_epik_Metal_Only>
1

> <s_epik_Chemistry_Notes>
This compound contains an acetal/aminal-like group ( X-CH(R)-Y where X, Y are N, S, or O) that may be acid/base labile, releasing an aldehyde.

> <s_lp_Force_Field>
OPLS_2005

> <r_lp_Energy>
43.693

> <b_lp_Chiralities_Consistent>
1

> <s_lp_Variant>
AV-unprocessed.smi:72-52

> <Gold.Version>
5.8.1

> <Gold.Id.Protein>
6NUR|6NUR_protein|mol2

> <Gold.PLP.Fitness>
42.4721

> <Gold.PLP.PLP>
-25.2945

> <Gold.PLP.part.hbond>
-7.5821

> <Gold.PLP.part.metal>
0.0000

> <Gold.PLP.part.buried>
-4.1915

> <Gold.PLP.part.nonpolar>
-16.8571

> <Gold.PLP.part.repulsive>
1.9050

> <Gold.PLP.ligand.clash>
0.0000

> <Gold.PLP.ligand.torsion>
0.2694

> <Gold.PLP.Chemscore.Hbond>
4.9060

> <Gold.PLP.Chemscore.CHOScore>
0.9982

> <Gold.PLP.Chemscore.Metal>
0.0000

> <Gold.Chemscore.Hbonds>
donor molecule, donor type, donor heavy atom, donor atom, acceptor molecule, acceptor atom, score
      L1  H    10    26       P1  7957  0.98
      L1  H    12    27       P1  7948  0.78
      P1  H  7997  8010       L1    17  1.90
      P1  H 10752 10765       L1     3  0.55
      L1  C     4    23       P1  7948  1.00
      L1  C     4    23       P1  7949  0.03

> <Gold.PLP.Chemscore.Internal.Correction>
0.0037

> <Gold.Rescore>
     Score         DG    S(hbond)    S(metal)    S(lipo)     H(rot)  DE(clash)    DE(int)     intcor
      6.33      -7.21       3.16        0.00      13.05       4.04       0.56       0.32       ----

> <Gold.Chemscore.Fitness>
6.3328

> <Gold.Chemscore.DG>
-7.2083

> <Gold.Chemscore.ZeroCoef>
-5.4800

> <Gold.Chemscore.Hbond>
3.1570

> <Gold.Chemscore.Metal>
0.0000

> <Gold.Chemscore.Lipo>
13.0507

> <Gold.Chemscore.Internal_Hbond>
0.0000

> <Gold.Chemscore.DEClash>
0.5597

> <Gold.Chemscore.DEInternal>
0.3158

> <Gold.Chemscore.Rot>
4.0403

> <Gold.Chemscore.Internal.Correction>
   9.000000E+99

> <Gold.Chemscore.Hbonds>
donor molecule, donor type, donor heavy atom, donor atom, acceptor molecule, acceptor atom, score
      L1  H    10    26       P1  7957  0.93
      L1  H    12    27       P1  7948  0.78
      P1  H  7997  8010       L1    17  0.21
      P1  H 10752 10765       L1     3  0.27

> <Gold.Chemscore.Hbond.Weighted>
-10.5445

> <Gold.Chemscore.Metal.Weighted>
-0.0000

> <Gold.Chemscore.Lipo.Weighted>
-1.5269

> <Gold.Chemscore.Internal_Hbond.Weighted>
0.0000

> <Gold.Chemscore.DEClash.Weighted>
0.5597

> <Gold.Chemscore.DEInternal.Weighted>
0.3158

> <Gold.Chemscore.Rot.Weighted>
10.3431

> <Gold.Chemscore.Internal.Correction.Weighted>
   9.000000E+99

> <Gold.Protein.RotatedTorsions>
[ 6907 6896 6895 6894 ] final  120.47 input  -60.11 | X-H torsion
[ 7974 7965 7964 7962 ] final  128.78 input  175.53 | X-H torsion
[ 8008 7997 7996 7995 ] final   95.64 input   59.86 | X-H torsion
[ 10167 10162 10161 10158 ] final  125.35 input  -65.29 | X-H torsion
[ 10718 10713 10712 10709 ] final  101.70 input   66.30 | X-H torsion
[ 10763 10752 10751 10750 ] final  162.37 input  -60.55 | X-H torsion
[ 11005 11000 10999 10996 ] final   49.41 input  -57.11 | X-H torsion

> <Gold.Protein.ActiveResidues>
 VAL166  LYS551  ARG553  GLY616  TRP617  ASP618  TYR619  PRO620  LYS621  CYS622 
 ASP623  PHE694  ASN695  SER759  ASP760  ASP761  ALA762  ILE779  LEU786  VAL792 
 PHE793  MET794  SER795  GLU796  ALA797  LYS798  CYS799  TRP800  GLU811  SER814 

> <Gold.Protein.RotatedAtoms>
  152.4396  133.7423  159.6647 H   0  0  0  0  0  0  0  0  0  0  0  0  # atno 6907 bound_to 6896
  150.8284  133.8122  159.3115 H   0  0  0  0  0  0  0  0  0  0  0  0  # atno 6908 bound_to 6896
  151.5783  135.1062  160.0063 H   0  0  0  0  0  0  0  0  0  0  0  0  # atno 6909 bound_to 6896
  145.0358  139.4006  143.5127 H   0  0  0  0  0  0  0  0  0  0  0  0  # atno 7974 bound_to 7965
  156.0711  140.3283  155.7576 H   0  0  0  0  0  0  0  0  0  0  0  0  # atno 8008 bound_to 7997
  155.5304  140.0593  157.2907 H   0  0  0  0  0  0  0  0  0  0  0  0  # atno 8009 bound_to 7997
  154.4530  140.1928  156.0479 H   0  0  0  0  0  0  0  0  0  0  0  0  # atno 8010 bound_to 7997
  139.5691  144.6928  151.3829 H   0  0  0  0  0  0  0  0  0  0  0  0  # atno 10167 bound_to 10162
  157.6822  131.0733  150.5292 H   0  0  0  0  0  0  0  0  0  0  0  0  # atno 10718 bound_to 10713
  154.2773  135.2764  155.2712 H   0  0  0  0  0  0  0  0  0  0  0  0  # atno 10763 bound_to 10752
  154.5249  135.5746  153.6714 H   0  0  0  0  0  0  0  0  0  0  0  0  # atno 10764 bound_to 10752
  152.9935  135.6213  154.2931 H   0  0  0  0  0  0  0  0  0  0  0  0  # atno 10765 bound_to 10752
  140.1105  134.4961  155.8682 H   0  0  0  0  0  0  0  0  0  0  0  0  # atno 11005 bound_to 11000
  146.3504  139.9933  142.8683 LP  0  0  0  0  0  0  0  0  0  0  0  0  # atno 17320 bound_to 7965
  145.1711  140.9721  143.4321 LP  0  0  0  0  0  0  0  0  0  0  0  0  # atno 17321 bound_to 7965
  140.6975  143.7714  150.7349 LP  0  0  0  0  0  0  0  0  0  0  0  0  # atno 17342 bound_to 10162
  140.1214  143.4608  152.2310 LP  0  0  0  0  0  0  0  0  0  0  0  0  # atno 17343 bound_to 10162
  156.5602  130.4253  149.6066 LP  0  0  0  0  0  0  0  0  0  0  0  0  # atno 17370 bound_to 10713
  156.2827  130.7080  151.1908 LP  0  0  0  0  0  0  0  0  0  0  0  0  # atno 17371 bound_to 10713
  141.2129  133.6726  156.6696 LP  0  0  0  0  0  0  0  0  0  0  0  0  # atno 17394 bound_to 11000
  140.3097  134.8096  157.4166 LP  0  0  0  0  0  0  0  0  0  0  0  0  # atno 17395 bound_to 11000

$$$$
