AV-unprocessed.smi:2039|AV-procd|sdf|8282|dock4
  -GOLD-   2272010553D 1   1.00000     0.00000
 Structure written by MMmdl.
 33 34  0  0  0  0  0  0  0  0  1 V2000
  152.1805  136.0296  157.6574 C   0  0  0  0  0  0  0  0  0  0  0  0
  151.1224  135.4535  156.7797 C   0  0  0  0  0  0  0  0  0  0  0  0
  150.4260  134.3573  157.1048 N   0  0  0  0  0  0  0  0  0  0  0  0
  149.4981  134.0152  156.1309 N   0  0  0  0  0  0  0  0  0  0  0  0
  149.5224  134.8670  155.0965 C   0  0  0  0  0  0  0  0  0  0  0  0
  148.6780  134.7534  153.9605 N   0  0  0  0  0  0  0  0  0  0  0  0
  147.6999  133.8586  153.7348 C   0  0  0  0  0  0  0  0  0  0  0  0
  147.3659  132.9587  154.5061 O   0  0  0  0  0  0  0  0  0  0  0  0
  147.1170  134.0674  152.5452 N   0  0  0  0  0  0  0  0  0  0  0  0
  146.0227  133.2750  151.9918 C   0  0  2  0  0  0  0  0  0  0  0  0
  146.3947  132.8006  150.5742 C   0  0  0  0  0  0  0  0  0  0  0  0
  145.2471  132.0088  149.9269 C   0  0  0  0  0  0  0  0  0  0  0  0
  143.9501  132.8353  149.9038 C   0  0  1  0  0  0  0  0  0  0  0  0
  142.9030  132.0566  149.3647 O   0  0  0  0  0  0  0  0  0  0  0  0
  143.5674  133.3036  151.3181 C   0  0  0  0  0  0  0  0  0  0  0  0
  144.7140  134.0928  151.9707 C   0  0  0  0  0  0  0  0  0  0  0  0
  150.6928  136.1686  155.2307 S   0  0  0  0  0  0  0  0  0  0  0  0
  152.3349  135.4036  158.5369 H   0  0  0  0  0  0  0  0  0  0  0  0
  151.8894  137.0275  157.9854 H   0  0  0  0  0  0  0  0  0  0  0  0
  153.1207  136.1005  157.1103 H   0  0  0  0  0  0  0  0  0  0  0  0
  148.8371  135.4356  153.2340 H   0  0  0  0  0  0  0  0  0  0  0  0
  147.4556  134.8303  151.9774 H   0  0  0  0  0  0  0  0  0  0  0  0
  145.8754  132.3907  152.6152 H   0  0  0  0  0  0  0  0  0  0  0  0
  146.6368  133.6603  149.9473 H   0  0  0  0  0  0  0  0  0  0  0  0
  147.2921  132.1817  150.6098 H   0  0  0  0  0  0  0  0  0  0  0  0
  145.5253  131.7182  148.9131 H   0  0  0  0  0  0  0  0  0  0  0  0
  145.0884  131.0832  150.4826 H   0  0  0  0  0  0  0  0  0  0  0  0
  144.0868  133.7048  149.2593 H   0  0  0  0  0  0  0  0  0  0  0  0
  142.1329  132.5992  149.2896 H   0  0  0  0  0  0  0  0  0  0  0  0
  142.6700  133.9223  151.2789 H   0  0  0  0  0  0  0  0  0  0  0  0
  143.3229  132.4421  151.9414 H   0  0  0  0  0  0  0  0  0  0  0  0
  144.4292  134.3751  152.9849 H   0  0  0  0  0  0  0  0  0  0  0  0
  144.8687  135.0237  151.4231 H   0  0  0  0  0  0  0  0  0  0  0  0
  1  2  1  0  0  0  0
  1 18  1  0  0  0  0
  1 19  1  0  0  0  0
  1 20  1  0  0  0  0
  2 17  1  0  0  0  0
  2  3  2  0  0  0  0
  3  4  1  0  0  0  0
  4  5  2  0  0  0  0
  5  6  1  0  0  0  0
  5 17  1  0  0  0  0
  6  7  1  0  0  0  0
  6 21  1  0  0  0  0
  7  8  2  0  0  0  0
  7  9  1  0  0  0  0
  9 10  1  0  0  0  0
  9 22  1  0  0  0  0
 10 16  1  0  0  0  0
 10 11  1  0  0  0  0
 10 23  1  0  0  0  0
 11 12  1  0  0  0  0
 11 24  1  0  0  0  0
 11 25  1  0  0  0  0
 12 13  1  0  0  0  0
 12 26  1  0  0  0  0
 12 27  1  0  0  0  0
 13 14  1  0  0  0  0
 13 15  1  0  0  0  0
 13 28  1  0  0  0  0
 14 29  1  0  0  0  0
 15 16  1  0  0  0  0
 15 30  1  0  0  0  0
 15 31  1  0  0  0  0
 16 32  1  0  0  0  0
 16 33  1  0  0  0  0
M  END
> <s_m_source_file>
AV-unprocessed.smi

> <i_m_source_file_index>
2039

> <i_lp_mmshare_version>
43012

> <i_f3d_flags>
0

> <s_epik_input>
W0NIM11jMW5uYyhzMSlbTkhdQyg9TylbTkhdW0NAQEhdMltDSDJdW0NIMl1bQ0BASF0oW09IXSlbQ0gyXVtDSDJdMg==

> <s_epik_cmdline>
J2VwaWtfcHl0aG9uJywgJy1waCcsICc3LjAnLCAnLXRuJywgJzgnLCAnLW1hJywgJzIwMCcsICctbWV0YWxfYmluZGluZycsICctaW1hZScsICc8aW5maWxlLm1hZT4nLCAnLW9tYWUnLCAnPG91dGZpbGUubWFlPic=

> <r_lp_tautomer_probability>
1

> <r_epik_Ionization_Penalty>
0.000385244

> <r_epik_Ionization_Penalty_Charging>
0

> <r_epik_Ionization_Penalty_Neutral>
0.000385244

> <r_epik_State_Penalty>
-0

> <r_epik_Charging_Adjusted_Penalty>
0

> <i_epik_Tot_Q>
0

> <i_epik_Tot_abs_Q>
0

> <r_epik_Metal_State_Penalty>
0.189642

> <b_epik_Metal_Only>
0

> <s_lp_Force_Field>
OPLS_2005

> <r_lp_Energy>
6.55666

> <b_lp_Chiralities_Consistent>
1

> <s_lp_Variant>
AV-unprocessed.smi:2039-1

> <Gold.Version>
5.8.1

> <Gold.Id.Protein>
6NUR|6NUR_protein|mol2

> <Gold.PLP.Fitness>
37.8336

> <Gold.PLP.PLP>
-26.2692

> <Gold.PLP.part.hbond>
-6.0000

> <Gold.PLP.part.metal>
0.0000

> <Gold.PLP.part.buried>
-2.2844

> <Gold.PLP.part.nonpolar>
-19.9837

> <Gold.PLP.part.repulsive>
0.0460

> <Gold.PLP.ligand.clash>
0.0000

> <Gold.PLP.ligand.torsion>
0.0789

> <Gold.PLP.Chemscore.Hbond>
3.9063

> <Gold.PLP.Chemscore.CHOScore>
0.0000

> <Gold.PLP.Chemscore.Metal>
0.0000

> <Gold.Chemscore.Hbonds>
donor molecule, donor type, donor heavy atom, donor atom, acceptor molecule, acceptor atom, score
      L1  H     6    21       P1  7948  1.00
      L1  H     9    22       P1  7948  0.86
      L1  H    14    29       P1 10186  0.71
      P1  H  6896  6907       L1     3  0.32
      P1  H 10785 10796       L1    14  0.99

> <Gold.PLP.Chemscore.Internal.Correction>
0.0033

> <Gold.Rescore>
     Score         DG    S(hbond)    S(metal)    S(lipo)     H(rot)  DE(clash)    DE(int)     intcor
     18.88     -20.32       3.70        0.00      54.11       1.50       0.08       1.36       ----

> <Gold.Chemscore.Fitness>
18.8801

> <Gold.Chemscore.DG>
-20.3236

> <Gold.Chemscore.ZeroCoef>
-5.4800

> <Gold.Chemscore.Hbond>
3.6988

> <Gold.Chemscore.Metal>
0.0000

> <Gold.Chemscore.Lipo>
54.1071

> <Gold.Chemscore.Internal_Hbond>
0.0000

> <Gold.Chemscore.DEClash>
0.0811

> <Gold.Chemscore.DEInternal>
1.3624

> <Gold.Chemscore.Rot>
1.5004

> <Gold.Chemscore.Internal.Correction>
   9.000000E+99

> <Gold.Chemscore.Hbonds>
donor molecule, donor type, donor heavy atom, donor atom, acceptor molecule, acceptor atom, score
      L1  H     6    21       P1  7948  0.75
      L1  H     9    22       P1  7948  0.66
      L1  H    14    29       P1 10186  0.69
      P1  H  6896  6907       L1     3  0.22
      P1  H 10785 10796       L1    14  0.91

> <Gold.Chemscore.Hbond.Weighted>
-12.3539

> <Gold.Chemscore.Metal.Weighted>
-0.0000

> <Gold.Chemscore.Lipo.Weighted>
-6.3305

> <Gold.Chemscore.Internal_Hbond.Weighted>
0.0000

> <Gold.Chemscore.DEClash.Weighted>
0.0811

> <Gold.Chemscore.DEInternal.Weighted>
1.3624

> <Gold.Chemscore.Rot.Weighted>
3.8409

> <Gold.Chemscore.Internal.Correction.Weighted>
   9.000000E+99

> <Gold.Protein.RotatedTorsions>
[ 6907 6896 6895 6894 ] final -118.22 input  -60.11 | X-H torsion
[ 7974 7965 7964 7962 ] final  -41.92 input  175.53 | X-H torsion
[ 8008 7997 7996 7995 ] final   83.25 input   59.86 | X-H torsion
[ 10167 10162 10161 10158 ] final   33.62 input  -65.29 | X-H torsion
[ 10718 10713 10712 10709 ] final -121.07 input   66.30 | X-H torsion
[ 10763 10752 10751 10750 ] final  141.80 input  -60.55 | X-H torsion
[ 11005 11000 10999 10996 ] final  139.69 input  -57.11 | X-H torsion

> <Gold.Protein.ActiveResidues>
 VAL166  LYS551  ARG553  GLY616  TRP617  ASP618  TYR619  PRO620  LYS621  CYS622 
 ASP623  PHE694  ASN695  SER759  ASP760  ASP761  ALA762  ILE779  LEU786  VAL792 
 PHE793  MET794  SER795  GLU796  ALA797  LYS798  CYS799  TRP800  GLU811  SER814 

> <Gold.Protein.RotatedAtoms>
  150.8202  133.8267  159.3142 H   0  0  0  0  0  0  0  0  0  0  0  0  # atno 6907 bound_to 6896
  151.6027  135.1044  160.0073 H   0  0  0  0  0  0  0  0  0  0  0  0  # atno 6908 bound_to 6896
  152.4291  133.7206  159.6587 H   0  0  0  0  0  0  0  0  0  0  0  0  # atno 6909 bound_to 6896
  146.0165  140.6902  142.9199 H   0  0  0  0  0  0  0  0  0  0  0  0  # atno 7974 bound_to 7965
  155.9215  140.3421  155.6176 H   0  0  0  0  0  0  0  0  0  0  0  0  # atno 8008 bound_to 7997
  155.7268  140.0790  157.2325 H   0  0  0  0  0  0  0  0  0  0  0  0  # atno 8009 bound_to 7997
  154.4070  140.1595  156.2451 H   0  0  0  0  0  0  0  0  0  0  0  0  # atno 8010 bound_to 7997
  140.4391  144.1214  150.6171 H   0  0  0  0  0  0  0  0  0  0  0  0  # atno 10167 bound_to 10162
  156.1308  130.6394  150.9618 H   0  0  0  0  0  0  0  0  0  0  0  0  # atno 10718 bound_to 10713
  153.9453  135.2975  155.3441 H   0  0  0  0  0  0  0  0  0  0  0  0  # atno 10763 bound_to 10752
  154.7455  135.5005  153.9200 H   0  0  0  0  0  0  0  0  0  0  0  0  # atno 10764 bound_to 10752
  153.1021  135.6737  153.9760 H   0  0  0  0  0  0  0  0  0  0  0  0  # atno 10765 bound_to 10752
  140.0273  134.9369  157.0593 H   0  0  0  0  0  0  0  0  0  0  0  0  # atno 11005 bound_to 11000
  144.6973  140.3490  143.7185 LP  0  0  0  0  0  0  0  0  0  0  0  0  # atno 17320 bound_to 7965
  145.7261  139.1723  143.2457 LP  0  0  0  0  0  0  0  0  0  0  0  0  # atno 17321 bound_to 7965
  140.4339  143.2556  151.9560 LP  0  0  0  0  0  0  0  0  0  0  0  0  # atno 17342 bound_to 10162
  139.4788  144.5718  151.8076 LP  0  0  0  0  0  0  0  0  0  0  0  0  # atno 17343 bound_to 10162
  157.6486  131.0900  150.8100 LP  0  0  0  0  0  0  0  0  0  0  0  0  # atno 17370 bound_to 10713
  156.8185  130.4976  149.5346 LP  0  0  0  0  0  0  0  0  0  0  0  0  # atno 17371 bound_to 10713
  140.4285  134.1806  155.7167 LP  0  0  0  0  0  0  0  0  0  0  0  0  # atno 17394 bound_to 11000
  141.1810  133.8413  157.1257 LP  0  0  0  0  0  0  0  0  0  0  0  0  # atno 17395 bound_to 11000

$$$$
