AV-unprocessed.smi:1833|AV-procd|sdf|7465|dock2
  -GOLD-   22720 9153D 1   1.00000     0.00000
 Structure written by MMmdl.
 42 43  0  0  0  0  0  0  0  0  2 V2000
  148.6460  133.5354  154.0814 C   0  0  0  0  0  0  0  0  0  0  0  0
  147.4273  134.4272  154.3604 C   0  0  0  0  0  0  0  0  0  0  0  0
  146.8679  135.0324  153.1255 N   0  3  1  0  0  0  0  0  0  0  0  0
  146.5187  134.0068  152.1078 C   0  0  0  0  0  0  0  0  0  0  0  0
  146.0737  134.6593  150.7882 C   0  0  0  0  0  0  0  0  0  0  0  0
  144.9015  135.6223  151.0162 C   0  0  0  0  0  0  0  0  0  0  0  0
  145.2737  136.6542  152.0925 C   0  0  1  0  0  0  0  0  0  0  0  0
  144.1347  137.5244  152.3726 N   0  0  0  0  0  0  0  0  0  0  0  0
  142.9273  137.1181  152.7903 C   0  0  0  0  0  0  0  0  0  0  0  0
  142.6234  135.9425  152.9920 O   0  0  0  0  0  0  0  0  0  0  0  0
  142.0880  138.1492  152.9599 N   0  0  0  0  0  0  0  0  0  0  0  0
  140.6991  138.0327  153.3888 C   0  0  0  0  0  0  0  0  0  0  0  0
  140.5591  137.1376  154.6305 C   0  0  0  0  0  0  0  0  0  0  0  0
  139.1675  137.1258  155.1676 C   0  0  0  0  0  0  0  0  0  0  0  0
  138.8536  136.6914  156.3913 N   0  0  0  0  0  0  0  0  0  0  0  0
  137.4807  136.7502  156.6434 C   0  0  0  0  0  0  0  0  0  0  0  0
  136.7494  137.2242  155.5840 C   0  0  0  0  0  0  0  0  0  0  0  0
  137.7647  137.6165  154.2233 S   0  0  0  0  0  0  0  0  0  0  0  0
  145.7271  135.9511  153.3856 C   0  0  0  0  0  0  0  0  0  0  0  0
  148.9678  133.0323  154.9935 H   0  0  0  0  0  0  0  0  0  0  0  0
  149.4978  134.1060  153.7129 H   0  0  0  0  0  0  0  0  0  0  0  0
  148.4114  132.7651  153.3462 H   0  0  0  0  0  0  0  0  0  0  0  0
  146.6647  133.8052  154.8311 H   0  0  0  0  0  0  0  0  0  0  0  0
  147.6770  135.2072  155.0810 H   0  0  0  0  0  0  0  0  0  0  0  0
  147.3816  133.3680  151.9155 H   0  0  0  0  0  0  0  0  0  0  0  0
  145.7276  133.3627  152.4951 H   0  0  0  0  0  0  0  0  0  0  0  0
  146.9116  135.2009  150.3468 H   0  0  0  0  0  0  0  0  0  0  0  0
  145.7896  133.8909  150.0686 H   0  0  0  0  0  0  0  0  0  0  0  0
  144.6422  136.1231  150.0825 H   0  0  0  0  0  0  0  0  0  0  0  0
  144.0198  135.0587  151.3252 H   0  0  0  0  0  0  0  0  0  0  0  0
  146.1146  137.2449  151.7237 H   0  0  0  0  0  0  0  0  0  0  0  0
  144.2775  138.5154  152.2410 H   0  0  0  0  0  0  0  0  0  0  0  0
  142.4289  139.0806  152.7716 H   0  0  0  0  0  0  0  0  0  0  0  0
  140.3310  139.0346  153.6111 H   0  0  0  0  0  0  0  0  0  0  0  0
  140.0858  137.6509  152.5703 H   0  0  0  0  0  0  0  0  0  0  0  0
  140.8497  136.1124  154.3965 H   0  0  0  0  0  0  0  0  0  0  0  0
  141.2311  137.4800  155.4181 H   0  0  0  0  0  0  0  0  0  0  0  0
  137.1089  136.4309  157.6058 H   0  0  0  0  0  0  0  0  0  0  0  0
  135.6804  137.3632  155.5210 H   0  0  0  0  0  0  0  0  0  0  0  0
  144.9009  135.3886  153.8240 H   0  0  0  0  0  0  0  0  0  0  0  0
  146.0147  136.7085  154.1143 H   0  0  0  0  0  0  0  0  0  0  0  0
  147.6070  135.5893  152.7206 H   0  0  0  0  0  0  0  0  0  0  0  0
  1  2  1  0  0  0  0
  1 20  1  0  0  0  0
  1 21  1  0  0  0  0
  1 22  1  0  0  0  0
  2  3  1  0  0  0  0
  2 23  1  0  0  0  0
  2 24  1  0  0  0  0
  3 19  1  0  0  0  0
  3  4  1  0  0  0  0
  3 42  1  0  0  0  0
  4  5  1  0  0  0  0
  4 25  1  0  0  0  0
  4 26  1  0  0  0  0
  5  6  1  0  0  0  0
  5 27  1  0  0  0  0
  5 28  1  0  0  0  0
  6  7  1  0  0  0  0
  6 29  1  0  0  0  0
  6 30  1  0  0  0  0
  7  8  1  0  0  0  0
  7 19  1  0  0  0  0
  7 31  1  0  0  0  0
  8  9  1  0  0  0  0
  8 32  1  0  0  0  0
  9 10  2  0  0  0  0
  9 11  1  0  0  0  0
 11 12  1  0  0  0  0
 11 33  1  0  0  0  0
 12 13  1  0  0  0  0
 12 34  1  0  0  0  0
 12 35  1  0  0  0  0
 13 14  1  0  0  0  0
 13 36  1  0  0  0  0
 13 37  1  0  0  0  0
 14 18  1  0  0  0  0
 14 15  2  0  0  0  0
 15 16  1  0  0  0  0
 16 17  2  0  0  0  0
 16 38  1  0  0  0  0
 17 18  1  0  0  0  0
 17 39  1  0  0  0  0
 19 40  1  0  0  0  0
 19 41  1  0  0  0  0
M  CHG  1   3   1
M  END
> <s_m_source_file>
AV-unprocessed.smi

> <i_m_source_file_index>
1833

> <i_lp_mmshare_version>
43012

> <i_f3d_flags>
0

> <s_epik_input>
W0NIM11bQ0gyXU4xW0NIMl1bQ0gyXVtDSDJdW0NASF0oW0NIMl0xKVtOSF1DKD1PKVtOSF1bQ0gyXVtDSDJdYzJuW2NIXVtjSF1zMg==

> <s_epik_cmdline>
J2VwaWtfcHl0aG9uJywgJy1waCcsICc3LjAnLCAnLXRuJywgJzgnLCAnLW1hJywgJzIwMCcsICctbWV0YWxfYmluZGluZycsICctaW1hZScsICc8aW5maWxlLm1hZT4nLCAnLW9tYWUnLCAnPG91dGZpbGUubWFlPic=

> <r_lp_tautomer_probability>
1

> <r_epik_Ionization_Penalty>
0.00269629

> <r_epik_Ionization_Penalty_Charging>
0.00233899

> <r_epik_Ionization_Penalty_Neutral>
0.000357304

> <r_epik_State_Penalty>
-0

> <r_epik_Charging_Adjusted_Penalty>
0.00233899

> <i_epik_Tot_Q>
1

> <i_epik_Tot_abs_Q>
1

> <r_epik_Metal_State_Penalty>
-0

> <b_epik_Metal_Only>
0

> <s_lp_Force_Field>
OPLS_2005

> <r_lp_Energy>
7.28856

> <b_lp_Chiralities_Consistent>
1

> <s_lp_Variant>
AV-unprocessed.smi:1833-1

> <Gold.Version>
5.8.1

> <Gold.Id.Protein>
6NUR|6NUR_protein|mol2

> <Gold.PLP.Fitness>
47.2068

> <Gold.PLP.PLP>
-32.7925

> <Gold.PLP.part.hbond>
-5.0000

> <Gold.PLP.part.metal>
0.0000

> <Gold.PLP.part.buried>
-5.4515

> <Gold.PLP.part.nonpolar>
-23.1035

> <Gold.PLP.part.repulsive>
0.3018

> <Gold.PLP.ligand.clash>
0.0000

> <Gold.PLP.ligand.torsion>
0.3218

> <Gold.PLP.Chemscore.Hbond>
5.0000

> <Gold.PLP.Chemscore.CHOScore>
0.0000

> <Gold.PLP.Chemscore.Metal>
0.0000

> <Gold.Chemscore.Hbonds>
donor molecule, donor type, donor heavy atom, donor atom, acceptor molecule, acceptor atom, score
      L1  H     3    42       P1  7948  2.00
      L1  H     8    32       P1 10175  1.00
      L1  H    11    33       P1 10175  1.00
      P1  H 11000 11005       L1    15  1.00

> <Gold.PLP.Chemscore.Internal.Correction>
0.0579

> <Gold.Rescore>
     Score         DG    S(hbond)    S(metal)    S(lipo)     H(rot)  DE(clash)    DE(int)     intcor
     19.15     -21.77       3.80        0.00      68.24       1.71       0.08       2.53       ----

> <Gold.Chemscore.Fitness>
19.1537

> <Gold.Chemscore.DG>
-21.7684

> <Gold.Chemscore.ZeroCoef>
-5.4800

> <Gold.Chemscore.Hbond>
3.8004

> <Gold.Chemscore.Metal>
0.0000

> <Gold.Chemscore.Lipo>
68.2449

> <Gold.Chemscore.Internal_Hbond>
0.0000

> <Gold.Chemscore.DEClash>
0.0839

> <Gold.Chemscore.DEInternal>
2.5307

> <Gold.Chemscore.Rot>
1.7147

> <Gold.Chemscore.Internal.Correction>
   9.000000E+99

> <Gold.Chemscore.Hbonds>
donor molecule, donor type, donor heavy atom, donor atom, acceptor molecule, acceptor atom, score
      L1  H     3    42       P1  7948  1.00
      L1  H     8    32       P1 10175  0.89
      L1  H    11    33       P1 10175  0.98
      P1  H 11000 11005       L1    15  0.24

> <Gold.Chemscore.Hbond.Weighted>
-12.6933

> <Gold.Chemscore.Metal.Weighted>
-0.0000

> <Gold.Chemscore.Lipo.Weighted>
-7.9846

> <Gold.Chemscore.Internal_Hbond.Weighted>
0.0000

> <Gold.Chemscore.DEClash.Weighted>
0.0839

> <Gold.Chemscore.DEInternal.Weighted>
2.5307

> <Gold.Chemscore.Rot.Weighted>
4.3896

> <Gold.Chemscore.Internal.Correction.Weighted>
   9.000000E+99

> <Gold.Protein.RotatedTorsions>
[ 6907 6896 6895 6894 ] final   77.88 input  -60.11 | X-H torsion
[ 7974 7965 7964 7962 ] final  -31.21 input  175.53 | X-H torsion
[ 8008 7997 7996 7995 ] final  128.21 input   59.86 | X-H torsion
[ 10167 10162 10161 10158 ] final  134.55 input  -65.29 | X-H torsion
[ 10718 10713 10712 10709 ] final  175.26 input   66.30 | X-H torsion
[ 10763 10752 10751 10750 ] final   40.83 input  -60.55 | X-H torsion
[ 11005 11000 10999 10996 ] final   96.75 input  -57.11 | X-H torsion

> <Gold.Protein.ActiveResidues>
 VAL166  LYS551  ARG553  GLY616  TRP617  ASP618  TYR619  PRO620  LYS621  CYS622 
 ASP623  PHE694  ASN695  SER759  ASP760  ASP761  ALA762  ILE779  LEU786  VAL792 
 PHE793  MET794  SER795  GLU796  ALA797  LYS798  CYS799  TRP800  GLU811  SER814 

> <Gold.Protein.RotatedAtoms>
  152.5136  134.3749  159.9330 H   0  0  0  0  0  0  0  0  0  0  0  0  # atno 6907 bound_to 6896
  151.3705  133.3850  159.2707 H   0  0  0  0  0  0  0  0  0  0  0  0  # atno 6908 bound_to 6896
  150.9582  134.8993  159.7772 H   0  0  0  0  0  0  0  0  0  0  0  0  # atno 6909 bound_to 6896
  146.1085  140.5638  142.8789 H   0  0  0  0  0  0  0  0  0  0  0  0  # atno 7974 bound_to 7965
  156.2909  140.2650  156.2399 H   0  0  0  0  0  0  0  0  0  0  0  0  # atno 8008 bound_to 7997
  154.9988  140.0388  157.2369 H   0  0  0  0  0  0  0  0  0  0  0  0  # atno 8009 bound_to 7997
  154.7620  140.2762  155.6211 H   0  0  0  0  0  0  0  0  0  0  0  0  # atno 8010 bound_to 7997
  139.5252  144.6561  151.5156 H   0  0  0  0  0  0  0  0  0  0  0  0  # atno 10167 bound_to 10162
  156.9374  130.9990  151.2975 H   0  0  0  0  0  0  0  0  0  0  0  0  # atno 10718 bound_to 10713
  152.9925  135.6180  154.2690 H   0  0  0  0  0  0  0  0  0  0  0  0  # atno 10763 bound_to 10752
  154.2423  135.2788  155.2850 H   0  0  0  0  0  0  0  0  0  0  0  0  # atno 10764 bound_to 10752
  154.5358  135.5775  153.6855 H   0  0  0  0  0  0  0  0  0  0  0  0  # atno 10765 bound_to 10752
  139.8779  134.8966  156.4204 H   0  0  0  0  0  0  0  0  0  0  0  0  # atno 11005 bound_to 11000
  144.7491  140.5145  143.6814 LP  0  0  0  0  0  0  0  0  0  0  0  0  # atno 17320 bound_to 7965
  145.5712  139.1483  143.3287 LP  0  0  0  0  0  0  0  0  0  0  0  0  # atno 17321 bound_to 7965
  140.6388  143.8931  150.6672 LP  0  0  0  0  0  0  0  0  0  0  0  0  # atno 17342 bound_to 10162
  140.2258  143.3773  152.1606 LP  0  0  0  0  0  0  0  0  0  0  0  0  # atno 17343 bound_to 10162
  157.5807  130.8374  149.8518 LP  0  0  0  0  0  0  0  0  0  0  0  0  # atno 17370 bound_to 10713
  156.0419  130.3737  150.1413 LP  0  0  0  0  0  0  0  0  0  0  0  0  # atno 17371 bound_to 10713
  140.9137  133.7693  155.9823 LP  0  0  0  0  0  0  0  0  0  0  0  0  # atno 17394 bound_to 11000
  140.8517  134.2946  157.5272 LP  0  0  0  0  0  0  0  0  0  0  0  0  # atno 17395 bound_to 11000

$$$$
