AV-unprocessed.smi:971|AV-procd|sdf|4295|dock5
  -GOLD-   22720 2203D 1   1.00000     0.00000
 Structure written by MMmdl.
 34 35  0  0  0  0  0  0  0  0  1 V2000
  153.6822  141.5436  161.6173 C   0  0  0  0  0  0  0  0  0  0  0  0
  153.0974  142.8913  161.1812 C   0  0  0  0  0  0  0  0  0  0  0  0
  152.3865  142.8022  159.8629 C   0  0  0  0  0  0  0  0  0  0  0  0
  152.1360  141.5454  159.3038 N   0  0  0  0  0  0  0  0  0  0  0  0
  151.4846  141.6178  158.1415 C   0  0  0  0  0  0  0  0  0  0  0  0
  151.1238  140.4234  157.3242 C   0  0  0  0  0  0  0  0  0  0  0  0
  150.7237  140.7939  155.8870 C   0  0  0  0  0  0  0  0  0  0  0  0
  149.2773  140.9163  155.7457 N   0  0  0  0  0  0  0  0  0  0  0  0
  148.6304  141.1358  154.5908 C   0  0  0  0  0  0  0  0  0  0  0  0
  149.2094  141.2607  153.5107 O   0  0  0  0  0  0  0  0  0  0  0  0
  147.1453  141.2106  154.7323 C   0  0  0  0  0  0  0  0  0  0  0  0
  146.4507  142.4461  154.1964 C   0  0  0  0  0  0  0  0  0  0  0  0
  146.5799  142.2444  155.6852 C   0  0  0  0  0  0  0  0  0  0  0  0
  151.1533  143.2689  157.6376 S   0  0  0  0  0  0  0  0  0  0  0  0
  151.9182  143.8446  159.0969 C   0  0  0  0  0  0  0  0  0  0  0  0
  152.0061  145.3061  159.3880 C   0  0  0  0  0  0  0  0  0  0  0  0
  154.1920  141.6331  162.5766 H   0  0  0  0  0  0  0  0  0  0  0  0
  154.4050  141.1730  160.8897 H   0  0  0  0  0  0  0  0  0  0  0  0
  152.8988  140.7927  161.7244 H   0  0  0  0  0  0  0  0  0  0  0  0
  152.4201  143.2550  161.9542 H   0  0  0  0  0  0  0  0  0  0  0  0
  153.9000  143.6274  161.1224 H   0  0  0  0  0  0  0  0  0  0  0  0
  151.9723  139.7378  157.3193 H   0  0  0  0  0  0  0  0  0  0  0  0
  150.3039  139.9008  157.8182 H   0  0  0  0  0  0  0  0  0  0  0  0
  151.1717  141.7491  155.6126 H   0  0  0  0  0  0  0  0  0  0  0  0
  151.1074  140.0561  155.1802 H   0  0  0  0  0  0  0  0  0  0  0  0
  148.7271  140.8265  156.5877 H   0  0  0  0  0  0  0  0  0  0  0  0
  146.6006  140.2710  154.6505 H   0  0  0  0  0  0  0  0  0  0  0  0
  147.0567  143.2288  153.7432 H   0  0  0  0  0  0  0  0  0  0  0  0
  145.4711  142.3044  153.7446 H   0  0  0  0  0  0  0  0  0  0  0  0
  145.6877  141.9666  156.2423 H   0  0  0  0  0  0  0  0  0  0  0  0
  147.2710  142.8944  156.2195 H   0  0  0  0  0  0  0  0  0  0  0  0
  151.6491  145.5227  160.3952 H   0  0  0  0  0  0  0  0  0  0  0  0
  151.4045  145.8859  158.6878 H   0  0  0  0  0  0  0  0  0  0  0  0
  153.0368  145.6527  159.3132 H   0  0  0  0  0  0  0  0  0  0  0  0
  1  2  1  0  0  0  0
  1 17  1  0  0  0  0
  1 18  1  0  0  0  0
  1 19  1  0  0  0  0
  2  3  1  0  0  0  0
  2 20  1  0  0  0  0
  2 21  1  0  0  0  0
  3 15  2  0  0  0  0
  3  4  1  0  0  0  0
  4  5  2  0  0  0  0
  5  6  1  0  0  0  0
  5 14  1  0  0  0  0
  6  7  1  0  0  0  0
  6 22  1  0  0  0  0
  6 23  1  0  0  0  0
  7  8  1  0  0  0  0
  7 24  1  0  0  0  0
  7 25  1  0  0  0  0
  8  9  1  0  0  0  0
  8 26  1  0  0  0  0
  9 10  2  0  0  0  0
  9 11  1  0  0  0  0
 11 13  1  0  0  0  0
 11 12  1  0  0  0  0
 11 27  1  0  0  0  0
 12 13  1  0  0  0  0
 12 28  1  0  0  0  0
 12 29  1  0  0  0  0
 13 30  1  0  0  0  0
 13 31  1  0  0  0  0
 14 15  1  0  0  0  0
 15 16  1  0  0  0  0
 16 32  1  0  0  0  0
 16 33  1  0  0  0  0
 16 34  1  0  0  0  0
M  END
> <s_m_source_file>
AV-unprocessed.smi

> <i_m_source_file_index>
971

> <i_lp_mmshare_version>
43012

> <i_f3d_flags>
0

> <s_epik_input>
W0NIM11bQ0gyXWMxbmMoc2MxW0NIM10pW0NIMl1bQ0gyXVtOSF1DKD1PKVtDSF0yW0NIMl1bQ0gyXTI=

> <s_epik_cmdline>
J2VwaWtfcHl0aG9uJywgJy1waCcsICc3LjAnLCAnLXRuJywgJzgnLCAnLW1hJywgJzIwMCcsICctbWV0YWxfYmluZGluZycsICctaW1hZScsICc8aW5maWxlLm1hZT4nLCAnLW9tYWUnLCAnPG91dGZpbGUubWFlPic=

> <r_epik_Ionization_Penalty>
0.00242093

> <r_epik_Ionization_Penalty_Charging>
0

> <r_epik_Ionization_Penalty_Neutral>
0.00242093

> <r_epik_State_Penalty>
0.00167523

> <r_epik_Charging_Adjusted_Penalty>
0.00167523

> <i_epik_Tot_Q>
0

> <i_epik_Tot_abs_Q>
0

> <r_epik_Metal_State_Penalty>
-0

> <b_epik_Metal_Only>
0

> <s_lp_Force_Field>
OPLS_2005

> <r_lp_Energy>
-4.35298

> <b_lp_Chiralities_Consistent>
1

> <s_lp_Variant>
AV-unprocessed.smi:971-1

> <Gold.Version>
5.8.1

> <Gold.Id.Protein>
6NUR|6NUR_protein|mol2

> <Gold.PLP.Fitness>
41.2552

> <Gold.PLP.PLP>
-39.5212

> <Gold.PLP.part.hbond>
-2.0000

> <Gold.PLP.part.metal>
0.0000

> <Gold.PLP.part.buried>
-5.8120

> <Gold.PLP.part.nonpolar>
-35.0415

> <Gold.PLP.part.repulsive>
2.7742

> <Gold.PLP.ligand.clash>
0.0000

> <Gold.PLP.ligand.torsion>
0.5573

> <Gold.PLP.Chemscore.Hbond>
0.9120

> <Gold.PLP.Chemscore.CHOScore>
0.0000

> <Gold.PLP.Chemscore.Metal>
0.0000

> <Gold.Chemscore.Hbonds>
donor molecule, donor type, donor heavy atom, donor atom, acceptor molecule, acceptor atom, score
      P1  H  7989  7998       L1    10  0.01
      P1  H  8011  8017       L1    10  0.98

> <Gold.PLP.Chemscore.Internal.Correction>
0.1127

> <Gold.Rescore>
     Score         DG    S(hbond)    S(metal)    S(lipo)     H(rot)  DE(clash)    DE(int)     intcor
     15.72     -18.03       1.19        0.00     106.97       1.54       1.79       0.52       ----

> <Gold.Chemscore.Fitness>
15.7206

> <Gold.Chemscore.DG>
-18.0312

> <Gold.Chemscore.ZeroCoef>
-5.4800

> <Gold.Chemscore.Hbond>
1.1943

> <Gold.Chemscore.Metal>
0.0000

> <Gold.Chemscore.Lipo>
106.9679

> <Gold.Chemscore.Internal_Hbond>
0.0000

> <Gold.Chemscore.DEClash>
1.7893

> <Gold.Chemscore.DEInternal>
0.5213

> <Gold.Chemscore.Rot>
1.5441

> <Gold.Chemscore.Internal.Correction>
   9.000000E+99

> <Gold.Chemscore.Hbonds>
donor molecule, donor type, donor heavy atom, donor atom, acceptor molecule, acceptor atom, score
      P1  H  7989  7998       L1    10  0.02
      P1  H  8011  8017       L1    10  0.93

> <Gold.Chemscore.Hbond.Weighted>
-3.9889

> <Gold.Chemscore.Metal.Weighted>
-0.0000

> <Gold.Chemscore.Lipo.Weighted>
-12.5152

> <Gold.Chemscore.Internal_Hbond.Weighted>
0.0000

> <Gold.Chemscore.DEClash.Weighted>
1.7893

> <Gold.Chemscore.DEInternal.Weighted>
0.5213

> <Gold.Chemscore.Rot.Weighted>
3.9529

> <Gold.Chemscore.Internal.Correction.Weighted>
   9.000000E+99

> <Gold.Protein.RotatedTorsions>
[ 6907 6896 6895 6894 ] final  -57.55 input  -60.11 | X-H torsion
[ 7974 7965 7964 7962 ] final   32.78 input  175.53 | X-H torsion
[ 8008 7997 7996 7995 ] final  149.97 input   59.86 | X-H torsion
[ 10167 10162 10161 10158 ] final   44.72 input  -65.29 | X-H torsion
[ 10718 10713 10712 10709 ] final -132.64 input   66.30 | X-H torsion
[ 10763 10752 10751 10750 ] final  -52.41 input  -60.55 | X-H torsion
[ 11005 11000 10999 10996 ] final  -96.57 input  -57.11 | X-H torsion

> <Gold.Protein.ActiveResidues>
 VAL166  LYS551  ARG553  GLY616  TRP617  ASP618  TYR619  PRO620  LYS621  CYS622 
 ASP623  PHE694  ASN695  SER759  ASP760  ASP761  ALA762  ILE779  LEU786  VAL792 
 PHE793  MET794  SER795  GLU796  ALA797  LYS798  CYS799  TRP800  GLU811  SER814 

> <Gold.Protein.RotatedAtoms>
  150.8077  134.7212  159.6658 H   0  0  0  0  0  0  0  0  0  0  0  0  # atno 6907 bound_to 6896
  152.4197  134.5975  160.0001 H   0  0  0  0  0  0  0  0  0  0  0  0  # atno 6908 bound_to 6896
  151.6194  133.3303  159.3120 H   0  0  0  0  0  0  0  0  0  0  0  0  # atno 6909 bound_to 6896
  146.1464  139.6482  142.9128 H   0  0  0  0  0  0  0  0  0  0  0  0  # atno 7974 bound_to 7965
  156.2734  140.2087  156.5943 H   0  0  0  0  0  0  0  0  0  0  0  0  # atno 8008 bound_to 7997
  154.6957  140.0526  157.0432 H   0  0  0  0  0  0  0  0  0  0  0  0  # atno 8009 bound_to 7997
  155.0804  140.3186  155.4606 H   0  0  0  0  0  0  0  0  0  0  0  0  # atno 8010 bound_to 7997
  140.3314  144.2584  150.6167 H   0  0  0  0  0  0  0  0  0  0  0  0  # atno 10167 bound_to 10162
  156.2366  130.7070  151.0914 H   0  0  0  0  0  0  0  0  0  0  0  0  # atno 10718 bound_to 10713
  154.1423  135.6503  153.4945 H   0  0  0  0  0  0  0  0  0  0  0  0  # atno 10763 bound_to 10752
  153.0162  135.5318  154.6892 H   0  0  0  0  0  0  0  0  0  0  0  0  # atno 10764 bound_to 10752
  154.6157  135.2959  155.0354 H   0  0  0  0  0  0  0  0  0  0  0  0  # atno 10765 bound_to 10752
  141.1407  133.8107  157.0589 H   0  0  0  0  0  0  0  0  0  0  0  0  # atno 11005 bound_to 11000
  145.4927  141.0438  143.2584 LP  0  0  0  0  0  0  0  0  0  0  0  0  # atno 17320 bound_to 7965
  144.7851  139.6443  143.7137 LP  0  0  0  0  0  0  0  0  0  0  0  0  # atno 17321 bound_to 7965
  140.5394  143.2226  151.8110 LP  0  0  0  0  0  0  0  0  0  0  0  0  # atno 17342 bound_to 10162
  139.4856  144.4620  151.9529 LP  0  0  0  0  0  0  0  0  0  0  0  0  # atno 17343 bound_to 10162
  157.7157  131.0711  150.6335 LP  0  0  0  0  0  0  0  0  0  0  0  0  # atno 17370 bound_to 10713
  156.6406  130.4457  149.5754 LP  0  0  0  0  0  0  0  0  0  0  0  0  # atno 17371 bound_to 10713
  140.0584  134.9768  157.1261 LP  0  0  0  0  0  0  0  0  0  0  0  0  # atno 17394 bound_to 11000
  140.3885  134.2210  155.7167 LP  0  0  0  0  0  0  0  0  0  0  0  0  # atno 17395 bound_to 11000

$$$$
