#       Name:                AV-unprocessed.smi:3295
#       Creating user name   scv26
#       Creation time:       Fri Mar 27 18:57:18 2020


#       File generated by GOLD software.
#

@<TRIPOS>MOLECULE
AV-unprocessed.smi:3295
    42    43     1
SMALL
NO_CHARGES


@<TRIPOS>ATOM
      1 ****        -3.9112  -0.5709  -1.5495 C.3            1 S1                 0.0000
      2 ****        -3.7754   0.8550  -1.0442 C.ar           1 S1                 0.0000
      3 ****        -4.9073   1.6988  -1.0349 C.ar           1 S1                 0.0000
      4 ****        -4.8044   2.9669  -0.5847 N.pl3          1 S1                 1.0000
      5 ****        -3.6473   3.4858  -0.1247 C.ar           1 S1                 0.0000
      6 ****        -2.4807   2.6962  -0.1076 C.ar           1 S1                 0.0000
      7 ****        -2.5316   1.3615  -0.5860 C.ar           1 S1                 0.0000
      8 ****        -1.4023   0.4942  -0.5874 N.am           1 S1                 0.0000
      9 ****        -0.0970   0.8141  -0.6093 C.2            1 S1                 0.0000
     10 ****         0.3540   1.9587  -0.6372 O.2            1 S1                 0.0000
     11 ****         0.6689  -0.2854  -0.6128 N.am           1 S1                 0.0000
     12 ****         2.1293  -0.2934  -0.6017 C.3            1 S1                 0.0000
     13 ****         2.7234  -0.4393   0.8228 C.3            1 S1                 0.0000
     14 ****         2.5859   0.7994   1.4917 O.3            1 S1                 0.0000
     15 ****         2.1323  -1.5911   1.6520 C.3            1 S1                 0.0000
     16 ****         2.8888  -2.8381   1.1837 C.3            1 S1                 0.0000
     17 ****         4.2553  -2.3415   0.6860 C.3            1 S1                 0.0000
     18 ****         4.2128  -0.8086   0.7649 C.3            1 S1                 0.0000
     19 ****        -4.9317  -0.7812  -1.8715 H              1 S1                 0.0000
     20 ****        -3.6538  -1.2809  -0.7629 H              1 S1                 0.0000
     21 ****        -3.2486  -0.7395  -2.3989 H              1 S1                 0.0000
     22 ****        -5.8894   1.3991  -1.3708 H              1 S1                 0.0000
     23 ****        -3.6894   4.5086   0.2201 H              1 S1                 0.0000
     24 ****        -1.5726   3.1278   0.2844 H              1 S1                 0.0000
     25 ****        -1.6147  -0.4906  -0.6488 H              1 S1                 0.0000
     26 ****         0.2123  -1.1855  -0.5969 H              1 S1                 0.0000
     27 ****         2.4327  -1.1430  -1.2138 H              1 S1                 0.0000
     28 ****         2.5341   0.5881  -1.1028 H              1 S1                 0.0000
     29 ****         2.9897   0.7280   2.3430 H              1 S1                 0.0000
     30 ****         2.3508  -1.4301   2.7090 H              1 S1                 0.0000
     31 ****         1.0510  -1.6971   1.5673 H              1 S1                 0.0000
     32 ****         2.9832  -3.5767   1.9803 H              1 S1                 0.0000
     33 ****         2.3494  -3.3112   0.3622 H              1 S1                 0.0000
     34 ****         5.0732  -2.7402   1.2873 H              1 S1                 0.0000
     35 ****         4.4184  -2.6681  -0.3417 H              1 S1                 0.0000
     36 ****         4.7393  -0.3307  -0.0623 H              1 S1                 0.0000
     37 ****         4.7109  -0.4966   1.6846 H              1 S1                 0.0000
     38 ****        -5.6375   3.5560  -0.5872 H              1 S1                 0.0000
     39 ****        -0.2685   2.7414  -0.6452 LP             1 S1                 0.0000
     40 ****         1.3429   2.1063  -0.6520 LP             1 S1                 0.0000
     41 ****         1.6162   1.0203   1.5960 LP             1 S1                 0.0000
     42 ****         3.0368   1.5193   0.9640 LP             1 S1                 0.0000
@<TRIPOS>BOND
    1    1    2 1     
    2    1   19 1     
    3    1   20 1     
    4    1   21 1     
    5    2    7 ar    
    6    2    3 ar    
    7    3    4 ar    
    8    3   22 1     
    9    4    5 ar    
   10    4   38 1     
   11    5    6 ar    
   12    5   23 1     
   13    6    7 ar    
   14    6   24 1     
   15    7    8 1     
   16    8    9 am    
   17    8   25 1     
   18    9   10 2     
   19    9   11 am    
   20   11   12 1     
   21   11   26 1     
   22   12   13 1     
   23   12   27 1     
   24   12   28 1     
   25   13   18 1     
   26   13   14 1     
   27   13   15 1     
   28   14   29 1     
   29   15   16 1     
   30   15   30 1     
   31   15   31 1     
   32   16   17 1     
   33   16   32 1     
   34   16   33 1     
   35   17   18 1     
   36   17   34 1     
   37   17   35 1     
   38   18   36 1     
   39   18   37 1     
   40   10   39 1     
   41   10   40 1     
   42   14   41 1     
   43   14   42 1     
@<TRIPOS>SUBSTRUCTURE
      1 S1             1
@<TRIPOS>SET
LONE_PAIRS      STATIC     ATOMS    <user>   **** ""
4 39 40 41 42
DONOR_HYDROGENS      STATIC     ATOMS    <user>   **** ""
4 38 25 26 29
ATOM$BLUE        STATIC     ATOMS    COLORGROUP SYSTEM
4 39 40 41 42
ATOM$RED        STATIC     ATOMS    COLORGROUP SYSTEM
4 38 25 26 29
