AV-unprocessed.smi:484|AV-procd|sdf|2687|dock1
  -GOLD-   2262023113D 1   1.00000     0.00000
 Structure written by MMmdl.
 46 48  0  0  0  0  0  0  0  0  1 V2000
  143.1995  146.9008  154.5708 C   0  0  0  0  0  0  0  0  0  0  0  0
  143.0715  145.5260  153.9058 C   0  0  0  0  0  0  0  0  0  0  0  0
  144.1256  144.5516  154.3963 C   0  0  0  0  0  0  0  0  0  0  0  0
  144.1188  144.1149  155.7358 C   0  0  0  0  0  0  0  0  0  0  0  0
  145.1018  143.2155  156.1907 C   0  0  0  0  0  0  0  0  0  0  0  0
  146.1027  142.7378  155.3204 C   0  0  0  0  0  0  0  0  0  0  0  0
  147.0235  141.8600  155.8500 O   0  0  0  0  0  0  0  0  0  0  0  0
  147.9389  141.2272  154.9643 C   0  0  0  0  0  0  0  0  0  0  0  0
  149.1590  140.7181  155.7482 C   0  0  2  0  0  0  0  0  0  0  0  0
  148.7151  139.9853  156.8724 O   0  0  0  0  0  0  0  0  0  0  0  0
  150.1467  141.8337  156.1477 C   0  0  0  0  0  0  0  0  0  0  0  0
  151.1675  141.3711  157.0779 N   0  0  0  0  0  0  0  0  0  0  0  0
  151.9129  140.2395  157.0094 C   0  0  0  0  0  0  0  0  0  0  0  0
  151.7778  139.2602  155.8838 C   0  0  0  0  0  0  0  0  0  0  0  0
  152.7704  139.4278  154.8944 O   0  0  0  0  0  0  0  0  0  0  0  0
  152.7810  140.0547  158.0046 N   0  0  0  0  0  0  0  0  0  0  0  0
  152.5843  141.1734  158.7905 C   0  0  0  0  0  0  0  0  0  0  0  0
  153.2060  141.5688  159.9967 C   0  0  0  0  0  0  0  0  0  0  0  0
  152.8362  142.7740  160.6287 C   0  0  0  0  0  0  0  0  0  0  0  0
  151.8417  143.5996  160.0651 C   0  0  0  0  0  0  0  0  0  0  0  0
  151.2096  143.2242  158.8642 C   0  0  0  0  0  0  0  0  0  0  0  0
  151.5821  142.0199  158.2372 C   0  0  0  0  0  0  0  0  0  0  0  0
  146.1046  143.1810  153.9736 C   0  0  0  0  0  0  0  0  0  0  0  0
  145.1223  144.0817  153.5179 C   0  0  0  0  0  0  0  0  0  0  0  0
  142.4334  147.5834  154.2026 H   0  0  0  0  0  0  0  0  0  0  0  0
  144.1720  147.3488  154.3642 H   0  0  0  0  0  0  0  0  0  0  0  0
  143.0872  146.8268  155.6531 H   0  0  0  0  0  0  0  0  0  0  0  0
  142.0820  145.1110  154.1000 H   0  0  0  0  0  0  0  0  0  0  0  0
  143.1526  145.6306  152.8232 H   0  0  0  0  0  0  0  0  0  0  0  0
  143.3611  144.4698  156.4191 H   0  0  0  0  0  0  0  0  0  0  0  0
  145.0873  142.8883  157.2200 H   0  0  0  0  0  0  0  0  0  0  0  0
  147.4624  140.4040  154.4288 H   0  0  0  0  0  0  0  0  0  0  0  0
  148.2777  141.9534  154.2237 H   0  0  0  0  0  0  0  0  0  0  0  0
  149.6789  140.0008  155.1131 H   0  0  0  0  0  0  0  0  0  0  0  0
  149.2962  140.1666  157.5954 H   0  0  0  0  0  0  0  0  0  0  0  0
  150.6330  142.2425  155.2621 H   0  0  0  0  0  0  0  0  0  0  0  0
  149.6163  142.6673  156.6091 H   0  0  0  0  0  0  0  0  0  0  0  0
  151.8479  138.2458  156.2780 H   0  0  0  0  0  0  0  0  0  0  0  0
  150.7924  139.3510  155.4277 H   0  0  0  0  0  0  0  0  0  0  0  0
  153.0387  138.5741  154.5915 H   0  0  0  0  0  0  0  0  0  0  0  0
  153.9686  140.9430  160.4360 H   0  0  0  0  0  0  0  0  0  0  0  0
  153.3179  143.0664  161.5504 H   0  0  0  0  0  0  0  0  0  0  0  0
  151.5644  144.5211  160.5554 H   0  0  0  0  0  0  0  0  0  0  0  0
  150.4464  143.8534  158.4311 H   0  0  0  0  0  0  0  0  0  0  0  0
  146.8504  142.8461  153.2689 H   0  0  0  0  0  0  0  0  0  0  0  0
  145.1377  144.4120  152.4894 H   0  0  0  0  0  0  0  0  0  0  0  0
  1  2  1  0  0  0  0
  1 25  1  0  0  0  0
  1 26  1  0  0  0  0
  1 27  1  0  0  0  0
  2  3  1  0  0  0  0
  2 28  1  0  0  0  0
  2 29  1  0  0  0  0
  3 24  1  0  0  0  0
  3  4  2  0  0  0  0
  4  5  1  0  0  0  0
  4 30  1  0  0  0  0
  5  6  2  0  0  0  0
  5 31  1  0  0  0  0
  6  7  1  0  0  0  0
  6 23  1  0  0  0  0
  7  8  1  0  0  0  0
  8  9  1  0  0  0  0
  8 32  1  0  0  0  0
  8 33  1  0  0  0  0
  9 10  1  0  0  0  0
  9 11  1  0  0  0  0
  9 34  1  0  0  0  0
 10 35  1  0  0  0  0
 11 12  1  0  0  0  0
 11 36  1  0  0  0  0
 11 37  1  0  0  0  0
 12 22  1  0  0  0  0
 12 13  1  0  0  0  0
 13 14  1  0  0  0  0
 13 16  2  0  0  0  0
 14 15  1  0  0  0  0
 14 38  1  0  0  0  0
 14 39  1  0  0  0  0
 15 40  1  0  0  0  0
 16 17  1  0  0  0  0
 17 22  2  0  0  0  0
 17 18  1  0  0  0  0
 18 19  2  0  0  0  0
 18 41  1  0  0  0  0
 19 20  1  0  0  0  0
 19 42  1  0  0  0  0
 20 21  2  0  0  0  0
 20 43  1  0  0  0  0
 21 22  1  0  0  0  0
 21 44  1  0  0  0  0
 23 24  2  0  0  0  0
 23 45  1  0  0  0  0
 24 46  1  0  0  0  0
M  END
> <s_m_source_file>
AV-unprocessed.smi

> <i_m_source_file_index>
484

> <i_lp_mmshare_version>
43012

> <i_f3d_flags>
0

> <s_epik_input>
W0NIM11bQ0gyXWMxW2NIXVtjSF1jKFtjSF1bY0hdMSlPW0NIMl1bQ0BIXShbT0hdKVtDSDJdbihjKG4yKVtDSDJdW09IXSljKGMyMylbY0hdW2NIXVtjSF1bY0hdMw==

> <s_epik_cmdline>
J2VwaWtfcHl0aG9uJywgJy1waCcsICc3LjAnLCAnLXRuJywgJzgnLCAnLW1hJywgJzIwMCcsICctbWV0YWxfYmluZGluZycsICctaW1hZScsICc8aW5maWxlLm1hZT4nLCAnLW9tYWUnLCAnPG91dGZpbGUubWFlPic=

> <r_lp_tautomer_probability>
1

> <r_epik_Ionization_Penalty>
0.0555463

> <r_epik_Ionization_Penalty_Charging>
0

> <r_epik_Ionization_Penalty_Neutral>
0.0555463

> <r_epik_State_Penalty>
0.0477854

> <r_epik_Charging_Adjusted_Penalty>
0.0477854

> <i_epik_Tot_Q>
0

> <i_epik_Tot_abs_Q>
0

> <r_epik_Metal_State_Penalty>
4.97632e-05

> <b_epik_Metal_Only>
0

> <s_lp_Force_Field>
OPLS_2005

> <r_lp_Energy>
15.7427

> <b_lp_Chiralities_Consistent>
1

> <s_lp_Variant>
AV-unprocessed.smi:484-1

> <Gold.Version>
5.8.1

> <Gold.Id.Protein>
6NUR|6NUR_protein|mol2

> <Gold.PLP.Fitness>
51.9078

> <Gold.PLP.PLP>
-48.6544

> <Gold.PLP.part.hbond>
-2.5624

> <Gold.PLP.part.metal>
0.0000

> <Gold.PLP.part.buried>
-4.3043

> <Gold.PLP.part.nonpolar>
-42.7542

> <Gold.PLP.part.repulsive>
0.1219

> <Gold.PLP.ligand.clash>
0.0000

> <Gold.PLP.ligand.torsion>
0.8255

> <Gold.PLP.Chemscore.Hbond>
1.4917

> <Gold.PLP.Chemscore.CHOScore>
0.0000

> <Gold.PLP.Chemscore.Metal>
0.0000

> <Gold.Chemscore.Hbonds>
donor molecule, donor type, donor heavy atom, donor atom, acceptor molecule, acceptor atom, score
      P1  H  7989  7998       L1    15  0.22
      P1  H  7997  8009       L1    16  0.73

> <Gold.PLP.Chemscore.Internal.Correction>
0.4294

> <Gold.Rescore>
     Score         DG    S(hbond)    S(metal)    S(lipo)     H(rot)  DE(clash)    DE(int)     intcor
     12.87     -14.81       0.71        0.00     126.83       3.08       0.42       1.52       ----

> <Gold.Chemscore.Fitness>
12.8724

> <Gold.Chemscore.DG>
-14.8112

> <Gold.Chemscore.ZeroCoef>
-5.4800

> <Gold.Chemscore.Hbond>
0.7103

> <Gold.Chemscore.Metal>
0.0000

> <Gold.Chemscore.Lipo>
126.8327

> <Gold.Chemscore.Internal_Hbond>
0.0000

> <Gold.Chemscore.DEClash>
0.4207

> <Gold.Chemscore.DEInternal>
1.5181

> <Gold.Chemscore.Rot>
3.0783

> <Gold.Chemscore.Internal.Correction>
   9.000000E+99

> <Gold.Chemscore.Hbonds>
donor molecule, donor type, donor heavy atom, donor atom, acceptor molecule, acceptor atom, score
      P1  H  7989  7998       L1    15  0.06
      P1  H  7997  8009       L1    16  0.08

> <Gold.Chemscore.Hbond.Weighted>
-2.3723

> <Gold.Chemscore.Metal.Weighted>
-0.0000

> <Gold.Chemscore.Lipo.Weighted>
-14.8394

> <Gold.Chemscore.Internal_Hbond.Weighted>
0.0000

> <Gold.Chemscore.DEClash.Weighted>
0.4207

> <Gold.Chemscore.DEInternal.Weighted>
1.5181

> <Gold.Chemscore.Rot.Weighted>
7.8805

> <Gold.Chemscore.Internal.Correction.Weighted>
   9.000000E+99

> <Gold.Protein.RotatedTorsions>
[ 6907 6896 6895 6894 ] final -126.49 input  -60.11 | X-H torsion
[ 7974 7965 7964 7962 ] final  -85.35 input  175.53 | X-H torsion
[ 8008 7997 7996 7995 ] final  170.82 input   59.86 | X-H torsion
[ 10167 10162 10161 10158 ] final  151.59 input  -65.29 | X-H torsion
[ 10718 10713 10712 10709 ] final   88.13 input   66.30 | X-H torsion
[ 10763 10752 10751 10750 ] final -160.22 input  -60.55 | X-H torsion
[ 11005 11000 10999 10996 ] final -170.96 input  -57.11 | X-H torsion

> <Gold.Protein.ActiveResidues>
 VAL166  LYS551  ARG553  GLY616  TRP617  ASP618  TYR619  PRO620  LYS621  CYS622 
 ASP623  PHE694  ASN695  SER759  ASP760  ASP761  ALA762  ILE779  LEU786  VAL792 
 PHE793  MET794  SER795  GLU796  ALA797  LYS798  CYS799  TRP800  GLU811  SER814 

> <Gold.Protein.RotatedAtoms>
  150.8975  133.7162  159.2887 H   0  0  0  0  0  0  0  0  0  0  0  0  # atno 6907 bound_to 6896
  151.4692  135.1043  159.9756 H   0  0  0  0  0  0  0  0  0  0  0  0  # atno 6908 bound_to 6896
  152.4857  133.8319  159.7163 H   0  0  0  0  0  0  0  0  0  0  0  0  # atno 6909 bound_to 6896
  145.4944  140.9551  143.1794 H   0  0  0  0  0  0  0  0  0  0  0  0  # atno 7974 bound_to 7965
  156.1329  140.1528  156.9038 H   0  0  0  0  0  0  0  0  0  0  0  0  # atno 8008 bound_to 7997
  154.4924  140.0847  156.7662 H   0  0  0  0  0  0  0  0  0  0  0  0  # atno 8009 bound_to 7997
  155.4222  140.3423  155.4274 H   0  0  0  0  0  0  0  0  0  0  0  0  # atno 8010 bound_to 7997
  139.4839  144.5428  151.7535 H   0  0  0  0  0  0  0  0  0  0  0  0  # atno 10167 bound_to 10162
  157.6946  131.0282  150.3228 H   0  0  0  0  0  0  0  0  0  0  0  0  # atno 10718 bound_to 10713
  154.7409  135.3068  154.8730 H   0  0  0  0  0  0  0  0  0  0  0  0  # atno 10763 bound_to 10752
  153.9545  135.6760  153.4748 H   0  0  0  0  0  0  0  0  0  0  0  0  # atno 10764 bound_to 10752
  153.1008  135.4913  154.8787 H   0  0  0  0  0  0  0  0  0  0  0  0  # atno 10765 bound_to 10752
  140.5136  134.5778  157.5026 H   0  0  0  0  0  0  0  0  0  0  0  0  # atno 11005 bound_to 11000
  144.7815  139.6516  143.7152 LP  0  0  0  0  0  0  0  0  0  0  0  0  # atno 17320 bound_to 7965
  146.2264  139.5731  142.9584 LP  0  0  0  0  0  0  0  0  0  0  0  0  # atno 17321 bound_to 7965
  140.4970  144.1226  150.5962 LP  0  0  0  0  0  0  0  0  0  0  0  0  # atno 17342 bound_to 10162
  140.4106  143.2659  151.9837 LP  0  0  0  0  0  0  0  0  0  0  0  0  # atno 17343 bound_to 10162
  156.3712  130.3864  149.7174 LP  0  0  0  0  0  0  0  0  0  0  0  0  # atno 17370 bound_to 10713
  156.4587  130.7941  151.2962 LP  0  0  0  0  0  0  0  0  0  0  0  0  # atno 17371 bound_to 10713
  139.9645  134.7396  156.0167 LP  0  0  0  0  0  0  0  0  0  0  0  0  # atno 17394 bound_to 11000
  141.1372  133.6572  156.3628 LP  0  0  0  0  0  0  0  0  0  0  0  0  # atno 17395 bound_to 11000

$$$$
