AV-unprocessed.smi:1010|AV-procd|sdf|4417|dock9
  -GOLD-   22720 2363D 1   1.00000     0.00000
 Structure written by MMmdl.
 54 56  0  0  0  0  0  0  0  0  1 V2000
  148.1199  136.8846  157.0757 C   0  0  0  0  0  0  0  0  0  0  0  0
  147.4684  137.5142  155.9262 N   0  0  0  0  0  0  0  0  0  0  0  0
  146.2332  138.1312  156.4136 C   0  0  0  0  0  0  0  0  0  0  0  0
  148.3156  138.3913  155.0687 C   0  0  0  0  0  0  0  0  0  0  0  0
  147.5176  138.6981  153.7619 C   0  0  0  0  0  0  0  0  0  0  0  0
  146.7986  137.5298  153.2645 N   0  0  0  0  0  0  0  0  0  0  0  0
  145.4876  137.3168  153.4255 C   0  0  0  0  0  0  0  0  0  0  0  0
  144.7368  138.1040  154.0016 O   0  0  0  0  0  0  0  0  0  0  0  0
  145.1238  136.1367  152.8977 N   0  0  0  0  0  0  0  0  0  0  0  0
  143.8410  135.5200  152.9069 C   0  0  0  0  0  0  0  0  0  0  0  0
  142.7284  136.1260  153.5406 C   0  0  0  0  0  0  0  0  0  0  0  0
  141.4883  135.4648  153.5387 C   0  0  0  0  0  0  0  0  0  0  0  0
  141.4017  134.2181  152.8979 C   0  0  0  0  0  0  0  0  0  0  0  0
  142.4448  133.6373  152.2724 N   0  0  0  0  0  0  0  0  0  0  0  0
  143.6445  134.2693  152.2524 C   0  0  0  0  0  0  0  0  0  0  0  0
  144.6954  133.6183  151.5656 N   0  0  0  0  0  0  0  0  0  0  0  0
  145.2710  132.3839  152.0889 C   0  0  0  0  0  0  0  0  0  0  0  0
  146.0764  131.8015  150.9313 C   0  0  0  0  0  0  0  0  0  0  0  0
  145.2306  132.1845  149.7207 C   0  0  0  0  0  0  0  0  0  0  0  0
  144.6327  133.5410  150.1092 C   0  0  0  0  0  0  0  0  0  0  0  0
  148.6842  139.7155  155.7941 C   0  0  0  0  0  0  0  0  0  0  0  0
  149.7412  140.5350  155.0278 C   0  0  0  0  0  0  0  0  0  0  0  0
  150.9037  139.7521  154.7883 O   0  0  0  0  0  0  0  0  0  0  0  0
  150.6472  138.6081  153.9839 C   0  0  0  0  0  0  0  0  0  0  0  0
  149.6563  137.6802  154.7100 C   0  0  0  0  0  0  0  0  0  0  0  0
  148.8993  136.1884  156.7703 H   0  0  0  0  0  0  0  0  0  0  0  0
  147.4024  136.2902  157.6428 H   0  0  0  0  0  0  0  0  0  0  0  0
  148.5491  137.6181  157.7577 H   0  0  0  0  0  0  0  0  0  0  0  0
  145.6170  138.5274  155.6094 H   0  0  0  0  0  0  0  0  0  0  0  0
  146.4372  138.9348  157.1214 H   0  0  0  0  0  0  0  0  0  0  0  0
  145.6195  137.3909  156.9277 H   0  0  0  0  0  0  0  0  0  0  0  0
  146.8156  139.5192  153.9057 H   0  0  0  0  0  0  0  0  0  0  0  0
  148.1776  139.0432  152.9676 H   0  0  0  0  0  0  0  0  0  0  0  0
  147.3462  136.8287  152.7870 H   0  0  0  0  0  0  0  0  0  0  0  0
  145.8742  135.5623  152.5428 H   0  0  0  0  0  0  0  0  0  0  0  0
  142.8033  137.0894  154.0213 H   0  0  0  0  0  0  0  0  0  0  0  0
  140.6258  135.9025  154.0190 H   0  0  0  0  0  0  0  0  0  0  0  0
  140.4682  133.6755  152.8792 H   0  0  0  0  0  0  0  0  0  0  0  0
  145.8958  132.5760  152.9616 H   0  0  0  0  0  0  0  0  0  0  0  0
  144.4867  131.6816  152.3744 H   0  0  0  0  0  0  0  0  0  0  0  0
  147.0519  132.2865  150.8732 H   0  0  0  0  0  0  0  0  0  0  0  0
  146.2346  130.7266  151.0212 H   0  0  0  0  0  0  0  0  0  0  0  0
  145.8051  132.2250  148.7950 H   0  0  0  0  0  0  0  0  0  0  0  0
  144.4306  131.4547  149.5882 H   0  0  0  0  0  0  0  0  0  0  0  0
  143.6140  133.6500  149.7346 H   0  0  0  0  0  0  0  0  0  0  0  0
  145.2370  134.3448  149.6884 H   0  0  0  0  0  0  0  0  0  0  0  0
  147.8014  140.3372  155.9441 H   0  0  0  0  0  0  0  0  0  0  0  0
  149.0834  139.5082  156.7865 H   0  0  0  0  0  0  0  0  0  0  0  0
  149.3459  140.9172  154.0862 H   0  0  0  0  0  0  0  0  0  0  0  0
  150.0283  141.4062  155.6166 H   0  0  0  0  0  0  0  0  0  0  0  0
  150.2901  138.9041  152.9976 H   0  0  0  0  0  0  0  0  0  0  0  0
  151.5894  138.0841  153.8227 H   0  0  0  0  0  0  0  0  0  0  0  0
  150.1821  137.3586  155.6072 H   0  0  0  0  0  0  0  0  0  0  0  0
  149.4812  136.7800  154.1201 H   0  0  0  0  0  0  0  0  0  0  0  0
  1  2  1  0  0  0  0
  1 26  1  0  0  0  0
  1 27  1  0  0  0  0
  1 28  1  0  0  0  0
  2  3  1  0  0  0  0
  2  4  1  0  0  0  0
  3 29  1  0  0  0  0
  3 30  1  0  0  0  0
  3 31  1  0  0  0  0
  4 25  1  0  0  0  0
  4  5  1  0  0  0  0
  4 21  1  0  0  0  0
  5  6  1  0  0  0  0
  5 32  1  0  0  0  0
  5 33  1  0  0  0  0
  6  7  1  0  0  0  0
  6 34  1  0  0  0  0
  7  8  2  0  0  0  0
  7  9  1  0  0  0  0
  9 10  1  0  0  0  0
  9 35  1  0  0  0  0
 10 15  1  0  0  0  0
 10 11  2  0  0  0  0
 11 12  1  0  0  0  0
 11 36  1  0  0  0  0
 12 13  2  0  0  0  0
 12 37  1  0  0  0  0
 13 14  1  0  0  0  0
 13 38  1  0  0  0  0
 14 15  2  0  0  0  0
 15 16  1  0  0  0  0
 16 20  1  0  0  0  0
 16 17  1  0  0  0  0
 17 18  1  0  0  0  0
 17 39  1  0  0  0  0
 17 40  1  0  0  0  0
 18 19  1  0  0  0  0
 18 41  1  0  0  0  0
 18 42  1  0  0  0  0
 19 20  1  0  0  0  0
 19 43  1  0  0  0  0
 19 44  1  0  0  0  0
 20 45  1  0  0  0  0
 20 46  1  0  0  0  0
 21 22  1  0  0  0  0
 21 47  1  0  0  0  0
 21 48  1  0  0  0  0
 22 23  1  0  0  0  0
 22 49  1  0  0  0  0
 22 50  1  0  0  0  0
 23 24  1  0  0  0  0
 24 25  1  0  0  0  0
 24 51  1  0  0  0  0
 24 52  1  0  0  0  0
 25 53  1  0  0  0  0
 25 54  1  0  0  0  0
M  END
> <s_m_source_file>
AV-unprocessed.smi

> <i_m_source_file_index>
1010

> <i_lp_mmshare_version>
43012

> <i_f3d_flags>
0

> <s_epik_input>
W0NIMl0xW0NIMl1PW0NIMl1bQ0gyXUMxKE4oW0NIM10pW0NIM10pW0NIMl1bTkhdQyg9TylbTkhdYzJbY0hdW2NIXVtjSF1uYzJOM1tDSDJdW0NIMl1bQ0gyXVtDSDJdMw==

> <s_epik_cmdline>
J2VwaWtfcHl0aG9uJywgJy1waCcsICc3LjAnLCAnLXRuJywgJzgnLCAnLW1hJywgJzIwMCcsICctbWV0YWxfYmluZGluZycsICctaW1hZScsICc8aW5maWxlLm1hZT4nLCAnLW9tYWUnLCAnPG91dGZpbGUubWFlPic=

> <r_lp_tautomer_probability>
1

> <r_epik_Ionization_Penalty>
2.38232

> <r_epik_Ionization_Penalty_Charging>
0

> <r_epik_Ionization_Penalty_Neutral>
2.38232

> <r_epik_State_Penalty>
2.49988

> <r_epik_Charging_Adjusted_Penalty>
2.49988

> <i_epik_Tot_Q>
0

> <i_epik_Tot_abs_Q>
0

> <r_epik_Metal_State_Penalty>
2.47138

> <b_epik_Metal_Only>
0

> <s_lp_Force_Field>
OPLS_2005

> <r_lp_Energy>
56.3274

> <b_lp_Chiralities_Consistent>
1

> <s_lp_Variant>
AV-unprocessed.smi:1010-3

> <Gold.Version>
5.8.1

> <Gold.Id.Protein>
6NUR|6NUR_protein|mol2

> <Gold.PLP.Fitness>
34.9786

> <Gold.PLP.PLP>
-30.3226

> <Gold.PLP.part.hbond>
-2.0000

> <Gold.PLP.part.metal>
0.0000

> <Gold.PLP.part.buried>
-5.0017

> <Gold.PLP.part.nonpolar>
-24.7806

> <Gold.PLP.part.repulsive>
1.6479

> <Gold.PLP.ligand.clash>
0.0000

> <Gold.PLP.ligand.torsion>
0.6783

> <Gold.PLP.Chemscore.Hbond>
1.8500

> <Gold.PLP.Chemscore.CHOScore>
0.0194

> <Gold.PLP.Chemscore.Metal>
0.0000

> <Gold.Chemscore.Hbonds>
donor molecule, donor type, donor heavy atom, donor atom, acceptor molecule, acceptor atom, score
      L1  H     6    34       P1  7948  1.00
      P1  H  7989  7998       L1    23  0.76
      L1  C    13    38       P1 10187  0.02

> <Gold.PLP.Chemscore.Internal.Correction>
0.4045

> <Gold.Rescore>
     Score         DG    S(hbond)    S(metal)    S(lipo)     H(rot)  DE(clash)    DE(int)     intcor
     12.55     -15.48       0.97        0.00      91.22       1.54       0.74       2.19       ----

> <Gold.Chemscore.Fitness>
12.5510

> <Gold.Chemscore.DG>
-15.4761

> <Gold.Chemscore.ZeroCoef>
-5.4800

> <Gold.Chemscore.Hbond>
0.9747

> <Gold.Chemscore.Metal>
0.0000

> <Gold.Chemscore.Lipo>
91.2241

> <Gold.Chemscore.Internal_Hbond>
0.0000

> <Gold.Chemscore.DEClash>
0.7382

> <Gold.Chemscore.DEInternal>
2.1869

> <Gold.Chemscore.Rot>
1.5362

> <Gold.Chemscore.Internal.Correction>
   9.000000E+99

> <Gold.Chemscore.Hbonds>
donor molecule, donor type, donor heavy atom, donor atom, acceptor molecule, acceptor atom, score
      L1  H     6    34       P1  7948  0.95
      P1  H  7989  7998       L1    23  0.03

> <Gold.Chemscore.Hbond.Weighted>
-3.2555

> <Gold.Chemscore.Metal.Weighted>
-0.0000

> <Gold.Chemscore.Lipo.Weighted>
-10.6732

> <Gold.Chemscore.Internal_Hbond.Weighted>
0.0000

> <Gold.Chemscore.DEClash.Weighted>
0.7382

> <Gold.Chemscore.DEInternal.Weighted>
2.1869

> <Gold.Chemscore.Rot.Weighted>
3.9326

> <Gold.Chemscore.Internal.Correction.Weighted>
   9.000000E+99

> <Gold.Protein.RotatedTorsions>
[ 6907 6896 6895 6894 ] final -111.49 input  -60.11 | X-H torsion
[ 7974 7965 7964 7962 ] final  -33.98 input  175.53 | X-H torsion
[ 8008 7997 7996 7995 ] final -145.65 input   59.86 | X-H torsion
[ 10167 10162 10161 10158 ] final  -15.92 input  -65.29 | X-H torsion
[ 10718 10713 10712 10709 ] final -137.64 input   66.30 | X-H torsion
[ 10763 10752 10751 10750 ] final -134.98 input  -60.55 | X-H torsion
[ 11005 11000 10999 10996 ] final    9.11 input  -57.11 | X-H torsion

> <Gold.Protein.ActiveResidues>
 VAL166  LYS551  ARG553  GLY616  TRP617  ASP618  TYR619  PRO620  LYS621  CYS622 
 ASP623  PHE694  ASN695  SER759  ASP760  ASP761  ALA762  ILE779  LEU786  VAL792 
 PHE793  MET794  SER795  GLU796  ALA797  LYS798  CYS799  TRP800  GLU811  SER814 

> <Gold.Protein.RotatedAtoms>
  150.7694  133.9227  159.3402 H   0  0  0  0  0  0  0  0  0  0  0  0  # atno 6907 bound_to 6896
  151.7117  135.0909  160.0278 H   0  0  0  0  0  0  0  0  0  0  0  0  # atno 6908 bound_to 6896
  152.3705  133.6375  159.6119 H   0  0  0  0  0  0  0  0  0  0  0  0  # atno 6909 bound_to 6896
  146.0867  140.5982  142.8883 H   0  0  0  0  0  0  0  0  0  0  0  0  # atno 7974 bound_to 7965
  155.5467  140.0613  157.2859 H   0  0  0  0  0  0  0  0  0  0  0  0  # atno 8008 bound_to 7997
  154.4434  140.1910  156.0689 H   0  0  0  0  0  0  0  0  0  0  0  0  # atno 8009 bound_to 7997
  156.0546  140.3280  155.7394 H   0  0  0  0  0  0  0  0  0  0  0  0  # atno 8010 bound_to 7997
  140.7226  143.5168  150.9681 H   0  0  0  0  0  0  0  0  0  0  0  0  # atno 10167 bound_to 10162
  156.2904  130.7371  151.1395 H   0  0  0  0  0  0  0  0  0  0  0  0  # atno 10718 bound_to 10713
  154.8710  135.3717  154.4824 H   0  0  0  0  0  0  0  0  0  0  0  0  # atno 10763 bound_to 10752
  153.5476  135.7025  153.5611 H   0  0  0  0  0  0  0  0  0  0  0  0  # atno 10764 bound_to 10752
  153.3745  135.4012  155.1777 H   0  0  0  0  0  0  0  0  0  0  0  0  # atno 10765 bound_to 10752
  140.5294  134.0481  155.7869 H   0  0  0  0  0  0  0  0  0  0  0  0  # atno 11005 bound_to 11000
  144.7331  140.4729  143.6923 LP  0  0  0  0  0  0  0  0  0  0  0  0  # atno 17320 bound_to 7965
  145.6117  139.1514  143.3072 LP  0  0  0  0  0  0  0  0  0  0  0  0  # atno 17321 bound_to 7965
  139.8884  143.6984  152.3148 LP  0  0  0  0  0  0  0  0  0  0  0  0  # atno 17342 bound_to 10162
  139.7291  144.7586  151.0831 LP  0  0  0  0  0  0  0  0  0  0  0  0  # atno 17343 bound_to 10162
  157.7340  131.0585  150.5544 LP  0  0  0  0  0  0  0  0  0  0  0  0  # atno 17370 bound_to 10713
  156.5660  130.4267  149.6041 LP  0  0  0  0  0  0  0  0  0  0  0  0  # atno 17371 bound_to 10713
  141.1290  133.9335  157.2576 LP  0  0  0  0  0  0  0  0  0  0  0  0  # atno 17394 bound_to 11000
  139.9562  135.0165  156.9135 LP  0  0  0  0  0  0  0  0  0  0  0  0  # atno 17395 bound_to 11000

$$$$
