AV-unprocessed.smi:1212|AV-procd|sdf|5082|dock8
  -GOLD-   22720 4133D 1   1.00000     0.00000
 Structure written by MMmdl.
 39 40  0  0  0  0  0  0  0  0  1 V2000
  145.8291  129.4407  151.7104 C   0  0  0  0  0  0  0  0  0  0  0  0
  145.8362  130.9154  151.4921 C   0  0  0  0  0  0  0  0  0  0  0  0
  145.0811  131.5156  150.5636 N   0  0  0  0  0  0  0  0  0  0  0  0
  145.2595  132.8923  150.5497 N   0  0  0  0  0  0  0  0  0  0  0  0
  146.1457  133.2906  151.4729 C   0  0  0  0  0  0  0  0  0  0  0  0
  146.5192  134.6453  151.6768 N   0  0  0  0  0  0  0  0  0  0  0  0
  145.7255  135.6999  151.9343 C   0  0  0  0  0  0  0  0  0  0  0  0
  144.4990  135.6605  152.0379 O   0  0  0  0  0  0  0  0  0  0  0  0
  146.4420  136.8253  152.0682 N   0  0  0  0  0  0  0  0  0  0  0  0
  145.8849  138.1404  152.3599 C   0  0  0  0  0  0  0  0  0  0  0  0
  146.2208  138.5924  153.7934 C   0  0  0  0  0  0  0  0  0  0  0  0
  147.4459  139.4015  153.8192 N   0  0  0  0  0  0  0  0  0  0  0  0
  147.3718  140.7179  153.1637 C   0  0  0  0  0  0  0  0  0  0  0  0
  147.4115  141.9088  154.1501 C   0  0  0  0  0  0  0  0  0  0  0  0
  148.1874  141.6856  155.4634 C   0  0  0  0  0  0  0  0  0  0  0  0
  149.6296  141.1656  155.2896 C   0  0  0  0  0  0  0  0  0  0  0  0
  149.8032  139.8863  154.4368 C   0  0  0  0  0  0  0  0  0  0  0  0
  148.5753  138.9611  154.4270 C   0  0  0  0  0  0  0  0  0  0  0  0
  148.6582  137.8610  154.9739 O   0  0  0  0  0  0  0  0  0  0  0  0
  146.8400  132.0029  152.4433 S   0  0  0  0  0  0  0  0  0  0  0  0
  145.3782  128.9281  150.8599 H   0  0  0  0  0  0  0  0  0  0  0  0
  145.2587  129.1999  152.6074 H   0  0  0  0  0  0  0  0  0  0  0  0
  146.8490  129.0764  151.8348 H   0  0  0  0  0  0  0  0  0  0  0  0
  147.5091  134.8334  151.6211 H   0  0  0  0  0  0  0  0  0  0  0  0
  147.4447  136.7693  151.9646 H   0  0  0  0  0  0  0  0  0  0  0  0
  146.2483  138.8698  151.6340 H   0  0  0  0  0  0  0  0  0  0  0  0
  144.8046  138.0844  152.2242 H   0  0  0  0  0  0  0  0  0  0  0  0
  145.3877  139.1621  154.2092 H   0  0  0  0  0  0  0  0  0  0  0  0
  146.3208  137.7237  154.4447 H   0  0  0  0  0  0  0  0  0  0  0  0
  148.1874  140.8053  152.4456 H   0  0  0  0  0  0  0  0  0  0  0  0
  146.4734  140.8064  152.5524 H   0  0  0  0  0  0  0  0  0  0  0  0
  147.8119  142.7807  153.6322 H   0  0  0  0  0  0  0  0  0  0  0  0
  146.3862  142.1706  154.4146 H   0  0  0  0  0  0  0  0  0  0  0  0
  148.2162  142.6240  156.0179 H   0  0  0  0  0  0  0  0  0  0  0  0
  147.6277  141.0000  156.1013 H   0  0  0  0  0  0  0  0  0  0  0  0
  150.2407  141.9571  154.8548 H   0  0  0  0  0  0  0  0  0  0  0  0
  150.0482  140.9857  156.2804 H   0  0  0  0  0  0  0  0  0  0  0  0
  150.0557  140.1513  153.4103 H   0  0  0  0  0  0  0  0  0  0  0  0
  150.6675  139.3293  154.8003 H   0  0  0  0  0  0  0  0  0  0  0  0
  1  2  1  0  0  0  0
  1 21  1  0  0  0  0
  1 22  1  0  0  0  0
  1 23  1  0  0  0  0
  2 20  1  0  0  0  0
  2  3  2  0  0  0  0
  3  4  1  0  0  0  0
  4  5  2  0  0  0  0
  5  6  1  0  0  0  0
  5 20  1  0  0  0  0
  6  7  1  0  0  0  0
  6 24  1  0  0  0  0
  7  8  2  0  0  0  0
  7  9  1  0  0  0  0
  9 10  1  0  0  0  0
  9 25  1  0  0  0  0
 10 11  1  0  0  0  0
 10 26  1  0  0  0  0
 10 27  1  0  0  0  0
 11 12  1  0  0  0  0
 11 28  1  0  0  0  0
 11 29  1  0  0  0  0
 12 18  1  0  0  0  0
 12 13  1  0  0  0  0
 13 14  1  0  0  0  0
 13 30  1  0  0  0  0
 13 31  1  0  0  0  0
 14 15  1  0  0  0  0
 14 32  1  0  0  0  0
 14 33  1  0  0  0  0
 15 16  1  0  0  0  0
 15 34  1  0  0  0  0
 15 35  1  0  0  0  0
 16 17  1  0  0  0  0
 16 36  1  0  0  0  0
 16 37  1  0  0  0  0
 17 18  1  0  0  0  0
 17 38  1  0  0  0  0
 17 39  1  0  0  0  0
 18 19  2  0  0  0  0
M  END
> <s_m_source_file>
AV-unprocessed.smi

> <i_m_source_file_index>
1212

> <i_lp_mmshare_version>
43012

> <i_f3d_flags>
0

> <s_epik_input>
W0NIM11jMW5uYyhzMSlbTkhdQyg9TylbTkhdW0NIMl1bQ0gyXU4yW0NIMl1bQ0gyXVtDSDJdW0NIMl1bQ0gyXUMyPU8=

> <s_epik_cmdline>
J2VwaWtfcHl0aG9uJywgJy1waCcsICc3LjAnLCAnLXRuJywgJzgnLCAnLW1hJywgJzIwMCcsICctbWV0YWxfYmluZGluZycsICctaW1hZScsICc8aW5maWxlLm1hZT4nLCAnLW9tYWUnLCAnPG91dGZpbGUubWFlPic=

> <r_lp_tautomer_probability>
1

> <r_epik_Ionization_Penalty>
0.00255187

> <r_epik_Ionization_Penalty_Charging>
0

> <r_epik_Ionization_Penalty_Neutral>
0.00255187

> <r_epik_State_Penalty>
-0

> <r_epik_Charging_Adjusted_Penalty>
0

> <i_epik_Tot_Q>
0

> <i_epik_Tot_abs_Q>
0

> <r_epik_Metal_State_Penalty>
0.352847

> <b_epik_Metal_Only>
0

> <s_lp_Force_Field>
OPLS_2005

> <r_lp_Energy>
20.0291

> <b_lp_Chiralities_Consistent>
1

> <s_lp_Variant>
AV-unprocessed.smi:1212-1

> <Gold.Version>
5.8.1

> <Gold.Id.Protein>
6NUR|6NUR_protein|mol2

> <Gold.PLP.Fitness>
35.8734

> <Gold.PLP.PLP>
-31.6977

> <Gold.PLP.part.hbond>
-2.0000

> <Gold.PLP.part.metal>
0.0000

> <Gold.PLP.part.buried>
-1.5454

> <Gold.PLP.part.nonpolar>
-28.3634

> <Gold.PLP.part.repulsive>
0.5912

> <Gold.PLP.ligand.clash>
0.0000

> <Gold.PLP.ligand.torsion>
0.8316

> <Gold.PLP.Chemscore.Hbond>
1.9440

> <Gold.PLP.Chemscore.CHOScore>
0.0000

> <Gold.PLP.Chemscore.Metal>
0.0000

> <Gold.Chemscore.Hbonds>
donor molecule, donor type, donor heavy atom, donor atom, acceptor molecule, acceptor atom, score
      L1  H     6    24       P1  7948  0.93
      L1  H     9    25       P1  7948  1.00

> <Gold.PLP.Chemscore.Internal.Correction>
0.0069

> <Gold.Rescore>
     Score         DG    S(hbond)    S(metal)    S(lipo)     H(rot)  DE(clash)    DE(int)     intcor
     14.43     -15.18       1.69        0.00      70.74       1.65       0.02       0.73       ----

> <Gold.Chemscore.Fitness>
14.4276

> <Gold.Chemscore.DG>
-15.1788

> <Gold.Chemscore.ZeroCoef>
-5.4800

> <Gold.Chemscore.Hbond>
1.6937

> <Gold.Chemscore.Metal>
0.0000

> <Gold.Chemscore.Lipo>
70.7448

> <Gold.Chemscore.Internal_Hbond>
0.0000

> <Gold.Chemscore.DEClash>
0.0192

> <Gold.Chemscore.DEInternal>
0.7320

> <Gold.Chemscore.Rot>
1.6544

> <Gold.Chemscore.Internal.Correction>
   9.000000E+99

> <Gold.Chemscore.Hbonds>
donor molecule, donor type, donor heavy atom, donor atom, acceptor molecule, acceptor atom, score
      L1  H     6    24       P1  7948  0.49
      L1  H     9    25       P1  7948  0.98

> <Gold.Chemscore.Hbond.Weighted>
-5.6568

> <Gold.Chemscore.Metal.Weighted>
-0.0000

> <Gold.Chemscore.Lipo.Weighted>
-8.2771

> <Gold.Chemscore.Internal_Hbond.Weighted>
0.0000

> <Gold.Chemscore.DEClash.Weighted>
0.0192

> <Gold.Chemscore.DEInternal.Weighted>
0.7320

> <Gold.Chemscore.Rot.Weighted>
4.2352

> <Gold.Chemscore.Internal.Correction.Weighted>
   9.000000E+99

> <Gold.Protein.RotatedTorsions>
[ 6907 6896 6895 6894 ] final  -80.60 input  -60.11 | X-H torsion
[ 7974 7965 7964 7962 ] final   48.44 input  175.53 | X-H torsion
[ 8008 7997 7996 7995 ] final   53.27 input   59.86 | X-H torsion
[ 10167 10162 10161 10158 ] final   51.82 input  -65.29 | X-H torsion
[ 10718 10713 10712 10709 ] final  -88.81 input   66.30 | X-H torsion
[ 10763 10752 10751 10750 ] final  170.50 input  -60.55 | X-H torsion
[ 11005 11000 10999 10996 ] final   90.24 input  -57.11 | X-H torsion

> <Gold.Protein.ActiveResidues>
 VAL166  LYS551  ARG553  GLY616  TRP617  ASP618  TYR619  PRO620  LYS621  CYS622 
 ASP623  PHE694  ASN695  SER759  ASP760  ASP761  ALA762  ILE779  LEU786  VAL792 
 PHE793  MET794  SER795  GLU796  ALA797  LYS798  CYS799  TRP800  GLU811  SER814 

> <Gold.Protein.RotatedAtoms>
  150.6926  134.3945  159.5091 H   0  0  0  0  0  0  0  0  0  0  0  0  # atno 6907 bound_to 6896
  152.1728  134.8817  160.0542 H   0  0  0  0  0  0  0  0  0  0  0  0  # atno 6908 bound_to 6896
  151.9836  133.3731  159.4154 H   0  0  0  0  0  0  0  0  0  0  0  0  # atno 6909 bound_to 6896
  146.0204  139.4645  142.9901 H   0  0  0  0  0  0  0  0  0  0  0  0  # atno 7974 bound_to 7965
  155.4656  140.3463  155.4318 H   0  0  0  0  0  0  0  0  0  0  0  0  # atno 8008 bound_to 7997
  156.1133  140.1467  156.9337 H   0  0  0  0  0  0  0  0  0  0  0  0  # atno 8009 bound_to 7997
  154.4771  140.0881  156.7268 H   0  0  0  0  0  0  0  0  0  0  0  0  # atno 8010 bound_to 7997
  140.2578  144.3406  150.6327 H   0  0  0  0  0  0  0  0  0  0  0  0  # atno 10167 bound_to 10162
  155.9983  130.4849  150.5076 H   0  0  0  0  0  0  0  0  0  0  0  0  # atno 10718 bound_to 10713
  154.3985  135.2754  155.2111 H   0  0  0  0  0  0  0  0  0  0  0  0  # atno 10763 bound_to 10752
  154.4147  135.6014  153.5977 H   0  0  0  0  0  0  0  0  0  0  0  0  # atno 10764 bound_to 10752
  152.9831  135.5958  154.4250 H   0  0  0  0  0  0  0  0  0  0  0  0  # atno 10765 bound_to 10752
  139.8860  134.8602  156.3257 H   0  0  0  0  0  0  0  0  0  0  0  0  # atno 11005 bound_to 11000
  145.7202  141.0077  143.1406 LP  0  0  0  0  0  0  0  0  0  0  0  0  # atno 17320 bound_to 7965
  144.6987  139.8861  143.7450 LP  0  0  0  0  0  0  0  0  0  0  0  0  # atno 17321 bound_to 7965
  140.5989  143.2167  151.7110 LP  0  0  0  0  0  0  0  0  0  0  0  0  # atno 17342 bound_to 10162
  139.5026  144.3823  152.0363 LP  0  0  0  0  0  0  0  0  0  0  0  0  # atno 17343 bound_to 10162
  157.3053  131.0653  151.2039 LP  0  0  0  0  0  0  0  0  0  0  0  0  # atno 17370 bound_to 10713
  157.3004  130.6840  149.6161 LP  0  0  0  0  0  0  0  0  0  0  0  0  # atno 17371 bound_to 10713
  140.9757  133.7299  156.0598 LP  0  0  0  0  0  0  0  0  0  0  0  0  # atno 17394 bound_to 11000
  140.7814  134.3721  157.5486 LP  0  0  0  0  0  0  0  0  0  0  0  0  # atno 17395 bound_to 11000

$$$$
