AV-unprocessed.smi:2222|AV-procd|sdf|8988|dock10
  -GOLD-   2272012203D 1   1.00000     0.00000
 Structure written by MMmdl.
 34 35  0  0  0  0  0  0  0  0  1 V2000
  151.6206  145.5373  160.0662 C   0  0  0  0  0  0  0  0  0  0  0  0
  151.4757  144.4270  159.1928 O   0  0  0  0  0  0  0  0  0  0  0  0
  152.1771  143.2724  159.4810 C   0  0  0  0  0  0  0  0  0  0  0  0
  153.0131  143.1248  160.6170 C   0  0  0  0  0  0  0  0  0  0  0  0
  153.6883  141.9096  160.8249 C   0  0  0  0  0  0  0  0  0  0  0  0
  153.5033  140.8780  159.8875 C   0  0  0  0  0  0  0  0  0  0  0  0
  154.1987  139.5425  160.0473 C   0  0  0  0  0  0  0  0  0  0  0  0
  152.7118  141.0064  158.8039 N   0  0  0  0  0  0  0  0  0  0  0  0
  152.0551  142.1737  158.5915 C   0  0  0  0  0  0  0  0  0  0  0  0
  151.2052  142.3887  157.4723 N   0  0  0  0  0  0  0  0  0  0  0  0
  150.8577  141.5252  156.4975 C   0  0  0  0  0  0  0  0  0  0  0  0
  151.2062  140.3468  156.4487 O   0  0  0  0  0  0  0  0  0  0  0  0
  150.0401  142.0455  155.5645 N   0  0  0  0  0  0  0  0  0  0  0  0
  149.4954  141.3942  154.4109 C   0  0  1  0  0  0  0  0  0  0  0  0
  149.1146  139.9390  154.5741 C   0  0  0  0  0  0  0  0  0  0  0  0
  148.0379  140.9821  154.4389 C   0  0  2  0  0  0  0  0  0  0  0  0
  147.1910  141.0359  153.1862 C   0  0  0  0  0  0  0  0  0  0  0  0
  151.0105  146.3634  159.7009 H   0  0  0  0  0  0  0  0  0  0  0  0
  152.6545  145.8832  160.1039 H   0  0  0  0  0  0  0  0  0  0  0  0
  151.2816  145.2986  161.0751 H   0  0  0  0  0  0  0  0  0  0  0  0
  153.1511  143.9194  161.3343 H   0  0  0  0  0  0  0  0  0  0  0  0
  154.3306  141.7772  161.6830 H   0  0  0  0  0  0  0  0  0  0  0  0
  154.7236  139.4814  161.0009 H   0  0  0  0  0  0  0  0  0  0  0  0
  154.9247  139.3970  159.2471 H   0  0  0  0  0  0  0  0  0  0  0  0
  153.4739  138.7288  160.0066 H   0  0  0  0  0  0  0  0  0  0  0  0
  150.8219  143.3197  157.3990 H   0  0  0  0  0  0  0  0  0  0  0  0
  149.7201  142.9896  155.7261 H   0  0  0  0  0  0  0  0  0  0  0  0
  149.9183  141.6473  153.4398 H   0  0  0  0  0  0  0  0  0  0  0  0
  149.2909  139.2785  153.7275 H   0  0  0  0  0  0  0  0  0  0  0  0
  149.2470  139.4821  155.5529 H   0  0  0  0  0  0  0  0  0  0  0  0
  147.4877  141.2200  155.3474 H   0  0  0  0  0  0  0  0  0  0  0  0
  147.7853  140.7920  152.3051 H   0  0  0  0  0  0  0  0  0  0  0  0
  146.7758  142.0355  153.0590 H   0  0  0  0  0  0  0  0  0  0  0  0
  146.3689  140.3239  153.2594 H   0  0  0  0  0  0  0  0  0  0  0  0
  1  2  1  0  0  0  0
  1 18  1  0  0  0  0
  1 19  1  0  0  0  0
  1 20  1  0  0  0  0
  2  3  1  0  0  0  0
  3  9  1  0  0  0  0
  3  4  2  0  0  0  0
  4  5  1  0  0  0  0
  4 21  1  0  0  0  0
  5  6  2  0  0  0  0
  5 22  1  0  0  0  0
  6  7  1  0  0  0  0
  6  8  1  0  0  0  0
  7 23  1  0  0  0  0
  7 24  1  0  0  0  0
  7 25  1  0  0  0  0
  8  9  2  0  0  0  0
  9 10  1  0  0  0  0
 10 11  1  0  0  0  0
 10 26  1  0  0  0  0
 11 12  2  0  0  0  0
 11 13  1  0  0  0  0
 13 14  1  0  0  0  0
 13 27  1  0  0  0  0
 14 16  1  0  0  0  0
 14 15  1  0  0  0  0
 14 28  1  0  0  0  0
 15 16  1  0  0  0  0
 15 29  1  0  0  0  0
 15 30  1  0  0  0  0
 16 17  1  0  0  0  0
 16 31  1  0  0  0  0
 17 32  1  0  0  0  0
 17 33  1  0  0  0  0
 17 34  1  0  0  0  0
M  END
> <s_m_source_file>
AV-unprocessed.smi

> <i_m_source_file_index>
2222

> <i_lp_mmshare_version>
43012

> <i_f3d_flags>
0

> <s_epik_input>
W0NIM11PYzFbY0hdW2NIXWMoW0NIM10pbmMxW05IXUMoPU8pW05IXVtDQEBIXTJbQ0gyXVtDQEhdMltDSDNd

> <s_epik_cmdline>
J2VwaWtfcHl0aG9uJywgJy1waCcsICc3LjAnLCAnLXRuJywgJzgnLCAnLW1hJywgJzIwMCcsICctbWV0YWxfYmluZGluZycsICctaW1hZScsICc8aW5maWxlLm1hZT4nLCAnLW9tYWUnLCAnPG91dGZpbGUubWFlPic=

> <r_lp_tautomer_probability>
1

> <r_epik_Ionization_Penalty>
6.59103e-05

> <r_epik_Ionization_Penalty_Charging>
0

> <r_epik_Ionization_Penalty_Neutral>
6.59103e-05

> <r_epik_State_Penalty>
-0

> <r_epik_Charging_Adjusted_Penalty>
0

> <i_epik_Tot_Q>
0

> <i_epik_Tot_abs_Q>
0

> <r_epik_Metal_State_Penalty>
-0

> <b_epik_Metal_Only>
0

> <s_lp_Force_Field>
OPLS_2005

> <r_lp_Energy>
33.3795

> <b_lp_Chiralities_Consistent>
1

> <s_lp_Variant>
AV-unprocessed.smi:2222-4

> <Gold.Version>
5.8.1

> <Gold.Id.Protein>
6NUR|6NUR_protein|mol2

> <Gold.PLP.Fitness>
39.8398

> <Gold.PLP.PLP>
-37.3433

> <Gold.PLP.part.hbond>
-1.0000

> <Gold.PLP.part.metal>
0.0000

> <Gold.PLP.part.buried>
-4.4061

> <Gold.PLP.part.nonpolar>
-31.3414

> <Gold.PLP.part.repulsive>
0.2780

> <Gold.PLP.ligand.clash>
0.0000

> <Gold.PLP.ligand.torsion>
0.2684

> <Gold.PLP.Chemscore.Hbond>
1.0000

> <Gold.PLP.Chemscore.CHOScore>
0.0000

> <Gold.PLP.Chemscore.Metal>
0.0000

> <Gold.Chemscore.Hbonds>
donor molecule, donor type, donor heavy atom, donor atom, acceptor molecule, acceptor atom, score
      L1  H    13    27       P1  8028  1.00

> <Gold.PLP.Chemscore.Internal.Correction>
0.0333

> <Gold.Rescore>
     Score         DG    S(hbond)    S(metal)    S(lipo)     H(rot)  DE(clash)    DE(int)     intcor
     14.00     -16.39       0.97        0.00      92.11       1.22       0.07       2.32       ----

> <Gold.Chemscore.Fitness>
13.9996

> <Gold.Chemscore.DG>
-16.3899

> <Gold.Chemscore.ZeroCoef>
-5.4800

> <Gold.Chemscore.Hbond>
0.9723

> <Gold.Chemscore.Metal>
0.0000

> <Gold.Chemscore.Lipo>
92.1145

> <Gold.Chemscore.Internal_Hbond>
0.0000

> <Gold.Chemscore.DEClash>
0.0708

> <Gold.Chemscore.DEInternal>
2.3195

> <Gold.Chemscore.Rot>
1.2168

> <Gold.Chemscore.Internal.Correction>
   9.000000E+99

> <Gold.Chemscore.Hbonds>
donor molecule, donor type, donor heavy atom, donor atom, acceptor molecule, acceptor atom, score
      L1  H    13    27       P1  8028  1.00

> <Gold.Chemscore.Hbond.Weighted>
-3.2474

> <Gold.Chemscore.Metal.Weighted>
-0.0000

> <Gold.Chemscore.Lipo.Weighted>
-10.7774

> <Gold.Chemscore.Internal_Hbond.Weighted>
0.0000

> <Gold.Chemscore.DEClash.Weighted>
0.0708

> <Gold.Chemscore.DEInternal.Weighted>
2.3195

> <Gold.Chemscore.Rot.Weighted>
3.1150

> <Gold.Chemscore.Internal.Correction.Weighted>
   9.000000E+99

> <Gold.Protein.RotatedTorsions>
[ 6907 6896 6895 6894 ] final -119.75 input  -60.11 | X-H torsion
[ 7974 7965 7964 7962 ] final  132.84 input  175.53 | X-H torsion
[ 8008 7997 7996 7995 ] final  -39.23 input   59.86 | X-H torsion
[ 10167 10162 10161 10158 ] final    2.81 input  -65.29 | X-H torsion
[ 10718 10713 10712 10709 ] final -160.64 input   66.30 | X-H torsion
[ 10763 10752 10751 10750 ] final  149.54 input  -60.55 | X-H torsion
[ 11005 11000 10999 10996 ] final -177.76 input  -57.11 | X-H torsion

> <Gold.Protein.ActiveResidues>
 VAL166  LYS551  ARG553  GLY616  TRP617  ASP618  TYR619  PRO620  LYS621  CYS622 
 ASP623  PHE694  ASN695  SER759  ASP760  ASP761  ALA762  ILE779  LEU786  VAL792 
 PHE793  MET794  SER795  GLU796  ALA797  LYS798  CYS799  TRP800  GLU811  SER814 

> <Gold.Protein.RotatedAtoms>
  150.8332  133.8056  159.3089 H   0  0  0  0  0  0  0  0  0  0  0  0  # atno 6907 bound_to 6896
  151.5779  135.1058  160.0020 H   0  0  0  0  0  0  0  0  0  0  0  0  # atno 6908 bound_to 6896
  152.4409  133.7404  159.6694 H   0  0  0  0  0  0  0  0  0  0  0  0  # atno 6909 bound_to 6896
  144.9927  139.4390  143.5331 H   0  0  0  0  0  0  0  0  0  0  0  0  # atno 7974 bound_to 7965
  154.4026  140.1557  156.2829 H   0  0  0  0  0  0  0  0  0  0  0  0  # atno 8008 bound_to 7997
  155.8853  140.3441  155.5895 H   0  0  0  0  0  0  0  0  0  0  0  0  # atno 8009 bound_to 7997
  155.7620  140.0819  157.2141 H   0  0  0  0  0  0  0  0  0  0  0  0  # atno 8010 bound_to 7997
  140.6617  143.7286  150.7751 H   0  0  0  0  0  0  0  0  0  0  0  0  # atno 10167 bound_to 10162
  156.5850  130.8745  151.2875 H   0  0  0  0  0  0  0  0  0  0  0  0  # atno 10718 bound_to 10713
  154.0728  135.2865  155.3305 H   0  0  0  0  0  0  0  0  0  0  0  0  # atno 10763 bound_to 10752
  154.6735  135.5290  153.8172 H   0  0  0  0  0  0  0  0  0  0  0  0  # atno 10764 bound_to 10752
  153.0478  135.6563  154.0908 H   0  0  0  0  0  0  0  0  0  0  0  0  # atno 10765 bound_to 10752
  140.4373  134.6464  157.4741 H   0  0  0  0  0  0  0  0  0  0  0  0  # atno 11005 bound_to 11000
  146.3435  139.9268  142.8759 LP  0  0  0  0  0  0  0  0  0  0  0  0  # atno 17320 bound_to 7965
  145.2263  140.9955  143.4016 LP  0  0  0  0  0  0  0  0  0  0  0  0  # atno 17321 bound_to 7965
  140.0956  143.4836  152.2454 LP  0  0  0  0  0  0  0  0  0  0  0  0  # atno 17342 bound_to 10162
  139.5853  144.7528  151.3536 LP  0  0  0  0  0  0  0  0  0  0  0  0  # atno 17343 bound_to 10162
  157.7317  130.9705  150.1895 LP  0  0  0  0  0  0  0  0  0  0  0  0  # atno 17370 bound_to 10713
  156.2599  130.3709  149.8142 LP  0  0  0  0  0  0  0  0  0  0  0  0  # atno 17371 bound_to 10713
  140.0094  134.6714  155.9405 LP  0  0  0  0  0  0  0  0  0  0  0  0  # atno 17394 bound_to 11000
  141.1720  133.6538  156.4688 LP  0  0  0  0  0  0  0  0  0  0  0  0  # atno 17395 bound_to 11000

$$$$
