AV-unprocessed.smi:992|AV-procd|sdf|4331|dock1
  -GOLD-   22720 2233D 1   1.00000     0.00000
 Structure written by MMmdl.
 32 33  0  0  0  0  0  0  0  0  1 V2000
  152.7118  144.6814  158.0048 C   0  0  0  0  0  0  0  0  0  0  0  0
  151.6658  143.7976  158.7069 C   0  0  1  0  0  0  0  0  0  0  0  0
  150.8724  142.8955  157.7400 C   0  0  0  0  0  0  0  0  0  0  0  0
  151.6924  141.7815  157.2820 N   0  0  0  0  0  0  0  0  0  0  0  0
  151.0657  140.9980  156.3028 C   0  0  0  0  0  0  0  0  0  0  0  0
  151.7492  139.8783  155.7834 C   0  0  0  0  0  0  0  0  0  0  0  0
  151.1151  139.0931  154.8013 C   0  0  0  0  0  0  0  0  0  0  0  0
  149.8236  139.4566  154.3722 C   0  0  0  0  0  0  0  0  0  0  0  0
  149.1555  138.7095  153.4031 N   0  0  0  0  0  0  0  0  0  0  0  0
  149.2233  140.5952  154.9476 C   0  0  0  0  0  0  0  0  0  0  0  0
  149.8241  141.3517  155.8909 N   0  0  0  0  0  0  0  0  0  0  0  0
  152.2435  141.0109  158.3881 C   0  0  0  0  0  0  0  0  0  0  0  0
  153.0632  141.9301  159.3115 C   0  0  2  0  0  0  0  0  0  0  0  0
  153.5787  141.1870  160.5482 C   0  0  0  0  0  0  0  0  0  0  0  0
  152.2422  143.0117  159.7541 O   0  0  0  0  0  0  0  0  0  0  0  0
  152.2323  145.3579  157.2968 H   0  0  0  0  0  0  0  0  0  0  0  0
  153.4420  144.0957  157.4470 H   0  0  0  0  0  0  0  0  0  0  0  0
  153.2526  145.2914  158.7284 H   0  0  0  0  0  0  0  0  0  0  0  0
  150.9565  144.4717  159.1880 H   0  0  0  0  0  0  0  0  0  0  0  0
  149.9919  142.5032  158.2512 H   0  0  0  0  0  0  0  0  0  0  0  0
  150.5129  143.4741  156.8879 H   0  0  0  0  0  0  0  0  0  0  0  0
  152.7394  139.6231  156.1319 H   0  0  0  0  0  0  0  0  0  0  0  0
  151.6142  138.2287  154.3880 H   0  0  0  0  0  0  0  0  0  0  0  0
  149.5776  137.8924  152.9855 H   0  0  0  0  0  0  0  0  0  0  0  0
  148.2669  139.0076  153.0266 H   0  0  0  0  0  0  0  0  0  0  0  0
  148.2346  140.9089  154.6455 H   0  0  0  0  0  0  0  0  0  0  0  0
  151.4335  140.5441  158.9507 H   0  0  0  0  0  0  0  0  0  0  0  0
  152.8726  140.2083  158.0007 H   0  0  0  0  0  0  0  0  0  0  0  0
  153.9246  142.3203  158.7689 H   0  0  0  0  0  0  0  0  0  0  0  0
  154.2184  140.3508  160.2649 H   0  0  0  0  0  0  0  0  0  0  0  0
  152.7549  140.7919  161.1431 H   0  0  0  0  0  0  0  0  0  0  0  0
  154.1621  141.8510  161.1865 H   0  0  0  0  0  0  0  0  0  0  0  0
  1  2  1  0  0  0  0
  1 16  1  0  0  0  0
  1 17  1  0  0  0  0
  1 18  1  0  0  0  0
  2 15  1  0  0  0  0
  2  3  1  0  0  0  0
  2 19  1  0  0  0  0
  3  4  1  0  0  0  0
  3 20  1  0  0  0  0
  3 21  1  0  0  0  0
  4  5  1  0  0  0  0
  4 12  1  0  0  0  0
  5 11  1  0  0  0  0
  5  6  2  0  0  0  0
  6  7  1  0  0  0  0
  6 22  1  0  0  0  0
  7  8  2  0  0  0  0
  7 23  1  0  0  0  0
  8  9  1  0  0  0  0
  8 10  1  0  0  0  0
  9 24  1  0  0  0  0
  9 25  1  0  0  0  0
 10 11  2  0  0  0  0
 10 26  1  0  0  0  0
 12 13  1  0  0  0  0
 12 27  1  0  0  0  0
 12 28  1  0  0  0  0
 13 14  1  0  0  0  0
 13 15  1  0  0  0  0
 13 29  1  0  0  0  0
 14 30  1  0  0  0  0
 14 31  1  0  0  0  0
 14 32  1  0  0  0  0
M  END
> <s_m_source_file>
AV-unprocessed.smi

> <i_m_source_file_index>
992

> <i_lp_mmshare_version>
43012

> <i_f3d_flags>
0

> <s_epik_input>
W0NIM11bQ0BASF0xW0NIMl1OKFtDSDJdW0NASF0oTzEpW0NIM10pYzJbY0hdW2NIXWMoW05IMl0pW2NIXW4y

> <s_epik_cmdline>
J2VwaWtfcHl0aG9uJywgJy1waCcsICc3LjAnLCAnLXRuJywgJzgnLCAnLW1hJywgJzIwMCcsICctbWV0YWxfYmluZGluZycsICctaW1hZScsICc8aW5maWxlLm1hZT4nLCAnLW9tYWUnLCAnPG91dGZpbGUubWFlPic=

> <r_lp_tautomer_probability>
1

> <r_epik_Ionization_Penalty>
0.0126232

> <r_epik_Ionization_Penalty_Charging>
0

> <r_epik_Ionization_Penalty_Neutral>
0.0126232

> <r_epik_State_Penalty>
0.00976577

> <r_epik_Charging_Adjusted_Penalty>
0.00976577

> <i_epik_Tot_Q>
0

> <i_epik_Tot_abs_Q>
0

> <r_epik_Metal_State_Penalty>
9.84661e-06

> <b_epik_Metal_Only>
0

> <s_lp_Force_Field>
OPLS_2005

> <r_lp_Energy>
23.4256

> <b_lp_Chiralities_Consistent>
1

> <s_lp_Variant>
AV-unprocessed.smi:992-3

> <Gold.Version>
5.8.1

> <Gold.Id.Protein>
6NUR|6NUR_protein|mol2

> <Gold.PLP.Fitness>
38.0533

> <Gold.PLP.PLP>
-35.9450

> <Gold.PLP.part.hbond>
-2.0000

> <Gold.PLP.part.metal>
0.0000

> <Gold.PLP.part.buried>
-3.4459

> <Gold.PLP.part.nonpolar>
-31.0918

> <Gold.PLP.part.repulsive>
0.1892

> <Gold.PLP.ligand.clash>
0.0000

> <Gold.PLP.ligand.torsion>
0.1030

> <Gold.PLP.Chemscore.Hbond>
0.7389

> <Gold.PLP.Chemscore.CHOScore>
0.0000

> <Gold.PLP.Chemscore.Metal>
0.0000

> <Gold.Chemscore.Hbonds>
donor molecule, donor type, donor heavy atom, donor atom, acceptor molecule, acceptor atom, score
      L1  H     9    24       P1  7948  0.71

> <Gold.PLP.Chemscore.Internal.Correction>
0.0975

> <Gold.Rescore>
     Score         DG    S(hbond)    S(metal)    S(lipo)     H(rot)  DE(clash)    DE(int)     intcor
     15.78     -15.91       0.84        0.00      87.09       1.00       0.02       0.10       ----

> <Gold.Chemscore.Fitness>
15.7833

> <Gold.Chemscore.DG>
-15.9084

> <Gold.Chemscore.ZeroCoef>
-5.4800

> <Gold.Chemscore.Hbond>
0.8379

> <Gold.Chemscore.Metal>
0.0000

> <Gold.Chemscore.Lipo>
87.0927

> <Gold.Chemscore.Internal_Hbond>
0.0000

> <Gold.Chemscore.DEClash>
0.0203

> <Gold.Chemscore.DEInternal>
0.1049

> <Gold.Chemscore.Rot>
1.0000

> <Gold.Chemscore.Internal.Correction>
   9.000000E+99

> <Gold.Chemscore.Hbonds>
donor molecule, donor type, donor heavy atom, donor atom, acceptor molecule, acceptor atom, score
      L1  H     9    24       P1  7948  0.54

> <Gold.Chemscore.Hbond.Weighted>
-2.7986

> <Gold.Chemscore.Metal.Weighted>
-0.0000

> <Gold.Chemscore.Lipo.Weighted>
-10.1898

> <Gold.Chemscore.Internal_Hbond.Weighted>
0.0000

> <Gold.Chemscore.DEClash.Weighted>
0.0203

> <Gold.Chemscore.DEInternal.Weighted>
0.1049

> <Gold.Chemscore.Rot.Weighted>
2.5600

> <Gold.Chemscore.Internal.Correction.Weighted>
   9.000000E+99

> <Gold.Protein.RotatedTorsions>
[ 6907 6896 6895 6894 ] final -111.85 input  -60.11 | X-H torsion
[ 7974 7965 7964 7962 ] final  -37.31 input  175.53 | X-H torsion
[ 8008 7997 7996 7995 ] final -164.68 input   59.86 | X-H torsion
[ 10167 10162 10161 10158 ] final  174.52 input  -65.29 | X-H torsion
[ 10718 10713 10712 10709 ] final -161.18 input   66.30 | X-H torsion
[ 10763 10752 10751 10750 ] final   33.20 input  -60.55 | X-H torsion
[ 11005 11000 10999 10996 ] final   23.61 input  -57.11 | X-H torsion

> <Gold.Protein.ActiveResidues>
 VAL166  LYS551  ARG553  GLY616  TRP617  ASP618  TYR619  PRO620  LYS621  CYS622 
 ASP623  PHE694  ASN695  SER759  ASP760  ASP761  ALA762  ILE779  LEU786  VAL792 
 PHE793  MET794  SER795  GLU796  ALA797  LYS798  CYS799  TRP800  GLU811  SER814 

> <Gold.Protein.RotatedAtoms>
  150.7718  133.9176  159.3387 H   0  0  0  0  0  0  0  0  0  0  0  0  # atno 6907 bound_to 6896
  151.7060  135.0919  160.0269 H   0  0  0  0  0  0  0  0  0  0  0  0  # atno 6908 bound_to 6896
  152.3738  133.6416  159.6143 H   0  0  0  0  0  0  0  0  0  0  0  0  # atno 6909 bound_to 6896
  146.0586  140.6381  142.9008 H   0  0  0  0  0  0  0  0  0  0  0  0  # atno 7974 bound_to 7965
  155.8390  140.0945  157.1746 H   0  0  0  0  0  0  0  0  0  0  0  0  # atno 8008 bound_to 7997
  154.3981  140.1404  156.3767 H   0  0  0  0  0  0  0  0  0  0  0  0  # atno 8009 bound_to 7997
  155.8085  140.3450  155.5446 H   0  0  0  0  0  0  0  0  0  0  0  0  # atno 8010 bound_to 7997
  139.5145  144.3137  152.0267 H   0  0  0  0  0  0  0  0  0  0  0  0  # atno 10167 bound_to 10162
  156.5927  130.8777  151.2894 H   0  0  0  0  0  0  0  0  0  0  0  0  # atno 10718 bound_to 10713
  153.0224  135.6393  154.1474 H   0  0  0  0  0  0  0  0  0  0  0  0  # atno 10763 bound_to 10752
  154.1207  135.2847  155.3210 H   0  0  0  0  0  0  0  0  0  0  0  0  # atno 10764 bound_to 10752
  154.6265  135.5507  153.7695 H   0  0  0  0  0  0  0  0  0  0  0  0  # atno 10765 bound_to 10752
  140.3677  134.2056  155.7668 H   0  0  0  0  0  0  0  0  0  0  0  0  # atno 11005 bound_to 11000
  144.7162  140.4216  143.7043 LP  0  0  0  0  0  0  0  0  0  0  0  0  # atno 17320 bound_to 7965
  145.6600  139.1580  143.2813 LP  0  0  0  0  0  0  0  0  0  0  0  0  # atno 17321 bound_to 7965
  140.2581  144.4097  150.6196 LP  0  0  0  0  0  0  0  0  0  0  0  0  # atno 17342 bound_to 10162
  140.6177  143.2173  151.6758 LP  0  0  0  0  0  0  0  0  0  0  0  0  # atno 17343 bound_to 10162
  157.7300  130.9678  150.1811 LP  0  0  0  0  0  0  0  0  0  0  0  0  # atno 17370 bound_to 10713
  156.2536  130.3703  149.8205 LP  0  0  0  0  0  0  0  0  0  0  0  0  # atno 17371 bound_to 10713
  141.1964  133.8083  157.0672 LP  0  0  0  0  0  0  0  0  0  0  0  0  # atno 17394 bound_to 11000
  140.0576  134.9772  157.1248 LP  0  0  0  0  0  0  0  0  0  0  0  0  # atno 17395 bound_to 11000

$$$$
