AV-unprocessed.smi:1236|AV-procd|sdf|5182|dock10
  -GOLD-   22720 4263D 1   1.00000     0.00000
 Structure written by MMmdl.
 40 41  0  0  0  0  0  0  0  0  2 V2000
  146.5034  138.0256  155.3670 C   0  0  0  0  0  0  0  0  0  0  0  0
  146.3229  138.3933  153.8880 C   0  0  1  0  0  0  0  0  0  0  0  0
  147.2304  139.5816  153.4918 C   0  0  0  0  0  0  0  0  0  0  0  0
  148.4084  139.7381  154.3824 N   0  3  0  0  0  0  0  0  0  0  0  0
  149.4880  138.7574  154.1152 C   0  0  0  0  0  0  0  0  0  0  0  0
  150.6229  138.9304  155.1377 C   0  0  0  0  0  0  0  0  0  0  0  0
  151.1165  140.2632  155.0756 O   0  0  0  0  0  0  0  0  0  0  0  0
  150.1139  141.2194  155.3991 C   0  0  0  0  0  0  0  0  0  0  0  0
  148.9526  141.1157  154.3951 C   0  0  0  0  0  0  0  0  0  0  0  0
  146.5970  137.2120  153.0680 N   0  0  0  0  0  0  0  0  0  0  0  0
  145.6873  136.3265  152.6330 C   0  0  0  0  0  0  0  0  0  0  0  0
  144.4818  136.4270  152.8626 O   0  0  0  0  0  0  0  0  0  0  0  0
  146.2634  135.3452  151.9169 N   0  0  0  0  0  0  0  0  0  0  0  0
  145.6313  134.2643  151.2463 C   0  0  0  0  0  0  0  0  0  0  0  0
  146.5104  133.3371  150.6424 C   0  0  0  0  0  0  0  0  0  0  0  0
  145.9813  132.2303  149.9501 C   0  0  0  0  0  0  0  0  0  0  0  0
  144.5850  132.0801  149.8784 C   0  0  0  0  0  0  0  0  0  0  0  0
  143.7805  133.0492  150.5056 C   0  0  0  0  0  0  0  0  0  0  0  0
  144.2856  134.1111  151.1688 N   0  0  0  0  0  0  0  0  0  0  0  0
  146.2699  138.8726  156.0130 H   0  0  0  0  0  0  0  0  0  0  0  0
  147.5281  137.7189  155.5800 H   0  0  0  0  0  0  0  0  0  0  0  0
  145.8439  137.2050  155.6519 H   0  0  0  0  0  0  0  0  0  0  0  0
  145.2783  138.6806  153.7614 H   0  0  0  0  0  0  0  0  0  0  0  0
  147.5657  139.4847  152.4581 H   0  0  0  0  0  0  0  0  0  0  0  0
  146.6304  140.4921  153.5302 H   0  0  0  0  0  0  0  0  0  0  0  0
  149.1018  137.7401  154.1717 H   0  0  0  0  0  0  0  0  0  0  0  0
  149.8718  138.8975  153.1034 H   0  0  0  0  0  0  0  0  0  0  0  0
  150.2762  138.7021  156.1472 H   0  0  0  0  0  0  0  0  0  0  0  0
  151.4375  138.2405  154.9167 H   0  0  0  0  0  0  0  0  0  0  0  0
  149.7610  141.0618  156.4197 H   0  0  0  0  0  0  0  0  0  0  0  0
  150.5530  142.2165  155.3639 H   0  0  0  0  0  0  0  0  0  0  0  0
  149.2936  141.3849  153.3943 H   0  0  0  0  0  0  0  0  0  0  0  0
  148.1689  141.8228  154.6705 H   0  0  0  0  0  0  0  0  0  0  0  0
  147.5642  137.0467  152.8296 H   0  0  0  0  0  0  0  0  0  0  0  0
  147.2682  135.3815  151.8287 H   0  0  0  0  0  0  0  0  0  0  0  0
  147.5810  133.4669  150.7068 H   0  0  0  0  0  0  0  0  0  0  0  0
  146.6366  131.5100  149.4828 H   0  0  0  0  0  0  0  0  0  0  0  0
  144.1421  131.2445  149.3564 H   0  0  0  0  0  0  0  0  0  0  0  0
  142.7038  132.9717  150.4736 H   0  0  0  0  0  0  0  0  0  0  0  0
  148.0787  139.5577  155.3203 H   0  0  0  0  0  0  0  0  0  0  0  0
  1  2  1  0  0  0  0
  1 20  1  0  0  0  0
  1 21  1  0  0  0  0
  1 22  1  0  0  0  0
  2  3  1  0  0  0  0
  2 10  1  0  0  0  0
  2 23  1  0  0  0  0
  3  4  1  0  0  0  0
  3 24  1  0  0  0  0
  3 25  1  0  0  0  0
  4  9  1  0  0  0  0
  4  5  1  0  0  0  0
  4 40  1  0  0  0  0
  5  6  1  0  0  0  0
  5 26  1  0  0  0  0
  5 27  1  0  0  0  0
  6  7  1  0  0  0  0
  6 28  1  0  0  0  0
  6 29  1  0  0  0  0
  7  8  1  0  0  0  0
  8  9  1  0  0  0  0
  8 30  1  0  0  0  0
  8 31  1  0  0  0  0
  9 32  1  0  0  0  0
  9 33  1  0  0  0  0
 10 11  1  0  0  0  0
 10 34  1  0  0  0  0
 11 12  2  0  0  0  0
 11 13  1  0  0  0  0
 13 14  1  0  0  0  0
 13 35  1  0  0  0  0
 14 19  1  0  0  0  0
 14 15  2  0  0  0  0
 15 16  1  0  0  0  0
 15 36  1  0  0  0  0
 16 17  2  0  0  0  0
 16 37  1  0  0  0  0
 17 18  1  0  0  0  0
 17 38  1  0  0  0  0
 18 19  2  0  0  0  0
 18 39  1  0  0  0  0
M  CHG  1   4   1
M  END
> <s_m_source_file>
AV-unprocessed.smi

> <i_m_source_file_index>
1236

> <i_lp_mmshare_version>
43012

> <i_f3d_flags>
0

> <s_epik_input>
W0NIMl0xW0NIMl1PW0NIMl1bQ0gyXU4xW0NIMl1bQ0BASF0oW0NIM10pW05IXUMoPU8pW05IXWMyW2NIXVtjSF1bY0hdW2NIXW4y

> <s_epik_cmdline>
J2VwaWtfcHl0aG9uJywgJy1waCcsICc3LjAnLCAnLXRuJywgJzgnLCAnLW1hJywgJzIwMCcsICctbWV0YWxfYmluZGluZycsICctaW1hZScsICc8aW5maWxlLm1hZT4nLCAnLW9tYWUnLCAnPG91dGZpbGUubWFlPic=

> <r_epik_Ionization_Penalty>
0.602564

> <r_epik_Ionization_Penalty_Charging>
0.602531

> <r_epik_Ionization_Penalty_Neutral>
3.36306e-05

> <r_epik_State_Penalty>
0.617039

> <r_epik_Charging_Adjusted_Penalty>
1.21957

> <i_epik_Tot_Q>
1

> <i_epik_Tot_abs_Q>
1

> <r_epik_Metal_State_Penalty>
0.617041

> <b_epik_Metal_Only>
0

> <s_lp_Force_Field>
OPLS_2005

> <r_lp_Energy>
24.274

> <b_lp_Chiralities_Consistent>
1

> <s_lp_Variant>
AV-unprocessed.smi:1236-4

> <Gold.Version>
5.8.1

> <Gold.Id.Protein>
6NUR|6NUR_protein|mol2

> <Gold.PLP.Fitness>
42.7601

> <Gold.PLP.PLP>
-33.0818

> <Gold.PLP.part.hbond>
-3.0000

> <Gold.PLP.part.metal>
0.0000

> <Gold.PLP.part.buried>
-5.1111

> <Gold.PLP.part.nonpolar>
-26.1028

> <Gold.PLP.part.repulsive>
0.4352

> <Gold.PLP.ligand.clash>
0.2069

> <Gold.PLP.ligand.torsion>
1.0715

> <Gold.PLP.Chemscore.Hbond>
3.0000

> <Gold.PLP.Chemscore.CHOScore>
1.0000

> <Gold.PLP.Chemscore.Metal>
0.0000

> <Gold.Chemscore.Hbonds>
donor molecule, donor type, donor heavy atom, donor atom, acceptor molecule, acceptor atom, score
      L1  H    10    34       P1  7948  1.00
      L1  H    13    35       P1  7948  1.00
      P1  H  7989  7998       L1     7  1.00
      L1  C    18    39       P1 10186  1.00

> <Gold.PLP.Chemscore.Internal.Correction>
0.0281

> <Gold.Rescore>
     Score         DG    S(hbond)    S(metal)    S(lipo)     H(rot)  DE(clash)    DE(int)     intcor
     17.59     -20.02       2.76        0.00      79.49       1.56       0.14       2.29       ----

> <Gold.Chemscore.Fitness>
17.5945

> <Gold.Chemscore.DG>
-20.0161

> <Gold.Chemscore.ZeroCoef>
-5.4800

> <Gold.Chemscore.Hbond>
2.7620

> <Gold.Chemscore.Metal>
0.0000

> <Gold.Chemscore.Lipo>
79.4920

> <Gold.Chemscore.Internal_Hbond>
0.0000

> <Gold.Chemscore.DEClash>
0.1352

> <Gold.Chemscore.DEInternal>
2.2864

> <Gold.Chemscore.Rot>
1.5584

> <Gold.Chemscore.Internal.Correction>
   9.000000E+99

> <Gold.Chemscore.Hbonds>
donor molecule, donor type, donor heavy atom, donor atom, acceptor molecule, acceptor atom, score
      L1  H    10    34       P1  7948  0.98
      L1  H    13    35       P1  7948  0.98
      P1  H  7989  7998       L1     7  0.24

> <Gold.Chemscore.Hbond.Weighted>
-9.2252

> <Gold.Chemscore.Metal.Weighted>
-0.0000

> <Gold.Chemscore.Lipo.Weighted>
-9.3006

> <Gold.Chemscore.Internal_Hbond.Weighted>
0.0000

> <Gold.Chemscore.DEClash.Weighted>
0.1352

> <Gold.Chemscore.DEInternal.Weighted>
2.2864

> <Gold.Chemscore.Rot.Weighted>
3.9896

> <Gold.Chemscore.Internal.Correction.Weighted>
   9.000000E+99

> <Gold.Protein.RotatedTorsions>
[ 6907 6896 6895 6894 ] final  -83.95 input  -60.11 | X-H torsion
[ 7974 7965 7964 7962 ] final   46.30 input  175.53 | X-H torsion
[ 8008 7997 7996 7995 ] final   -4.38 input   59.86 | X-H torsion
[ 10167 10162 10161 10158 ] final  158.63 input  -65.29 | X-H torsion
[ 10718 10713 10712 10709 ] final  150.61 input   66.30 | X-H torsion
[ 10763 10752 10751 10750 ] final  150.29 input  -60.55 | X-H torsion
[ 11005 11000 10999 10996 ] final  -70.46 input  -57.11 | X-H torsion

> <Gold.Protein.ActiveResidues>
 VAL166  LYS551  ARG553  GLY616  TRP617  ASP618  TYR619  PRO620  LYS621  CYS622 
 ASP623  PHE694  ASN695  SER759  ASP760  ASP761  ALA762  ILE779  LEU786  VAL792 
 PHE793  MET794  SER795  GLU796  ALA797  LYS798  CYS799  TRP800  GLU811  SER814 

> <Gold.Protein.RotatedAtoms>
  150.6880  134.3433  159.4877 H   0  0  0  0  0  0  0  0  0  0  0  0  # atno 6907 bound_to 6896
  152.1284  134.9151  160.0569 H   0  0  0  0  0  0  0  0  0  0  0  0  # atno 6908 bound_to 6896
  152.0330  133.3910  159.4342 H   0  0  0  0  0  0  0  0  0  0  0  0  # atno 6909 bound_to 6896
  146.0402  139.4870  142.9783 H   0  0  0  0  0  0  0  0  0  0  0  0  # atno 7974 bound_to 7965
  154.6149  140.2485  155.7622 H   0  0  0  0  0  0  0  0  0  0  0  0  # atno 8008 bound_to 7997
  156.2392  140.2939  156.0347 H   0  0  0  0  0  0  0  0  0  0  0  0  # atno 8009 bound_to 7997
  155.1992  140.0394  157.2904 H   0  0  0  0  0  0  0  0  0  0  0  0  # atno 8010 bound_to 7997
  139.4828  144.4807  151.8449 H   0  0  0  0  0  0  0  0  0  0  0  0  # atno 10167 bound_to 10162
  157.2813  131.0836  151.1530 H   0  0  0  0  0  0  0  0  0  0  0  0  # atno 10718 bound_to 10713
  154.0851  135.2856  155.3283 H   0  0  0  0  0  0  0  0  0  0  0  0  # atno 10763 bound_to 10752
  154.6658  135.5318  153.8078 H   0  0  0  0  0  0  0  0  0  0  0  0  # atno 10764 bound_to 10752
  153.0434  135.6545  154.1023 H   0  0  0  0  0  0  0  0  0  0  0  0  # atno 10765 bound_to 10752
  141.1574  133.6790  156.6756 H   0  0  0  0  0  0  0  0  0  0  0  0  # atno 11005 bound_to 11000
  145.6898  141.0167  143.1562 LP  0  0  0  0  0  0  0  0  0  0  0  0  # atno 17320 bound_to 7965
  144.7071  139.8519  143.7426 LP  0  0  0  0  0  0  0  0  0  0  0  0  # atno 17321 bound_to 7965
  140.4282  144.2151  150.5887 LP  0  0  0  0  0  0  0  0  0  0  0  0  # atno 17342 bound_to 10162
  140.4806  143.2380  151.8961 LP  0  0  0  0  0  0  0  0  0  0  0  0  # atno 17343 bound_to 10162
  157.2962  130.6820  149.6140 LP  0  0  0  0  0  0  0  0  0  0  0  0  # atno 17370 bound_to 10713
  155.9664  130.4406  150.5305 LP  0  0  0  0  0  0  0  0  0  0  0  0  # atno 17371 bound_to 10713
  140.3141  134.8061  157.4200 LP  0  0  0  0  0  0  0  0  0  0  0  0  # atno 17394 bound_to 11000
  140.1153  134.5291  155.8230 LP  0  0  0  0  0  0  0  0  0  0  0  0  # atno 17395 bound_to 11000

$$$$
