AV-unprocessed.smi:1821|AV-procd|sdf|7387|dock3
  -GOLD-   22720 9 53D 1   1.00000     0.00000
 Structure written by MMmdl.
 35 37  0  0  0  0  0  0  0  0  1 V2000
  151.7531  137.7058  155.4266 C   0  0  0  0  0  0  0  0  0  0  0  0
  150.6213  138.5871  155.0015 C   0  0  0  0  0  0  0  0  0  0  0  0
  149.6232  138.1438  154.2371 N   0  0  0  0  0  0  0  0  0  0  0  0
  148.8259  139.2641  154.1007 C   0  0  0  0  0  0  0  0  0  0  0  0
  147.6113  139.4472  153.4017 C   0  0  0  0  0  0  0  0  0  0  0  0
  146.9683  140.7024  153.4044 C   0  0  0  0  0  0  0  0  0  0  0  0
  147.5292  141.7904  154.1042 C   0  0  0  0  0  0  0  0  0  0  0  0
  148.7388  141.6296  154.8070 C   0  0  0  0  0  0  0  0  0  0  0  0
  149.3765  140.3745  154.8018 C   0  0  0  0  0  0  0  0  0  0  0  0
  150.5484  139.8885  155.3737 N   0  0  0  0  0  0  0  0  0  0  0  0
  151.4872  140.6393  156.1960 C   0  0  0  0  0  0  0  0  0  0  0  0
  150.8081  141.3363  157.3932 C   0  0  1  0  0  0  0  0  0  0  0  0
  149.7447  140.5428  157.8856 O   0  0  0  0  0  0  0  0  0  0  0  0
  151.8196  141.6925  158.4772 C   0  0  0  0  0  0  0  0  0  0  0  0
  152.1296  143.0443  158.7621 C   0  0  0  0  0  0  0  0  0  0  0  0
  151.5307  144.0486  158.0777 F   0  0  0  0  0  0  0  0  0  0  0  0
  153.0631  143.3624  159.7675 C   0  0  0  0  0  0  0  0  0  0  0  0
  153.6896  142.3381  160.5008 C   0  0  0  0  0  0  0  0  0  0  0  0
  153.3794  140.9926  160.2304 C   0  0  0  0  0  0  0  0  0  0  0  0
  152.4478  140.6689  159.2247 C   0  0  0  0  0  0  0  0  0  0  0  0
  152.1605  139.3664  158.9863 F   0  0  0  0  0  0  0  0  0  0  0  0
  151.6300  136.7029  155.0165 H   0  0  0  0  0  0  0  0  0  0  0  0
  151.7852  137.6292  156.5136 H   0  0  0  0  0  0  0  0  0  0  0  0
  152.7022  138.1056  155.0707 H   0  0  0  0  0  0  0  0  0  0  0  0
  147.1740  138.6200  152.8622 H   0  0  0  0  0  0  0  0  0  0  0  0
  146.0406  140.8312  152.8661 H   0  0  0  0  0  0  0  0  0  0  0  0
  147.0312  142.7489  154.1001 H   0  0  0  0  0  0  0  0  0  0  0  0
  149.1737  142.4617  155.3405 H   0  0  0  0  0  0  0  0  0  0  0  0
  152.2647  139.9570  156.5417 H   0  0  0  0  0  0  0  0  0  0  0  0
  151.9914  141.3749  155.5687 H   0  0  0  0  0  0  0  0  0  0  0  0
  150.3425  142.2545  157.0370 H   0  0  0  0  0  0  0  0  0  0  0  0
  149.7032  140.6446  158.8243 H   0  0  0  0  0  0  0  0  0  0  0  0
  153.2969  144.3957  159.9778 H   0  0  0  0  0  0  0  0  0  0  0  0
  154.4043  142.5844  161.2722 H   0  0  0  0  0  0  0  0  0  0  0  0
  153.8561  140.2060  160.7965 H   0  0  0  0  0  0  0  0  0  0  0  0
  1  2  1  0  0  0  0
  1 22  1  0  0  0  0
  1 23  1  0  0  0  0
  1 24  1  0  0  0  0
  2 10  1  0  0  0  0
  2  3  2  0  0  0  0
  3  4  1  0  0  0  0
  4  9  2  0  0  0  0
  4  5  1  0  0  0  0
  5  6  2  0  0  0  0
  5 25  1  0  0  0  0
  6  7  1  0  0  0  0
  6 26  1  0  0  0  0
  7  8  2  0  0  0  0
  7 27  1  0  0  0  0
  8  9  1  0  0  0  0
  8 28  1  0  0  0  0
  9 10  1  0  0  0  0
 10 11  1  0  0  0  0
 11 12  1  0  0  0  0
 11 29  1  0  0  0  0
 11 30  1  0  0  0  0
 12 13  1  0  0  0  0
 12 14  1  0  0  0  0
 12 31  1  0  0  0  0
 13 32  1  0  0  0  0
 14 20  1  0  0  0  0
 14 15  2  0  0  0  0
 15 16  1  0  0  0  0
 15 17  1  0  0  0  0
 17 18  2  0  0  0  0
 17 33  1  0  0  0  0
 18 19  1  0  0  0  0
 18 34  1  0  0  0  0
 19 20  2  0  0  0  0
 19 35  1  0  0  0  0
 20 21  1  0  0  0  0
M  END
> <s_m_source_file>
AV-unprocessed.smi

> <i_m_source_file_index>
1821

> <i_lp_mmshare_version>
43012

> <i_f3d_flags>
0

> <s_epik_input>
W2NIXTFbY0hdW2NIXVtjSF1jKGMxMiluKGMobjIpW0NIM10pW0NIMl1bQ0BIXShbT0hdKWMzYyhGKVtjSF1bY0hdW2NIXWMzRg==

> <s_epik_cmdline>
J2VwaWtfcHl0aG9uJywgJy1waCcsICc3LjAnLCAnLXRuJywgJzgnLCAnLW1hJywgJzIwMCcsICctbWV0YWxfYmluZGluZycsICctaW1hZScsICc8aW5maWxlLm1hZT4nLCAnLW9tYWUnLCAnPG91dGZpbGUubWFlPic=

> <r_epik_Ionization_Penalty>
0.129663

> <r_epik_Ionization_Penalty_Charging>
0

> <r_epik_Ionization_Penalty_Neutral>
0.129663

> <r_epik_State_Penalty>
0.119073

> <r_epik_Charging_Adjusted_Penalty>
0.119073

> <i_epik_Tot_Q>
0

> <i_epik_Tot_abs_Q>
0

> <r_epik_Metal_State_Penalty>
0.000131867

> <b_epik_Metal_Only>
0

> <s_lp_Force_Field>
OPLS_2005

> <r_lp_Energy>
13.032

> <b_lp_Chiralities_Consistent>
1

> <s_lp_Variant>
AV-unprocessed.smi:1821-2

> <Gold.Version>
5.8.1

> <Gold.Id.Protein>
6NUR|6NUR_protein|mol2

> <Gold.PLP.Fitness>
47.2699

> <Gold.PLP.PLP>
-47.9380

> <Gold.PLP.part.hbond>
0.0000

> <Gold.PLP.part.metal>
0.0000

> <Gold.PLP.part.buried>
-1.2133

> <Gold.PLP.part.nonpolar>
-46.6868

> <Gold.PLP.part.repulsive>
0.4979

> <Gold.PLP.ligand.clash>
0.0000

> <Gold.PLP.ligand.torsion>
0.3522

> <Gold.PLP.Chemscore.Hbond>
0.0000

> <Gold.PLP.Chemscore.CHOScore>
0.0000

> <Gold.PLP.Chemscore.Metal>
0.0000

> <Gold.PLP.Chemscore.Internal.Correction>
0.0364

> <Gold.Rescore>
     Score         DG    S(hbond)    S(metal)    S(lipo)     H(rot)  DE(clash)    DE(int)     intcor
     13.08     -14.60       0.00        0.00     119.15       1.88       0.02       1.49       ----

> <Gold.Chemscore.Fitness>
13.0812

> <Gold.Chemscore.DG>
-14.5976

> <Gold.Chemscore.ZeroCoef>
-5.4800

> <Gold.Chemscore.Hbond>
0.0000

> <Gold.Chemscore.Metal>
0.0000

> <Gold.Chemscore.Lipo>
119.1479

> <Gold.Chemscore.Internal_Hbond>
0.0000

> <Gold.Chemscore.DEClash>
0.0233

> <Gold.Chemscore.DEInternal>
1.4931

> <Gold.Chemscore.Rot>
1.8839

> <Gold.Chemscore.Internal.Correction>
   9.000000E+99

> <Gold.Chemscore.Hbond.Weighted>
-0.0000

> <Gold.Chemscore.Metal.Weighted>
-0.0000

> <Gold.Chemscore.Lipo.Weighted>
-13.9403

> <Gold.Chemscore.Internal_Hbond.Weighted>
0.0000

> <Gold.Chemscore.DEClash.Weighted>
0.0233

> <Gold.Chemscore.DEInternal.Weighted>
1.4931

> <Gold.Chemscore.Rot.Weighted>
4.8227

> <Gold.Chemscore.Internal.Correction.Weighted>
   9.000000E+99

> <Gold.Protein.RotatedTorsions>
[ 6907 6896 6895 6894 ] final  135.55 input  -60.11 | X-H torsion
[ 7974 7965 7964 7962 ] final -131.87 input  175.53 | X-H torsion
[ 8008 7997 7996 7995 ] final   95.05 input   59.86 | X-H torsion
[ 10167 10162 10161 10158 ] final   24.92 input  -65.29 | X-H torsion
[ 10718 10713 10712 10709 ] final   27.02 input   66.30 | X-H torsion
[ 10763 10752 10751 10750 ] final  -70.39 input  -60.55 | X-H torsion
[ 11005 11000 10999 10996 ] final  168.75 input  -57.11 | X-H torsion

> <Gold.Protein.ActiveResidues>
 VAL166  LYS551  ARG553  GLY616  TRP617  ASP618  TYR619  PRO620  LYS621  CYS622 
 ASP623  PHE694  ASN695  SER759  ASP760  ASP761  ALA762  ILE779  LEU786  VAL792 
 PHE793  MET794  SER795  GLU796  ALA797  LYS798  CYS799  TRP800  GLU811  SER814 

> <Gold.Protein.RotatedAtoms>
  152.2991  133.5638  159.5606 H   0  0  0  0  0  0  0  0  0  0  0  0  # atno 6907 bound_to 6896
  150.7269  134.0317  159.3744 H   0  0  0  0  0  0  0  0  0  0  0  0  # atno 6908 bound_to 6896
  151.8218  135.0649  160.0477 H   0  0  0  0  0  0  0  0  0  0  0  0  # atno 6909 bound_to 6896
  144.9338  140.7160  143.4889 H   0  0  0  0  0  0  0  0  0  0  0  0  # atno 7974 bound_to 7965
  156.0647  140.3291  155.7503 H   0  0  0  0  0  0  0  0  0  0  0  0  # atno 8008 bound_to 7997
  155.5400  140.0601  157.2889 H   0  0  0  0  0  0  0  0  0  0  0  0  # atno 8009 bound_to 7997
  154.4499  140.1912  156.0570 H   0  0  0  0  0  0  0  0  0  0  0  0  # atno 8010 bound_to 7997
  140.5149  144.0100  150.6389 H   0  0  0  0  0  0  0  0  0  0  0  0  # atno 10167 bound_to 10162
  157.2146  130.6950  149.6243 H   0  0  0  0  0  0  0  0  0  0  0  0  # atno 10718 bound_to 10713
  154.4170  135.5995  153.5987 H   0  0  0  0  0  0  0  0  0  0  0  0  # atno 10763 bound_to 10752
  152.9792  135.5943  154.4001 H   0  0  0  0  0  0  0  0  0  0  0  0  # atno 10764 bound_to 10752
  154.3821  135.2841  155.2183 H   0  0  0  0  0  0  0  0  0  0  0  0  # atno 10765 bound_to 10752
  140.2905  134.7677  157.3834 H   0  0  0  0  0  0  0  0  0  0  0  0  # atno 11005 bound_to 11000
  145.3099  139.1822  143.4644 LP  0  0  0  0  0  0  0  0  0  0  0  0  # atno 17320 bound_to 7965
  146.3258  140.3102  142.8626 LP  0  0  0  0  0  0  0  0  0  0  0  0  # atno 17321 bound_to 7965
  140.3432  143.3007  152.0566 LP  0  0  0  0  0  0  0  0  0  0  0  0  # atno 17342 bound_to 10162
  139.4906  144.6427  151.6843 LP  0  0  0  0  0  0  0  0  0  0  0  0  # atno 17343 bound_to 10162
  155.9687  130.4540  150.5833 LP  0  0  0  0  0  0  0  0  0  0  0  0  # atno 17370 bound_to 10713
  157.3638  131.0754  151.1615 LP  0  0  0  0  0  0  0  0  0  0  0  0  # atno 17371 bound_to 10713
  140.1200  134.5232  155.8192 LP  0  0  0  0  0  0  0  0  0  0  0  0  # atno 17394 bound_to 11000
  141.2147  133.6753  156.6848 LP  0  0  0  0  0  0  0  0  0  0  0  0  # atno 17395 bound_to 11000

$$$$
