AV-unprocessed.smi:2342|AV-procd|sdf|9355|dock6
  -GOLD-   2272012573D 1   1.00000     0.00000
 Structure written by MMmdl.
 38 38  0  0  0  0  0  0  0  0  2 V2000
  149.8513  141.5504  156.7823 C   0  0  0  0  0  0  0  0  0  0  0  0
  151.2360  141.0211  157.2121 C   0  0  1  0  0  0  0  0  0  0  0  0
  151.1580  140.0317  158.4030 C   0  0  0  0  0  0  0  0  0  0  0  0
  150.7367  138.7001  157.9834 N   0  0  0  0  0  0  0  0  0  0  0  0
  150.4840  137.6681  158.8030 C   0  0  0  0  0  0  0  0  0  0  0  0
  150.6694  137.7019  160.0193 O   0  0  0  0  0  0  0  0  0  0  0  0
  149.9135  136.4089  158.1486 C   0  0  0  0  0  0  0  0  0  0  0  0
  148.6264  136.0259  158.8208 C   0  0  0  0  0  0  0  0  0  0  0  0
  147.4265  135.7576  158.2121 C   0  0  0  0  0  0  0  0  0  0  0  0
  146.2011  135.3090  159.3644 S   0  0  0  0  0  0  0  0  0  0  0  0
  147.3787  135.5113  160.6670 C   0  0  0  0  0  0  0  0  0  0  0  0
  147.1038  135.2654  162.1309 C   0  0  0  0  0  0  0  0  0  0  0  0
  147.3586  136.5571  162.9320 C   0  0  0  0  0  0  0  0  0  0  0  0
  148.0319  134.1704  162.6997 C   0  0  0  0  0  0  0  0  0  0  0  0
  145.6510  134.7870  162.3187 C   0  0  0  0  0  0  0  0  0  0  0  0
  148.5765  135.8962  160.2126 N   0  0  0  0  0  0  0  0  0  0  0  0
  151.9657  140.4103  155.9995 C   0  0  0  0  0  0  0  0  0  0  0  0
  151.3516  140.3227  154.9124 O   0  0  0  0  0  0  0  0  0  0  0  0
  153.1431  140.0289  156.1822 O   0  5  0  0  0  0  0  0  0  0  0  0
  149.9165  142.2114  155.9176 H   0  0  0  0  0  0  0  0  0  0  0  0
  149.3851  142.1271  157.5808 H   0  0  0  0  0  0  0  0  0  0  0  0
  149.1760  140.7332  156.5271 H   0  0  0  0  0  0  0  0  0  0  0  0
  151.8357  141.8777  157.5230 H   0  0  0  0  0  0  0  0  0  0  0  0
  152.1371  139.9297  158.8727 H   0  0  0  0  0  0  0  0  0  0  0  0
  150.4806  140.4030  159.1743 H   0  0  0  0  0  0  0  0  0  0  0  0
  150.5533  138.5743  156.9985 H   0  0  0  0  0  0  0  0  0  0  0  0
  149.7595  136.5925  157.0844 H   0  0  0  0  0  0  0  0  0  0  0  0
  150.6418  135.6002  158.2214 H   0  0  0  0  0  0  0  0  0  0  0  0
  147.1952  135.7816  157.1573 H   0  0  0  0  0  0  0  0  0  0  0  0
  147.1767  136.4083  163.9969 H   0  0  0  0  0  0  0  0  0  0  0  0
  146.7082  137.3681  162.6019 H   0  0  0  0  0  0  0  0  0  0  0  0
  148.3886  136.8975  162.8184 H   0  0  0  0  0  0  0  0  0  0  0  0
  149.0830  134.4501  162.6177 H   0  0  0  0  0  0  0  0  0  0  0  0
  147.8983  133.2205  162.1807 H   0  0  0  0  0  0  0  0  0  0  0  0
  147.8302  133.9902  163.7564 H   0  0  0  0  0  0  0  0  0  0  0  0
  145.4309  134.5859  163.3676 H   0  0  0  0  0  0  0  0  0  0  0  0
  145.4601  133.8700  161.7597 H   0  0  0  0  0  0  0  0  0  0  0  0
  144.9361  135.5356  161.9758 H   0  0  0  0  0  0  0  0  0  0  0  0
  1  2  1  0  0  0  0
  1 20  1  0  0  0  0
  1 21  1  0  0  0  0
  1 22  1  0  0  0  0
  2  3  1  0  0  0  0
  2 17  1  0  0  0  0
  2 23  1  0  0  0  0
  3  4  1  0  0  0  0
  3 24  1  0  0  0  0
  3 25  1  0  0  0  0
  4  5  1  0  0  0  0
  4 26  1  0  0  0  0
  5  6  2  0  0  0  0
  5  7  1  0  0  0  0
  7  8  1  0  0  0  0
  7 27  1  0  0  0  0
  7 28  1  0  0  0  0
  8 16  1  0  0  0  0
  8  9  2  0  0  0  0
  9 10  1  0  0  0  0
  9 29  1  0  0  0  0
 10 11  1  0  0  0  0
 11 12  1  0  0  0  0
 11 16  2  0  0  0  0
 12 13  1  0  0  0  0
 12 14  1  0  0  0  0
 12 15  1  0  0  0  0
 13 30  1  0  0  0  0
 13 31  1  0  0  0  0
 13 32  1  0  0  0  0
 14 33  1  0  0  0  0
 14 34  1  0  0  0  0
 14 35  1  0  0  0  0
 15 36  1  0  0  0  0
 15 37  1  0  0  0  0
 15 38  1  0  0  0  0
 17 18  2  0  0  0  0
 17 19  1  0  0  0  0
M  CHG  1  19  -1
M  END
> <s_m_source_file>
AV-unprocessed.smi

> <i_m_source_file_index>
2342

> <i_lp_mmshare_version>
43012

> <i_f3d_flags>
0

> <s_epik_input>
Tz1DKFtPSF0pW0NASF0oW0NIM10pW0NIMl1bTkhdQyg9TylbQ0gyXWMxW2NIXXNjKG4xKUMoW0NIM10pKFtDSDNdKVtDSDNd

> <s_epik_cmdline>
J2VwaWtfcHl0aG9uJywgJy1waCcsICc3LjAnLCAnLXRuJywgJzgnLCAnLW1hJywgJzIwMCcsICctbWV0YWxfYmluZGluZycsICctaW1hZScsICc8aW5maWxlLm1hZT4nLCAnLW9tYWUnLCAnPG91dGZpbGUubWFlPic=

> <r_epik_Ionization_Penalty>
0.00120065

> <r_epik_Ionization_Penalty_Charging>
0.00115909

> <r_epik_Ionization_Penalty_Neutral>
4.15663e-05

> <r_epik_State_Penalty>
0.00076313

> <r_epik_Charging_Adjusted_Penalty>
0.00192222

> <i_epik_Tot_Q>
-1

> <i_epik_Tot_abs_Q>
1

> <r_epik_Metal_State_Penalty>
-0

> <b_epik_Metal_Only>
0

> <s_lp_Force_Field>
OPLS_2005

> <r_lp_Energy>
-2.08659

> <b_lp_Chiralities_Consistent>
1

> <s_lp_Variant>
AV-unprocessed.smi:2342-2

> <Gold.Version>
5.8.1

> <Gold.Id.Protein>
6NUR|6NUR_protein|mol2

> <Gold.PLP.Fitness>
44.0759

> <Gold.PLP.PLP>
-32.5338

> <Gold.PLP.part.hbond>
-3.0000

> <Gold.PLP.part.metal>
0.0000

> <Gold.PLP.part.buried>
-6.5381

> <Gold.PLP.part.nonpolar>
-23.6423

> <Gold.PLP.part.repulsive>
0.1122

> <Gold.PLP.ligand.clash>
0.0000

> <Gold.PLP.ligand.torsion>
0.2724

> <Gold.PLP.Chemscore.Hbond>
4.0000

> <Gold.PLP.Chemscore.CHOScore>
0.0000

> <Gold.PLP.Chemscore.Metal>
0.0000

> <Gold.Chemscore.Hbonds>
donor molecule, donor type, donor heavy atom, donor atom, acceptor molecule, acceptor atom, score
      P1  H  7989  7998       L1    18  1.00
      P1  H  7997  8009       L1    19  0.39

> <Gold.PLP.Chemscore.Internal.Correction>
0.0868

> <Gold.Rescore>
     Score         DG    S(hbond)    S(metal)    S(lipo)     H(rot)  DE(clash)    DE(int)     intcor
     15.04     -16.35       2.94        0.00      61.10       2.38       0.00       1.31       ----

> <Gold.Chemscore.Fitness>
15.0420

> <Gold.Chemscore.DG>
-16.3549

> <Gold.Chemscore.ZeroCoef>
-5.4800

> <Gold.Chemscore.Hbond>
2.9407

> <Gold.Chemscore.Metal>
0.0000

> <Gold.Chemscore.Lipo>
61.1031

> <Gold.Chemscore.Internal_Hbond>
0.0000

> <Gold.Chemscore.DEClash>
0.0000

> <Gold.Chemscore.DEInternal>
1.3129

> <Gold.Chemscore.Rot>
2.3812

> <Gold.Chemscore.Internal.Correction>
   9.000000E+99

> <Gold.Chemscore.Hbonds>
donor molecule, donor type, donor heavy atom, donor atom, acceptor molecule, acceptor atom, score
      P1  H  7989  7998       L1    18  0.91
      P1  H  7997  8009       L1    19  0.21

> <Gold.Chemscore.Hbond.Weighted>
-9.8218

> <Gold.Chemscore.Metal.Weighted>
-0.0000

> <Gold.Chemscore.Lipo.Weighted>
-7.1491

> <Gold.Chemscore.Internal_Hbond.Weighted>
0.0000

> <Gold.Chemscore.DEClash.Weighted>
0.0000

> <Gold.Chemscore.DEInternal.Weighted>
1.3129

> <Gold.Chemscore.Rot.Weighted>
6.0959

> <Gold.Chemscore.Internal.Correction.Weighted>
   9.000000E+99

> <Gold.Protein.RotatedTorsions>
[ 6907 6896 6895 6894 ] final  -35.18 input  -60.11 | X-H torsion
[ 7974 7965 7964 7962 ] final   51.12 input  175.53 | X-H torsion
[ 8008 7997 7996 7995 ] final -152.86 input   59.86 | X-H torsion
[ 10167 10162 10161 10158 ] final  -80.67 input  -65.29 | X-H torsion
[ 10718 10713 10712 10709 ] final   58.35 input   66.30 | X-H torsion
[ 10763 10752 10751 10750 ] final  -20.41 input  -60.55 | X-H torsion
[ 11005 11000 10999 10996 ] final  -58.96 input  -57.11 | X-H torsion

> <Gold.Protein.ActiveResidues>
 VAL166  LYS551  ARG553  GLY616  TRP617  ASP618  TYR619  PRO620  LYS621  CYS622 
 ASP623  PHE694  ASN695  SER759  ASP760  ASP761  ALA762  ILE779  LEU786  VAL792 
 PHE793  MET794  SER795  GLU796  ALA797  LYS798  CYS799  TRP800  GLU811  SER814 

> <Gold.Protein.RotatedAtoms>
  151.0431  134.9621  159.8171 H   0  0  0  0  0  0  0  0  0  0  0  0  # atno 6907 bound_to 6896
  152.5367  134.2633  159.8953 H   0  0  0  0  0  0  0  0  0  0  0  0  # atno 6908 bound_to 6896
  151.2645  133.4243  159.2652 H   0  0  0  0  0  0  0  0  0  0  0  0  # atno 6909 bound_to 6896
  145.9944  139.4373  143.0053 H   0  0  0  0  0  0  0  0  0  0  0  0  # atno 7974 bound_to 7965
  155.6618  140.0723  157.2551 H   0  0  0  0  0  0  0  0  0  0  0  0  # atno 8008 bound_to 7997
  154.4141  140.1715  156.1836 H   0  0  0  0  0  0  0  0  0  0  0  0  # atno 8009 bound_to 7997
  155.9690  140.3363  155.6562 H   0  0  0  0  0  0  0  0  0  0  0  0  # atno 8010 bound_to 7997
  140.4482  143.2492  151.8527 H   0  0  0  0  0  0  0  0  0  0  0  0  # atno 10167 bound_to 10162
  157.5589  130.8821  149.9079 H   0  0  0  0  0  0  0  0  0  0  0  0  # atno 10718 bound_to 10713
  153.6200  135.6993  153.5314 H   0  0  0  0  0  0  0  0  0  0  0  0  # atno 10763 bound_to 10752
  153.2945  135.4147  155.1197 H   0  0  0  0  0  0  0  0  0  0  0  0  # atno 10764 bound_to 10752
  154.8545  135.3633  154.5740 H   0  0  0  0  0  0  0  0  0  0  0  0  # atno 10765 bound_to 10752
  141.1229  133.6614  156.4999 H   0  0  0  0  0  0  0  0  0  0  0  0  # atno 11005 bound_to 11000
  145.7581  140.9946  143.1214 LP  0  0  0  0  0  0  0  0  0  0  0  0  # atno 17320 bound_to 7965
  144.6899  139.9297  143.7471 LP  0  0  0  0  0  0  0  0  0  0  0  0  # atno 17321 bound_to 7965
  139.4794  144.5151  151.8879 LP  0  0  0  0  0  0  0  0  0  0  0  0  # atno 17342 bound_to 10162
  140.4238  144.2207  150.5887 LP  0  0  0  0  0  0  0  0  0  0  0  0  # atno 17343 bound_to 10162
  156.0644  130.3694  150.0911 LP  0  0  0  0  0  0  0  0  0  0  0  0  # atno 17370 bound_to 10713
  156.9077  130.9641  151.3567 LP  0  0  0  0  0  0  0  0  0  0  0  0  # atno 17371 bound_to 10713
  140.4454  134.6977  157.5013 LP  0  0  0  0  0  0  0  0  0  0  0  0  # atno 17394 bound_to 11000
  140.0201  134.6560  155.9252 LP  0  0  0  0  0  0  0  0  0  0  0  0  # atno 17395 bound_to 11000

$$$$
