AV-unprocessed.smi:3298|AV-procd|sdf|12646|dock5
  -GOLD-   2272018583D 1   1.00000     0.00000
 Structure written by MMmdl.
 36 37  0  0  0  0  0  0  0  0  2 V2000
  146.3325  143.1496  154.0186 C   0  0  0  0  0  0  0  0  0  0  0  0
  147.2166  141.9211  154.0620 C   0  0  0  0  0  0  0  0  0  0  0  0
  146.8200  140.6870  153.5031 C   0  0  0  0  0  0  0  0  0  0  0  0
  147.6988  139.5749  153.5717 C   0  0  0  0  0  0  0  0  0  0  0  0
  147.4036  138.2825  153.0541 N   0  0  0  0  0  0  0  0  0  0  0  0
  146.2345  137.6177  153.0385 C   0  0  0  0  0  0  0  0  0  0  0  0
  145.1669  138.0382  153.4828 O   0  0  0  0  0  0  0  0  0  0  0  0
  146.3685  136.4169  152.4571 N   0  0  0  0  0  0  0  0  0  0  0  0
  145.2940  135.4441  152.2822 C   0  0  2  0  0  0  0  0  0  0  0  0
  145.6621  134.1066  152.8677 C   0  0  0  0  0  0  0  0  0  0  0  0
  145.6657  133.1328  151.9604 C   0  0  0  0  0  0  0  0  0  0  0  0
  145.3244  133.6196  150.5762 C   0  0  1  0  0  0  0  0  0  0  0  0
  144.1483  132.8394  149.9648 C   0  0  0  0  0  0  0  0  0  0  0  0
  143.0068  132.9502  150.7884 O   0  0  0  0  0  0  0  0  0  0  0  0
  145.0385  135.1304  150.7870 C   0  0  0  0  0  0  0  0  0  0  0  0
  148.9431  139.7410  154.2198 C   0  0  0  0  0  0  0  0  0  0  0  0
  149.2856  140.9963  154.7613 C   0  0  0  0  0  0  0  0  0  0  0  0
  148.4220  142.0289  154.6625 N   0  3  0  0  0  0  0  0  0  0  0  0
  144.3748  135.7994  152.7516 H   0  0  0  0  0  0  0  0  0  0  0  0
  146.2131  133.4913  149.9567 H   0  0  0  0  0  0  0  0  0  0  0  0
  145.3915  142.9396  153.5091 H   0  0  0  0  0  0  0  0  0  0  0  0
  146.8328  143.9594  153.4868 H   0  0  0  0  0  0  0  0  0  0  0  0
  146.1035  143.4893  155.0291 H   0  0  0  0  0  0  0  0  0  0  0  0
  145.8469  140.6196  153.0430 H   0  0  0  0  0  0  0  0  0  0  0  0
  148.1757  137.8165  152.6004 H   0  0  0  0  0  0  0  0  0  0  0  0
  147.2800  136.1499  152.1150 H   0  0  0  0  0  0  0  0  0  0  0  0
  145.8830  133.9785  153.9172 H   0  0  0  0  0  0  0  0  0  0  0  0
  145.9005  132.0983  152.1633 H   0  0  0  0  0  0  0  0  0  0  0  0
  143.9014  133.2348  148.9790 H   0  0  0  0  0  0  0  0  0  0  0  0
  144.4016  131.7862  149.8364 H   0  0  0  0  0  0  0  0  0  0  0  0
  142.3203  133.3742  150.2961 H   0  0  0  0  0  0  0  0  0  0  0  0
  144.0054  135.3730  150.5341 H   0  0  0  0  0  0  0  0  0  0  0  0
  145.6672  135.7329  150.1295 H   0  0  0  0  0  0  0  0  0  0  0  0
  149.6353  138.9152  154.3005 H   0  0  0  0  0  0  0  0  0  0  0  0
  150.2172  141.2038  155.2673 H   0  0  0  0  0  0  0  0  0  0  0  0
  148.6894  142.9293  155.0612 H   0  0  0  0  0  0  0  0  0  0  0  0
  1  2  1  0  0  0  0
  1 21  1  0  0  0  0
  1 22  1  0  0  0  0
  1 23  1  0  0  0  0
  2 18  1  0  0  0  0
  2  3  2  0  0  0  0
  3  4  1  0  0  0  0
  3 24  1  0  0  0  0
  4  5  1  0  0  0  0
  4 16  2  0  0  0  0
  5  6  1  0  0  0  0
  5 25  1  0  0  0  0
  6  7  2  0  0  0  0
  6  8  1  0  0  0  0
  8  9  1  0  0  0  0
  8 26  1  0  0  0  0
  9 19  1  0  0  0  0
  9 15  1  0  0  0  0
  9 10  1  0  0  0  0
 10 11  2  0  0  0  0
 10 27  1  0  0  0  0
 11 12  1  0  0  0  0
 11 28  1  0  0  0  0
 12 20  1  0  0  0  0
 12 13  1  0  0  0  0
 12 15  1  0  0  0  0
 13 14  1  0  0  0  0
 13 29  1  0  0  0  0
 13 30  1  0  0  0  0
 14 31  1  0  0  0  0
 15 32  1  0  0  0  0
 15 33  1  0  0  0  0
 16 17  1  0  0  0  0
 16 34  1  0  0  0  0
 17 18  2  0  0  0  0
 17 35  1  0  0  0  0
 18 36  1  0  0  0  0
M  CHG  1  18   1
M  END
> <s_m_source_file>
AV-unprocessed.smi

> <i_m_source_file_index>
3298

> <i_lp_mmshare_version>
43012

> <i_f3d_flags>
0

> <s_epik_input>
W0NIM11jMVtjSF1jKFtjSF1bY0hdbjEpW05IXUMoPU8pW05IXVtDQEBIXTJbQ0hdPVtDSF1bQ0BASF0oW0NIMl0yKVtDSDJdW09IXQ==

> <s_epik_cmdline>
J2VwaWtfcHl0aG9uJywgJy1waCcsICc3LjAnLCAnLXRuJywgJzgnLCAnLW1hJywgJzIwMCcsICctbWV0YWxfYmluZGluZycsICctaW1hZScsICc8aW5maWxlLm1hZT4nLCAnLW9tYWUnLCAnPG91dGZpbGUubWFlPic=

> <r_epik_Ionization_Penalty>
0.443901

> <r_epik_Ionization_Penalty_Charging>
0.443881

> <r_epik_Ionization_Penalty_Neutral>
1.94967e-05

> <r_epik_State_Penalty>
0.446172

> <r_epik_Charging_Adjusted_Penalty>
0.890053

> <i_epik_Tot_Q>
1

> <i_epik_Tot_abs_Q>
1

> <r_epik_Metal_State_Penalty>
0.675842

> <b_epik_Metal_Only>
0

> <s_lp_Force_Field>
OPLS_2005

> <r_lp_Energy>
27.4169

> <b_lp_Chiralities_Consistent>
1

> <s_lp_Variant>
AV-unprocessed.smi:3298-7

> <Gold.Version>
5.8.1

> <Gold.Id.Protein>
6NUR|6NUR_protein|mol2

> <Gold.PLP.Fitness>
48.5147

> <Gold.PLP.PLP>
-34.0932

> <Gold.PLP.part.hbond>
-4.0000

> <Gold.PLP.part.metal>
0.0000

> <Gold.PLP.part.buried>
-4.3099

> <Gold.PLP.part.nonpolar>
-27.4718

> <Gold.PLP.part.repulsive>
1.0307

> <Gold.PLP.ligand.clash>
0.0000

> <Gold.PLP.ligand.torsion>
0.2964

> <Gold.PLP.Chemscore.Hbond>
5.0000

> <Gold.PLP.Chemscore.CHOScore>
0.0000

> <Gold.PLP.Chemscore.Metal>
0.0000

> <Gold.Chemscore.Hbonds>
donor molecule, donor type, donor heavy atom, donor atom, acceptor molecule, acceptor atom, score
      L1  H     5    25       P1  7948  1.00
      L1  H     8    26       P1  7948  1.00
      L1  H    14    31       P1 10186  1.00
      L1  H    18    36       P1  8028  2.00

> <Gold.PLP.Chemscore.Internal.Correction>
0.0143

> <Gold.Rescore>
     Score         DG    S(hbond)    S(metal)    S(lipo)     H(rot)  DE(clash)    DE(int)     intcor
     22.28     -22.81       3.93        0.00      75.35       1.81       0.27       0.26       ----

> <Gold.Chemscore.Fitness>
22.2847

> <Gold.Chemscore.DG>
-22.8142

> <Gold.Chemscore.ZeroCoef>
-5.4800

> <Gold.Chemscore.Hbond>
3.9347

> <Gold.Chemscore.Metal>
0.0000

> <Gold.Chemscore.Lipo>
75.3506

> <Gold.Chemscore.Internal_Hbond>
0.0000

> <Gold.Chemscore.DEClash>
0.2723

> <Gold.Chemscore.DEInternal>
0.2572

> <Gold.Chemscore.Rot>
1.8061

> <Gold.Chemscore.Internal.Correction>
   9.000000E+99

> <Gold.Chemscore.Hbonds>
donor molecule, donor type, donor heavy atom, donor atom, acceptor molecule, acceptor atom, score
      L1  H     5    25       P1  7948  0.95
      L1  H     8    26       P1  7948  0.99
      L1  H    14    31       P1 10186  1.00
      L1  H    18    36       P1  8028  1.00

> <Gold.Chemscore.Hbond.Weighted>
-13.1418

> <Gold.Chemscore.Metal.Weighted>
-0.0000

> <Gold.Chemscore.Lipo.Weighted>
-8.8160

> <Gold.Chemscore.Internal_Hbond.Weighted>
0.0000

> <Gold.Chemscore.DEClash.Weighted>
0.2723

> <Gold.Chemscore.DEInternal.Weighted>
0.2572

> <Gold.Chemscore.Rot.Weighted>
4.6237

> <Gold.Chemscore.Internal.Correction.Weighted>
   9.000000E+99

> <Gold.Protein.RotatedTorsions>
[ 6907 6896 6895 6894 ] final   25.26 input  -60.11 | X-H torsion
[ 7974 7965 7964 7962 ] final  173.94 input  175.53 | X-H torsion
[ 8008 7997 7996 7995 ] final   49.61 input   59.86 | X-H torsion
[ 10167 10162 10161 10158 ] final   78.79 input  -65.29 | X-H torsion
[ 10718 10713 10712 10709 ] final  -52.95 input   66.30 | X-H torsion
[ 10763 10752 10751 10750 ] final  146.31 input  -60.55 | X-H torsion
[ 11005 11000 10999 10996 ] final  113.23 input  -57.11 | X-H torsion

> <Gold.Protein.ActiveResidues>
 VAL166  LYS551  ARG553  GLY616  TRP617  ASP618  TYR619  PRO620  LYS621  CYS622 
 ASP623  PHE694  ASN695  SER759  ASP760  ASP761  ALA762  ILE779  LEU786  VAL792 
 PHE793  MET794  SER795  GLU796  ALA797  LYS798  CYS799  TRP800  GLU811  SER814 

> <Gold.Protein.RotatedAtoms>
  151.9699  135.0082  160.0551 H   0  0  0  0  0  0  0  0  0  0  0  0  # atno 6907 bound_to 6896
  152.1792  133.4691  159.4957 H   0  0  0  0  0  0  0  0  0  0  0  0  # atno 6908 bound_to 6896
  150.6914  134.1772  159.4278 H   0  0  0  0  0  0  0  0  0  0  0  0  # atno 6909 bound_to 6896
  144.7232  139.9722  143.6437 H   0  0  0  0  0  0  0  0  0  0  0  0  # atno 7974 bound_to 7965
  155.4051  140.3439  155.4259 H   0  0  0  0  0  0  0  0  0  0  0  0  # atno 8008 bound_to 7997
  156.1481  140.1562  156.8846 H   0  0  0  0  0  0  0  0  0  0  0  0  # atno 8009 bound_to 7997
  154.5028  140.0810  156.7815 H   0  0  0  0  0  0  0  0  0  0  0  0  # atno 8010 bound_to 7997
  139.9672  144.5920  150.8018 H   0  0  0  0  0  0  0  0  0  0  0  0  # atno 10167 bound_to 10162
  156.1577  130.4150  149.9842 H   0  0  0  0  0  0  0  0  0  0  0  0  # atno 10718 bound_to 10713
  154.0198  135.2907  155.3382 H   0  0  0  0  0  0  0  0  0  0  0  0  # atno 10763 bound_to 10752
  154.7053  135.5172  153.8589 H   0  0  0  0  0  0  0  0  0  0  0  0  # atno 10764 bound_to 10752
  153.0686  135.6640  154.0421 H   0  0  0  0  0  0  0  0  0  0  0  0  # atno 10765 bound_to 10752
  139.8947  134.9546  156.6707 H   0  0  0  0  0  0  0  0  0  0  0  0  # atno 11005 bound_to 11000
  146.0553  139.3551  143.0614 LP  0  0  0  0  0  0  0  0  0  0  0  0  # atno 17320 bound_to 7965
  145.8162  140.9702  143.0923 LP  0  0  0  0  0  0  0  0  0  0  0  0  # atno 17321 bound_to 7965
  140.7534  143.3007  151.3087 LP  0  0  0  0  0  0  0  0  0  0  0  0  # atno 17342 bound_to 10162
  139.6509  144.0365  152.2625 LP  0  0  0  0  0  0  0  0  0  0  0  0  # atno 17343 bound_to 10162
  156.7681  130.9176  151.3643 LP  0  0  0  0  0  0  0  0  0  0  0  0  # atno 17370 bound_to 10713
  157.6708  130.9049  150.0036 LP  0  0  0  0  0  0  0  0  0  0  0  0  # atno 17371 bound_to 10713
  140.7376  133.9005  155.8255 LP  0  0  0  0  0  0  0  0  0  0  0  0  # atno 17394 bound_to 11000
  141.0104  134.1029  157.4227 LP  0  0  0  0  0  0  0  0  0  0  0  0  # atno 17395 bound_to 11000

$$$$
