AV-unprocessed.smi:560|AV-procd|sdf|2926|dock2
  -GOLD-   2262023413D 1   1.00000     0.00000
 Structure written by MMmdl.
 41 42  0  0  0  0  0  0  0  0  1 V2000
  156.8240  138.1628  160.3755 C   0  0  0  0  0  0  0  0  0  0  0  0
  155.3578  138.4245  160.7778 C   0  0  2  0  0  0  0  0  0  0  0  0
  155.0682  139.9185  160.9846 C   0  0  0  0  0  0  0  0  0  0  0  0
  155.6672  140.5602  161.8485 O   0  0  0  0  0  0  0  0  0  0  0  0
  154.1316  140.4565  160.1874 N   0  0  0  0  0  0  0  0  0  0  0  0
  153.6667  141.8386  160.2453 C   0  0  0  0  0  0  0  0  0  0  0  0
  152.8160  142.0695  161.5046 C   0  0  0  0  0  0  0  0  0  0  0  0
  152.1834  143.4725  161.5073 C   0  0  0  0  0  0  0  0  0  0  0  0
  151.3662  143.6740  160.3015 N   0  0  0  0  0  0  0  0  0  0  0  0
  150.6725  144.9821  160.2953 C   0  0  0  0  0  0  0  0  0  0  0  0
  149.1935  144.9179  160.6959 C   0  0  0  0  0  0  0  0  0  0  0  0
  148.7499  145.8481  161.5448 N   0  0  0  0  0  0  0  0  0  0  0  0
  148.4637  144.0358  160.2481 O   0  0  0  0  0  0  0  0  0  0  0  0
  152.2008  143.5616  159.1009 C   0  0  0  0  0  0  0  0  0  0  0  0
  152.8210  142.1568  159.0046 C   0  0  0  0  0  0  0  0  0  0  0  0
  154.9526  137.6708  161.9599 N   0  0  0  0  0  0  0  0  0  0  0  0
  153.6759  137.5014  162.4578 C   0  0  0  0  0  0  0  0  0  0  0  0
  153.7743  136.7672  163.6046 C   0  0  0  0  0  0  0  0  0  0  0  0
  155.1718  136.5423  163.7421 C   0  0  0  0  0  0  0  0  0  0  0  0
  155.8741  137.0925  162.7657 N   0  0  0  0  0  0  0  0  0  0  0  0
  157.0767  138.6898  159.4549 H   0  0  0  0  0  0  0  0  0  0  0  0
  156.9946  137.1004  160.2001 H   0  0  0  0  0  0  0  0  0  0  0  0
  157.5278  138.4875  161.1430 H   0  0  0  0  0  0  0  0  0  0  0  0
  154.7347  138.0764  159.9521 H   0  0  0  0  0  0  0  0  0  0  0  0
  153.6910  139.8577  159.5042 H   0  0  0  0  0  0  0  0  0  0  0  0
  154.5236  142.5151  160.2609 H   0  0  0  0  0  0  0  0  0  0  0  0
  152.0261  141.3188  161.5628 H   0  0  0  0  0  0  0  0  0  0  0  0
  153.4276  141.9421  162.3985 H   0  0  0  0  0  0  0  0  0  0  0  0
  151.5785  143.5655  162.4091 H   0  0  0  0  0  0  0  0  0  0  0  0
  152.9594  144.2377  161.5681 H   0  0  0  0  0  0  0  0  0  0  0  0
  151.2026  145.6820  160.9446 H   0  0  0  0  0  0  0  0  0  0  0  0
  150.7084  145.4055  159.2903 H   0  0  0  0  0  0  0  0  0  0  0  0
  147.7832  145.8467  161.8356 H   0  0  0  0  0  0  0  0  0  0  0  0
  149.3853  146.5519  161.8918 H   0  0  0  0  0  0  0  0  0  0  0  0
  151.5951  143.7390  158.2112 H   0  0  0  0  0  0  0  0  0  0  0  0
  152.9839  144.3222  159.1077 H   0  0  0  0  0  0  0  0  0  0  0  0
  153.4355  142.0857  158.1063 H   0  0  0  0  0  0  0  0  0  0  0  0
  152.0251  141.4186  158.8938 H   0  0  0  0  0  0  0  0  0  0  0  0
  152.8117  137.9149  161.9591 H   0  0  0  0  0  0  0  0  0  0  0  0
  152.9713  136.4453  164.2507 H   0  0  0  0  0  0  0  0  0  0  0  0
  155.6938  136.0049  164.5197 H   0  0  0  0  0  0  0  0  0  0  0  0
  1  2  1  0  0  0  0
  1 21  1  0  0  0  0
  1 22  1  0  0  0  0
  1 23  1  0  0  0  0
  2  3  1  0  0  0  0
  2 16  1  0  0  0  0
  2 24  1  0  0  0  0
  3  4  2  0  0  0  0
  3  5  1  0  0  0  0
  5  6  1  0  0  0  0
  5 25  1  0  0  0  0
  6 15  1  0  0  0  0
  6  7  1  0  0  0  0
  6 26  1  0  0  0  0
  7  8  1  0  0  0  0
  7 27  1  0  0  0  0
  7 28  1  0  0  0  0
  8  9  1  0  0  0  0
  8 29  1  0  0  0  0
  8 30  1  0  0  0  0
  9 10  1  0  0  0  0
  9 14  1  0  0  0  0
 10 11  1  0  0  0  0
 10 31  1  0  0  0  0
 10 32  1  0  0  0  0
 11 12  1  0  0  0  0
 11 13  2  0  0  0  0
 12 33  1  0  0  0  0
 12 34  1  0  0  0  0
 14 15  1  0  0  0  0
 14 35  1  0  0  0  0
 14 36  1  0  0  0  0
 15 37  1  0  0  0  0
 15 38  1  0  0  0  0
 16 20  1  0  0  0  0
 16 17  1  0  0  0  0
 17 18  2  0  0  0  0
 17 39  1  0  0  0  0
 18 19  1  0  0  0  0
 18 40  1  0  0  0  0
 19 20  2  0  0  0  0
 19 41  1  0  0  0  0
M  END
> <s_m_source_file>
AV-unprocessed.smi

> <i_m_source_file_index>
560

> <i_lp_mmshare_version>
43012

> <i_f3d_flags>
0

> <s_epik_input>
bjFbY0hdW2NIXVtjSF1uMVtDQEhdKFtDSDNdKUMoPU8pW05IXVtDSF0yW0NIMl1bQ0gyXU4oW0NIMl1bQ0gyXTIpW0NIMl1DKD1PKVtOSDJd

> <s_epik_cmdline>
J2VwaWtfcHl0aG9uJywgJy1waCcsICc3LjAnLCAnLXRuJywgJzgnLCAnLW1hJywgJzIwMCcsICctbWV0YWxfYmluZGluZycsICctaW1hZScsICc8aW5maWxlLm1hZT4nLCAnLW9tYWUnLCAnPG91dGZpbGUubWFlPic=

> <r_lp_tautomer_probability>
1

> <r_epik_Ionization_Penalty>
0.114724

> <r_epik_Ionization_Penalty_Charging>
0

> <r_epik_Ionization_Penalty_Neutral>
0.114724

> <r_epik_State_Penalty>
0.104339

> <r_epik_Charging_Adjusted_Penalty>
0.104339

> <i_epik_Tot_Q>
0

> <i_epik_Tot_abs_Q>
0

> <r_epik_Metal_State_Penalty>
0.117437

> <b_epik_Metal_Only>
0

> <s_lp_Force_Field>
OPLS_2005

> <r_lp_Energy>
15.4208

> <b_lp_Chiralities_Consistent>
1

> <s_lp_Variant>
AV-unprocessed.smi:560-1

> <Gold.Version>
5.8.1

> <Gold.Id.Protein>
6NUR|6NUR_protein|mol2

> <Gold.PLP.Fitness>
42.1316

> <Gold.PLP.PLP>
-41.5394

> <Gold.PLP.part.hbond>
-3.6659

> <Gold.PLP.part.metal>
0.0000

> <Gold.PLP.part.buried>
-6.7333

> <Gold.PLP.part.nonpolar>
-32.4046

> <Gold.PLP.part.repulsive>
1.3765

> <Gold.PLP.ligand.clash>
0.0000

> <Gold.PLP.ligand.torsion>
1.1587

> <Gold.PLP.Chemscore.Hbond>
0.9199

> <Gold.PLP.Chemscore.CHOScore>
0.0000

> <Gold.PLP.Chemscore.Metal>
0.0000

> <Gold.Chemscore.Hbonds>
donor molecule, donor type, donor heavy atom, donor atom, acceptor molecule, acceptor atom, score
      P1  H  6933  6944       L1    13  0.87

> <Gold.PLP.Chemscore.Internal.Correction>
0.1498

> <Gold.Rescore>
     Score         DG    S(hbond)    S(metal)    S(lipo)     H(rot)  DE(clash)    DE(int)     intcor
     10.90     -12.42       0.80        0.00      90.78       2.48       0.14       1.38       ----

> <Gold.Chemscore.Fitness>
10.9027

> <Gold.Chemscore.DG>
-12.4210

> <Gold.Chemscore.ZeroCoef>
-5.4800

> <Gold.Chemscore.Hbond>
0.7963

> <Gold.Chemscore.Metal>
0.0000

> <Gold.Chemscore.Lipo>
90.7850

> <Gold.Chemscore.Internal_Hbond>
0.0000

> <Gold.Chemscore.DEClash>
0.1365

> <Gold.Chemscore.DEInternal>
1.3818

> <Gold.Chemscore.Rot>
2.4768

> <Gold.Chemscore.Internal.Correction>
   9.000000E+99

> <Gold.Chemscore.Hbonds>
donor molecule, donor type, donor heavy atom, donor atom, acceptor molecule, acceptor atom, score
      P1  H  6933  6944       L1    13  0.64

> <Gold.Chemscore.Hbond.Weighted>
-2.6598

> <Gold.Chemscore.Metal.Weighted>
-0.0000

> <Gold.Chemscore.Lipo.Weighted>
-10.6218

> <Gold.Chemscore.Internal_Hbond.Weighted>
0.0000

> <Gold.Chemscore.DEClash.Weighted>
0.1365

> <Gold.Chemscore.DEInternal.Weighted>
1.3818

> <Gold.Chemscore.Rot.Weighted>
6.3406

> <Gold.Chemscore.Internal.Correction.Weighted>
   9.000000E+99

> <Gold.Protein.RotatedTorsions>
[ 6907 6896 6895 6894 ] final -164.41 input  -60.11 | X-H torsion
[ 7974 7965 7964 7962 ] final    0.08 input  175.53 | X-H torsion
[ 8008 7997 7996 7995 ] final  -83.38 input   59.86 | X-H torsion
[ 10167 10162 10161 10158 ] final -125.85 input  -65.29 | X-H torsion
[ 10718 10713 10712 10709 ] final  -65.70 input   66.30 | X-H torsion
[ 10763 10752 10751 10750 ] final  -78.98 input  -60.55 | X-H torsion
[ 11005 11000 10999 10996 ] final -126.52 input  -57.11 | X-H torsion

> <Gold.Protein.ActiveResidues>
 VAL166  LYS551  ARG553  GLY616  TRP617  ASP618  TYR619  PRO620  LYS621  CYS622 
 ASP623  PHE694  ASN695  SER759  ASP760  ASP761  ALA762  ILE779  LEU786  VAL792 
 PHE793  MET794  SER795  GLU796  ALA797  LYS798  CYS799  TRP800  GLU811  SER814 

> <Gold.Protein.RotatedAtoms>
  151.4113  133.3726  159.2744 H   0  0  0  0  0  0  0  0  0  0  0  0  # atno 6907 bound_to 6896
  150.9361  134.8774  159.7593 H   0  0  0  0  0  0  0  0  0  0  0  0  # atno 6908 bound_to 6896
  152.5050  134.4061  159.9485 H   0  0  0  0  0  0  0  0  0  0  0  0  # atno 6909 bound_to 6896
  146.2431  140.1192  142.8341 H   0  0  0  0  0  0  0  0  0  0  0  0  # atno 7974 bound_to 7965
  154.6185  140.0619  156.9585 H   0  0  0  0  0  0  0  0  0  0  0  0  # atno 8008 bound_to 7997
  155.1856  140.3303  155.4349 H   0  0  0  0  0  0  0  0  0  0  0  0  # atno 8009 bound_to 7997
  156.2418  140.1890  156.6950 H   0  0  0  0  0  0  0  0  0  0  0  0  # atno 8010 bound_to 7997
  139.9777  143.5776  152.2390 H   0  0  0  0  0  0  0  0  0  0  0  0  # atno 10167 bound_to 10162
  156.0654  130.4251  150.1602 H   0  0  0  0  0  0  0  0  0  0  0  0  # atno 10718 bound_to 10713
  154.5328  135.5711  153.6773 H   0  0  0  0  0  0  0  0  0  0  0  0  # atno 10763 bound_to 10752
  152.9943  135.6209  154.2606 H   0  0  0  0  0  0  0  0  0  0  0  0  # atno 10764 bound_to 10752
  154.2533  135.2858  155.2787 H   0  0  0  0  0  0  0  0  0  0  0  0  # atno 10765 bound_to 10752
  140.9675  134.0852  157.3905 H   0  0  0  0  0  0  0  0  0  0  0  0  # atno 11005 bound_to 11000
  145.0421  140.8953  143.5046 LP  0  0  0  0  0  0  0  0  0  0  0  0  # atno 17320 bound_to 7965
  145.1274  139.2654  143.5557 LP  0  0  0  0  0  0  0  0  0  0  0  0  # atno 17321 bound_to 7965
  139.6433  144.7656  151.2294 LP  0  0  0  0  0  0  0  0  0  0  0  0  # atno 17342 bound_to 10162
  140.7500  143.6280  150.8449 LP  0  0  0  0  0  0  0  0  0  0  0  0  # atno 17343 bound_to 10162
  156.9663  130.9820  151.3468 LP  0  0  0  0  0  0  0  0  0  0  0  0  # atno 17370 bound_to 10713
  157.5692  130.8299  149.8369 LP  0  0  0  0  0  0  0  0  0  0  0  0  # atno 17371 bound_to 10713
  139.8900  135.0109  156.6709 LP  0  0  0  0  0  0  0  0  0  0  0  0  # atno 17394 bound_to 11000
  140.7378  133.9003  155.8256 LP  0  0  0  0  0  0  0  0  0  0  0  0  # atno 17395 bound_to 11000

$$$$
