AV-unprocessed.smi:3330|AV-procd|sdf|12815|dock6
  -GOLD-   2272019183D 1   1.00000     0.00000
 Structure written by MMmdl.
 37 38  0  0  0  0  0  0  0  0  2 V2000
  152.1868  139.1420  158.8888 C   0  0  0  0  0  0  0  0  0  0  0  0
  150.7517  139.5434  158.5011 C   0  0  2  0  0  0  0  0  0  0  0  0
  150.1507  138.3850  157.8492 N   0  0  0  0  0  0  0  0  0  0  0  0
  149.8821  137.3193  158.8017 C   0  0  0  0  0  0  0  0  0  0  0  0
  148.4148  137.3842  159.2493 C   0  0  0  0  0  0  0  0  0  0  0  0
  148.0848  136.2520  160.1190 N   0  0  0  0  0  0  0  0  0  0  0  0
  147.5533  136.3731  161.3393 C   0  0  0  0  0  0  0  0  0  0  0  0
  147.2405  137.4076  161.9294 O   0  0  0  0  0  0  0  0  0  0  0  0
  147.4033  134.9823  161.9103 C   0  0  0  0  0  0  0  0  0  0  0  0
  147.9271  134.1542  160.8477 N   0  5  0  0  0  0  0  0  0  0  0  0
  148.3142  134.9571  159.8288 C   0  0  0  0  0  0  0  0  0  0  0  0
  148.8187  134.6021  158.7639 O   0  0  0  0  0  0  0  0  0  0  0  0
  150.6876  140.7703  157.5516 C   0  0  1  0  0  0  0  0  0  0  0  0
  149.2593  141.0967  157.0782 C   0  0  0  0  0  0  0  0  0  0  0  0
  151.2786  141.9533  158.1643 N   0  0  0  0  0  0  0  0  0  0  0  0
  151.3092  143.2483  157.6857 C   0  0  0  0  0  0  0  0  0  0  0  0
  151.9738  144.0084  158.6049 C   0  0  0  0  0  0  0  0  0  0  0  0
  152.3189  143.0787  159.6248 C   0  0  0  0  0  0  0  0  0  0  0  0
  151.9040  141.8512  159.3580 N   0  0  0  0  0  0  0  0  0  0  0  0
  152.6844  139.9240  159.4622 H   0  0  0  0  0  0  0  0  0  0  0  0
  152.7949  138.9394  158.0064 H   0  0  0  0  0  0  0  0  0  0  0  0
  152.1892  138.2439  159.5077 H   0  0  0  0  0  0  0  0  0  0  0  0
  150.2184  139.7770  159.4242 H   0  0  0  0  0  0  0  0  0  0  0  0
  149.2934  138.6601  157.3912 H   0  0  0  0  0  0  0  0  0  0  0  0
  150.0954  136.3546  158.3397 H   0  0  0  0  0  0  0  0  0  0  0  0
  150.5379  137.4188  159.6671 H   0  0  0  0  0  0  0  0  0  0  0  0
  148.2244  138.3216  159.7753 H   0  0  0  0  0  0  0  0  0  0  0  0
  147.7553  137.3939  158.3796 H   0  0  0  0  0  0  0  0  0  0  0  0
  147.9687  134.9003  162.8391 H   0  0  0  0  0  0  0  0  0  0  0  0
  146.3550  134.7837  162.1349 H   0  0  0  0  0  0  0  0  0  0  0  0
  151.2790  140.5379  156.6632 H   0  0  0  0  0  0  0  0  0  0  0  0
  148.8377  140.2826  156.4887 H   0  0  0  0  0  0  0  0  0  0  0  0
  149.2504  141.9861  156.4474 H   0  0  0  0  0  0  0  0  0  0  0  0
  148.5908  141.2789  157.9201 H   0  0  0  0  0  0  0  0  0  0  0  0
  150.8585  143.5174  156.7417 H   0  0  0  0  0  0  0  0  0  0  0  0
  152.1823  145.0668  158.5565 H   0  0  0  0  0  0  0  0  0  0  0  0
  152.8557  143.2578  160.5446 H   0  0  0  0  0  0  0  0  0  0  0  0
  1  2  1  0  0  0  0
  1 20  1  0  0  0  0
  1 21  1  0  0  0  0
  1 22  1  0  0  0  0
  2  3  1  0  0  0  0
  2 13  1  0  0  0  0
  2 23  1  0  0  0  0
  3  4  1  0  0  0  0
  3 24  1  0  0  0  0
  4  5  1  0  0  0  0
  4 25  1  0  0  0  0
  4 26  1  0  0  0  0
  5  6  1  0  0  0  0
  5 27  1  0  0  0  0
  5 28  1  0  0  0  0
  6 11  1  0  0  0  0
  6  7  1  0  0  0  0
  7  8  2  0  0  0  0
  7  9  1  0  0  0  0
  9 10  1  0  0  0  0
  9 29  1  0  0  0  0
  9 30  1  0  0  0  0
 10 11  1  0  0  0  0
 11 12  2  0  0  0  0
 13 14  1  0  0  0  0
 13 15  1  0  0  0  0
 13 31  1  0  0  0  0
 14 32  1  0  0  0  0
 14 33  1  0  0  0  0
 14 34  1  0  0  0  0
 15 19  1  0  0  0  0
 15 16  1  0  0  0  0
 16 17  2  0  0  0  0
 16 35  1  0  0  0  0
 17 18  1  0  0  0  0
 17 36  1  0  0  0  0
 18 19  2  0  0  0  0
 18 37  1  0  0  0  0
M  CHG  1  10  -1
M  END
> <s_m_source_file>
AV-unprocessed.smi

> <i_m_source_file_index>
3330

> <i_lp_mmshare_version>
43012

> <i_f3d_flags>
0

> <s_epik_input>
bjFbY0hdW2NIXVtjSF1uMVtDQEBIXShbQ0gzXSlbQ0BIXShbQ0gzXSlbTkhdW0NIMl1bQ0gyXU4yQyg9TylbQ0gyXVtOSF1DMj1P

> <s_epik_cmdline>
J2VwaWtfcHl0aG9uJywgJy1waCcsICc3LjAnLCAnLXRuJywgJzgnLCAnLW1hJywgJzIwMCcsICctbWV0YWxfYmluZGluZycsICctaW1hZScsICc8aW5maWxlLm1hZT4nLCAnLW9tYWUnLCAnPG91dGZpbGUubWFlPic=

> <r_lp_tautomer_probability>
1

> <r_epik_Ionization_Penalty>
8.77477

> <r_epik_Ionization_Penalty_Charging>
6.28461

> <r_epik_Ionization_Penalty_Neutral>
2.49016

> <r_epik_State_Penalty>
8.73376

> <r_epik_Charging_Adjusted_Penalty>
15.0184

> <i_epik_Tot_Q>
-1

> <i_epik_Tot_abs_Q>
1

> <r_epik_Metal_State_Penalty>
4.73175

> <b_epik_Metal_Only>
1

> <s_lp_Force_Field>
OPLS_2005

> <r_lp_Energy>
21.2445

> <b_lp_Chiralities_Consistent>
1

> <s_lp_Variant>
AV-unprocessed.smi:3330-15

> <Gold.Version>
5.8.1

> <Gold.Id.Protein>
6NUR|6NUR_protein|mol2

> <Gold.PLP.Fitness>
43.5949

> <Gold.PLP.PLP>
-33.9987

> <Gold.PLP.part.hbond>
-3.0000

> <Gold.PLP.part.metal>
0.0000

> <Gold.PLP.part.buried>
-4.7444

> <Gold.PLP.part.nonpolar>
-26.9219

> <Gold.PLP.part.repulsive>
0.0000

> <Gold.PLP.ligand.clash>
0.0000

> <Gold.PLP.ligand.torsion>
0.5685

> <Gold.PLP.Chemscore.Hbond>
2.5288

> <Gold.PLP.Chemscore.CHOScore>
1.0000

> <Gold.PLP.Chemscore.Metal>
0.0000

> <Gold.Chemscore.Hbonds>
donor molecule, donor type, donor heavy atom, donor atom, acceptor molecule, acceptor atom, score
      P1  H  6896  6907       L1    12  1.00
      P1  H  6931  6943       L1     8  0.68
      P1  H  6934  6947       L1     8  0.74
      L1  C    16    35       P1  8028  0.98

> <Gold.PLP.Chemscore.Internal.Correction>
0.1468

> <Gold.Rescore>
     Score         DG    S(hbond)    S(metal)    S(lipo)     H(rot)  DE(clash)    DE(int)     intcor
     10.63     -13.53       1.97        0.00      67.69       2.52       0.00       2.89       ----

> <Gold.Chemscore.Fitness>
10.6297

> <Gold.Chemscore.DG>
-13.5254

> <Gold.Chemscore.ZeroCoef>
-5.4800

> <Gold.Chemscore.Hbond>
1.9661

> <Gold.Chemscore.Metal>
0.0000

> <Gold.Chemscore.Lipo>
67.6888

> <Gold.Chemscore.Internal_Hbond>
0.0000

> <Gold.Chemscore.DEClash>
0.0009

> <Gold.Chemscore.DEInternal>
2.8948

> <Gold.Chemscore.Rot>
2.5160

> <Gold.Chemscore.Internal.Correction>
   9.000000E+99

> <Gold.Chemscore.Hbonds>
donor molecule, donor type, donor heavy atom, donor atom, acceptor molecule, acceptor atom, score
      P1  H  6896  6907       L1    12  0.28
      P1  H  6931  6943       L1     8  0.13
      P1  H  6934  6947       L1     8  0.71

> <Gold.Chemscore.Hbond.Weighted>
-6.5668

> <Gold.Chemscore.Metal.Weighted>
-0.0000

> <Gold.Chemscore.Lipo.Weighted>
-7.9196

> <Gold.Chemscore.Internal_Hbond.Weighted>
0.0000

> <Gold.Chemscore.DEClash.Weighted>
0.0009

> <Gold.Chemscore.DEInternal.Weighted>
2.8948

> <Gold.Chemscore.Rot.Weighted>
6.4410

> <Gold.Chemscore.Internal.Correction.Weighted>
   9.000000E+99

> <Gold.Protein.RotatedTorsions>
[ 6907 6896 6895 6894 ] final -103.15 input  -60.11 | X-H torsion
[ 7974 7965 7964 7962 ] final  -29.17 input  175.53 | X-H torsion
[ 8008 7997 7996 7995 ] final   64.75 input   59.86 | X-H torsion
[ 10167 10162 10161 10158 ] final  103.60 input  -65.29 | X-H torsion
[ 10718 10713 10712 10709 ] final  104.17 input   66.30 | X-H torsion
[ 10763 10752 10751 10750 ] final   -8.41 input  -60.55 | X-H torsion
[ 11005 11000 10999 10996 ] final  147.01 input  -57.11 | X-H torsion

> <Gold.Protein.ActiveResidues>
 VAL166  LYS551  ARG553  GLY616  TRP617  ASP618  TYR619  PRO620  LYS621  CYS622 
 ASP623  PHE694  ASN695  SER759  ASP760  ASP761  ALA762  ILE779  LEU786  VAL792 
 PHE793  MET794  SER795  GLU796  ALA797  LYS798  CYS799  TRP800  GLU811  SER814 

> <Gold.Protein.RotatedAtoms>
  150.7227  134.0473  159.3785 H   0  0  0  0  0  0  0  0  0  0  0  0  # atno 6907 bound_to 6896
  151.8448  135.0575  160.0461 H   0  0  0  0  0  0  0  0  0  0  0  0  # atno 6908 bound_to 6896
  152.2835  133.5457  159.5549 H   0  0  0  0  0  0  0  0  0  0  0  0  # atno 6909 bound_to 6896
  146.1235  140.5378  142.8724 H   0  0  0  0  0  0  0  0  0  0  0  0  # atno 7974 bound_to 7965
  155.6510  140.3497  155.4748 H   0  0  0  0  0  0  0  0  0  0  0  0  # atno 8008 bound_to 7997
  155.9848  140.1181  157.0717 H   0  0  0  0  0  0  0  0  0  0  0  0  # atno 8009 bound_to 7997
  154.4202  140.1131  156.5470 H   0  0  0  0  0  0  0  0  0  0  0  0  # atno 8010 bound_to 7997
  139.7249  144.7050  151.0813 H   0  0  0  0  0  0  0  0  0  0  0  0  # atno 10167 bound_to 10162
  157.6749  131.0797  150.5665 H   0  0  0  0  0  0  0  0  0  0  0  0  # atno 10718 bound_to 10713
  153.4400  135.7013  153.6175 H   0  0  0  0  0  0  0  0  0  0  0  0  # atno 10763 bound_to 10752
  153.4554  135.3748  155.2308 H   0  0  0  0  0  0  0  0  0  0  0  0  # atno 10764 bound_to 10752
  154.8727  135.4007  154.3797 H   0  0  0  0  0  0  0  0  0  0  0  0  # atno 10765 bound_to 10752
  140.0841  134.9080  157.1547 H   0  0  0  0  0  0  0  0  0  0  0  0  # atno 11005 bound_to 11000
  144.7620  140.5444  143.6729 LP  0  0  0  0  0  0  0  0  0  0  0  0  # atno 17320 bound_to 7965
  145.5414  139.1475  143.3445 LP  0  0  0  0  0  0  0  0  0  0  0  0  # atno 17321 bound_to 7965
  140.7761  143.5118  150.9643 LP  0  0  0  0  0  0  0  0  0  0  0  0  # atno 17342 bound_to 10162
  139.8805  143.7078  152.3157 LP  0  0  0  0  0  0  0  0  0  0  0  0  # atno 17343 bound_to 10162
  156.5967  130.4343  149.5914 LP  0  0  0  0  0  0  0  0  0  0  0  0  # atno 17370 bound_to 10713
  156.2539  130.6923  151.1670 LP  0  0  0  0  0  0  0  0  0  0  0  0  # atno 17371 bound_to 10713
  140.3446  134.2666  155.7207 LP  0  0  0  0  0  0  0  0  0  0  0  0  # atno 17394 bound_to 11000
  141.2056  133.7854  157.0221 LP  0  0  0  0  0  0  0  0  0  0  0  0  # atno 17395 bound_to 11000

$$$$
