AV-unprocessed.smi:61|AV-procd|sdf|598|dock10
  -GOLD-   2262016493D 1   1.00000     0.00000
 Structure written by MMmdl.
 28 29  0  0  0  0  0  0  0  0  1 V2000
  150.7181  143.0668  154.5603 N   0  0  0  0  0  0  0  0  0  0  0  0
  151.4551  142.3097  155.4380 C   0  0  0  0  0  0  0  0  0  0  0  0
  152.2620  141.3927  154.9035 N   0  0  0  0  0  0  0  0  0  0  0  0
  152.9852  140.6492  155.7678 C   0  0  0  0  0  0  0  0  0  0  0  0
  152.8941  140.8319  157.1625 C   0  0  0  0  0  0  0  0  0  0  0  0
  152.0048  141.8331  157.6204 C   0  0  0  0  0  0  0  0  0  0  0  0
  151.8559  142.0823  159.0009 N   0  0  0  0  0  0  0  0  0  0  0  0
  152.6286  141.2433  159.9113 C   0  0  0  0  0  0  0  0  0  0  0  0
  153.0958  142.1574  161.0498 C   0  0  0  0  0  0  0  0  0  0  0  0
  152.0948  143.3084  161.0276 C   0  0  0  0  0  0  0  0  0  0  0  0
  151.7813  143.4420  159.5331 C   0  0  2  0  0  0  0  0  0  0  0  0
  150.4637  144.1788  159.2021 C   0  0  0  0  0  0  0  0  0  0  0  0
  150.6957  145.3892  158.5105 O   0  0  0  0  0  0  0  0  0  0  0  0
  151.2876  142.5690  156.7360 N   0  0  0  0  0  0  0  0  0  0  0  0
  150.0884  143.7772  154.9038 H   0  0  0  0  0  0  0  0  0  0  0  0
  150.8386  142.9554  153.5643 H   0  0  0  0  0  0  0  0  0  0  0  0
  153.6400  139.9019  155.3446 H   0  0  0  0  0  0  0  0  0  0  0  0
  153.4749  140.2244  157.8408 H   0  0  0  0  0  0  0  0  0  0  0  0
  151.9764  140.4581  160.2948 H   0  0  0  0  0  0  0  0  0  0  0  0
  153.4799  140.7665  159.4235 H   0  0  0  0  0  0  0  0  0  0  0  0
  153.1386  141.6470  162.0123 H   0  0  0  0  0  0  0  0  0  0  0  0
  154.0936  142.5387  160.8278 H   0  0  0  0  0  0  0  0  0  0  0  0
  151.2084  143.0242  161.5957 H   0  0  0  0  0  0  0  0  0  0  0  0
  152.4925  144.2268  161.4600 H   0  0  0  0  0  0  0  0  0  0  0  0
  152.6004  144.0036  159.0813 H   0  0  0  0  0  0  0  0  0  0  0  0
  149.8425  143.5451  158.5688 H   0  0  0  0  0  0  0  0  0  0  0  0
  149.8797  144.3889  160.0972 H   0  0  0  0  0  0  0  0  0  0  0  0
  149.8656  145.7272  158.2109 H   0  0  0  0  0  0  0  0  0  0  0  0
  1  2  1  0  0  0  0
  1 15  1  0  0  0  0
  1 16  1  0  0  0  0
  2 14  1  0  0  0  0
  2  3  2  0  0  0  0
  3  4  1  0  0  0  0
  4  5  2  0  0  0  0
  4 17  1  0  0  0  0
  5  6  1  0  0  0  0
  5 18  1  0  0  0  0
  6  7  1  0  0  0  0
  6 14  2  0  0  0  0
  7 11  1  0  0  0  0
  7  8  1  0  0  0  0
  8  9  1  0  0  0  0
  8 19  1  0  0  0  0
  8 20  1  0  0  0  0
  9 10  1  0  0  0  0
  9 21  1  0  0  0  0
  9 22  1  0  0  0  0
 10 11  1  0  0  0  0
 10 23  1  0  0  0  0
 10 24  1  0  0  0  0
 11 12  1  0  0  0  0
 11 25  1  0  0  0  0
 12 13  1  0  0  0  0
 12 26  1  0  0  0  0
 12 27  1  0  0  0  0
 13 28  1  0  0  0  0
M  END
> <s_m_source_file>
AV-unprocessed.smi

> <i_m_source_file_index>
61

> <i_lp_mmshare_version>
43012

> <i_f3d_flags>
0

> <s_epik_input>
W05IMl1jMW5bY0hdW2NIXWMobjEpTjJbQ0gyXVtDSDJdW0NIMl1bQ0BIXTJbQ0gyXVtPSF0=

> <s_epik_cmdline>
J2VwaWtfcHl0aG9uJywgJy1waCcsICc3LjAnLCAnLXRuJywgJzgnLCAnLW1hJywgJzIwMCcsICctbWV0YWxfYmluZGluZycsICctaW1hZScsICc8aW5maWxlLm1hZT4nLCAnLW9tYWUnLCAnPG91dGZpbGUubWFlPic=

> <r_lp_tautomer_probability>
1

> <r_epik_Ionization_Penalty>
0.76024

> <r_epik_Ionization_Penalty_Charging>
0

> <r_epik_Ionization_Penalty_Neutral>
0.76024

> <r_epik_State_Penalty>
0.587668

> <r_epik_Charging_Adjusted_Penalty>
0.587668

> <i_epik_Tot_Q>
0

> <i_epik_Tot_abs_Q>
0

> <r_epik_Metal_State_Penalty>
0.307814

> <b_epik_Metal_Only>
0

> <s_lp_Force_Field>
OPLS_2005

> <r_lp_Energy>
26.7573

> <b_lp_Chiralities_Consistent>
1

> <s_lp_Variant>
AV-unprocessed.smi:61-4

> <Gold.Version>
5.8.1

> <Gold.Id.Protein>
6NUR|6NUR_protein|mol2

> <Gold.PLP.Fitness>
37.6908

> <Gold.PLP.PLP>
-30.3879

> <Gold.PLP.part.hbond>
-3.7292

> <Gold.PLP.part.metal>
0.0000

> <Gold.PLP.part.buried>
-4.0334

> <Gold.PLP.part.nonpolar>
-22.3336

> <Gold.PLP.part.repulsive>
0.3672

> <Gold.PLP.ligand.clash>
0.0000

> <Gold.PLP.ligand.torsion>
0.9851

> <Gold.PLP.Chemscore.Hbond>
2.9760

> <Gold.PLP.Chemscore.CHOScore>
0.0000

> <Gold.PLP.Chemscore.Metal>
0.0000

> <Gold.Chemscore.Hbonds>
donor molecule, donor type, donor heavy atom, donor atom, acceptor molecule, acceptor atom, score
      L1  H     1    15       P1  8028  1.00
      L1  H    13    28       P1  8029  0.65
      P1  H  7989  7998       L1     3  0.05

> <Gold.PLP.Chemscore.Internal.Correction>
0.3450

> <Gold.Rescore>
     Score         DG    S(hbond)    S(metal)    S(lipo)     H(rot)  DE(clash)    DE(int)     intcor
     14.37     -16.29       2.51        0.00      63.64       1.96       0.02       1.90       ----

> <Gold.Chemscore.Fitness>
14.3699

> <Gold.Chemscore.DG>
-16.2864

> <Gold.Chemscore.ZeroCoef>
-5.4800

> <Gold.Chemscore.Hbond>
2.5055

> <Gold.Chemscore.Metal>
0.0000

> <Gold.Chemscore.Lipo>
63.6392

> <Gold.Chemscore.Internal_Hbond>
0.0000

> <Gold.Chemscore.DEClash>
0.0202

> <Gold.Chemscore.DEInternal>
1.8963

> <Gold.Chemscore.Rot>
1.9561

> <Gold.Chemscore.Internal.Correction>
   9.000000E+99

> <Gold.Chemscore.Hbonds>
donor molecule, donor type, donor heavy atom, donor atom, acceptor molecule, acceptor atom, score
      L1  H     1    15       P1  8028  1.00
      L1  H    13    28       P1  8029  0.32
      P1  H  7989  7998       L1     3  0.06

> <Gold.Chemscore.Hbond.Weighted>
-8.3683

> <Gold.Chemscore.Metal.Weighted>
-0.0000

> <Gold.Chemscore.Lipo.Weighted>
-7.4458

> <Gold.Chemscore.Internal_Hbond.Weighted>
0.0000

> <Gold.Chemscore.DEClash.Weighted>
0.0202

> <Gold.Chemscore.DEInternal.Weighted>
1.8963

> <Gold.Chemscore.Rot.Weighted>
5.0077

> <Gold.Chemscore.Internal.Correction.Weighted>
   9.000000E+99

> <Gold.Protein.RotatedTorsions>
[ 6907 6896 6895 6894 ] final   24.52 input  -60.11 | X-H torsion
[ 7974 7965 7964 7962 ] final  106.21 input  175.53 | X-H torsion
[ 8008 7997 7996 7995 ] final   86.34 input   59.86 | X-H torsion
[ 10167 10162 10161 10158 ] final   43.26 input  -65.29 | X-H torsion
[ 10718 10713 10712 10709 ] final   28.41 input   66.30 | X-H torsion
[ 10763 10752 10751 10750 ] final -147.33 input  -60.55 | X-H torsion
[ 11005 11000 10999 10996 ] final  -10.54 input  -57.11 | X-H torsion

> <Gold.Protein.ActiveResidues>
 VAL166  LYS551  ARG553  GLY616  TRP617  ASP618  TYR619  PRO620  LYS621  CYS622 
 ASP623  PHE694  ASN695  SER759  ASP760  ASP761  ALA762  ILE779  LEU786  VAL792 
 PHE793  MET794  SER795  GLU796  ALA797  LYS798  CYS799  TRP800  GLU811  SER814 

> <Gold.Protein.RotatedAtoms>
  151.9587  135.0134  160.0546 H   0  0  0  0  0  0  0  0  0  0  0  0  # atno 6907 bound_to 6896
  152.1888  133.4754  159.5005 H   0  0  0  0  0  0  0  0  0  0  0  0  # atno 6908 bound_to 6896
  150.6931  134.1657  159.4236 H   0  0  0  0  0  0  0  0  0  0  0  0  # atno 6909 bound_to 6896
  145.3095  139.2544  143.3770 H   0  0  0  0  0  0  0  0  0  0  0  0  # atno 7974 bound_to 7965
  155.9615  140.3393  155.6495 H   0  0  0  0  0  0  0  0  0  0  0  0  # atno 8008 bound_to 7997
  155.6792  140.0736  157.2509 H   0  0  0  0  0  0  0  0  0  0  0  0  # atno 8009 bound_to 7997
  154.4144  140.1677  156.1951 H   0  0  0  0  0  0  0  0  0  0  0  0  # atno 8010 bound_to 7997
  140.3461  144.2409  150.6150 H   0  0  0  0  0  0  0  0  0  0  0  0  # atno 10167 bound_to 10162
  157.2330  130.7033  149.6322 H   0  0  0  0  0  0  0  0  0  0  0  0  # atno 10718 bound_to 10713
  154.8291  135.3363  154.6801 H   0  0  0  0  0  0  0  0  0  0  0  0  # atno 10763 bound_to 10752
  153.7423  135.6945  153.4968 H   0  0  0  0  0  0  0  0  0  0  0  0  # atno 10764 bound_to 10752
  153.2235  135.4441  155.0467 H   0  0  0  0  0  0  0  0  0  0  0  0  # atno 10765 bound_to 10752
  140.7458  133.8633  155.9004 H   0  0  0  0  0  0  0  0  0  0  0  0  # atno 11005 bound_to 11000
  146.3123  140.3628  142.8666 LP  0  0  0  0  0  0  0  0  0  0  0  0  # atno 17320 bound_to 7965
  144.9027  140.7662  143.5857 LP  0  0  0  0  0  0  0  0  0  0  0  0  # atno 17321 bound_to 7965
  140.5263  143.2253  151.8310 LP  0  0  0  0  0  0  0  0  0  0  0  0  # atno 17342 bound_to 10162
  139.4833  144.4776  151.9348 LP  0  0  0  0  0  0  0  0  0  0  0  0  # atno 17343 bound_to 10162
  155.9674  130.4482  150.5612 LP  0  0  0  0  0  0  0  0  0  0  0  0  # atno 17370 bound_to 10713
  157.3458  131.0725  151.1752 LP  0  0  0  0  0  0  0  0  0  0  0  0  # atno 17371 bound_to 10713
  140.9796  134.1423  157.4506 LP  0  0  0  0  0  0  0  0  0  0  0  0  # atno 17394 bound_to 11000
  139.8797  135.0006  156.6019 LP  0  0  0  0  0  0  0  0  0  0  0  0  # atno 17395 bound_to 11000

$$$$
