AV-unprocessed.smi:835|AV-procd|sdf|3889|dock3
  -GOLD-   22720 1343D 1   1.00000     0.00000
 Structure written by MMmdl.
 41 43  0  0  0  0  0  0  0  0  2 V2000
  151.7958  131.1668  156.7163 C   0  0  0  0  0  0  0  0  0  0  0  0
  151.1028  132.2878  155.9995 C   0  0  0  0  0  0  0  0  0  0  0  0
  150.1243  132.1975  154.9672 C   0  0  0  0  0  0  0  0  0  0  0  0
  149.8511  133.5102  154.6960 C   0  0  0  0  0  0  0  0  0  0  0  0
  148.9929  134.0312  153.7793 N   0  0  0  0  0  0  0  0  0  0  0  0
  147.7035  133.7146  153.5667 C   0  0  0  0  0  0  0  0  0  0  0  0
  147.0593  132.8778  154.1993 O   0  0  0  0  0  0  0  0  0  0  0  0
  147.1818  134.4421  152.5689 N   0  0  0  0  0  0  0  0  0  0  0  0
  145.7980  134.3510  152.1154 C   0  0  1  0  0  0  0  0  0  0  0  0
  145.4608  133.0671  151.3638 C   0  0  0  0  0  0  0  0  0  0  0  0
  143.9345  133.0012  151.4853 C   0  0  0  0  0  0  0  0  0  0  0  0
  143.5745  133.7080  152.7401 N   0  3  2  0  0  0  0  0  0  0  0  0
  142.4679  134.6758  152.5766 C   0  0  0  0  0  0  0  0  0  0  0  0
  142.0464  135.3355  153.8679 C   0  0  0  0  0  0  0  0  0  0  0  0
  141.1882  134.2495  153.2559 C   0  0  0  0  0  0  0  0  0  0  0  0
  144.8130  134.3090  153.2830 C   0  0  0  0  0  0  0  0  0  0  0  0
  150.6258  134.3043  155.5118 N   0  0  0  0  0  0  0  0  0  0  0  0
  150.6959  135.7504  155.5932 C   0  0  0  0  0  0  0  0  0  0  0  0
  151.3968  133.5434  156.3186 N   0  0  0  0  0  0  0  0  0  0  0  0
  151.4331  130.1970  156.3749 H   0  0  0  0  0  0  0  0  0  0  0  0
  151.6264  131.2236  157.7917 H   0  0  0  0  0  0  0  0  0  0  0  0
  152.8720  131.1973  156.5450 H   0  0  0  0  0  0  0  0  0  0  0  0
  149.7102  131.3094  154.5140 H   0  0  0  0  0  0  0  0  0  0  0  0
  149.3746  134.7665  153.2029 H   0  0  0  0  0  0  0  0  0  0  0  0
  147.7793  135.1060  152.0983 H   0  0  0  0  0  0  0  0  0  0  0  0
  145.5606  135.2121  151.4868 H   0  0  0  0  0  0  0  0  0  0  0  0
  145.8017  133.0770  150.3278 H   0  0  0  0  0  0  0  0  0  0  0  0
  145.9118  132.2063  151.8602 H   0  0  0  0  0  0  0  0  0  0  0  0
  143.4819  133.5024  150.6280 H   0  0  0  0  0  0  0  0  0  0  0  0
  143.5683  131.9743  151.4946 H   0  0  0  0  0  0  0  0  0  0  0  0
  142.4398  135.2280  151.6387 H   0  0  0  0  0  0  0  0  0  0  0  0
  142.5968  135.0915  154.7747 H   0  0  0  0  0  0  0  0  0  0  0  0
  141.6730  136.3560  153.8114 H   0  0  0  0  0  0  0  0  0  0  0  0
  140.2502  134.5550  152.7966 H   0  0  0  0  0  0  0  0  0  0  0  0
  141.1675  133.2829  153.7562 H   0  0  0  0  0  0  0  0  0  0  0  0
  145.1847  133.6524  154.0713 H   0  0  0  0  0  0  0  0  0  0  0  0
  144.6489  135.2929  153.7254 H   0  0  0  0  0  0  0  0  0  0  0  0
  149.6976  136.1578  155.7540 H   0  0  0  0  0  0  0  0  0  0  0  0
  151.0988  136.1496  154.6624 H   0  0  0  0  0  0  0  0  0  0  0  0
  151.3387  136.0579  156.4191 H   0  0  0  0  0  0  0  0  0  0  0  0
  143.2662  133.0151  153.4075 H   0  0  0  0  0  0  0  0  0  0  0  0
  1  2  1  0  0  0  0
  1 20  1  0  0  0  0
  1 21  1  0  0  0  0
  1 22  1  0  0  0  0
  2 19  2  0  0  0  0
  2  3  1  0  0  0  0
  3  4  2  0  0  0  0
  3 23  1  0  0  0  0
  4  5  1  0  0  0  0
  4 17  1  0  0  0  0
  5  6  1  0  0  0  0
  5 24  1  0  0  0  0
  6  7  2  0  0  0  0
  6  8  1  0  0  0  0
  8  9  1  0  0  0  0
  8 25  1  0  0  0  0
  9 16  1  0  0  0  0
  9 10  1  0  0  0  0
  9 26  1  0  0  0  0
 10 11  1  0  0  0  0
 10 27  1  0  0  0  0
 10 28  1  0  0  0  0
 11 12  1  0  0  0  0
 11 29  1  0  0  0  0
 11 30  1  0  0  0  0
 12 13  1  0  0  0  0
 12 16  1  0  0  0  0
 12 41  1  0  0  0  0
 13 15  1  0  0  0  0
 13 14  1  0  0  0  0
 13 31  1  0  0  0  0
 14 15  1  0  0  0  0
 14 32  1  0  0  0  0
 14 33  1  0  0  0  0
 15 34  1  0  0  0  0
 15 35  1  0  0  0  0
 16 36  1  0  0  0  0
 16 37  1  0  0  0  0
 17 18  1  0  0  0  0
 17 19  1  0  0  0  0
 18 38  1  0  0  0  0
 18 39  1  0  0  0  0
 18 40  1  0  0  0  0
M  CHG  1  12   1
M  END
> <s_m_source_file>
AV-unprocessed.smi

> <i_m_source_file_index>
835

> <i_lp_mmshare_version>
43012

> <i_f3d_flags>
0

> <s_epik_input>
W0NIM11jMVtjSF1jKG4objEpW0NIM10pW05IXUMoPU8pW05IXVtDQEBIXTJbQ0gyXVtDSDJdTihbQ0gyXTIpW0NIXTNbQ0gyXVtDSDJdMw==

> <s_epik_cmdline>
J2VwaWtfcHl0aG9uJywgJy1waCcsICc3LjAnLCAnLXRuJywgJzgnLCAnLW1hJywgJzIwMCcsICctbWV0YWxfYmluZGluZycsICctaW1hZScsICc8aW5maWxlLm1hZT4nLCAnLW9tYWUnLCAnPG91dGZpbGUubWFlPic=

> <r_lp_tautomer_probability>
1

> <r_epik_Ionization_Penalty>
0.000700689

> <r_epik_Ionization_Penalty_Charging>
0.000627528

> <r_epik_Ionization_Penalty_Neutral>
7.31611e-05

> <r_epik_State_Penalty>
0.00039643

> <r_epik_Charging_Adjusted_Penalty>
0.00102396

> <i_epik_Tot_Q>
1

> <i_epik_Tot_abs_Q>
1

> <r_epik_Metal_State_Penalty>
-0

> <b_epik_Metal_Only>
0

> <s_lp_Force_Field>
OPLS_2005

> <r_lp_Energy>
38.983

> <b_lp_Chiralities_Consistent>
1

> <s_lp_Variant>
AV-unprocessed.smi:835-4

> <Gold.Version>
5.8.1

> <Gold.Id.Protein>
6NUR|6NUR_protein|mol2

> <Gold.PLP.Fitness>
39.3435

> <Gold.PLP.PLP>
-30.4210

> <Gold.PLP.part.hbond>
-3.0000

> <Gold.PLP.part.metal>
0.0000

> <Gold.PLP.part.buried>
-3.5810

> <Gold.PLP.part.nonpolar>
-24.1868

> <Gold.PLP.part.repulsive>
0.0590

> <Gold.PLP.ligand.clash>
0.0000

> <Gold.PLP.ligand.torsion>
1.3095

> <Gold.PLP.Chemscore.Hbond>
3.4248

> <Gold.PLP.Chemscore.CHOScore>
0.0000

> <Gold.PLP.Chemscore.Metal>
0.0000

> <Gold.Chemscore.Hbonds>
donor molecule, donor type, donor heavy atom, donor atom, acceptor molecule, acceptor atom, score
      L1  H     5    24       P1  7948  0.32
      L1  H     8    25       P1  7948  1.00
      L1  H    12    41       P1 10957  2.00

> <Gold.PLP.Chemscore.Internal.Correction>
1.2671

> <Gold.Rescore>
     Score         DG    S(hbond)    S(metal)    S(lipo)     H(rot)  DE(clash)    DE(int)     intcor
     14.20     -16.50       2.14        0.00      59.66       1.22       0.10       2.20       ----

> <Gold.Chemscore.Fitness>
14.2046

> <Gold.Chemscore.DG>
-16.5002

> <Gold.Chemscore.ZeroCoef>
-5.4800

> <Gold.Chemscore.Hbond>
2.1445

> <Gold.Chemscore.Metal>
0.0000

> <Gold.Chemscore.Lipo>
59.6577

> <Gold.Chemscore.Internal_Hbond>
0.0000

> <Gold.Chemscore.DEClash>
0.1002

> <Gold.Chemscore.DEInternal>
2.1954

> <Gold.Chemscore.Rot>
1.2196

> <Gold.Chemscore.Internal.Correction>
   9.000000E+99

> <Gold.Chemscore.Hbonds>
donor molecule, donor type, donor heavy atom, donor atom, acceptor molecule, acceptor atom, score
      L1  H     5    24       P1  7948  0.01
      L1  H     8    25       P1  7948  0.87
      L1  H    12    41       P1 10957  0.85

> <Gold.Chemscore.Hbond.Weighted>
-7.1625

> <Gold.Chemscore.Metal.Weighted>
-0.0000

> <Gold.Chemscore.Lipo.Weighted>
-6.9799

> <Gold.Chemscore.Internal_Hbond.Weighted>
0.0000

> <Gold.Chemscore.DEClash.Weighted>
0.1002

> <Gold.Chemscore.DEInternal.Weighted>
2.1954

> <Gold.Chemscore.Rot.Weighted>
3.1223

> <Gold.Chemscore.Internal.Correction.Weighted>
   9.000000E+99

> <Gold.Protein.RotatedTorsions>
[ 6907 6896 6895 6894 ] final  -80.70 input  -60.11 | X-H torsion
[ 7974 7965 7964 7962 ] final  148.30 input  175.53 | X-H torsion
[ 8008 7997 7996 7995 ] final  177.05 input   59.86 | X-H torsion
[ 10167 10162 10161 10158 ] final  -63.48 input  -65.29 | X-H torsion
[ 10718 10713 10712 10709 ] final  138.49 input   66.30 | X-H torsion
[ 10763 10752 10751 10750 ] final   97.47 input  -60.55 | X-H torsion
[ 11005 11000 10999 10996 ] final  -34.60 input  -57.11 | X-H torsion

> <Gold.Protein.ActiveResidues>
 VAL166  LYS551  ARG553  GLY616  TRP617  ASP618  TYR619  PRO620  LYS621  CYS622 
 ASP623  PHE694  ASN695  SER759  ASP760  ASP761  ALA762  ILE779  LEU786  VAL792 
 PHE793  MET794  SER795  GLU796  ALA797  LYS798  CYS799  TRP800  GLU811  SER814 

> <Gold.Protein.RotatedAtoms>
  150.6925  134.3930  159.5084 H   0  0  0  0  0  0  0  0  0  0  0  0  # atno 6907 bound_to 6896
  152.1715  134.8827  160.0543 H   0  0  0  0  0  0  0  0  0  0  0  0  # atno 6908 bound_to 6896
  151.9851  133.3736  159.4159 H   0  0  0  0  0  0  0  0  0  0  0  0  # atno 6909 bound_to 6896
  144.8524  139.6137  143.5967 H   0  0  0  0  0  0  0  0  0  0  0  0  # atno 7974 bound_to 7965
  156.0699  140.1368  156.9841 H   0  0  0  0  0  0  0  0  0  0  0  0  # atno 8008 bound_to 7997
  154.4526  140.0974  156.6714 H   0  0  0  0  0  0  0  0  0  0  0  0  # atno 8009 bound_to 7997
  155.5245  140.3457  155.4416 H   0  0  0  0  0  0  0  0  0  0  0  0  # atno 8010 bound_to 7997
  140.5867  143.2335  151.6226 H   0  0  0  0  0  0  0  0  0  0  0  0  # atno 10167 bound_to 10162
  157.4248  131.1042  151.0315 H   0  0  0  0  0  0  0  0  0  0  0  0  # atno 10718 bound_to 10713
  153.2773  135.4182  155.1045 H   0  0  0  0  0  0  0  0  0  0  0  0  # atno 10763 bound_to 10752
  154.8477  135.3486  154.6161 H   0  0  0  0  0  0  0  0  0  0  0  0  # atno 10764 bound_to 10752
  153.6581  135.7049  153.5244 H   0  0  0  0  0  0  0  0  0  0  0  0  # atno 10765 bound_to 10752
  140.9729  133.7099  156.1554 H   0  0  0  0  0  0  0  0  0  0  0  0  # atno 11005 bound_to 11000
  146.2796  139.6841  142.9239 LP  0  0  0  0  0  0  0  0  0  0  0  0  # atno 17320 bound_to 7965
  145.4473  141.0426  143.2824 LP  0  0  0  0  0  0  0  0  0  0  0  0  # atno 17321 bound_to 7965
  139.5202  144.3229  152.0894 LP  0  0  0  0  0  0  0  0  0  0  0  0  # atno 17342 bound_to 10162
  140.2388  144.4292  150.6269 LP  0  0  0  0  0  0  0  0  0  0  0  0  # atno 17343 bound_to 10162
  157.1232  130.6071  149.5510 LP  0  0  0  0  0  0  0  0  0  0  0  0  # atno 17370 bound_to 10713
  155.9892  130.4939  150.7206 LP  0  0  0  0  0  0  0  0  0  0  0  0  # atno 17371 bound_to 10713
  140.7302  134.4263  157.5566 LP  0  0  0  0  0  0  0  0  0  0  0  0  # atno 17394 bound_to 11000
  139.8919  134.8768  156.2296 LP  0  0  0  0  0  0  0  0  0  0  0  0  # atno 17395 bound_to 11000

$$$$
