AV-unprocessed.smi:886|AV-procd|sdf|4049|dock7
  -GOLD-   22720 1533D 1   1.00000     0.00000
 Structure written by MMmdl.
 35 37  0  0  0  0  0  0  0  0  1 V2000
  139.0322  136.6260  153.7146 C   0  0  0  0  0  0  0  0  0  0  0  0
  140.4489  136.7152  153.3968 N   0  0  0  0  0  0  0  0  0  0  0  0
  141.2916  135.6711  153.4091 C   0  0  0  0  0  0  0  0  0  0  0  0
  140.9392  134.5220  153.6784 O   0  0  0  0  0  0  0  0  0  0  0  0
  142.7161  135.9898  153.0329 C   0  0  0  0  0  0  0  0  0  0  0  0
  143.1942  137.3136  153.1761 C   0  0  0  0  0  0  0  0  0  0  0  0
  144.5314  137.6087  152.8568 C   0  0  0  0  0  0  0  0  0  0  0  0
  145.3537  136.5615  152.4077 C   0  0  0  0  0  0  0  0  0  0  0  0
  144.9195  135.2929  152.2681 N   0  0  0  0  0  0  0  0  0  0  0  0
  143.6318  134.9988  152.5738 C   0  0  0  0  0  0  0  0  0  0  0  0
  143.2202  133.6662  152.3901 N   0  0  0  0  0  0  0  0  0  0  0  0
  143.7167  132.8754  151.2689 C   0  0  1  0  0  0  0  0  0  0  0  0
  144.2265  133.7379  150.1069 C   0  0  0  0  0  0  0  0  0  0  0  0
  145.6689  133.2407  149.9502 C   0  0  2  0  0  0  0  0  0  0  0  0
  145.7343  131.8084  149.4030 C   0  0  0  0  0  0  0  0  0  0  0  0
  145.2785  130.9917  150.6117 C   0  0  0  0  0  0  0  0  0  0  0  0
  144.9849  132.0898  151.6432 C   0  0  1  0  0  0  0  0  0  0  0  0
  146.0038  133.0185  151.3083 O   0  0  0  0  0  0  0  0  0  0  0  0
  138.5671  137.6071  153.6191 H   0  0  0  0  0  0  0  0  0  0  0  0
  138.8852  136.2764  154.7375 H   0  0  0  0  0  0  0  0  0  0  0  0
  138.5242  135.9403  153.0353 H   0  0  0  0  0  0  0  0  0  0  0  0
  140.8117  137.6246  153.1495 H   0  0  0  0  0  0  0  0  0  0  0  0
  142.5493  138.1027  153.5351 H   0  0  0  0  0  0  0  0  0  0  0  0
  144.9181  138.6119  152.9587 H   0  0  0  0  0  0  0  0  0  0  0  0
  146.3871  136.7460  152.1544 H   0  0  0  0  0  0  0  0  0  0  0  0
  142.9094  133.1581  153.2061 H   0  0  0  0  0  0  0  0  0  0  0  0
  142.9398  132.1822  150.9432 H   0  0  0  0  0  0  0  0  0  0  0  0
  143.6387  133.6053  149.1981 H   0  0  0  0  0  0  0  0  0  0  0  0
  144.2217  134.7993  150.3597 H   0  0  0  0  0  0  0  0  0  0  0  0
  146.3250  133.9430  149.4352 H   0  0  0  0  0  0  0  0  0  0  0  0
  145.0948  131.6694  148.5308 H   0  0  0  0  0  0  0  0  0  0  0  0
  146.7555  131.5439  149.1262 H   0  0  0  0  0  0  0  0  0  0  0  0
  144.4061  130.3719  150.4013 H   0  0  0  0  0  0  0  0  0  0  0  0
  146.0830  130.3419  150.9581 H   0  0  0  0  0  0  0  0  0  0  0  0
  145.0111  131.7361  152.6746 H   0  0  0  0  0  0  0  0  0  0  0  0
  1  2  1  0  0  0  0
  1 19  1  0  0  0  0
  1 20  1  0  0  0  0
  1 21  1  0  0  0  0
  2  3  1  0  0  0  0
  2 22  1  0  0  0  0
  3  4  2  0  0  0  0
  3  5  1  0  0  0  0
  5 10  1  0  0  0  0
  5  6  2  0  0  0  0
  6  7  1  0  0  0  0
  6 23  1  0  0  0  0
  7  8  2  0  0  0  0
  7 24  1  0  0  0  0
  8  9  1  0  0  0  0
  8 25  1  0  0  0  0
  9 10  2  0  0  0  0
 10 11  1  0  0  0  0
 11 12  1  0  0  0  0
 11 26  1  0  0  0  0
 12 17  1  0  0  0  0
 12 13  1  0  0  0  0
 12 27  1  0  0  0  0
 13 14  1  0  0  0  0
 13 28  1  0  0  0  0
 13 29  1  0  0  0  0
 14 18  1  0  0  0  0
 14 15  1  0  0  0  0
 14 30  1  0  0  0  0
 15 16  1  0  0  0  0
 15 31  1  0  0  0  0
 15 32  1  0  0  0  0
 16 17  1  0  0  0  0
 16 33  1  0  0  0  0
 16 34  1  0  0  0  0
 17 18  1  0  0  0  0
 17 35  1  0  0  0  0
M  END
> <s_m_source_file>
AV-unprocessed.smi

> <i_m_source_file_index>
886

> <i_lp_mmshare_version>
43012

> <i_f3d_flags>
0

> <s_epik_input>
W0NIM11bTkhdQyg9TyljMVtjSF1bY0hdW2NIXW5jMVtOSF1bQ0BIXShbQ0gyXVtDQEhdMjMpW0NASF0oTzMpW0NIMl1bQ0gyXTI=

> <s_epik_cmdline>
J2VwaWtfcHl0aG9uJywgJy1waCcsICc3LjAnLCAnLXRuJywgJzgnLCAnLW1hJywgJzIwMCcsICctbWV0YWxfYmluZGluZycsICctaW1hZScsICc8aW5maWxlLm1hZT4nLCAnLW9tYWUnLCAnPG91dGZpbGUubWFlPic=

> <r_lp_tautomer_probability>
1

> <r_epik_Ionization_Penalty>
0.0065447

> <r_epik_Ionization_Penalty_Charging>
0

> <r_epik_Ionization_Penalty_Neutral>
0.0065447

> <r_epik_State_Penalty>
0.00484214

> <r_epik_Charging_Adjusted_Penalty>
0.00484214

> <i_epik_Tot_Q>
0

> <i_epik_Tot_abs_Q>
0

> <r_epik_Metal_State_Penalty>
-0

> <b_epik_Metal_Only>
0

> <s_lp_Force_Field>
OPLS_2005

> <r_lp_Energy>
46.3803

> <b_lp_Chiralities_Consistent>
1

> <s_lp_Variant>
AV-unprocessed.smi:886-2

> <Gold.Version>
5.8.1

> <Gold.Id.Protein>
6NUR|6NUR_protein|mol2

> <Gold.PLP.Fitness>
39.9094

> <Gold.PLP.PLP>
-32.5258

> <Gold.PLP.part.hbond>
-3.0000

> <Gold.PLP.part.metal>
0.0000

> <Gold.PLP.part.buried>
-5.8808

> <Gold.PLP.part.nonpolar>
-23.9694

> <Gold.PLP.part.repulsive>
0.4631

> <Gold.PLP.ligand.clash>
0.0000

> <Gold.PLP.ligand.torsion>
0.8203

> <Gold.PLP.Chemscore.Hbond>
2.0000

> <Gold.PLP.Chemscore.CHOScore>
1.0000

> <Gold.PLP.Chemscore.Metal>
0.0000

> <Gold.Chemscore.Hbonds>
donor molecule, donor type, donor heavy atom, donor atom, acceptor molecule, acceptor atom, score
      L1  H    11    26       P1 10957  0.81
      P1  H 11000 11005       L1     4  0.80
      L1  C     8    25       P1  7948  0.79

> <Gold.PLP.Chemscore.Internal.Correction>
0.0242

> <Gold.Rescore>
     Score         DG    S(hbond)    S(metal)    S(lipo)     H(rot)  DE(clash)    DE(int)     intcor
     14.17     -17.96       1.94        0.00      73.22       1.00       0.03       3.75       ----

> <Gold.Chemscore.Fitness>
14.1748

> <Gold.Chemscore.DG>
-17.9573

> <Gold.Chemscore.ZeroCoef>
-5.4800

> <Gold.Chemscore.Hbond>
1.9374

> <Gold.Chemscore.Metal>
0.0000

> <Gold.Chemscore.Lipo>
73.2176

> <Gold.Chemscore.Internal_Hbond>
0.0000

> <Gold.Chemscore.DEClash>
0.0285

> <Gold.Chemscore.DEInternal>
3.7540

> <Gold.Chemscore.Rot>
1.0000

> <Gold.Chemscore.Internal.Correction>
   9.000000E+99

> <Gold.Chemscore.Hbonds>
donor molecule, donor type, donor heavy atom, donor atom, acceptor molecule, acceptor atom, score
      L1  H    11    26       P1 10957  0.66
      P1  H 10995 11001       L1     4  0.01
      P1  H 11000 11005       L1     4  0.73

> <Gold.Chemscore.Hbond.Weighted>
-6.4708

> <Gold.Chemscore.Metal.Weighted>
-0.0000

> <Gold.Chemscore.Lipo.Weighted>
-8.5665

> <Gold.Chemscore.Internal_Hbond.Weighted>
0.0000

> <Gold.Chemscore.DEClash.Weighted>
0.0285

> <Gold.Chemscore.DEInternal.Weighted>
3.7540

> <Gold.Chemscore.Rot.Weighted>
2.5600

> <Gold.Chemscore.Internal.Correction.Weighted>
   9.000000E+99

> <Gold.Protein.RotatedTorsions>
[ 6907 6896 6895 6894 ] final   97.63 input  -60.11 | X-H torsion
[ 7974 7965 7964 7962 ] final  169.75 input  175.53 | X-H torsion
[ 8008 7997 7996 7995 ] final   55.00 input   59.86 | X-H torsion
[ 10167 10162 10161 10158 ] final  -44.16 input  -65.29 | X-H torsion
[ 10718 10713 10712 10709 ] final  -74.50 input   66.30 | X-H torsion
[ 10763 10752 10751 10750 ] final  -60.19 input  -60.55 | X-H torsion
[ 11005 11000 10999 10996 ] final   18.32 input  -57.11 | X-H torsion

> <Gold.Protein.ActiveResidues>
 VAL166  LYS551  ARG553  GLY616  TRP617  ASP618  TYR619  PRO620  LYS621  CYS622 
 ASP623  PHE694  ASN695  SER759  ASP760  ASP761  ALA762  ILE779  LEU786  VAL792 
 PHE793  MET794  SER795  GLU796  ALA797  LYS798  CYS799  TRP800  GLU811  SER814 

> <Gold.Protein.RotatedAtoms>
  152.5421  134.0703  159.8190 H   0  0  0  0  0  0  0  0  0  0  0  0  # atno 6907 bound_to 6896
  151.0819  133.5376  159.2627 H   0  0  0  0  0  0  0  0  0  0  0  0  # atno 6908 bound_to 6896
  151.2200  135.0523  159.9000 H   0  0  0  0  0  0  0  0  0  0  0  0  # atno 6909 bound_to 6896
  144.7345  139.9101  143.6414 H   0  0  0  0  0  0  0  0  0  0  0  0  # atno 7974 bound_to 7965
  155.4940  140.3472  155.4359 H   0  0  0  0  0  0  0  0  0  0  0  0  # atno 8008 bound_to 7997
  156.0958  140.1422  156.9561 H   0  0  0  0  0  0  0  0  0  0  0  0  # atno 8009 bound_to 7997
  154.4663  140.0916  156.7005 H   0  0  0  0  0  0  0  0  0  0  0  0  # atno 8010 bound_to 7997
  140.6907  143.2944  151.3456 H   0  0  0  0  0  0  0  0  0  0  0  0  # atno 10167 bound_to 10162
  156.0240  130.4418  150.2902 H   0  0  0  0  0  0  0  0  0  0  0  0  # atno 10718 bound_to 10713
  154.2654  135.6300  153.5290 H   0  0  0  0  0  0  0  0  0  0  0  0  # atno 10763 bound_to 10752
  152.9889  135.5597  154.5659 H   0  0  0  0  0  0  0  0  0  0  0  0  # atno 10764 bound_to 10752
  154.5217  135.2883  155.1232 H   0  0  0  0  0  0  0  0  0  0  0  0  # atno 10765 bound_to 10752
  140.4261  134.1468  155.7676 H   0  0  0  0  0  0  0  0  0  0  0  0  # atno 11005 bound_to 11000
  146.1007  139.4003  143.0348 LP  0  0  0  0  0  0  0  0  0  0  0  0  # atno 17320 bound_to 7965
  145.7582  140.9946  143.1214 LP  0  0  0  0  0  0  0  0  0  0  0  0  # atno 17321 bound_to 7965
  139.6307  144.0726  152.2474 LP  0  0  0  0  0  0  0  0  0  0  0  0  # atno 17342 bound_to 10162
  140.0200  144.6160  150.7575 LP  0  0  0  0  0  0  0  0  0  0  0  0  # atno 17343 bound_to 10162
  157.1005  131.0194  151.3087 LP  0  0  0  0  0  0  0  0  0  0  0  0  # atno 17370 bound_to 10713
  157.4783  130.7750  149.7389 LP  0  0  0  0  0  0  0  0  0  0  0  0  # atno 17371 bound_to 10713
  141.1764  133.8504  157.1405 LP  0  0  0  0  0  0  0  0  0  0  0  0  # atno 17394 bound_to 11000
  140.0166  134.9964  157.0507 LP  0  0  0  0  0  0  0  0  0  0  0  0  # atno 17395 bound_to 11000

$$$$
