AV-unprocessed.smi:3263|AV-procd|sdf|12490|dock1
  -GOLD-   2272018393D 1   1.00000     0.00000
 Structure written by MMmdl.
 42 44  0  0  0  0  0  0  0  0  2 V2000
  150.7552  136.8516  159.1242 O   0  0  0  0  0  0  0  0  0  0  0  0
  149.6534  137.3741  158.9535 C   0  0  0  0  0  0  0  0  0  0  0  0
  148.3727  136.5750  159.2079 C   0  0  0  0  0  0  0  0  0  0  0  0
  148.3403  135.9213  160.6076 C   0  0  2  0  0  0  0  0  0  0  0  0
  147.7660  134.4883  160.6204 C   0  0  0  0  0  0  0  0  0  0  0  0
  146.7236  134.5439  161.7535 C   0  0  2  0  0  0  0  0  0  0  0  0
  145.4964  135.3389  161.2711 C   0  0  0  0  0  0  0  0  0  0  0  0
  146.0188  136.7870  161.2512 C   0  0  0  0  0  0  0  0  0  0  0  0
  147.4880  136.6268  161.6936 C   0  0  1  0  0  0  0  0  0  0  0  0
  147.3640  135.5194  162.7347 C   0  0  0  0  0  0  0  0  0  0  0  0
  149.4957  138.6478  158.5622 N   0  0  0  0  0  0  0  0  0  0  0  0
  150.5847  139.5905  158.3407 C   0  0  0  0  0  0  0  0  0  0  0  0
  150.0792  140.8802  157.6719 C   0  0  0  0  0  0  0  0  0  0  0  0
  150.9214  142.0855  158.0395 C   0  0  0  0  0  0  0  0  0  0  0  0
  151.9743  142.0116  158.9771 C   0  0  0  0  0  0  0  0  0  0  0  0
  152.7148  143.1750  159.2733 C   0  0  0  0  0  0  0  0  0  0  0  0
  152.3871  144.3854  158.6274 C   0  0  0  0  0  0  0  0  0  0  0  0
  151.3252  144.4021  157.7003 C   0  0  0  0  0  0  0  0  0  0  0  0
  150.6396  143.2667  157.4431 N   0  3  0  0  0  0  0  0  0  0  0  0
  147.5010  137.2146  159.0640 H   0  0  0  0  0  0  0  0  0  0  0  0
  148.3013  135.7992  158.4449 H   0  0  0  0  0  0  0  0  0  0  0  0
  149.3676  135.8705  160.9739 H   0  0  0  0  0  0  0  0  0  0  0  0
  147.3155  134.2006  159.6694 H   0  0  0  0  0  0  0  0  0  0  0  0
  148.5503  133.7644  160.8450 H   0  0  0  0  0  0  0  0  0  0  0  0
  146.4756  133.5664  162.1680 H   0  0  0  0  0  0  0  0  0  0  0  0
  145.1477  135.0085  160.2921 H   0  0  0  0  0  0  0  0  0  0  0  0
  144.6670  135.2401  161.9726 H   0  0  0  0  0  0  0  0  0  0  0  0
  145.9090  137.2627  160.2774 H   0  0  0  0  0  0  0  0  0  0  0  0
  145.4697  137.3956  161.9711 H   0  0  0  0  0  0  0  0  0  0  0  0
  147.9328  137.5490  162.0689 H   0  0  0  0  0  0  0  0  0  0  0  0
  146.7141  135.7811  163.5717 H   0  0  0  0  0  0  0  0  0  0  0  0
  148.3251  135.1765  163.1222 H   0  0  0  0  0  0  0  0  0  0  0  0
  148.5551  138.9944  158.4393 H   0  0  0  0  0  0  0  0  0  0  0  0
  151.0795  139.8145  159.2874 H   0  0  0  0  0  0  0  0  0  0  0  0
  151.3301  139.1096  157.7064 H   0  0  0  0  0  0  0  0  0  0  0  0
  150.0765  140.7608  156.5876 H   0  0  0  0  0  0  0  0  0  0  0  0
  149.0460  141.0794  157.9598 H   0  0  0  0  0  0  0  0  0  0  0  0
  152.2128  141.0773  159.4644 H   0  0  0  0  0  0  0  0  0  0  0  0
  153.5245  143.1394  159.9874 H   0  0  0  0  0  0  0  0  0  0  0  0
  152.9421  145.2874  158.8401 H   0  0  0  0  0  0  0  0  0  0  0  0
  151.0057  145.2818  157.1609 H   0  0  0  0  0  0  0  0  0  0  0  0
  149.8744  143.3015  156.7687 H   0  0  0  0  0  0  0  0  0  0  0  0
  1  2  2  0  0  0  0
  2  3  1  0  0  0  0
  2 11  1  0  0  0  0
  3  4  1  0  0  0  0
  3 20  1  0  0  0  0
  3 21  1  0  0  0  0
  4  9  1  0  0  0  0
  4  5  1  0  0  0  0
  4 22  1  0  0  0  0
  5  6  1  0  0  0  0
  5 23  1  0  0  0  0
  5 24  1  0  0  0  0
  6 10  1  0  0  0  0
  6  7  1  0  0  0  0
  6 25  1  0  0  0  0
  7  8  1  0  0  0  0
  7 26  1  0  0  0  0
  7 27  1  0  0  0  0
  8  9  1  0  0  0  0
  8 28  1  0  0  0  0
  8 29  1  0  0  0  0
  9 10  1  0  0  0  0
  9 30  1  0  0  0  0
 10 31  1  0  0  0  0
 10 32  1  0  0  0  0
 11 12  1  0  0  0  0
 11 33  1  0  0  0  0
 12 13  1  0  0  0  0
 12 34  1  0  0  0  0
 12 35  1  0  0  0  0
 13 14  1  0  0  0  0
 13 36  1  0  0  0  0
 13 37  1  0  0  0  0
 14 19  1  0  0  0  0
 14 15  2  0  0  0  0
 15 16  1  0  0  0  0
 15 38  1  0  0  0  0
 16 17  2  0  0  0  0
 16 39  1  0  0  0  0
 17 18  1  0  0  0  0
 17 40  1  0  0  0  0
 18 19  2  0  0  0  0
 18 41  1  0  0  0  0
 19 42  1  0  0  0  0
M  CHG  1  19   1
M  END
> <s_m_source_file>
AV-unprocessed.smi

> <i_m_source_file_index>
3263

> <i_lp_mmshare_version>
43012

> <i_f3d_flags>
0

> <s_epik_input>
W0NIMl0xW0NIMl1bQ0BASF0oW0NIMl0yKVtDQEBIXShbQ0gyXVtDQEhdMTIpW0NIMl1DKD1PKVtOSF1bQ0gyXVtDSDJdYzNbY0hdW2NIXVtjSF1bY0hdbjM=

> <s_epik_cmdline>
J2VwaWtfcHl0aG9uJywgJy1waCcsICc3LjAnLCAnLXRuJywgJzgnLCAnLW1hJywgJzIwMCcsICctbWV0YWxfYmluZGluZycsICctaW1hZScsICc8aW5maWxlLm1hZT4nLCAnLW9tYWUnLCAnPG91dGZpbGUubWFlPic=

> <r_epik_Ionization_Penalty>
1.83579

> <r_epik_Ionization_Penalty_Charging>
1.83579

> <r_epik_Ionization_Penalty_Neutral>
2.47288e-08

> <r_epik_State_Penalty>
1.95213

> <r_epik_Charging_Adjusted_Penalty>
3.78793

> <i_epik_Tot_Q>
1

> <i_epik_Tot_abs_Q>
1

> <r_epik_Metal_State_Penalty>
1.97847

> <b_epik_Metal_Only>
0

> <s_lp_Force_Field>
OPLS_2005

> <r_lp_Energy>
51.925

> <b_lp_Chiralities_Consistent>
1

> <s_lp_Variant>
AV-unprocessed.smi:3263-5

> <Gold.Version>
5.8.1

> <Gold.Id.Protein>
6NUR|6NUR_protein|mol2

> <Gold.PLP.Fitness>
47.3807

> <Gold.PLP.PLP>
-41.2071

> <Gold.PLP.part.hbond>
-2.0000

> <Gold.PLP.part.metal>
0.0000

> <Gold.PLP.part.buried>
-3.9146

> <Gold.PLP.part.nonpolar>
-35.5948

> <Gold.PLP.part.repulsive>
0.2089

> <Gold.PLP.ligand.clash>
0.0000

> <Gold.PLP.ligand.torsion>
0.8689

> <Gold.PLP.Chemscore.Hbond>
2.6177

> <Gold.PLP.Chemscore.CHOScore>
0.0000

> <Gold.PLP.Chemscore.Metal>
0.0000

> <Gold.Chemscore.Hbonds>
donor molecule, donor type, donor heavy atom, donor atom, acceptor molecule, acceptor atom, score
      L1  H    19    42       P1  8028  1.41
      P1  H  6896  6907       L1     1  1.00

> <Gold.PLP.Chemscore.Internal.Correction>
0.0582

> <Gold.Rescore>
     Score         DG    S(hbond)    S(metal)    S(lipo)     H(rot)  DE(clash)    DE(int)     intcor
     20.13     -20.96       1.67        0.00     118.95       1.56       0.05       0.79       ----

> <Gold.Chemscore.Fitness>
20.1297

> <Gold.Chemscore.DG>
-20.9634

> <Gold.Chemscore.ZeroCoef>
-5.4800

> <Gold.Chemscore.Hbond>
1.6677

> <Gold.Chemscore.Metal>
0.0000

> <Gold.Chemscore.Lipo>
118.9505

> <Gold.Chemscore.Internal_Hbond>
0.0000

> <Gold.Chemscore.DEClash>
0.0454

> <Gold.Chemscore.DEInternal>
0.7883

> <Gold.Chemscore.Rot>
1.5640

> <Gold.Chemscore.Internal.Correction>
   9.000000E+99

> <Gold.Chemscore.Hbonds>
donor molecule, donor type, donor heavy atom, donor atom, acceptor molecule, acceptor atom, score
      L1  H    19    42       P1  8028  0.66
      P1  H  6896  6907       L1     1  0.93

> <Gold.Chemscore.Hbond.Weighted>
-5.5700

> <Gold.Chemscore.Metal.Weighted>
-0.0000

> <Gold.Chemscore.Lipo.Weighted>
-13.9172

> <Gold.Chemscore.Internal_Hbond.Weighted>
0.0000

> <Gold.Chemscore.DEClash.Weighted>
0.0454

> <Gold.Chemscore.DEInternal.Weighted>
0.7883

> <Gold.Chemscore.Rot.Weighted>
4.0038

> <Gold.Chemscore.Internal.Correction.Weighted>
   9.000000E+99

> <Gold.Protein.RotatedTorsions>
[ 6907 6896 6895 6894 ] final  -39.61 input  -60.11 | X-H torsion
[ 7974 7965 7964 7962 ] final  -80.40 input  175.53 | X-H torsion
[ 8008 7997 7996 7995 ] final   59.88 input   59.86 | X-H torsion
[ 10167 10162 10161 10158 ] final -117.16 input  -65.29 | X-H torsion
[ 10718 10713 10712 10709 ] final  174.21 input   66.30 | X-H torsion
[ 10763 10752 10751 10750 ] final  -43.05 input  -60.55 | X-H torsion
[ 11005 11000 10999 10996 ] final -115.21 input  -57.11 | X-H torsion

> <Gold.Protein.ActiveResidues>
 VAL166  LYS551  ARG553  GLY616  TRP617  ASP618  TYR619  PRO620  LYS621  CYS622 
 ASP623  PHE694  ASN695  SER759  ASP760  ASP761  ALA762  ILE779  LEU786  VAL792 
 PHE793  MET794  SER795  GLU796  ALA797  LYS798  CYS799  TRP800  GLU811  SER814 

> <Gold.Protein.RotatedAtoms>
  150.9883  134.9223  159.7884 H   0  0  0  0  0  0  0  0  0  0  0  0  # atno 6907 bound_to 6896
  152.5243  134.3316  159.9195 H   0  0  0  0  0  0  0  0  0  0  0  0  # atno 6908 bound_to 6896
  151.3322  133.3954  159.2698 H   0  0  0  0  0  0  0  0  0  0  0  0  # atno 6909 bound_to 6896
  145.5604  140.9483  143.1450 H   0  0  0  0  0  0  0  0  0  0  0  0  # atno 7974 bound_to 7965
  155.5733  140.3490  155.4521 H   0  0  0  0  0  0  0  0  0  0  0  0  # atno 8008 bound_to 7997
  156.0428  140.1300  157.0162 H   0  0  0  0  0  0  0  0  0  0  0  0  # atno 8009 bound_to 7997
  154.4399  140.1020  156.6247 H   0  0  0  0  0  0  0  0  0  0  0  0  # atno 8010 bound_to 7997
  140.0714  143.4874  152.1977 H   0  0  0  0  0  0  0  0  0  0  0  0  # atno 10167 bound_to 10162
  156.9529  131.0036  151.2945 H   0  0  0  0  0  0  0  0  0  0  0  0  # atno 10718 bound_to 10713
  153.9892  135.6707  153.4753 H   0  0  0  0  0  0  0  0  0  0  0  0  # atno 10763 bound_to 10752
  153.0713  135.4973  154.8306 H   0  0  0  0  0  0  0  0  0  0  0  0  # atno 10764 bound_to 10752
  154.7119  135.3099  154.9146 H   0  0  0  0  0  0  0  0  0  0  0  0  # atno 10765 bound_to 10752
  141.0502  133.9698  157.2849 H   0  0  0  0  0  0  0  0  0  0  0  0  # atno 11005 bound_to 11000
  144.7485  139.7255  143.7282 LP  0  0  0  0  0  0  0  0  0  0  0  0  # atno 17320 bound_to 7965
  146.1855  139.5068  142.9839 LP  0  0  0  0  0  0  0  0  0  0  0  0  # atno 17321 bound_to 7965
  139.5834  144.7520  151.3582 LP  0  0  0  0  0  0  0  0  0  0  0  0  # atno 17342 bound_to 10162
  140.7124  143.7356  150.7591 LP  0  0  0  0  0  0  0  0  0  0  0  0  # atno 17343 bound_to 10162
  157.5710  130.8310  149.8391 LP  0  0  0  0  0  0  0  0  0  0  0  0  # atno 17370 bound_to 10713
  156.0355  130.3752  150.1572 LP  0  0  0  0  0  0  0  0  0  0  0  0  # atno 17371 bound_to 10713
  139.9344  135.0197  156.8509 LP  0  0  0  0  0  0  0  0  0  0  0  0  # atno 17394 bound_to 11000
  140.6069  134.0119  155.7560 LP  0  0  0  0  0  0  0  0  0  0  0  0  # atno 17395 bound_to 11000

$$$$
