AV-unprocessed.smi:2981|AV-procd|sdf|11375|dock5
  -GOLD-   2272016293D 1   1.00000     0.00000
 Structure written by MMmdl.
 31 32  0  0  0  0  0  0  0  0  1 V2000
  152.6040  139.6906  156.4005 O   0  0  0  0  0  0  0  0  0  0  0  0
  151.5765  140.2761  156.0555 C   0  0  0  0  0  0  0  0  0  0  0  0
  150.6205  139.6460  155.0324 C   0  0  0  0  0  0  0  0  0  0  0  0
  149.2023  139.8587  155.3581 N   0  0  0  0  0  0  0  0  0  0  0  0
  148.7122  139.0061  156.3319 N   0  0  0  0  0  0  0  0  0  0  0  0
  147.4853  139.1143  156.7104 C   0  0  0  0  0  0  0  0  0  0  0  0
  146.5893  140.1001  156.1474 C   0  0  0  0  0  0  0  0  0  0  0  0
  144.9530  140.1980  156.6956 Cl  0  0  0  0  0  0  0  0  0  0  0  0
  147.0779  140.9266  155.1887 C   0  0  0  0  0  0  0  0  0  0  0  0
  146.0662  142.1308  154.4668 Cl  0  0  0  0  0  0  0  0  0  0  0  0
  148.4714  140.8320  154.7319 C   0  0  0  0  0  0  0  0  0  0  0  0
  148.9522  141.5609  153.8630 O   0  0  0  0  0  0  0  0  0  0  0  0
  151.2292  141.4852  156.5212 N   0  0  0  0  0  0  0  0  0  0  0  0
  151.9888  142.2542  157.5014 C   0  0  1  0  0  0  0  0  0  0  0  0
  151.5207  143.7206  157.5431 C   0  0  0  0  0  0  0  0  0  0  0  0
  152.0848  144.3804  158.8074 C   0  0  0  0  0  0  0  0  0  0  0  0
  152.2070  143.0510  160.0639 S   0  0  0  0  0  0  0  0  0  0  0  0
  153.6018  142.9542  160.5202 O   0  0  0  0  0  0  0  0  0  0  0  0
  151.1023  143.1788  161.0264 O   0  0  0  0  0  0  0  0  0  0  0  0
  151.8429  141.6708  158.9160 C   0  0  0  0  0  0  0  0  0  0  0  0
  150.8348  140.0393  154.0366 H   0  0  0  0  0  0  0  0  0  0  0  0
  150.8413  138.5783  154.9786 H   0  0  0  0  0  0  0  0  0  0  0  0
  147.0567  138.4675  157.4760 H   0  0  0  0  0  0  0  0  0  0  0  0
  150.3731  141.8979  156.1800 H   0  0  0  0  0  0  0  0  0  0  0  0
  153.0461  142.2501  157.2293 H   0  0  0  0  0  0  0  0  0  0  0  0
  151.8113  144.2656  156.6444 H   0  0  0  0  0  0  0  0  0  0  0  0
  150.4311  143.7484  157.5935 H   0  0  0  0  0  0  0  0  0  0  0  0
  153.0892  144.7645  158.6272 H   0  0  0  0  0  0  0  0  0  0  0  0
  151.4618  145.1948  159.1778 H   0  0  0  0  0  0  0  0  0  0  0  0
  150.8205  141.3418  159.1054 H   0  0  0  0  0  0  0  0  0  0  0  0
  152.5175  140.8355  159.1057 H   0  0  0  0  0  0  0  0  0  0  0  0
  1  2  2  0  0  0  0
  2  3  1  0  0  0  0
  2 13  1  0  0  0  0
  3  4  1  0  0  0  0
  3 21  1  0  0  0  0
  3 22  1  0  0  0  0
  4 11  1  0  0  0  0
  4  5  1  0  0  0  0
  5  6  2  0  0  0  0
  6  7  1  0  0  0  0
  6 23  1  0  0  0  0
  7  8  1  0  0  0  0
  7  9  2  0  0  0  0
  9 10  1  0  0  0  0
  9 11  1  0  0  0  0
 11 12  2  0  0  0  0
 13 14  1  0  0  0  0
 13 24  1  0  0  0  0
 14 20  1  0  0  0  0
 14 15  1  0  0  0  0
 14 25  1  0  0  0  0
 15 16  1  0  0  0  0
 15 26  1  0  0  0  0
 15 27  1  0  0  0  0
 16 17  1  0  0  0  0
 16 28  1  0  0  0  0
 16 29  1  0  0  0  0
 17 18  2  0  0  0  0
 17 19  2  0  0  0  0
 17 20  1  0  0  0  0
 20 30  1  0  0  0  0
 20 31  1  0  0  0  0
M  END
> <s_m_source_file>
AV-unprocessed.smi

> <i_m_source_file_index>
2981

> <i_lp_mmshare_version>
43012

> <i_f3d_flags>
0

> <s_epik_input>
Tz1TMSg9TylbQ0gyXVtDSDJdW0NASF0oW0NIMl0xKVtOSF1DKD1PKVtDSDJdbjJuW2NIXWMoQ2wpYyhDbCljMj1P

> <s_epik_cmdline>
J2VwaWtfcHl0aG9uJywgJy1waCcsICc3LjAnLCAnLXRuJywgJzgnLCAnLW1hJywgJzIwMCcsICctbWV0YWxfYmluZGluZycsICctaW1hZScsICc8aW5maWxlLm1hZT4nLCAnLW9tYWUnLCAnPG91dGZpbGUubWFlPic=

> <r_lp_tautomer_probability>
1

> <r_epik_Ionization_Penalty>
1.07216e-07

> <r_epik_Ionization_Penalty_Charging>
2.33395e-11

> <r_epik_Ionization_Penalty_Neutral>
1.07193e-07

> <r_epik_State_Penalty>
-0

> <r_epik_Charging_Adjusted_Penalty>
2.33395e-11

> <i_epik_Tot_Q>
0

> <i_epik_Tot_abs_Q>
0

> <r_epik_Metal_State_Penalty>
-0

> <b_epik_Metal_Only>
0

> <s_lp_Force_Field>
OPLS_2005

> <r_lp_Energy>
17.277

> <b_lp_Chiralities_Consistent>
1

> <s_lp_Variant>
AV-unprocessed.smi:2981-2

> <Gold.Version>
5.8.1

> <Gold.Id.Protein>
6NUR|6NUR_protein|mol2

> <Gold.PLP.Fitness>
35.6695

> <Gold.PLP.PLP>
-31.9312

> <Gold.PLP.part.hbond>
-3.7540

> <Gold.PLP.part.metal>
0.0000

> <Gold.PLP.part.buried>
-2.4104

> <Gold.PLP.part.nonpolar>
-24.9049

> <Gold.PLP.part.repulsive>
0.9367

> <Gold.PLP.ligand.clash>
0.0000

> <Gold.PLP.ligand.torsion>
0.7290

> <Gold.PLP.Chemscore.Hbond>
1.7318

> <Gold.PLP.Chemscore.CHOScore>
0.0000

> <Gold.PLP.Chemscore.Metal>
0.0000

> <Gold.Chemscore.Hbonds>
donor molecule, donor type, donor heavy atom, donor atom, acceptor molecule, acceptor atom, score
      P1  H  6933  6945       L1    19  0.13
      P1  H  7997  8008       L1     1  1.00
      P1  H  8011  8017       L1    12  0.69

> <Gold.PLP.Chemscore.Internal.Correction>
0.0010

> <Gold.Rescore>
     Score         DG    S(hbond)    S(metal)    S(lipo)     H(rot)  DE(clash)    DE(int)     intcor
     13.79     -14.51       1.91        0.00      60.03       1.70       0.25       0.48       ----

> <Gold.Chemscore.Fitness>
13.7887

> <Gold.Chemscore.DG>
-14.5120

> <Gold.Chemscore.ZeroCoef>
-5.4800

> <Gold.Chemscore.Hbond>
1.9083

> <Gold.Chemscore.Metal>
0.0000

> <Gold.Chemscore.Lipo>
60.0254

> <Gold.Chemscore.Internal_Hbond>
0.0000

> <Gold.Chemscore.DEClash>
0.2474

> <Gold.Chemscore.DEInternal>
0.4758

> <Gold.Chemscore.Rot>
1.7049

> <Gold.Chemscore.Internal.Correction>
   9.000000E+99

> <Gold.Chemscore.Hbonds>
donor molecule, donor type, donor heavy atom, donor atom, acceptor molecule, acceptor atom, score
      P1  H  6933  6945       L1    19  0.14
      P1  H  7997  8008       L1     1  1.00
      P1  H  8011  8017       L1    12  0.67

> <Gold.Chemscore.Hbond.Weighted>
-6.3737

> <Gold.Chemscore.Metal.Weighted>
-0.0000

> <Gold.Chemscore.Lipo.Weighted>
-7.0230

> <Gold.Chemscore.Internal_Hbond.Weighted>
0.0000

> <Gold.Chemscore.DEClash.Weighted>
0.2474

> <Gold.Chemscore.DEInternal.Weighted>
0.4758

> <Gold.Chemscore.Rot.Weighted>
4.3646

> <Gold.Chemscore.Internal.Correction.Weighted>
   9.000000E+99

> <Gold.Protein.RotatedTorsions>
[ 6907 6896 6895 6894 ] final -164.53 input  -60.11 | X-H torsion
[ 7974 7965 7964 7962 ] final   97.49 input  175.53 | X-H torsion
[ 8008 7997 7996 7995 ] final  -39.30 input   59.86 | X-H torsion
[ 10167 10162 10161 10158 ] final -156.98 input  -65.29 | X-H torsion
[ 10718 10713 10712 10709 ] final  167.97 input   66.30 | X-H torsion
[ 10763 10752 10751 10750 ] final -152.93 input  -60.55 | X-H torsion
[ 11005 11000 10999 10996 ] final  155.93 input  -57.11 | X-H torsion

> <Gold.Protein.ActiveResidues>
 VAL166  LYS551  ARG553  GLY616  TRP617  ASP618  TYR619  PRO620  LYS621  CYS622 
 ASP623  PHE694  ASN695  SER759  ASP760  ASP761  ALA762  ILE779  LEU786  VAL792 
 PHE793  MET794  SER795  GLU796  ALA797  LYS798  CYS799  TRP800  GLU811  SER814 

> <Gold.Protein.RotatedAtoms>
  151.4133  133.3720  159.2746 H   0  0  0  0  0  0  0  0  0  0  0  0  # atno 6907 bound_to 6896
  150.9347  134.8761  159.7584 H   0  0  0  0  0  0  0  0  0  0  0  0  # atno 6908 bound_to 6896
  152.5044  134.4080  159.9491 H   0  0  0  0  0  0  0  0  0  0  0  0  # atno 6909 bound_to 6896
  145.4248  139.2317  143.3176 H   0  0  0  0  0  0  0  0  0  0  0  0  # atno 7974 bound_to 7965
  154.4025  140.1555  156.2840 H   0  0  0  0  0  0  0  0  0  0  0  0  # atno 8008 bound_to 7997
  155.8844  140.3442  155.5889 H   0  0  0  0  0  0  0  0  0  0  0  0  # atno 8009 bound_to 7997
  155.7630  140.0820  157.2136 H   0  0  0  0  0  0  0  0  0  0  0  0  # atno 8010 bound_to 7997
  139.6807  143.9586  152.2335 H   0  0  0  0  0  0  0  0  0  0  0  0  # atno 10167 bound_to 10162
  157.0438  131.0294  151.2704 H   0  0  0  0  0  0  0  0  0  0  0  0  # atno 10718 bound_to 10713
  154.7961  135.3224  154.7662 H   0  0  0  0  0  0  0  0  0  0  0  0  # atno 10763 bound_to 10752
  153.8340  135.6877  153.4815 H   0  0  0  0  0  0  0  0  0  0  0  0  # atno 10764 bound_to 10752
  153.1654  135.4644  154.9772 H   0  0  0  0  0  0  0  0  0  0  0  0  # atno 10765 bound_to 10752
  140.1628  134.8598  157.2595 H   0  0  0  0  0  0  0  0  0  0  0  0  # atno 11005 bound_to 11000
  146.2638  140.4977  142.8842 LP  0  0  0  0  0  0  0  0  0  0  0  0  # atno 17320 bound_to 7965
  144.8222  140.6568  143.6346 LP  0  0  0  0  0  0  0  0  0  0  0  0  # atno 17321 bound_to 7965
  139.9375  144.6702  150.8300 LP  0  0  0  0  0  0  0  0  0  0  0  0  # atno 17342 bound_to 10162
  140.7651  143.3267  151.2501 LP  0  0  0  0  0  0  0  0  0  0  0  0  # atno 17343 bound_to 10162
  157.5084  130.7923  149.7678 LP  0  0  0  0  0  0  0  0  0  0  0  0  # atno 17370 bound_to 10713
  156.0029  130.3870  150.2537 LP  0  0  0  0  0  0  0  0  0  0  0  0  # atno 17371 bound_to 10713
  140.2470  134.3728  155.7457 LP  0  0  0  0  0  0  0  0  0  0  0  0  # atno 17394 bound_to 11000
  141.2211  133.7296  156.8876 LP  0  0  0  0  0  0  0  0  0  0  0  0  # atno 17395 bound_to 11000

$$$$
