AV-unprocessed.smi:438|AV-procd|sdf|2570|dock5
  -GOLD-   2262022543D 1   1.00000     0.00000
 Structure written by MMmdl.
 48 49  0  0  0  0  0  0  0  0  1 V2000
  148.5583  133.3680  153.5525 C   0  0  0  0  0  0  0  0  0  0  0  0
  149.6148  133.9644  154.4661 C   0  0  0  0  0  0  0  0  0  0  0  0
  149.8902  135.2985  154.2255 N   0  0  0  0  0  0  0  0  0  0  0  0
  150.8464  135.9377  154.9992 C   0  0  0  0  0  0  0  0  0  0  0  0
  151.0286  137.6636  154.4623 S   0  0  0  0  0  0  0  0  0  0  0  0
  150.5574  138.5657  155.9693 C   0  0  0  0  0  0  0  0  0  0  0  0
  151.5811  139.6152  156.4032 C   0  0  0  0  0  0  0  0  0  0  0  0
  152.7666  139.5061  156.0892 O   0  0  0  0  0  0  0  0  0  0  0  0
  151.1019  140.6382  157.1275 N   0  0  0  0  0  0  0  0  0  0  0  0
  151.8963  141.7367  157.6735 C   0  0  1  0  0  0  0  0  0  0  0  0
  151.1974  143.0833  157.3897 C   0  0  0  0  0  0  0  0  0  0  0  0
  151.9719  144.2627  157.9957 C   0  0  0  0  0  0  0  0  0  0  0  0
  152.1869  144.0653  159.5025 C   0  0  0  0  0  0  0  0  0  0  0  0
  152.8937  142.7319  159.7881 C   0  0  0  0  0  0  0  0  0  0  0  0
  152.1249  141.5350  159.1926 C   0  0  2  0  0  0  0  0  0  0  0  0
  152.8489  140.2147  159.5123 C   0  0  0  0  0  0  0  0  0  0  0  0
  151.5013  135.3559  155.9602 N   0  0  0  0  0  0  0  0  0  0  0  0
  151.2603  134.0062  156.2580 C   0  0  0  0  0  0  0  0  0  0  0  0
  151.8682  133.4520  157.1728 O   0  0  0  0  0  0  0  0  0  0  0  0
  150.2628  133.2815  155.4415 C   0  0  0  0  0  0  0  0  0  0  0  0
  149.9974  131.8091  155.7557 C   0  0  0  0  0  0  0  0  0  0  0  0
  150.2791  130.8727  154.5677 C   0  0  0  0  0  0  0  0  0  0  0  0
  150.1716  129.5199  154.9587 O   0  0  0  0  0  0  0  0  0  0  0  0
  148.9588  132.5075  153.0162 H   0  0  0  0  0  0  0  0  0  0  0  0
  148.2121  134.0906  152.8122 H   0  0  0  0  0  0  0  0  0  0  0  0
  147.6939  133.0432  154.1320 H   0  0  0  0  0  0  0  0  0  0  0  0
  150.4176  137.8457  156.7770 H   0  0  0  0  0  0  0  0  0  0  0  0
  149.5988  139.0582  155.8038 H   0  0  0  0  0  0  0  0  0  0  0  0
  150.1129  140.6497  157.3307 H   0  0  0  0  0  0  0  0  0  0  0  0
  152.8725  141.7417  157.1843 H   0  0  0  0  0  0  0  0  0  0  0  0
  151.0919  143.2347  156.3146 H   0  0  0  0  0  0  0  0  0  0  0  0
  150.1861  143.0675  157.7987 H   0  0  0  0  0  0  0  0  0  0  0  0
  152.9370  144.3608  157.4972 H   0  0  0  0  0  0  0  0  0  0  0  0
  151.4337  145.1936  157.8151 H   0  0  0  0  0  0  0  0  0  0  0  0
  152.7745  144.8908  159.9053 H   0  0  0  0  0  0  0  0  0  0  0  0
  151.2257  144.0889  160.0175 H   0  0  0  0  0  0  0  0  0  0  0  0
  153.9034  142.7617  159.3763 H   0  0  0  0  0  0  0  0  0  0  0  0
  153.0055  142.6050  160.8655 H   0  0  0  0  0  0  0  0  0  0  0  0
  151.1488  141.4968  159.6791 H   0  0  0  0  0  0  0  0  0  0  0  0
  153.8252  140.1727  159.0287 H   0  0  0  0  0  0  0  0  0  0  0  0
  152.2755  139.3488  159.1811 H   0  0  0  0  0  0  0  0  0  0  0  0
  153.0054  140.1049  160.5857 H   0  0  0  0  0  0  0  0  0  0  0  0
  149.3853  135.7622  153.4840 H   0  0  0  0  0  0  0  0  0  0  0  0
  148.9713  131.6655  156.0927 H   0  0  0  0  0  0  0  0  0  0  0  0
  150.6172  131.5155  156.6040 H   0  0  0  0  0  0  0  0  0  0  0  0
  149.5926  131.0641  153.7429 H   0  0  0  0  0  0  0  0  0  0  0  0
  151.2867  131.0441  154.1886 H   0  0  0  0  0  0  0  0  0  0  0  0
  149.3434  129.1832  154.6522 H   0  0  0  0  0  0  0  0  0  0  0  0
  1 24  1  0  0  0  0
  1 25  1  0  0  0  0
  1 26  1  0  0  0  0
  1  2  1  0  0  0  0
  2 20  2  0  0  0  0
  2  3  1  0  0  0  0
  3  4  1  0  0  0  0
  3 43  1  0  0  0  0
  4  5  1  0  0  0  0
  4 17  2  0  0  0  0
  5  6  1  0  0  0  0
  6  7  1  0  0  0  0
  6 27  1  0  0  0  0
  6 28  1  0  0  0  0
  7  8  2  0  0  0  0
  7  9  1  0  0  0  0
  9 10  1  0  0  0  0
  9 29  1  0  0  0  0
 10 15  1  0  0  0  0
 10 11  1  0  0  0  0
 10 30  1  0  0  0  0
 11 12  1  0  0  0  0
 11 31  1  0  0  0  0
 11 32  1  0  0  0  0
 12 13  1  0  0  0  0
 12 33  1  0  0  0  0
 12 34  1  0  0  0  0
 13 14  1  0  0  0  0
 13 35  1  0  0  0  0
 13 36  1  0  0  0  0
 14 15  1  0  0  0  0
 14 37  1  0  0  0  0
 14 38  1  0  0  0  0
 15 16  1  0  0  0  0
 15 39  1  0  0  0  0
 16 40  1  0  0  0  0
 16 41  1  0  0  0  0
 16 42  1  0  0  0  0
 17 18  1  0  0  0  0
 18 19  2  0  0  0  0
 18 20  1  0  0  0  0
 20 21  1  0  0  0  0
 21 22  1  0  0  0  0
 21 44  1  0  0  0  0
 21 45  1  0  0  0  0
 22 23  1  0  0  0  0
 22 46  1  0  0  0  0
 22 47  1  0  0  0  0
 23 48  1  0  0  0  0
M  END
> <s_m_source_file>
AV-unprocessed.smi

> <i_m_source_file_index>
438

> <i_lp_mmshare_version>
43012

> <i_f3d_flags>
0

> <s_epik_input>
W09IXVtDSDJdW0NIMl1jMWMoW09IXSluYyhuYzFbQ0gzXSlTW0NIMl1DKD1PKVtOSF1bQ0BASF0yW0NIMl1bQ0gyXVtDSDJdW0NIMl1bQ0BIXTJbQ0gzXQ==

> <s_epik_cmdline>
J2VwaWtfcHl0aG9uJywgJy1waCcsICc3LjAnLCAnLXRuJywgJzgnLCAnLW1hJywgJzIwMCcsICctbWV0YWxfYmluZGluZycsICctaW1hZScsICc8aW5maWxlLm1hZT4nLCAnLW9tYWUnLCAnPG91dGZpbGUubWFlPic=

> <r_lp_tautomer_probability>
0.273662

> <r_epik_Ionization_Penalty>
0.0875285

> <r_epik_Ionization_Penalty_Charging>
0.0875254

> <r_epik_Ionization_Penalty_Neutral>
3.01536e-06

> <r_epik_State_Penalty>
0.985796

> <r_epik_Charging_Adjusted_Penalty>
1.07332

> <i_epik_Tot_Q>
0

> <i_epik_Tot_abs_Q>
0

> <r_epik_Metal_State_Penalty>
1.58101

> <b_epik_Metal_Only>
0

> <s_lp_Force_Field>
OPLS_2005

> <r_lp_Energy>
20.5505

> <b_lp_Chiralities_Consistent>
1

> <s_lp_Variant>
AV-unprocessed.smi:438-8

> <Gold.Version>
5.8.1

> <Gold.Id.Protein>
6NUR|6NUR_protein|mol2

> <Gold.PLP.Fitness>
53.6463

> <Gold.PLP.PLP>
-44.9881

> <Gold.PLP.part.hbond>
-4.4818

> <Gold.PLP.part.metal>
0.0000

> <Gold.PLP.part.buried>
-5.0943

> <Gold.PLP.part.nonpolar>
-36.1732

> <Gold.PLP.part.repulsive>
0.1357

> <Gold.PLP.ligand.clash>
0.0000

> <Gold.PLP.ligand.torsion>
0.9191

> <Gold.PLP.Chemscore.Hbond>
3.4736

> <Gold.PLP.Chemscore.CHOScore>
0.0000

> <Gold.PLP.Chemscore.Metal>
0.0000

> <Gold.Chemscore.Hbonds>
donor molecule, donor type, donor heavy atom, donor atom, acceptor molecule, acceptor atom, score
      L1  H     3    43       P1  7948  1.00
      P1  H  6896  6909       L1    19  0.48
      P1  H  7997  8010       L1     8  1.00
      P1  H 10752 10763       L1    17  0.87

> <Gold.PLP.Chemscore.Internal.Correction>
0.0756

> <Gold.Rescore>
     Score         DG    S(hbond)    S(metal)    S(lipo)     H(rot)  DE(clash)    DE(int)     intcor
     18.13     -19.06       2.44        0.00     109.00       2.86       0.00       0.93       ----

> <Gold.Chemscore.Fitness>
18.1290

> <Gold.Chemscore.DG>
-19.0635

> <Gold.Chemscore.ZeroCoef>
-5.4800

> <Gold.Chemscore.Hbond>
2.4443

> <Gold.Chemscore.Metal>
0.0000

> <Gold.Chemscore.Lipo>
108.9958

> <Gold.Chemscore.Internal_Hbond>
0.0000

> <Gold.Chemscore.DEClash>
0.0029

> <Gold.Chemscore.DEInternal>
0.9316

> <Gold.Chemscore.Rot>
2.8645

> <Gold.Chemscore.Internal.Correction>
   9.000000E+99

> <Gold.Chemscore.Hbonds>
donor molecule, donor type, donor heavy atom, donor atom, acceptor molecule, acceptor atom, score
      L1  H     3    43       P1  7948  0.39
      P1  H  6896  6909       L1    19  0.47
      P1  H  7997  8010       L1     8  1.00
      P1  H 10752 10763       L1    17  0.09

> <Gold.Chemscore.Hbond.Weighted>
-8.1641

> <Gold.Chemscore.Metal.Weighted>
-0.0000

> <Gold.Chemscore.Lipo.Weighted>
-12.7525

> <Gold.Chemscore.Internal_Hbond.Weighted>
0.0000

> <Gold.Chemscore.DEClash.Weighted>
0.0029

> <Gold.Chemscore.DEInternal.Weighted>
0.9316

> <Gold.Chemscore.Rot.Weighted>
7.3331

> <Gold.Chemscore.Internal.Correction.Weighted>
   9.000000E+99

> <Gold.Protein.RotatedTorsions>
[ 6907 6896 6895 6894 ] final  -45.53 input  -60.11 | X-H torsion
[ 7974 7965 7964 7962 ] final  -22.33 input  175.53 | X-H torsion
[ 8008 7997 7996 7995 ] final   67.21 input   59.86 | X-H torsion
[ 10167 10162 10161 10158 ] final   60.13 input  -65.29 | X-H torsion
[ 10718 10713 10712 10709 ] final  132.26 input   66.30 | X-H torsion
[ 10763 10752 10751 10750 ] final  101.84 input  -60.55 | X-H torsion
[ 11005 11000 10999 10996 ] final -175.72 input  -57.11 | X-H torsion

> <Gold.Protein.ActiveResidues>
 VAL166  LYS551  ARG553  GLY616  TRP617  ASP618  TYR619  PRO620  LYS621  CYS622 
 ASP623  PHE694  ASN695  SER759  ASP760  ASP761  ALA762  ILE779  LEU786  VAL792 
 PHE793  MET794  SER795  GLU796  ALA797  LYS798  CYS799  TRP800  GLU811  SER814 

> <Gold.Protein.RotatedAtoms>
  150.9209  134.8626  159.7487 H   0  0  0  0  0  0  0  0  0  0  0  0  # atno 6907 bound_to 6896
  152.4992  134.4220  159.9493 H   0  0  0  0  0  0  0  0  0  0  0  0  # atno 6908 bound_to 6896
  151.4254  133.3646  159.2796 H   0  0  0  0  0  0  0  0  0  0  0  0  # atno 6909 bound_to 6896
  146.1681  140.4465  142.8543 H   0  0  0  0  0  0  0  0  0  0  0  0  # atno 7974 bound_to 7965
  155.6893  140.3496  155.4887 H   0  0  0  0  0  0  0  0  0  0  0  0  # atno 8008 bound_to 7997
  155.9538  140.1124  157.0976 H   0  0  0  0  0  0  0  0  0  0  0  0  # atno 8009 bound_to 7997
  154.4128  140.1189  156.5074 H   0  0  0  0  0  0  0  0  0  0  0  0  # atno 8010 bound_to 7997
  140.1690  144.4296  150.6671 H   0  0  0  0  0  0  0  0  0  0  0  0  # atno 10167 bound_to 10162
  157.4888  131.1089  150.9584 H   0  0  0  0  0  0  0  0  0  0  0  0  # atno 10718 bound_to 10713
  153.3318  135.4031  155.1502 H   0  0  0  0  0  0  0  0  0  0  0  0  # atno 10763 bound_to 10752
  154.8625  135.3612  154.5460 H   0  0  0  0  0  0  0  0  0  0  0  0  # atno 10764 bound_to 10752
  153.5899  135.7074  153.5487 H   0  0  0  0  0  0  0  0  0  0  0  0  # atno 10765 bound_to 10752
  140.4601  134.6263  157.4839 H   0  0  0  0  0  0  0  0  0  0  0  0  # atno 11005 bound_to 11000
  144.8123  140.6407  143.6407 LP  0  0  0  0  0  0  0  0  0  0  0  0  # atno 17320 bound_to 7965
  145.4412  139.1535  143.3969 LP  0  0  0  0  0  0  0  0  0  0  0  0  # atno 17321 bound_to 7965
  140.6594  143.2247  151.5891 LP  0  0  0  0  0  0  0  0  0  0  0  0  # atno 17342 bound_to 10162
  139.5346  144.2816  152.1224 LP  0  0  0  0  0  0  0  0  0  0  0  0  # atno 17343 bound_to 10162
  157.0293  130.5705  149.5341 LP  0  0  0  0  0  0  0  0  0  0  0  0  # atno 17370 bound_to 10713
  156.0162  130.5256  150.8140 LP  0  0  0  0  0  0  0  0  0  0  0  0  # atno 17371 bound_to 10713
  139.9951  134.6924  155.9624 LP  0  0  0  0  0  0  0  0  0  0  0  0  # atno 17394 bound_to 11000
  141.1625  133.6538  156.4367 LP  0  0  0  0  0  0  0  0  0  0  0  0  # atno 17395 bound_to 11000

$$$$
