AV-unprocessed.smi:1632|AV-procd|sdf|6530|dock7
  -GOLD-   22720 7213D 1   1.00000     0.00000
 Structure written by MMmdl.
 43 45  0  0  0  0  0  0  0  0  2 V2000
  155.5463  138.6389  154.2725 O   0  0  0  0  0  0  0  0  0  0  0  0
  154.4017  137.8893  154.6142 C   0  0  0  0  0  0  0  0  0  0  0  0
  153.1403  138.7345  154.3769 C   0  0  0  0  0  0  0  0  0  0  0  0
  151.8296  137.9876  154.6742 C   0  0  0  0  0  0  0  0  0  0  0  0
  150.6223  138.8377  154.4333 C   0  0  0  0  0  0  0  0  0  0  0  0
  149.6092  138.5502  153.5682 N   0  3  0  0  0  0  0  0  0  0  0  0
  148.6602  139.5725  153.5940 C   0  0  0  0  0  0  0  0  0  0  0  0
  147.4666  139.7242  152.8950 C   0  0  0  0  0  0  0  0  0  0  0  0
  146.7243  140.8942  153.1571 C   0  0  0  0  0  0  0  0  0  0  0  0
  147.1744  141.8569  154.0837 C   0  0  0  0  0  0  0  0  0  0  0  0
  148.3862  141.6918  154.7860 C   0  0  0  0  0  0  0  0  0  0  0  0
  149.1162  140.5333  154.5194 C   0  0  0  0  0  0  0  0  0  0  0  0
  150.3316  140.0397  155.0103 N   0  0  0  0  0  0  0  0  0  0  0  0
  151.0808  140.8200  156.0086 C   0  0  0  0  0  0  0  0  0  0  0  0
  150.7951  140.3735  157.4571 C   0  0  2  0  0  0  0  0  0  0  0  0
  149.4423  140.6137  157.7926 O   0  0  0  0  0  0  0  0  0  0  0  0
  151.7580  141.0216  158.4420 C   0  0  0  0  0  0  0  0  0  0  0  0
  152.5960  140.2073  159.2346 C   0  0  0  0  0  0  0  0  0  0  0  0
  153.4981  140.7876  160.1470 C   0  0  0  0  0  0  0  0  0  0  0  0
  153.5699  142.1876  160.2723 C   0  0  0  0  0  0  0  0  0  0  0  0
  152.7401  143.0065  159.4834 C   0  0  0  0  0  0  0  0  0  0  0  0
  151.8371  142.4287  158.5696 C   0  0  0  0  0  0  0  0  0  0  0  0
  151.0514  143.2341  157.8147 F   0  0  0  0  0  0  0  0  0  0  0  0
  156.2661  138.0430  154.1302 H   0  0  0  0  0  0  0  0  0  0  0  0
  154.3777  136.9829  154.0092 H   0  0  0  0  0  0  0  0  0  0  0  0
  154.4827  137.5858  155.6582 H   0  0  0  0  0  0  0  0  0  0  0  0
  153.1874  139.6411  154.9815 H   0  0  0  0  0  0  0  0  0  0  0  0
  153.1249  139.0636  153.3371 H   0  0  0  0  0  0  0  0  0  0  0  0
  151.7607  137.1036  154.0398 H   0  0  0  0  0  0  0  0  0  0  0  0
  151.8272  137.6256  155.7025 H   0  0  0  0  0  0  0  0  0  0  0  0
  147.1188  138.9868  152.1864 H   0  0  0  0  0  0  0  0  0  0  0  0
  145.7903  141.0558  152.6385 H   0  0  0  0  0  0  0  0  0  0  0  0
  146.5777  142.7399  154.2613 H   0  0  0  0  0  0  0  0  0  0  0  0
  148.7168  142.4330  155.4988 H   0  0  0  0  0  0  0  0  0  0  0  0
  152.1410  140.6960  155.7876 H   0  0  0  0  0  0  0  0  0  0  0  0
  150.8715  141.8798  155.8657 H   0  0  0  0  0  0  0  0  0  0  0  0
  150.9304  139.2927  157.5126 H   0  0  0  0  0  0  0  0  0  0  0  0
  148.8958  140.2491  157.1130 H   0  0  0  0  0  0  0  0  0  0  0  0
  152.5520  139.1316  159.1464 H   0  0  0  0  0  0  0  0  0  0  0  0
  154.1354  140.1580  160.7506 H   0  0  0  0  0  0  0  0  0  0  0  0
  154.2618  142.6330  160.9719 H   0  0  0  0  0  0  0  0  0  0  0  0
  152.7972  144.0810  159.5783 H   0  0  0  0  0  0  0  0  0  0  0  0
  149.5728  137.7134  153.0006 H   0  0  0  0  0  0  0  0  0  0  0  0
  1  2  1  0  0  0  0
  1 24  1  0  0  0  0
  2  3  1  0  0  0  0
  2 25  1  0  0  0  0
  2 26  1  0  0  0  0
  3  4  1  0  0  0  0
  3 27  1  0  0  0  0
  3 28  1  0  0  0  0
  4  5  1  0  0  0  0
  4 29  1  0  0  0  0
  4 30  1  0  0  0  0
  5 13  1  0  0  0  0
  5  6  2  0  0  0  0
  6  7  1  0  0  0  0
  6 43  1  0  0  0  0
  7 12  2  0  0  0  0
  7  8  1  0  0  0  0
  8  9  2  0  0  0  0
  8 31  1  0  0  0  0
  9 10  1  0  0  0  0
  9 32  1  0  0  0  0
 10 11  2  0  0  0  0
 10 33  1  0  0  0  0
 11 12  1  0  0  0  0
 11 34  1  0  0  0  0
 12 13  1  0  0  0  0
 13 14  1  0  0  0  0
 14 15  1  0  0  0  0
 14 35  1  0  0  0  0
 14 36  1  0  0  0  0
 15 16  1  0  0  0  0
 15 17  1  0  0  0  0
 15 37  1  0  0  0  0
 16 38  1  0  0  0  0
 17 22  1  0  0  0  0
 17 18  2  0  0  0  0
 18 19  1  0  0  0  0
 18 39  1  0  0  0  0
 19 20  2  0  0  0  0
 19 40  1  0  0  0  0
 20 21  1  0  0  0  0
 20 41  1  0  0  0  0
 21 22  2  0  0  0  0
 21 42  1  0  0  0  0
 22 23  1  0  0  0  0
M  CHG  1   6   1
M  END
> <s_m_source_file>
AV-unprocessed.smi

> <i_m_source_file_index>
1632

> <i_lp_mmshare_version>
43012

> <i_f3d_flags>
0

> <s_epik_input>
W09IXVtDSDJdW0NIMl1bQ0gyXWMobjEpbihjKGMxMilbY0hdW2NIXVtjSF1bY0hdMilbQ0gyXVtDQEhdKFtPSF0pYzNbY0hdW2NIXVtjSF1bY0hdYzNG

> <s_epik_cmdline>
J2VwaWtfcHl0aG9uJywgJy1waCcsICc3LjAnLCAnLXRuJywgJzgnLCAnLW1hJywgJzIwMCcsICctbWV0YWxfYmluZGluZycsICctaW1hZScsICc8aW5maWxlLm1hZT4nLCAnLW9tYWUnLCAnPG91dGZpbGUubWFlPic=

> <r_epik_Ionization_Penalty>
0.786441

> <r_epik_Ionization_Penalty_Charging>
0.786439

> <r_epik_Ionization_Penalty_Neutral>
1.50852e-06

> <r_epik_State_Penalty>
0.816472

> <r_epik_Charging_Adjusted_Penalty>
1.60291

> <i_epik_Tot_Q>
1

> <i_epik_Tot_abs_Q>
1

> <r_epik_Metal_State_Penalty>
4.73733

> <b_epik_Metal_Only>
0

> <s_lp_Force_Field>
OPLS_2005

> <r_lp_Energy>
17.2969

> <b_lp_Chiralities_Consistent>
1

> <s_lp_Variant>
AV-unprocessed.smi:1632-3

> <Gold.Version>
5.8.1

> <Gold.Id.Protein>
6NUR|6NUR_protein|mol2

> <Gold.PLP.Fitness>
55.6108

> <Gold.PLP.PLP>
-48.3274

> <Gold.PLP.part.hbond>
-3.0000

> <Gold.PLP.part.metal>
0.0000

> <Gold.PLP.part.buried>
5.4706

> <Gold.PLP.part.nonpolar>
-51.0781

> <Gold.PLP.part.repulsive>
0.0769

> <Gold.PLP.ligand.clash>
0.0000

> <Gold.PLP.ligand.torsion>
0.4038

> <Gold.PLP.Chemscore.Hbond>
2.6720

> <Gold.PLP.Chemscore.CHOScore>
0.0000

> <Gold.PLP.Chemscore.Metal>
0.0000

> <Gold.Chemscore.Hbonds>
donor molecule, donor type, donor heavy atom, donor atom, acceptor molecule, acceptor atom, score
      L1  H     6    43       P1  7948  2.00
      P1  H  7997  8010       L1     1  0.69

> <Gold.PLP.Chemscore.Internal.Correction>
0.0750

> <Gold.Rescore>
     Score         DG    S(hbond)    S(metal)    S(lipo)     H(rot)  DE(clash)    DE(int)     intcor
     14.44     -17.92       1.33        0.00     137.58       3.16       1.93       1.55       ----

> <Gold.Chemscore.Fitness>
14.4421

> <Gold.Chemscore.DG>
-17.9217

> <Gold.Chemscore.ZeroCoef>
-5.4800

> <Gold.Chemscore.Hbond>
1.3279

> <Gold.Chemscore.Metal>
0.0000

> <Gold.Chemscore.Lipo>
137.5821

> <Gold.Chemscore.Internal_Hbond>
0.0000

> <Gold.Chemscore.DEClash>
1.9262

> <Gold.Chemscore.DEInternal>
1.5533

> <Gold.Chemscore.Rot>
3.1604

> <Gold.Chemscore.Internal.Correction>
   9.000000E+99

> <Gold.Chemscore.Hbonds>
donor molecule, donor type, donor heavy atom, donor atom, acceptor molecule, acceptor atom, score
      L1  H     6    43       P1  7948  0.78
      P1  H  7997  8010       L1     1  0.23

> <Gold.Chemscore.Hbond.Weighted>
-4.4352

> <Gold.Chemscore.Metal.Weighted>
-0.0000

> <Gold.Chemscore.Lipo.Weighted>
-16.0971

> <Gold.Chemscore.Internal_Hbond.Weighted>
0.0000

> <Gold.Chemscore.DEClash.Weighted>
1.9262

> <Gold.Chemscore.DEInternal.Weighted>
1.5533

> <Gold.Chemscore.Rot.Weighted>
8.0907

> <Gold.Chemscore.Internal.Correction.Weighted>
   9.000000E+99

> <Gold.Protein.RotatedTorsions>
[ 6907 6896 6895 6894 ] final  -66.85 input  -60.11 | X-H torsion
[ 7974 7965 7964 7962 ] final  -20.90 input  175.53 | X-H torsion
[ 8008 7997 7996 7995 ] final  162.89 input   59.86 | X-H torsion
[ 10167 10162 10161 10158 ] final  172.59 input  -65.29 | X-H torsion
[ 10718 10713 10712 10709 ] final  167.02 input   66.30 | X-H torsion
[ 10763 10752 10751 10750 ] final  172.56 input  -60.55 | X-H torsion
[ 11005 11000 10999 10996 ] final  138.53 input  -57.11 | X-H torsion

> <Gold.Protein.ActiveResidues>
 VAL166  LYS551  ARG553  GLY616  TRP617  ASP618  TYR619  PRO620  LYS621  CYS622 
 ASP623  PHE694  ASN695  SER759  ASP760  ASP761  ALA762  ILE779  LEU786  VAL792 
 PHE793  MET794  SER795  GLU796  ALA797  LYS798  CYS799  TRP800  GLU811  SER814 

> <Gold.Protein.RotatedAtoms>
  150.7442  134.5963  159.6013 H   0  0  0  0  0  0  0  0  0  0  0  0  # atno 6907 bound_to 6896
  152.3337  134.7223  160.0292 H   0  0  0  0  0  0  0  0  0  0  0  0  # atno 6908 bound_to 6896
  151.7698  133.3304  159.3478 H   0  0  0  0  0  0  0  0  0  0  0  0  # atno 6909 bound_to 6896
  146.1763  140.4266  142.8512 H   0  0  0  0  0  0  0  0  0  0  0  0  # atno 7974 bound_to 7965
  156.1998  140.1738  156.7923 H   0  0  0  0  0  0  0  0  0  0  0  0  # atno 8008 bound_to 7997
  154.5577  140.0705  156.8800 H   0  0  0  0  0  0  0  0  0  0  0  0  # atno 8009 bound_to 7997
  155.2908  140.3355  155.4255 H   0  0  0  0  0  0  0  0  0  0  0  0  # atno 8010 bound_to 7997
  139.5081  144.3356  152.0068 H   0  0  0  0  0  0  0  0  0  0  0  0  # atno 10167 bound_to 10162
  157.0575  131.0330  151.2659 H   0  0  0  0  0  0  0  0  0  0  0  0  # atno 10718 bound_to 10713
  154.4278  135.2759  155.1932 H   0  0  0  0  0  0  0  0  0  0  0  0  # atno 10763 bound_to 10752
  154.3851  135.6079  153.5816 H   0  0  0  0  0  0  0  0  0  0  0  0  # atno 10764 bound_to 10752
  152.9835  135.5890  154.4585 H   0  0  0  0  0  0  0  0  0  0  0  0  # atno 10765 bound_to 10752
  140.0190  134.9405  157.0436 H   0  0  0  0  0  0  0  0  0  0  0  0  # atno 11005 bound_to 11000
  144.8241  140.6600  143.6333 LP  0  0  0  0  0  0  0  0  0  0  0  0  # atno 17320 bound_to 7965
  145.4202  139.1565  143.4078 LP  0  0  0  0  0  0  0  0  0  0  0  0  # atno 17321 bound_to 7965
  140.2795  144.3875  150.6124 LP  0  0  0  0  0  0  0  0  0  0  0  0  # atno 17342 bound_to 10162
  140.6029  143.2167  151.7038 LP  0  0  0  0  0  0  0  0  0  0  0  0  # atno 17343 bound_to 10162
  157.4981  130.7863  149.7576 LP  0  0  0  0  0  0  0  0  0  0  0  0  # atno 17370 bound_to 10713
  155.9989  130.3892  150.2686 LP  0  0  0  0  0  0  0  0  0  0  0  0  # atno 17371 bound_to 10713
  140.4420  134.1671  155.7174 LP  0  0  0  0  0  0  0  0  0  0  0  0  # atno 17394 bound_to 11000
  141.1762  133.8509  157.1414 LP  0  0  0  0  0  0  0  0  0  0  0  0  # atno 17395 bound_to 11000

$$$$
