#       Name:                AV-unprocessed.smi:2103
#       Creating user name   scv26
#       Creation time:       Fri Mar 27 11:31:21 2020


#       File generated by GOLD software.
#

@<TRIPOS>MOLECULE
AV-unprocessed.smi:2103
    44    45     1
SMALL
NO_CHARGES


@<TRIPOS>ATOM
      1 ****        -3.7180  -3.8293  -2.0683 C.3            1 S1                 0.0000
      2 ****        -3.3693  -2.4344  -2.2396 N.am           1 S1                 0.0000
      3 ****        -4.3600  -1.5267  -2.6870 C.2            1 S1                 0.0000
      4 ****        -5.5131  -1.8745  -2.9433 O.2            1 S1                 0.0000
      5 ****        -3.8981  -0.1507  -2.8253 C.2            1 S1                 0.0000
      6 ****        -2.6197   0.1844  -2.5450 C.2            1 S1                 0.0000
      7 ****        -1.6687  -0.7249  -2.1194 N.am           1 S1                 0.0000
      8 ****        -0.3022  -0.2664  -1.8360 C.3            1 S1                 0.0000
      9 ****        -0.0372  -0.0013  -0.3469 C.2            1 S1                 0.0000
     10 ****        -0.9350  -0.1087   0.4899 O.2            1 S1                 0.0000
     11 ****         1.2175   0.3571  -0.0357 N.am           1 S1                 0.0000
     12 ****         1.7070   0.6491   1.3083 C.3            1 S1                 0.0000
     13 ****         1.2718   2.0598   1.7600 C.3            1 S1                 0.0000
     14 ****         1.8509   2.4122   3.1398 C.3            1 S1                 0.0000
     15 ****         3.3815   2.2775   3.1546 C.3            1 S1                 0.0000
     16 ****         3.8179   0.8718   2.7137 C.3            1 S1                 0.0000
     17 ****         3.2421   0.5184   1.3329 C.3            1 S1                 0.0000
     18 ****        -2.0314  -2.0795  -1.9595 C.2            1 S1                 0.0000
     19 ****        -1.2017  -2.9142  -1.5894 O.2            1 S1                 0.0000
     20 ****        -4.7945  -3.9792  -2.1449 H              1 S1                 0.0000
     21 ****        -3.3890  -4.1338  -1.0729 H              1 S1                 0.0000
     22 ****        -3.1966  -4.3859  -2.8486 H              1 S1                 0.0000
     23 ****        -4.5894   0.6103  -3.1567 H              1 S1                 0.0000
     24 ****        -2.3282   1.2184  -2.6602 H              1 S1                 0.0000
     25 ****         0.4233  -0.9939  -2.2043 H              1 S1                 0.0000
     26 ****        -0.1013   0.6526  -2.3887 H              1 S1                 0.0000
     27 ****         1.8884   0.4251  -0.7872 H              1 S1                 0.0000
     28 ****         1.2923  -0.0871   1.9998 H              1 S1                 0.0000
     29 ****         1.6016   2.8000   1.0296 H              1 S1                 0.0000
     30 ****         0.1841   2.1275   1.7973 H              1 S1                 0.0000
     31 ****         1.5645   3.4278   3.4143 H              1 S1                 0.0000
     32 ****         1.4187   1.7543   3.8948 H              1 S1                 0.0000
     33 ****         3.8205   3.0220   2.4892 H              1 S1                 0.0000
     34 ****         3.7644   2.4905   4.1530 H              1 S1                 0.0000
     35 ****         4.9063   0.8122   2.6889 H              1 S1                 0.0000
     36 ****         3.4842   0.1372   3.4477 H              1 S1                 0.0000
     37 ****         3.5362  -0.4964   1.0623 H              1 S1                 0.0000
     38 ****         3.6808   1.1774   0.5821 H              1 S1                 0.0000
     39 ****        -5.7817  -2.8319  -2.8379 LP             1 S1                 0.0000
     40 ****        -6.1810  -1.1994  -3.2568 LP             1 S1                 0.0000
     41 ****        -1.8561  -0.3727   0.2039 LP             1 S1                 0.0000
     42 ****        -0.7426   0.0682   1.4552 LP             1 S1                 0.0000
     43 ****        -1.4698  -3.8714  -1.4805 LP             1 S1                 0.0000
     44 ****        -0.2611  -2.6335  -1.3983 LP             1 S1                 0.0000
@<TRIPOS>BOND
    1    1    2 1     
    2    1   20 1     
    3    1   21 1     
    4    1   22 1     
    5    2   18 am    
    6    2    3 am    
    7    3    4 2     
    8    3    5 1     
    9    5    6 2     
   10    5   23 1     
   11    6    7 1     
   12    6   24 1     
   13    7    8 1     
   14    7   18 am    
   15    8    9 1     
   16    8   25 1     
   17    8   26 1     
   18    9   10 2     
   19    9   11 am    
   20   11   12 1     
   21   11   27 1     
   22   12   17 1     
   23   12   13 1     
   24   12   28 1     
   25   13   14 1     
   26   13   29 1     
   27   13   30 1     
   28   14   15 1     
   29   14   31 1     
   30   14   32 1     
   31   15   16 1     
   32   15   33 1     
   33   15   34 1     
   34   16   17 1     
   35   16   35 1     
   36   16   36 1     
   37   17   37 1     
   38   17   38 1     
   39   18   19 2     
   40    4   39 1     
   41    4   40 1     
   42   10   41 1     
   43   10   42 1     
   44   19   43 1     
   45   19   44 1     
@<TRIPOS>SUBSTRUCTURE
      1 S1             1
@<TRIPOS>SET
LONE_PAIRS      STATIC     ATOMS    <user>   **** ""
6 39 40 41 42 43 44
DONOR_HYDROGENS      STATIC     ATOMS    <user>   **** ""
1 27
ATOM$BLUE        STATIC     ATOMS    COLORGROUP SYSTEM
6 39 40 41 42 43 44
ATOM$RED        STATIC     ATOMS    COLORGROUP SYSTEM
1 27
