AV-unprocessed.smi:3352|AV-procd|sdf|12952|dock1
  -GOLD-   2272019393D 1   1.00000     0.00000
 Structure written by MMmdl.
 38 39  0  0  0  0  0  0  0  0  1 V2000
  150.9204  145.1125  160.2316 C   0  0  0  0  0  0  0  0  0  0  0  0
  151.5333  144.3712  159.0346 C   0  0  0  0  0  0  0  0  0  0  0  0
  150.4735  143.6676  158.1751 C   0  0  0  0  0  0  0  0  0  0  0  0
  152.6197  143.4309  159.4557 C   0  0  0  0  0  0  0  0  0  0  0  0
  153.2582  142.6204  158.6069 N   0  0  0  0  0  0  0  0  0  0  0  0
  154.2299  141.8335  159.2347 C   0  0  0  0  0  0  0  0  0  0  0  0
  155.0487  140.8673  158.4295 C   0  0  0  0  0  0  0  0  0  0  0  0
  154.8466  139.4436  158.9497 C   0  0  0  0  0  0  0  0  0  0  0  0
  154.1297  138.6584  158.3292 O   0  0  0  0  0  0  0  0  0  0  0  0
  155.4846  139.1258  160.0871 N   0  0  0  0  0  0  0  0  0  0  0  0
  155.4326  137.8268  160.7476 C   0  0  0  0  0  0  0  0  0  0  0  0
  156.6788  137.5823  161.6145 C   0  0  1  0  0  0  0  0  0  0  0  0
  156.4646  137.8979  163.0941 C   0  0  0  0  0  0  0  0  0  0  0  0
  157.5136  137.0285  163.7481 C   0  0  0  0  0  0  0  0  0  0  0  0
  157.4530  135.7719  162.8858 C   0  0  0  0  0  0  0  0  0  0  0  0
  157.0649  136.2091  161.5861 O   0  0  0  0  0  0  0  0  0  0  0  0
  154.3122  142.0543  160.5874 C   0  0  0  0  0  0  0  0  0  0  0  0
  153.1766  143.2627  161.1193 S   0  0  0  0  0  0  0  0  0  0  0  0
  151.6837  145.6585  160.7872 H   0  0  0  0  0  0  0  0  0  0  0  0
  150.4342  144.4227  160.9222 H   0  0  0  0  0  0  0  0  0  0  0  0
  150.1718  145.8343  159.9038 H   0  0  0  0  0  0  0  0  0  0  0  0
  151.9972  145.1295  158.4018 H   0  0  0  0  0  0  0  0  0  0  0  0
  150.9247  143.2109  157.2936 H   0  0  0  0  0  0  0  0  0  0  0  0
  149.7170  144.3728  157.8303 H   0  0  0  0  0  0  0  0  0  0  0  0
  149.9645  142.8821  158.7344 H   0  0  0  0  0  0  0  0  0  0  0  0
  154.7638  140.9079  157.3773 H   0  0  0  0  0  0  0  0  0  0  0  0
  156.1085  141.1235  158.4696 H   0  0  0  0  0  0  0  0  0  0  0  0
  156.0491  139.8385  160.5268 H   0  0  0  0  0  0  0  0  0  0  0  0
  154.5434  137.8169  161.3783 H   0  0  0  0  0  0  0  0  0  0  0  0
  155.3030  137.0239  160.0199 H   0  0  0  0  0  0  0  0  0  0  0  0
  157.5183  138.1737  161.2449 H   0  0  0  0  0  0  0  0  0  0  0  0
  156.5814  138.9573  163.3246 H   0  0  0  0  0  0  0  0  0  0  0  0
  155.4700  137.5852  163.4159 H   0  0  0  0  0  0  0  0  0  0  0  0
  158.4950  137.4975  163.6633 H   0  0  0  0  0  0  0  0  0  0  0  0
  157.3157  136.8331  164.8023 H   0  0  0  0  0  0  0  0  0  0  0  0
  158.4033  135.2385  162.8602 H   0  0  0  0  0  0  0  0  0  0  0  0
  156.6905  135.0884  163.2614 H   0  0  0  0  0  0  0  0  0  0  0  0
  154.9723  141.5817  161.2996 H   0  0  0  0  0  0  0  0  0  0  0  0
  1  2  1  0  0  0  0
  1 19  1  0  0  0  0
  1 20  1  0  0  0  0
  1 21  1  0  0  0  0
  2  3  1  0  0  0  0
  2  4  1  0  0  0  0
  2 22  1  0  0  0  0
  3 23  1  0  0  0  0
  3 24  1  0  0  0  0
  3 25  1  0  0  0  0
  4 18  1  0  0  0  0
  4  5  2  0  0  0  0
  5  6  1  0  0  0  0
  6  7  1  0  0  0  0
  6 17  2  0  0  0  0
  7  8  1  0  0  0  0
  7 26  1  0  0  0  0
  7 27  1  0  0  0  0
  8  9  2  0  0  0  0
  8 10  1  0  0  0  0
 10 11  1  0  0  0  0
 10 28  1  0  0  0  0
 11 12  1  0  0  0  0
 11 29  1  0  0  0  0
 11 30  1  0  0  0  0
 12 16  1  0  0  0  0
 12 13  1  0  0  0  0
 12 31  1  0  0  0  0
 13 14  1  0  0  0  0
 13 32  1  0  0  0  0
 13 33  1  0  0  0  0
 14 15  1  0  0  0  0
 14 34  1  0  0  0  0
 14 35  1  0  0  0  0
 15 16  1  0  0  0  0
 15 36  1  0  0  0  0
 15 37  1  0  0  0  0
 17 18  1  0  0  0  0
 17 38  1  0  0  0  0
M  END
> <s_m_source_file>
AV-unprocessed.smi

> <i_m_source_file_index>
3352

> <i_lp_mmshare_version>
43012

> <i_f3d_flags>
0

> <s_epik_input>
W0NIM11bQ0hdKFtDSDNdKWMxbmMoW2NIXXMxKVtDSDJdQyg9TylbTkhdW0NIMl1bQ0BASF0yW0NIMl1bQ0gyXVtDSDJdTzI=

> <s_epik_cmdline>
J2VwaWtfcHl0aG9uJywgJy1waCcsICc3LjAnLCAnLXRuJywgJzgnLCAnLW1hJywgJzIwMCcsICctbWV0YWxfYmluZGluZycsICctaW1hZScsICc8aW5maWxlLm1hZT4nLCAnLW9tYWUnLCAnPG91dGZpbGUubWFlPic=

> <r_lp_tautomer_probability>
1

> <r_epik_Ionization_Penalty>
4.66014e-05

> <r_epik_Ionization_Penalty_Charging>
0

> <r_epik_Ionization_Penalty_Neutral>
4.66014e-05

> <r_epik_State_Penalty>
-0

> <r_epik_Charging_Adjusted_Penalty>
0

> <i_epik_Tot_Q>
0

> <i_epik_Tot_abs_Q>
0

> <r_epik_Metal_State_Penalty>
-0

> <b_epik_Metal_Only>
0

> <s_lp_Force_Field>
OPLS_2005

> <r_lp_Energy>
9.02769

> <b_lp_Chiralities_Consistent>
1

> <s_lp_Variant>
AV-unprocessed.smi:3352-2

> <Gold.Version>
5.8.1

> <Gold.Id.Protein>
6NUR|6NUR_protein|mol2

> <Gold.PLP.Fitness>
47.2217

> <Gold.PLP.PLP>
-46.1521

> <Gold.PLP.part.hbond>
-1.0000

> <Gold.PLP.part.metal>
0.0000

> <Gold.PLP.part.buried>
-4.2959

> <Gold.PLP.part.nonpolar>
-41.6084

> <Gold.PLP.part.repulsive>
0.0059

> <Gold.PLP.ligand.clash>
0.0000

> <Gold.PLP.ligand.torsion>
1.0005

> <Gold.PLP.Chemscore.Hbond>
1.0000

> <Gold.PLP.Chemscore.CHOScore>
0.0000

> <Gold.PLP.Chemscore.Metal>
0.0000

> <Gold.PLP.Chemscore.Internal.Correction>
0.0706

> <Gold.Rescore>
     Score         DG    S(hbond)    S(metal)    S(lipo)     H(rot)  DE(clash)    DE(int)     intcor
     18.72     -19.29       0.97        0.00     124.24       1.55       0.00       0.57       ----

> <Gold.Chemscore.Fitness>
18.7235

> <Gold.Chemscore.DG>
-19.2938

> <Gold.Chemscore.ZeroCoef>
-5.4800

> <Gold.Chemscore.Hbond>
0.9730

> <Gold.Chemscore.Metal>
0.0000

> <Gold.Chemscore.Lipo>
124.2440

> <Gold.Chemscore.Internal_Hbond>
0.0000

> <Gold.Chemscore.DEClash>
0.0000

> <Gold.Chemscore.DEInternal>
0.5702

> <Gold.Chemscore.Rot>
1.5518

> <Gold.Chemscore.Internal.Correction>
   9.000000E+99

> <Gold.Chemscore.Hbond.Weighted>
-3.2499

> <Gold.Chemscore.Metal.Weighted>
-0.0000

> <Gold.Chemscore.Lipo.Weighted>
-14.5366

> <Gold.Chemscore.Internal_Hbond.Weighted>
0.0000

> <Gold.Chemscore.DEClash.Weighted>
0.0000

> <Gold.Chemscore.DEInternal.Weighted>
0.5702

> <Gold.Chemscore.Rot.Weighted>
3.9727

> <Gold.Chemscore.Internal.Correction.Weighted>
   9.000000E+99

> <Gold.Protein.RotatedTorsions>
[ 6907 6896 6895 6894 ] final  -60.37 input  -60.11 | X-H torsion
[ 7974 7965 7964 7962 ] final -116.14 input  175.53 | X-H torsion
[ 8008 7997 7996 7995 ] final  -96.99 input   59.86 | X-H torsion
[ 10167 10162 10161 10158 ] final   52.71 input  -65.29 | X-H torsion
[ 10718 10713 10712 10709 ] final  106.27 input   66.30 | X-H torsion
[ 10763 10752 10751 10750 ] final   24.10 input  -60.55 | X-H torsion
[ 11005 11000 10999 10996 ] final  137.19 input  -57.11 | X-H torsion

> <Gold.Protein.ActiveResidues>
 VAL166  LYS551  ARG553  GLY616  TRP617  ASP618  TYR619  PRO620  LYS621  CYS622 
 ASP623  PHE694  ASN695  SER759  ASP760  ASP761  ALA762  ILE779  LEU786  VAL792 
 PHE793  MET794  SER795  GLU796  ALA797  LYS798  CYS799  TRP800  GLU811  SER814 

> <Gold.Protein.RotatedAtoms>
  150.7861  134.6847  159.6462 H   0  0  0  0  0  0  0  0  0  0  0  0  # atno 6907 bound_to 6896
  152.3958  134.6365  160.0098 H   0  0  0  0  0  0  0  0  0  0  0  0  # atno 6908 bound_to 6896
  151.6651  133.3279  159.3219 H   0  0  0  0  0  0  0  0  0  0  0  0  # atno 6909 bound_to 6896
  145.1002  140.8546  143.3931 H   0  0  0  0  0  0  0  0  0  0  0  0  # atno 7974 bound_to 7965
  154.7818  140.0467  157.1133 H   0  0  0  0  0  0  0  0  0  0  0  0  # atno 8008 bound_to 7997
  154.9696  140.3088  155.4974 H   0  0  0  0  0  0  0  0  0  0  0  0  # atno 8009 bound_to 7997
  156.2937  140.2256  156.4787 H   0  0  0  0  0  0  0  0  0  0  0  0  # atno 8010 bound_to 7997
  140.2485  144.3506  150.6356 H   0  0  0  0  0  0  0  0  0  0  0  0  # atno 10167 bound_to 10162
  157.6674  131.0847  150.5982 H   0  0  0  0  0  0  0  0  0  0  0  0  # atno 10718 bound_to 10713
  153.0789  135.6613  154.0087 H   0  0  0  0  0  0  0  0  0  0  0  0  # atno 10763 bound_to 10752
  153.9713  135.2964  155.3428 H   0  0  0  0  0  0  0  0  0  0  0  0  # atno 10764 bound_to 10752
  154.7184  135.5175  153.8844 H   0  0  0  0  0  0  0  0  0  0  0  0  # atno 10765 bound_to 10752
  140.0097  134.9444  157.0251 H   0  0  0  0  0  0  0  0  0  0  0  0  # atno 11005 bound_to 11000
  145.0965  139.2853  143.5708 LP  0  0  0  0  0  0  0  0  0  0  0  0  # atno 17320 bound_to 7965
  146.3530  140.0518  142.8635 LP  0  0  0  0  0  0  0  0  0  0  0  0  # atno 17321 bound_to 7965
  140.6059  143.2167  151.6981 LP  0  0  0  0  0  0  0  0  0  0  0  0  # atno 17342 bound_to 10162
  139.5054  144.3719  152.0462 LP  0  0  0  0  0  0  0  0  0  0  0  0  # atno 17343 bound_to 10162
  156.6282  130.4425  149.5796 LP  0  0  0  0  0  0  0  0  0  0  0  0  # atno 17370 bound_to 10713
  156.2302  130.6790  151.1456 LP  0  0  0  0  0  0  0  0  0  0  0  0  # atno 17371 bound_to 10713
  140.4577  134.1516  155.7188 LP  0  0  0  0  0  0  0  0  0  0  0  0  # atno 17394 bound_to 11000
  141.1702  133.8624  157.1594 LP  0  0  0  0  0  0  0  0  0  0  0  0  # atno 17395 bound_to 11000

$$$$
