#       Name:                AV-unprocessed.smi:1419
#       Creating user name   scv26
#       Creation time:       Fri Mar 27 05:43:03 2020


#       File generated by GOLD software.
#

@<TRIPOS>MOLECULE
AV-unprocessed.smi:1419
    46    47     1
SMALL
NO_CHARGES


@<TRIPOS>ATOM
      1 ****        -3.4950  -1.2603   1.5763 C.3            1 S1                 0.0000
      2 ****        -2.7029  -0.5226   0.4883 C.3            1 S1                 0.0000
      3 ****        -2.6884  -1.3229  -0.8316 C.3            1 S1                 0.0000
      4 ****        -2.0726  -0.5958  -1.9270 N.pl3          1 S1                 0.0000
      5 ****        -2.5409   0.5612  -2.5362 C.2            1 S1                 0.0000
      6 ****        -1.6298   0.8867  -3.5152 C.2            1 S1                 0.0000
      7 ****        -0.6083  -0.0599  -3.5384 N.2            1 S1                 0.0000
      8 ****        -0.9430  -0.9091  -2.5760 C.2            1 S1                 0.0000
      9 ****        -1.3428  -0.2872   0.9713 N.am           1 S1                 0.0000
     10 ****        -0.6240   0.8364   0.7997 C.2            1 S1                 0.0000
     11 ****        -1.0679   1.8170   0.2012 O.2            1 S1                 0.0000
     12 ****         0.6302   0.7877   1.3124 N.am           1 S1                 0.0000
     13 ****         1.2501  -0.3318   2.0342 C.3            1 S1                 0.0000
     14 ****         2.3939  -0.9127   1.1773 C.3            1 S1                 0.0000
     15 ****         1.9125  -1.6768  -0.0686 C.3            1 S1                 0.0000
     16 ****         3.3131   0.1280   0.8293 O.3            1 S1                 0.0000
     17 ****         2.7409   1.2798   0.2031 C.3            1 S1                 0.0000
     18 ****         3.8623   2.2983  -0.0280 C.3            1 S1                 0.0000
     19 ****         1.6171   1.8465   1.0927 C.3            1 S1                 0.0000
     20 ****        -4.5261  -1.4279   1.2640 H              1 S1                 0.0000
     21 ****        -3.5221  -0.6850   2.5024 H              1 S1                 0.0000
     22 ****        -3.0537  -2.2324   1.8000 H              1 S1                 0.0000
     23 ****        -3.2060   0.4305   0.3168 H              1 S1                 0.0000
     24 ****        -2.1652  -2.2711  -0.6975 H              1 S1                 0.0000
     25 ****        -3.7080  -1.5688  -1.1312 H              1 S1                 0.0000
     26 ****        -3.4518   1.0498  -2.2234 H              1 S1                 0.0000
     27 ****        -1.6333   1.7203  -4.2019 H              1 S1                 0.0000
     28 ****        -0.3485  -1.7777  -2.3343 H              1 S1                 0.0000
     29 ****        -0.9033  -1.0482   1.4681 H              1 S1                 0.0000
     30 ****         1.6529   0.0430   2.9763 H              1 S1                 0.0000
     31 ****         0.5546  -1.1221   2.3162 H              1 S1                 0.0000
     32 ****         2.9488  -1.6205   1.7937 H              1 S1                 0.0000
     33 ****         1.2761  -2.5161   0.2128 H              1 S1                 0.0000
     34 ****         2.7577  -2.0763  -0.6292 H              1 S1                 0.0000
     35 ****         1.3371  -1.0445  -0.7428 H              1 S1                 0.0000
     36 ****         2.3314   1.0011  -0.7685 H              1 S1                 0.0000
     37 ****         3.4821   3.1974  -0.5135 H              1 S1                 0.0000
     38 ****         4.6417   1.8809  -0.6659 H              1 S1                 0.0000
     39 ****         4.3256   2.5960   0.9130 H              1 S1                 0.0000
     40 ****         1.1872   2.7343   0.6269 H              1 S1                 0.0000
     41 ****         2.0182   2.1754   2.0526 H              1 S1                 0.0000
     42 ****         0.1902  -0.0918  -4.1396 LP             1 S1                 0.0000
     43 ****        -1.9933   1.7951  -0.1772 LP             1 S1                 0.0000
     44 ****        -0.5030   2.6351   0.0937 LP             1 S1                 0.0000
     45 ****         3.9902  -0.2576   0.2025 LP             1 S1                 0.0000
     46 ****         3.7680   0.4286   1.6676 LP             1 S1                 0.0000
@<TRIPOS>BOND
    1    1    2 1     
    2    1   20 1     
    3    1   21 1     
    4    1   22 1     
    5    2    3 1     
    6    2    9 1     
    7    2   23 1     
    8    3    4 1     
    9    3   24 1     
   10    3   25 1     
   11    4    8 1     
   12    4    5 1     
   13    5    6 2     
   14    5   26 1     
   15    6    7 1     
   16    6   27 1     
   17    7    8 2     
   18    8   28 1     
   19    9   10 am    
   20    9   29 1     
   21   10   11 2     
   22   10   12 am    
   23   12   19 1     
   24   12   13 1     
   25   13   14 1     
   26   13   30 1     
   27   13   31 1     
   28   14   15 1     
   29   14   16 1     
   30   14   32 1     
   31   15   33 1     
   32   15   34 1     
   33   15   35 1     
   34   16   17 1     
   35   17   18 1     
   36   17   19 1     
   37   17   36 1     
   38   18   37 1     
   39   18   38 1     
   40   18   39 1     
   41   19   40 1     
   42   19   41 1     
   43    7   42 1     
   44   11   43 1     
   45   11   44 1     
   46   16   45 1     
   47   16   46 1     
@<TRIPOS>SUBSTRUCTURE
      1 S1             1
@<TRIPOS>SET
LONE_PAIRS      STATIC     ATOMS    <user>   **** ""
5 42 43 44 45 46
DONOR_HYDROGENS      STATIC     ATOMS    <user>   **** ""
1 29
ATOM$BLUE        STATIC     ATOMS    COLORGROUP SYSTEM
5 42 43 44 45 46
ATOM$RED        STATIC     ATOMS    COLORGROUP SYSTEM
1 29
