AV-unprocessed.smi:3303|AV-procd|sdf|12682|dock5
  -GOLD-   2272019 13D 1   1.00000     0.00000
 Structure written by MMmdl.
 44 45  0  0  0  0  0  0  0  0  2 V2000
  150.3276  138.0505  154.4266 C   0  0  0  0  0  0  0  0  0  0  0  0
  149.1186  138.8256  154.9911 C   0  0  1  0  0  0  0  0  0  0  0  0
  148.2626  139.4304  153.8625 C   0  0  0  0  0  0  0  0  0  0  0  0
  147.5188  138.3920  153.0999 N   0  3  2  0  0  0  0  0  0  0  0  0
  146.8293  138.9902  151.9310 C   0  0  0  0  0  0  0  0  0  0  0  0
  146.6278  137.5734  153.9779 C   0  0  1  0  0  0  0  0  0  0  0  0
  145.8868  136.4660  153.2036 C   0  0  0  0  0  0  0  0  0  0  0  0
  147.4349  136.9417  155.1319 C   0  0  0  0  0  0  0  0  0  0  0  0
  148.2088  138.0001  155.9330 C   0  0  1  0  0  0  0  0  0  0  0  0
  148.9415  137.3409  157.0091 N   0  0  0  0  0  0  0  0  0  0  0  0
  148.2345  137.4216  158.2794 C   0  0  0  0  0  0  0  0  0  0  0  0
  149.0330  136.6852  159.3634 C   0  0  0  0  0  0  0  0  0  0  0  0
  148.1521  136.2502  160.5192 C   0  0  0  0  0  0  0  0  0  0  0  0
  147.9366  134.8815  160.7871 C   0  0  0  0  0  0  0  0  0  0  0  0
  147.1179  134.5325  161.8787 C   0  0  0  0  0  0  0  0  0  0  0  0
  146.5504  135.5597  162.6569 C   0  0  0  0  0  0  0  0  0  0  0  0
  146.8279  136.8961  162.3074 C   0  0  0  0  0  0  0  0  0  0  0  0
  147.6114  137.2417  161.2629 N   0  0  0  0  0  0  0  0  0  0  0  0
  150.0228  137.1965  153.8222 H   0  0  0  0  0  0  0  0  0  0  0  0
  150.9726  137.6794  155.2235 H   0  0  0  0  0  0  0  0  0  0  0  0
  150.9399  138.6945  153.7951 H   0  0  0  0  0  0  0  0  0  0  0  0
  149.5226  139.6664  155.5552 H   0  0  0  0  0  0  0  0  0  0  0  0
  147.5491  140.1419  154.2820 H   0  0  0  0  0  0  0  0  0  0  0  0
  148.9037  139.9988  153.1868 H   0  0  0  0  0  0  0  0  0  0  0  0
  145.9831  139.6018  152.2468 H   0  0  0  0  0  0  0  0  0  0  0  0
  146.4693  138.2264  151.2425 H   0  0  0  0  0  0  0  0  0  0  0  0
  147.5107  139.6241  151.3625 H   0  0  0  0  0  0  0  0  0  0  0  0
  145.8798  138.2402  154.4104 H   0  0  0  0  0  0  0  0  0  0  0  0
  145.3191  135.8300  153.8837 H   0  0  0  0  0  0  0  0  0  0  0  0
  146.5827  135.8265  152.6595 H   0  0  0  0  0  0  0  0  0  0  0  0
  145.1699  136.8721  152.4903 H   0  0  0  0  0  0  0  0  0  0  0  0
  146.7564  136.4076  155.7990 H   0  0  0  0  0  0  0  0  0  0  0  0
  148.1203  136.1908  154.7361 H   0  0  0  0  0  0  0  0  0  0  0  0
  147.4735  138.6676  156.3856 H   0  0  0  0  0  0  0  0  0  0  0  0
  149.0702  136.3666  156.7744 H   0  0  0  0  0  0  0  0  0  0  0  0
  148.0972  138.4625  158.5715 H   0  0  0  0  0  0  0  0  0  0  0  0
  147.2453  136.9732  158.1791 H   0  0  0  0  0  0  0  0  0  0  0  0
  149.5197  135.8046  158.9411 H   0  0  0  0  0  0  0  0  0  0  0  0
  149.8308  137.3260  159.7421 H   0  0  0  0  0  0  0  0  0  0  0  0
  148.3886  134.1157  160.1738 H   0  0  0  0  0  0  0  0  0  0  0  0
  146.9300  133.4959  162.1158 H   0  0  0  0  0  0  0  0  0  0  0  0
  145.9187  135.3297  163.5021 H   0  0  0  0  0  0  0  0  0  0  0  0
  146.4103  137.7092  162.8825 H   0  0  0  0  0  0  0  0  0  0  0  0
  148.2155  137.7621  152.7284 H   0  0  0  0  0  0  0  0  0  0  0  0
  1  2  1  0  0  0  0
  1 19  1  0  0  0  0
  1 20  1  0  0  0  0
  1 21  1  0  0  0  0
  2  9  1  0  0  0  0
  2  3  1  0  0  0  0
  2 22  1  0  0  0  0
  3  4  1  0  0  0  0
  3 23  1  0  0  0  0
  3 24  1  0  0  0  0
  4  5  1  0  0  0  0
  4  6  1  0  0  0  0
  4 44  1  0  0  0  0
  5 25  1  0  0  0  0
  5 26  1  0  0  0  0
  5 27  1  0  0  0  0
  6  7  1  0  0  0  0
  6  8  1  0  0  0  0
  6 28  1  0  0  0  0
  7 29  1  0  0  0  0
  7 30  1  0  0  0  0
  7 31  1  0  0  0  0
  8  9  1  0  0  0  0
  8 32  1  0  0  0  0
  8 33  1  0  0  0  0
  9 10  1  0  0  0  0
  9 34  1  0  0  0  0
 10 11  1  0  0  0  0
 10 35  1  0  0  0  0
 11 12  1  0  0  0  0
 11 36  1  0  0  0  0
 11 37  1  0  0  0  0
 12 13  1  0  0  0  0
 12 38  1  0  0  0  0
 12 39  1  0  0  0  0
 13 18  1  0  0  0  0
 13 14  2  0  0  0  0
 14 15  1  0  0  0  0
 14 40  1  0  0  0  0
 15 16  2  0  0  0  0
 15 41  1  0  0  0  0
 16 17  1  0  0  0  0
 16 42  1  0  0  0  0
 17 18  2  0  0  0  0
 17 43  1  0  0  0  0
M  CHG  1   4   1
M  END
> <s_m_source_file>
AV-unprocessed.smi

> <i_m_source_file_index>
3303

> <i_lp_mmshare_version>
43012

> <i_f3d_flags>
0

> <s_epik_input>
W0NIM11bQ0BASF0xW0NIMl1OKFtDSDNdKVtDQEBIXShbQ0gzXSlbQ0gyXVtDQEhdMVtOSF1bQ0gyXVtDSDJdYzJbY0hdW2NIXVtjSF1bY0hdbjI=

> <s_epik_cmdline>
J2VwaWtfcHl0aG9uJywgJy1waCcsICc3LjAnLCAnLXRuJywgJzgnLCAnLW1hJywgJzIwMCcsICctbWV0YWxfYmluZGluZycsICctaW1hZScsICc8aW5maWxlLm1hZT4nLCAnLW9tYWUnLCAnPG91dGZpbGUubWFlPic=

> <r_epik_Ionization_Penalty>
2.31085

> <r_epik_Ionization_Penalty_Charging>
0.000313057

> <r_epik_Ionization_Penalty_Neutral>
2.31054

> <r_epik_State_Penalty>
2.4087

> <r_epik_Charging_Adjusted_Penalty>
2.40902

> <i_epik_Tot_Q>
1

> <i_epik_Tot_abs_Q>
1

> <r_epik_Metal_State_Penalty>
2.30979

> <b_epik_Metal_Only>
0

> <s_lp_Force_Field>
OPLS_2005

> <r_lp_Energy>
24.7509

> <b_lp_Chiralities_Consistent>
1

> <s_lp_Variant>
AV-unprocessed.smi:3303-26

> <Gold.Version>
5.8.1

> <Gold.Id.Protein>
6NUR|6NUR_protein|mol2

> <Gold.PLP.Fitness>
40.3373

> <Gold.PLP.PLP>
-30.2865

> <Gold.PLP.part.hbond>
-3.0844

> <Gold.PLP.part.metal>
0.0000

> <Gold.PLP.part.buried>
-1.7507

> <Gold.PLP.part.nonpolar>
-25.2346

> <Gold.PLP.part.repulsive>
0.0388

> <Gold.PLP.ligand.clash>
0.0000

> <Gold.PLP.ligand.torsion>
0.7140

> <Gold.PLP.Chemscore.Hbond>
3.8240

> <Gold.PLP.Chemscore.CHOScore>
0.0000

> <Gold.PLP.Chemscore.Metal>
0.0000

> <Gold.Chemscore.Hbonds>
donor molecule, donor type, donor heavy atom, donor atom, acceptor molecule, acceptor atom, score
      L1  H     4    44       P1  7948  2.00
      P1  H  6931  6943       L1    18  0.91
      P1  H  6934  6947       L1    18  0.86

> <Gold.PLP.Chemscore.Internal.Correction>
0.0068

> <Gold.Rescore>
     Score         DG    S(hbond)    S(metal)    S(lipo)     H(rot)  DE(clash)    DE(int)     intcor
     17.24     -17.95       2.07        0.00      76.55       1.33       0.00       0.71       ----

> <Gold.Chemscore.Fitness>
17.2413

> <Gold.Chemscore.DG>
-17.9488

> <Gold.Chemscore.ZeroCoef>
-5.4800

> <Gold.Chemscore.Hbond>
2.0687

> <Gold.Chemscore.Metal>
0.0000

> <Gold.Chemscore.Lipo>
76.5545

> <Gold.Chemscore.Internal_Hbond>
0.0000

> <Gold.Chemscore.DEClash>
0.0000

> <Gold.Chemscore.DEInternal>
0.7075

> <Gold.Chemscore.Rot>
1.3272

> <Gold.Chemscore.Internal.Correction>
   9.000000E+99

> <Gold.Chemscore.Hbonds>
donor molecule, donor type, donor heavy atom, donor atom, acceptor molecule, acceptor atom, score
      L1  H     4    44       P1  7948  0.99
      P1  H  6931  6943       L1    18  0.35
      P1  H  6934  6947       L1    18  0.38

> <Gold.Chemscore.Hbond.Weighted>
-6.9096

> <Gold.Chemscore.Metal.Weighted>
-0.0000

> <Gold.Chemscore.Lipo.Weighted>
-8.9569

> <Gold.Chemscore.Internal_Hbond.Weighted>
0.0000

> <Gold.Chemscore.DEClash.Weighted>
0.0000

> <Gold.Chemscore.DEInternal.Weighted>
0.7075

> <Gold.Chemscore.Rot.Weighted>
3.3976

> <Gold.Chemscore.Internal.Correction.Weighted>
   9.000000E+99

> <Gold.Protein.RotatedTorsions>
[ 6907 6896 6895 6894 ] final   35.26 input  -60.11 | X-H torsion
[ 7974 7965 7964 7962 ] final  164.53 input  175.53 | X-H torsion
[ 8008 7997 7996 7995 ] final   46.08 input   59.86 | X-H torsion
[ 10167 10162 10161 10158 ] final  -42.16 input  -65.29 | X-H torsion
[ 10718 10713 10712 10709 ] final   18.45 input   66.30 | X-H torsion
[ 10763 10752 10751 10750 ] final -138.18 input  -60.55 | X-H torsion
[ 11005 11000 10999 10996 ] final  -48.80 input  -57.11 | X-H torsion

> <Gold.Protein.ActiveResidues>
 VAL166  LYS551  ARG553  GLY616  TRP617  ASP618  TYR619  PRO620  LYS621  CYS622 
 ASP623  PHE694  ASN695  SER759  ASP760  ASP761  ALA762  ILE779  LEU786  VAL792 
 PHE793  MET794  SER795  GLU796  ALA797  LYS798  CYS799  TRP800  GLU811  SER814 

> <Gold.Protein.RotatedAtoms>
  152.1138  134.9255  160.0565 H   0  0  0  0  0  0  0  0  0  0  0  0  # atno 6907 bound_to 6896
  152.0423  133.3978  159.4350 H   0  0  0  0  0  0  0  0  0  0  0  0  # atno 6908 bound_to 6896
  150.6845  134.3322  159.4875 H   0  0  0  0  0  0  0  0  0  0  0  0  # atno 6909 bound_to 6896
  144.7541  139.8339  143.6356 H   0  0  0  0  0  0  0  0  0  0  0  0  # atno 7974 bound_to 7965
  155.3466  140.3411  155.4239 H   0  0  0  0  0  0  0  0  0  0  0  0  # atno 8008 bound_to 7997
  156.1786  140.1656  156.8353 H   0  0  0  0  0  0  0  0  0  0  0  0  # atno 8009 bound_to 7997
  154.5308  140.0745  156.8325 H   0  0  0  0  0  0  0  0  0  0  0  0  # atno 8010 bound_to 7997
  140.6978  143.3053  151.3170 H   0  0  0  0  0  0  0  0  0  0  0  0  # atno 10167 bound_to 10162
  157.0966  130.6450  149.5862 H   0  0  0  0  0  0  0  0  0  0  0  0  # atno 10718 bound_to 10713
  154.8643  135.3620  154.5343 H   0  0  0  0  0  0  0  0  0  0  0  0  # atno 10763 bound_to 10752
  153.5968  135.7014  153.5405 H   0  0  0  0  0  0  0  0  0  0  0  0  # atno 10764 bound_to 10752
  153.3326  135.4120  155.1469 H   0  0  0  0  0  0  0  0  0  0  0  0  # atno 10765 bound_to 10752
  141.0722  133.6676  156.3493 H   0  0  0  0  0  0  0  0  0  0  0  0  # atno 11005 bound_to 11000
  146.1529  139.4618  143.0037 LP  0  0  0  0  0  0  0  0  0  0  0  0  # atno 17320 bound_to 7965
  145.6840  141.0183  143.1591 LP  0  0  0  0  0  0  0  0  0  0  0  0  # atno 17321 bound_to 7965
  139.6456  144.0457  152.2588 LP  0  0  0  0  0  0  0  0  0  0  0  0  # atno 17342 bound_to 10162
  139.9976  144.6316  150.7758 LP  0  0  0  0  0  0  0  0  0  0  0  0  # atno 17343 bound_to 10162
  155.9884  130.4928  150.7169 LP  0  0  0  0  0  0  0  0  0  0  0  0  # atno 17370 bound_to 10713
  157.4676  131.0890  151.0677 LP  0  0  0  0  0  0  0  0  0  0  0  0  # atno 17371 bound_to 10713
  140.5650  134.5897  157.5443 LP  0  0  0  0  0  0  0  0  0  0  0  0  # atno 17394 bound_to 11000
  139.9535  134.7576  156.0395 LP  0  0  0  0  0  0  0  0  0  0  0  0  # atno 17395 bound_to 11000

$$$$
