#       Name:                AV-unprocessed.smi:759
#       Creating user name   scv26
#       Creation time:       Fri Mar 27 01:01:45 2020


#       File generated by GOLD software.
#

@<TRIPOS>MOLECULE
AV-unprocessed.smi:759
    26    27     1
SMALL
NO_CHARGES


@<TRIPOS>ATOM
      1 ****        -3.6132  -0.0764   0.0280 C.2            1 S1                 0.0000
      2 ****        -3.5869   1.2550   0.0098 N.pl3          1 S1                 0.0000
      3 ****        -2.3001   1.6641  -0.0088 N.2            1 S1                 0.0000
      4 ****        -1.6370   0.5063  -0.0011 C.2            1 S1                 0.0000
      5 ****        -0.1395   0.4725  -0.0146 C.3            1 S1                 0.0000
      6 ****         0.4161  -0.1907  -1.2892 C.3            1 S1                 0.0000
      7 ****         1.9520  -0.2162  -1.2542 C.3            1 S1                 0.0000
      8 ****         2.4624  -0.8747   0.0386 C.3            1 S1                 0.0000
      9 ****         1.9148  -0.1870   1.2285 N.4            1 S1                 1.0000
     10 ****         0.4355  -0.1762   1.2609 C.3            1 S1                 0.0000
     11 ****        -2.4062  -0.6263   0.0230 N.2            1 S1                 0.0000
     12 ****        -4.3723   1.8905   0.0095 H              1 S1                 0.0000
     13 ****        -4.5273  -0.6516   0.0459 H              1 S1                 0.0000
     14 ****         0.2048   1.5087  -0.0236 H              1 S1                 0.0000
     15 ****         0.0397  -1.2113  -1.3730 H              1 S1                 0.0000
     16 ****         0.0713   0.3431  -2.1756 H              1 S1                 0.0000
     17 ****         2.3356  -0.7521  -2.1230 H              1 S1                 0.0000
     18 ****         2.3374   0.8019  -1.3241 H              1 S1                 0.0000
     19 ****         2.1763  -1.9270   0.0677 H              1 S1                 0.0000
     20 ****         3.5513  -0.8391   0.0771 H              1 S1                 0.0000
     21 ****         2.2569  -0.6473   2.0600 H              1 S1                 0.0000
     22 ****         0.1062   0.3676   2.1468 H              1 S1                 0.0000
     23 ****         0.0779  -1.2017   1.3649 H              1 S1                 0.0000
     24 ****         2.2435   0.7682   1.2267 H              1 S1                 0.0000
     25 ****        -1.9372   2.5958  -0.0244 LP             1 S1                 0.0000
     26 ****        -2.1361  -1.5891   0.0337 LP             1 S1                 0.0000
@<TRIPOS>BOND
    1    1   11 2     
    2    1   13 1     
    3    1    2 1     
    4    2   12 1     
    5    2    3 1     
    6    3    4 2     
    7    4   11 1     
    8    4    5 1     
    9    5   10 1     
   10    5    6 1     
   11    5   14 1     
   12    6    7 1     
   13    6   15 1     
   14    6   16 1     
   15    7    8 1     
   16    7   17 1     
   17    7   18 1     
   18    8    9 1     
   19    8   19 1     
   20    8   20 1     
   21    9   10 1     
   22    9   21 1     
   23    9   24 1     
   24   10   22 1     
   25   10   23 1     
   26    3   25 1     
   27   11   26 1     
@<TRIPOS>SUBSTRUCTURE
      1 S1             1
@<TRIPOS>SET
LONE_PAIRS      STATIC     ATOMS    <user>   **** ""
2 25 26
DONOR_HYDROGENS      STATIC     ATOMS    <user>   **** ""
3 12 21 24
ATOM$BLUE        STATIC     ATOMS    COLORGROUP SYSTEM
2 25 26
ATOM$RED        STATIC     ATOMS    COLORGROUP SYSTEM
3 12 21 24
