AV-unprocessed.smi:2846|AV-procd|sdf|10952|dock9
  -GOLD-   2272015403D 1   1.00000     0.00000
 Structure written by MMmdl.
 49 51  0  0  0  0  0  0  0  0  2 V2000
  149.0541  140.1760  157.2890 O   0  0  0  0  0  0  0  0  0  0  0  0
  149.1803  141.3159  156.8410 C   0  0  0  0  0  0  0  0  0  0  0  0
  150.5645  141.8758  156.5045 C   0  0  0  0  0  0  0  0  0  0  0  0
  151.2565  142.6656  157.6036 C   0  0  0  0  0  0  0  0  0  0  0  0
  151.6112  143.9557  157.4444 C   0  0  0  0  0  0  0  0  0  0  0  0
  152.2924  144.7899  158.5145 C   0  0  0  0  0  0  0  0  0  0  0  0
  152.2181  144.1324  159.9029 C   0  0  0  0  0  0  0  0  0  0  0  0
  152.5219  142.6311  159.8222 C   0  0  0  0  0  0  0  0  0  0  0  0
  151.5314  141.9041  158.8946 C   0  0  0  0  0  0  0  0  0  0  0  0
  148.1434  142.1356  156.6108 N   0  0  0  0  0  0  0  0  0  0  0  0
  146.7379  141.8161  156.8564 C   0  0  0  0  0  0  0  0  0  0  0  0
  145.8971  141.6805  155.5552 C   0  0  0  0  0  0  0  0  0  0  0  0
  146.4555  140.5410  154.6879 C   0  0  0  0  0  0  0  0  0  0  0  0
  146.8968  140.7994  153.3672 C   0  0  0  0  0  0  0  0  0  0  0  0
  147.4238  139.7502  152.5874 C   0  0  0  0  0  0  0  0  0  0  0  0
  147.5135  138.5070  153.1055 N   0  3  0  0  0  0  0  0  0  0  0  0
  147.1192  138.2111  154.3619 C   0  0  0  0  0  0  0  0  0  0  0  0
  146.5838  139.2206  155.1872 C   0  0  0  0  0  0  0  0  0  0  0  0
  144.3891  141.5248  155.8582 C   0  0  0  0  0  0  0  0  0  0  0  0
  143.8677  142.9273  156.1824 C   0  0  0  0  0  0  0  0  0  0  0  0
  144.8056  143.8956  155.4542 C   0  0  0  0  0  0  0  0  0  0  0  0
  145.8879  143.0269  154.7999 C   0  0  0  0  0  0  0  0  0  0  0  0
  151.1994  141.0295  156.2386 H   0  0  0  0  0  0  0  0  0  0  0  0
  150.4998  142.4963  155.6096 H   0  0  0  0  0  0  0  0  0  0  0  0
  151.4215  144.4516  156.5037 H   0  0  0  0  0  0  0  0  0  0  0  0
  153.3324  144.9320  158.2193 H   0  0  0  0  0  0  0  0  0  0  0  0
  151.8336  145.7785  158.5473 H   0  0  0  0  0  0  0  0  0  0  0  0
  152.9104  144.6246  160.5864 H   0  0  0  0  0  0  0  0  0  0  0  0
  151.2199  144.2729  160.3197 H   0  0  0  0  0  0  0  0  0  0  0  0
  153.5374  142.4922  159.4486 H   0  0  0  0  0  0  0  0  0  0  0  0
  152.4960  142.1845  160.8166 H   0  0  0  0  0  0  0  0  0  0  0  0
  150.5804  141.7554  159.4068 H   0  0  0  0  0  0  0  0  0  0  0  0
  151.9199  140.9131  158.6568 H   0  0  0  0  0  0  0  0  0  0  0  0
  148.3434  143.0556  156.2459 H   0  0  0  0  0  0  0  0  0  0  0  0
  146.6494  140.9255  157.4803 H   0  0  0  0  0  0  0  0  0  0  0  0
  146.3369  142.6313  157.4597 H   0  0  0  0  0  0  0  0  0  0  0  0
  146.8387  141.7932  152.9485 H   0  0  0  0  0  0  0  0  0  0  0  0
  147.7774  139.8683  151.5736 H   0  0  0  0  0  0  0  0  0  0  0  0
  147.2467  137.1834  154.6691 H   0  0  0  0  0  0  0  0  0  0  0  0
  146.2845  138.9705  156.1941 H   0  0  0  0  0  0  0  0  0  0  0  0
  143.8711  141.1850  154.9596 H   0  0  0  0  0  0  0  0  0  0  0  0
  144.1640  140.8025  156.6422 H   0  0  0  0  0  0  0  0  0  0  0  0
  142.8285  143.0516  155.8766 H   0  0  0  0  0  0  0  0  0  0  0  0
  143.9145  143.1047  157.2577 H   0  0  0  0  0  0  0  0  0  0  0  0
  144.2755  144.4917  154.7106 H   0  0  0  0  0  0  0  0  0  0  0  0
  145.2521  144.5881  156.1687 H   0  0  0  0  0  0  0  0  0  0  0  0
  146.8604  143.5202  154.7803 H   0  0  0  0  0  0  0  0  0  0  0  0
  145.5965  142.8578  153.7618 H   0  0  0  0  0  0  0  0  0  0  0  0
  147.8993  137.7617  152.5252 H   0  0  0  0  0  0  0  0  0  0  0  0
  1  2  2  0  0  0  0
  2  3  1  0  0  0  0
  2 10  1  0  0  0  0
  3  4  1  0  0  0  0
  3 23  1  0  0  0  0
  3 24  1  0  0  0  0
  4  9  1  0  0  0  0
  4  5  2  0  0  0  0
  5  6  1  0  0  0  0
  5 25  1  0  0  0  0
  6  7  1  0  0  0  0
  6 26  1  0  0  0  0
  6 27  1  0  0  0  0
  7  8  1  0  0  0  0
  7 28  1  0  0  0  0
  7 29  1  0  0  0  0
  8  9  1  0  0  0  0
  8 30  1  0  0  0  0
  8 31  1  0  0  0  0
  9 32  1  0  0  0  0
  9 33  1  0  0  0  0
 10 11  1  0  0  0  0
 10 34  1  0  0  0  0
 11 12  1  0  0  0  0
 11 35  1  0  0  0  0
 11 36  1  0  0  0  0
 12 22  1  0  0  0  0
 12 13  1  0  0  0  0
 12 19  1  0  0  0  0
 13 18  1  0  0  0  0
 13 14  2  0  0  0  0
 14 15  1  0  0  0  0
 14 37  1  0  0  0  0
 15 16  2  0  0  0  0
 15 38  1  0  0  0  0
 16 17  1  0  0  0  0
 16 49  1  0  0  0  0
 17 18  2  0  0  0  0
 17 39  1  0  0  0  0
 18 40  1  0  0  0  0
 19 20  1  0  0  0  0
 19 41  1  0  0  0  0
 19 42  1  0  0  0  0
 20 21  1  0  0  0  0
 20 43  1  0  0  0  0
 20 44  1  0  0  0  0
 21 22  1  0  0  0  0
 21 45  1  0  0  0  0
 21 46  1  0  0  0  0
 22 47  1  0  0  0  0
 22 48  1  0  0  0  0
M  CHG  1  16   1
M  END
> <s_m_source_file>
AV-unprocessed.smi

> <i_m_source_file_index>
2846

> <i_lp_mmshare_version>
43012

> <i_f3d_flags>
0

> <s_epik_input>
W0NIMl0xW0NIMl1bQ0gyXVtDSDJdW0NIXT1DMVtDSDJdQyg9TylbTkhdW0NIMl1DMihbQ0gyXVtDSDJdW0NIMl1bQ0gyXTIpYzNbY0hdW2NIXW5bY0hdW2NIXTM=

> <s_epik_cmdline>
J2VwaWtfcHl0aG9uJywgJy1waCcsICc3LjAnLCAnLXRuJywgJzgnLCAnLW1hJywgJzIwMCcsICctbWV0YWxfYmluZGluZycsICctaW1hZScsICc8aW5maWxlLm1hZT4nLCAnLW9tYWUnLCAnPG91dGZpbGUubWFlPic=

> <r_epik_Ionization_Penalty>
1.37043

> <r_epik_Ionization_Penalty_Charging>
1.37043

> <r_epik_Ionization_Penalty_Neutral>
1.66368e-08

> <r_epik_State_Penalty>
1.45009

> <r_epik_Charging_Adjusted_Penalty>
2.82052

> <i_epik_Tot_Q>
1

> <i_epik_Tot_abs_Q>
1

> <r_epik_Metal_State_Penalty>
1.50668

> <b_epik_Metal_Only>
0

> <s_lp_Force_Field>
OPLS_2005

> <r_lp_Energy>
37.4584

> <b_lp_Chiralities_Consistent>
1

> <s_lp_Variant>
AV-unprocessed.smi:2846-2

> <Gold.Version>
5.8.1

> <Gold.Id.Protein>
6NUR|6NUR_protein|mol2

> <Gold.PLP.Fitness>
49.9565

> <Gold.PLP.PLP>
-41.8248

> <Gold.PLP.part.hbond>
-3.0000

> <Gold.PLP.part.metal>
0.0000

> <Gold.PLP.part.buried>
-1.3991

> <Gold.PLP.part.nonpolar>
-38.4793

> <Gold.PLP.part.repulsive>
0.0757

> <Gold.PLP.ligand.clash>
0.0000

> <Gold.PLP.ligand.torsion>
0.4910

> <Gold.PLP.Chemscore.Hbond>
3.0000

> <Gold.PLP.Chemscore.CHOScore>
0.0000

> <Gold.PLP.Chemscore.Metal>
0.0000

> <Gold.Chemscore.Hbonds>
donor molecule, donor type, donor heavy atom, donor atom, acceptor molecule, acceptor atom, score
      L1  H    10    34       P1  8028  1.00
      L1  H    16    49       P1  7948  2.00

> <Gold.PLP.Chemscore.Internal.Correction>
0.1136

> <Gold.Rescore>
     Score         DG    S(hbond)    S(metal)    S(lipo)     H(rot)  DE(clash)    DE(int)     intcor
     20.47     -22.88       1.94        0.00     125.37       1.46       1.92       0.49       ----

> <Gold.Chemscore.Fitness>
20.4694

> <Gold.Chemscore.DG>
-22.8840

> <Gold.Chemscore.ZeroCoef>
-5.4800

> <Gold.Chemscore.Hbond>
1.9402

> <Gold.Chemscore.Metal>
0.0000

> <Gold.Chemscore.Lipo>
125.3653

> <Gold.Chemscore.Internal_Hbond>
0.0000

> <Gold.Chemscore.DEClash>
1.9214

> <Gold.Chemscore.DEInternal>
0.4932

> <Gold.Chemscore.Rot>
1.4625

> <Gold.Chemscore.Internal.Correction>
   9.000000E+99

> <Gold.Chemscore.Hbonds>
donor molecule, donor type, donor heavy atom, donor atom, acceptor molecule, acceptor atom, score
      L1  H    10    34       P1  8028  0.78
      L1  H    16    49       P1  7948  0.99

> <Gold.Chemscore.Hbond.Weighted>
-6.4803

> <Gold.Chemscore.Metal.Weighted>
-0.0000

> <Gold.Chemscore.Lipo.Weighted>
-14.6677

> <Gold.Chemscore.Internal_Hbond.Weighted>
0.0000

> <Gold.Chemscore.DEClash.Weighted>
1.9214

> <Gold.Chemscore.DEInternal.Weighted>
0.4932

> <Gold.Chemscore.Rot.Weighted>
3.7441

> <Gold.Chemscore.Internal.Correction.Weighted>
   9.000000E+99

> <Gold.Protein.RotatedTorsions>
[ 6907 6896 6895 6894 ] final -144.30 input  -60.11 | X-H torsion
[ 7974 7965 7964 7962 ] final   32.13 input  175.53 | X-H torsion
[ 8008 7997 7996 7995 ] final  -11.98 input   59.86 | X-H torsion
[ 10167 10162 10161 10158 ] final -135.45 input  -65.29 | X-H torsion
[ 10718 10713 10712 10709 ] final  166.46 input   66.30 | X-H torsion
[ 10763 10752 10751 10750 ] final    7.23 input  -60.55 | X-H torsion
[ 11005 11000 10999 10996 ] final  -75.05 input  -57.11 | X-H torsion

> <Gold.Protein.ActiveResidues>
 VAL166  LYS551  ARG553  GLY616  TRP617  ASP618  TYR619  PRO620  LYS621  CYS622 
 ASP623  PHE694  ASN695  SER759  ASP760  ASP761  ALA762  ILE779  LEU786  VAL792 
 PHE793  MET794  SER795  GLU796  ALA797  LYS798  CYS799  TRP800  GLU811  SER814 

> <Gold.Protein.RotatedAtoms>
  151.1121  133.5165  159.2605 H   0  0  0  0  0  0  0  0  0  0  0  0  # atno 6907 bound_to 6896
  151.1955  135.0420  159.8860 H   0  0  0  0  0  0  0  0  0  0  0  0  # atno 6908 bound_to 6896
  152.5451  134.0956  159.8349 H   0  0  0  0  0  0  0  0  0  0  0  0  # atno 6909 bound_to 6896
  146.1506  139.6566  142.9101 H   0  0  0  0  0  0  0  0  0  0  0  0  # atno 7974 bound_to 7965
  154.5417  140.2288  155.8630 H   0  0  0  0  0  0  0  0  0  0  0  0  # atno 8008 bound_to 7997
  156.1865  140.3087  155.9210 H   0  0  0  0  0  0  0  0  0  0  0  0  # atno 8009 bound_to 7997
  155.3244  140.0442  157.3031 H   0  0  0  0  0  0  0  0  0  0  0  0  # atno 8010 bound_to 7997
  139.8778  143.6877  152.2631 H   0  0  0  0  0  0  0  0  0  0  0  0  # atno 10167 bound_to 10162
  157.0656  131.0352  151.2631 H   0  0  0  0  0  0  0  0  0  0  0  0  # atno 10718 bound_to 10713
  153.2387  135.6901  153.7808 H   0  0  0  0  0  0  0  0  0  0  0  0  # atno 10763 bound_to 10752
  153.6945  135.3307  155.3211 H   0  0  0  0  0  0  0  0  0  0  0  0  # atno 10764 bound_to 10752
  154.8346  135.4553  154.1300 H   0  0  0  0  0  0  0  0  0  0  0  0  # atno 10765 bound_to 10752
  141.1641  133.6933  156.7458 H   0  0  0  0  0  0  0  0  0  0  0  0  # atno 11005 bound_to 11000
  145.4832  141.0438  143.2634 LP  0  0  0  0  0  0  0  0  0  0  0  0  # atno 17320 bound_to 7965
  144.7899  139.6349  143.7117 LP  0  0  0  0  0  0  0  0  0  0  0  0  # atno 17321 bound_to 7965
  139.7224  144.7600  151.0934 LP  0  0  0  0  0  0  0  0  0  0  0  0  # atno 17342 bound_to 10162
  140.7750  143.5191  150.9559 LP  0  0  0  0  0  0  0  0  0  0  0  0  # atno 17343 bound_to 10162
  157.4920  130.7827  149.7517 LP  0  0  0  0  0  0  0  0  0  0  0  0  # atno 17370 bound_to 10713
  155.9965  130.3905  150.2775 LP  0  0  0  0  0  0  0  0  0  0  0  0  # atno 17371 bound_to 10713
  140.2641  134.8444  157.3786 LP  0  0  0  0  0  0  0  0  0  0  0  0  # atno 17394 bound_to 11000
  140.1583  134.4761  155.7912 LP  0  0  0  0  0  0  0  0  0  0  0  0  # atno 17395 bound_to 11000

$$$$
