AV-unprocessed.smi:939|AV-procd|sdf|4218|dock9
  -GOLD-   22720 2123D 1   1.00000     0.00000
 Structure written by MMmdl.
 36 37  0  0  0  0  0  0  0  0  1 V2000
  151.7381  145.3510  159.9727 C   0  0  0  0  0  0  0  0  0  0  0  0
  152.4500  144.8010  158.7320 C   0  0  0  0  0  0  0  0  0  0  0  0
  151.9814  143.4220  158.3724 C   0  0  0  0  0  0  0  0  0  0  0  0
  151.1544  143.2498  157.2592 N   0  0  0  0  0  0  0  0  0  0  0  0
  150.8145  141.9743  157.0587 C   0  0  0  0  0  0  0  0  0  0  0  0
  149.9953  141.5097  155.8964 C   0  0  0  0  0  0  0  0  0  0  0  0
  150.5913  140.2863  155.1727 C   0  0  0  0  0  0  0  0  0  0  0  0
  149.7531  139.8409  154.0648 N   0  0  0  0  0  0  0  0  0  0  0  0
  148.4440  139.5535  154.1512 C   0  0  0  0  0  0  0  0  0  0  0  0
  147.8274  139.5192  155.2145 O   0  0  0  0  0  0  0  0  0  0  0  0
  147.8359  139.3450  152.9701 N   0  0  0  0  0  0  0  0  0  0  0  0
  146.4598  139.0231  152.7387 C   0  0  0  0  0  0  0  0  0  0  0  0
  145.8414  137.9146  153.5615 C   0  0  0  0  0  0  0  0  0  0  0  0
  146.1584  137.6811  152.1088 C   0  0  0  0  0  0  0  0  0  0  0  0
  151.5060  140.8825  158.2493 S   0  0  0  0  0  0  0  0  0  0  0  0
  152.2647  142.2473  159.0294 C   0  0  0  0  0  0  0  0  0  0  0  0
  153.1007  142.0611  160.2518 C   0  0  0  0  0  0  0  0  0  0  0  0
  152.0981  146.3506  160.2162 H   0  0  0  0  0  0  0  0  0  0  0  0
  151.9123  144.7132  160.8399 H   0  0  0  0  0  0  0  0  0  0  0  0
  150.6613  145.4143  159.8136 H   0  0  0  0  0  0  0  0  0  0  0  0
  152.2852  145.4799  157.8944 H   0  0  0  0  0  0  0  0  0  0  0  0
  153.5263  144.8028  158.9049 H   0  0  0  0  0  0  0  0  0  0  0  0
  148.9896  141.2783  156.2477 H   0  0  0  0  0  0  0  0  0  0  0  0
  149.8910  142.3382  155.1946 H   0  0  0  0  0  0  0  0  0  0  0  0
  151.5639  140.5511  154.7575 H   0  0  0  0  0  0  0  0  0  0  0  0
  150.7677  139.4718  155.8767 H   0  0  0  0  0  0  0  0  0  0  0  0
  150.1751  139.8420  153.1477 H   0  0  0  0  0  0  0  0  0  0  0  0
  148.4096  139.4425  152.1447 H   0  0  0  0  0  0  0  0  0  0  0  0
  145.7973  139.8305  152.4307 H   0  0  0  0  0  0  0  0  0  0  0  0
  146.4694  137.4203  154.3004 H   0  0  0  0  0  0  0  0  0  0  0  0
  144.7951  138.0237  153.8395 H   0  0  0  0  0  0  0  0  0  0  0  0
  145.3222  137.6292  151.4144 H   0  0  0  0  0  0  0  0  0  0  0  0
  146.9969  137.0264  151.8776 H   0  0  0  0  0  0  0  0  0  0  0  0
  152.7213  142.6670  161.0748 H   0  0  0  0  0  0  0  0  0  0  0  0
  154.1330  142.3559  160.0626 H   0  0  0  0  0  0  0  0  0  0  0  0
  153.1029  141.0201  160.5754 H   0  0  0  0  0  0  0  0  0  0  0  0
  1  2  1  0  0  0  0
  1 18  1  0  0  0  0
  1 19  1  0  0  0  0
  1 20  1  0  0  0  0
  2  3  1  0  0  0  0
  2 21  1  0  0  0  0
  2 22  1  0  0  0  0
  3 16  2  0  0  0  0
  3  4  1  0  0  0  0
  4  5  2  0  0  0  0
  5  6  1  0  0  0  0
  5 15  1  0  0  0  0
  6  7  1  0  0  0  0
  6 23  1  0  0  0  0
  6 24  1  0  0  0  0
  7  8  1  0  0  0  0
  7 25  1  0  0  0  0
  7 26  1  0  0  0  0
  8  9  1  0  0  0  0
  8 27  1  0  0  0  0
  9 10  2  0  0  0  0
  9 11  1  0  0  0  0
 11 12  1  0  0  0  0
 11 28  1  0  0  0  0
 12 14  1  0  0  0  0
 12 13  1  0  0  0  0
 12 29  1  0  0  0  0
 13 14  1  0  0  0  0
 13 30  1  0  0  0  0
 13 31  1  0  0  0  0
 14 32  1  0  0  0  0
 14 33  1  0  0  0  0
 15 16  1  0  0  0  0
 16 17  1  0  0  0  0
 17 34  1  0  0  0  0
 17 35  1  0  0  0  0
 17 36  1  0  0  0  0
M  END
> <s_m_source_file>
AV-unprocessed.smi

> <i_m_source_file_index>
939

> <i_lp_mmshare_version>
43012

> <i_f3d_flags>
0

> <s_epik_input>
W0NIM11bQ0gyXWMxbmMoc2MxW0NIM10pW0NIMl1bQ0gyXVtOSF1DKD1PKVtOSF1bQ0hdMltDSDJdW0NIMl0y

> <s_epik_cmdline>
J2VwaWtfcHl0aG9uJywgJy1waCcsICc3LjAnLCAnLXRuJywgJzgnLCAnLW1hJywgJzIwMCcsICctbWV0YWxfYmluZGluZycsICctaW1hZScsICc8aW5maWxlLm1hZT4nLCAnLW9tYWUnLCAnPG91dGZpbGUubWFlPic=

> <r_epik_Ionization_Penalty>
0.00437198

> <r_epik_Ionization_Penalty_Charging>
0

> <r_epik_Ionization_Penalty_Neutral>
0.00437198

> <r_epik_State_Penalty>
0.00310304

> <r_epik_Charging_Adjusted_Penalty>
0.00310304

> <i_epik_Tot_Q>
0

> <i_epik_Tot_abs_Q>
0

> <r_epik_Metal_State_Penalty>
-0

> <b_epik_Metal_Only>
0

> <s_lp_Force_Field>
OPLS_2005

> <r_lp_Energy>
13.9428

> <b_lp_Chiralities_Consistent>
1

> <s_lp_Variant>
AV-unprocessed.smi:939-1

> <Gold.Version>
5.8.1

> <Gold.Id.Protein>
6NUR|6NUR_protein|mol2

> <Gold.PLP.Fitness>
42.9294

> <Gold.PLP.PLP>
-38.4850

> <Gold.PLP.part.hbond>
-1.9196

> <Gold.PLP.part.metal>
0.0000

> <Gold.PLP.part.buried>
-1.5951

> <Gold.PLP.part.nonpolar>
-36.7237

> <Gold.PLP.part.repulsive>
1.1925

> <Gold.PLP.ligand.clash>
0.0000

> <Gold.PLP.ligand.torsion>
0.4082

> <Gold.PLP.Chemscore.Hbond>
1.7332

> <Gold.PLP.Chemscore.CHOScore>
0.0000

> <Gold.PLP.Chemscore.Metal>
0.0000

> <Gold.Chemscore.Hbonds>
donor molecule, donor type, donor heavy atom, donor atom, acceptor molecule, acceptor atom, score
      L1  H     8    27       P1  7957  0.73
      L1  H    11    28       P1  7957  1.00

> <Gold.PLP.Chemscore.Internal.Correction>
0.0612

> <Gold.Rescore>
     Score         DG    S(hbond)    S(metal)    S(lipo)     H(rot)  DE(clash)    DE(int)     intcor
     17.00     -19.43       1.88        0.00     102.56       1.69       0.38       2.05       ----

> <Gold.Chemscore.Fitness>
16.9993

> <Gold.Chemscore.DG>
-19.4318

> <Gold.Chemscore.ZeroCoef>
-5.4800

> <Gold.Chemscore.Hbond>
1.8824

> <Gold.Chemscore.Metal>
0.0000

> <Gold.Chemscore.Lipo>
102.5604

> <Gold.Chemscore.Internal_Hbond>
0.0000

> <Gold.Chemscore.DEClash>
0.3801

> <Gold.Chemscore.DEInternal>
2.0524

> <Gold.Chemscore.Rot>
1.6934

> <Gold.Chemscore.Internal.Correction>
   9.000000E+99

> <Gold.Chemscore.Hbonds>
donor molecule, donor type, donor heavy atom, donor atom, acceptor molecule, acceptor atom, score
      L1  H     8    27       P1  7957  0.69
      L1  H    11    28       P1  7957  0.99

> <Gold.Chemscore.Hbond.Weighted>
-6.2873

> <Gold.Chemscore.Metal.Weighted>
-0.0000

> <Gold.Chemscore.Lipo.Weighted>
-11.9996

> <Gold.Chemscore.Internal_Hbond.Weighted>
0.0000

> <Gold.Chemscore.DEClash.Weighted>
0.3801

> <Gold.Chemscore.DEInternal.Weighted>
2.0524

> <Gold.Chemscore.Rot.Weighted>
4.3351

> <Gold.Chemscore.Internal.Correction.Weighted>
   9.000000E+99

> <Gold.Protein.RotatedTorsions>
[ 6907 6896 6895 6894 ] final  146.71 input  -60.11 | X-H torsion
[ 7974 7965 7964 7962 ] final  102.91 input  175.53 | X-H torsion
[ 8008 7997 7996 7995 ] final   95.29 input   59.86 | X-H torsion
[ 10167 10162 10161 10158 ] final  -62.93 input  -65.29 | X-H torsion
[ 10718 10713 10712 10709 ] final   10.04 input   66.30 | X-H torsion
[ 10763 10752 10751 10750 ] final   52.03 input  -60.55 | X-H torsion
[ 11005 11000 10999 10996 ] final  167.72 input  -57.11 | X-H torsion

> <Gold.Protein.ActiveResidues>
 VAL166  LYS551  ARG553  GLY616  TRP617  ASP618  TYR619  PRO620  LYS621  CYS622 
 ASP623  PHE694  ASN695  SER759  ASP760  ASP761  ALA762  ILE779  LEU786  VAL792 
 PHE793  MET794  SER795  GLU796  ALA797  LYS798  CYS799  TRP800  GLU811  SER814 

> <Gold.Protein.RotatedAtoms>
  152.1643  133.4602  159.4876 H   0  0  0  0  0  0  0  0  0  0  0  0  # atno 6907 bound_to 6896
  150.6911  134.2032  159.4339 H   0  0  0  0  0  0  0  0  0  0  0  0  # atno 6908 bound_to 6896
  151.9936  134.9966  160.0613 H   0  0  0  0  0  0  0  0  0  0  0  0  # atno 6909 bound_to 6896
  145.3529  139.2435  143.3548 H   0  0  0  0  0  0  0  0  0  0  0  0  # atno 7974 bound_to 7965
  156.0673  140.3288  155.7533 H   0  0  0  0  0  0  0  0  0  0  0  0  # atno 8008 bound_to 7997
  155.5361  140.0597  157.2897 H   0  0  0  0  0  0  0  0  0  0  0  0  # atno 8009 bound_to 7997
  154.4511  140.1919  156.0533 H   0  0  0  0  0  0  0  0  0  0  0  0  # atno 8010 bound_to 7997
  140.5905  143.2341  151.6149 H   0  0  0  0  0  0  0  0  0  0  0  0  # atno 10167 bound_to 10162
  156.9751  130.5984  149.5672 H   0  0  0  0  0  0  0  0  0  0  0  0  # atno 10718 bound_to 10713
  152.9787  135.5826  154.4512 H   0  0  0  0  0  0  0  0  0  0  0  0  # atno 10763 bound_to 10752
  154.4100  135.2770  155.2044 H   0  0  0  0  0  0  0  0  0  0  0  0  # atno 10764 bound_to 10752
  154.3838  135.6140  153.5859 H   0  0  0  0  0  0  0  0  0  0  0  0  # atno 10765 bound_to 10752
  140.2798  134.7759  157.3748 H   0  0  0  0  0  0  0  0  0  0  0  0  # atno 11005 bound_to 11000
  146.2960  140.4148  142.8721 LP  0  0  0  0  0  0  0  0  0  0  0  0  # atno 17320 bound_to 7965
  144.8704  140.7265  143.6050 LP  0  0  0  0  0  0  0  0  0  0  0  0  # atno 17321 bound_to 7965
  139.5225  144.3162  152.0950 LP  0  0  0  0  0  0  0  0  0  0  0  0  # atno 17342 bound_to 10162
  140.2326  144.4353  150.6294 LP  0  0  0  0  0  0  0  0  0  0  0  0  # atno 17343 bound_to 10162
  156.0267  130.5360  150.8425 LP  0  0  0  0  0  0  0  0  0  0  0  0  # atno 17370 bound_to 10713
  157.5565  131.0945  150.9621 LP  0  0  0  0  0  0  0  0  0  0  0  0  # atno 17371 bound_to 10713
  140.1294  134.5115  155.8118 LP  0  0  0  0  0  0  0  0  0  0  0  0  # atno 17394 bound_to 11000
  141.2164  133.6784  156.7012 LP  0  0  0  0  0  0  0  0  0  0  0  0  # atno 17395 bound_to 11000

$$$$
