AV-unprocessed.smi:1193|AV-procd|sdf|4989|dock9
  -GOLD-   22720 3593D 1   1.00000     0.00000
 Structure written by MMmdl.
 38 39  0  0  0  0  0  0  0  0  1 V2000
  151.7049  138.2525  154.5282 C   0  0  0  0  0  0  0  0  0  0  0  0
  150.3473  138.2194  154.1016 O   0  0  0  0  0  0  0  0  0  0  0  0
  149.5984  139.3775  154.1909 C   0  0  0  0  0  0  0  0  0  0  0  0
  150.1688  140.4722  154.7539 N   0  0  0  0  0  0  0  0  0  0  0  0
  149.4388  141.6028  154.8442 C   0  0  0  0  0  0  0  0  0  0  0  0
  148.1115  141.7009  154.3885 C   0  0  0  0  0  0  0  0  0  0  0  0
  147.5174  140.5668  153.8044 C   0  0  0  0  0  0  0  0  0  0  0  0
  148.2757  139.3763  153.6892 C   0  0  0  0  0  0  0  0  0  0  0  0
  147.7711  138.1684  153.1330 N   0  0  0  0  0  0  0  0  0  0  0  0
  146.5051  137.7191  153.1049 C   0  0  0  0  0  0  0  0  0  0  0  0
  145.5295  138.3009  153.5790 O   0  0  0  0  0  0  0  0  0  0  0  0
  146.4257  136.5407  152.4699 N   0  0  0  0  0  0  0  0  0  0  0  0
  145.1988  135.7715  152.2718 C   0  0  0  0  0  0  0  0  0  0  0  0
  145.3249  134.2993  152.7044 C   0  0  0  0  0  0  0  0  0  0  0  0
  145.6190  134.0232  153.8691 O   0  0  0  0  0  0  0  0  0  0  0  0
  145.1200  133.3443  151.7738 N   0  0  0  0  0  0  0  0  0  0  0  0
  144.7906  133.5772  150.3678 C   0  0  0  0  0  0  0  0  0  0  0  0
  144.9211  132.2165  149.6827 C   0  0  0  0  0  0  0  0  0  0  0  0
  144.6799  131.2120  150.8010 C   0  0  0  0  0  0  0  0  0  0  0  0
  145.2105  131.9124  152.0524 C   0  0  0  0  0  0  0  0  0  0  0  0
  152.1505  137.2679  154.3870 H   0  0  0  0  0  0  0  0  0  0  0  0
  151.7847  138.5028  155.5870 H   0  0  0  0  0  0  0  0  0  0  0  0
  152.2895  138.9663  153.9456 H   0  0  0  0  0  0  0  0  0  0  0  0
  149.9256  142.4528  155.2987 H   0  0  0  0  0  0  0  0  0  0  0  0
  147.5596  142.6237  154.4892 H   0  0  0  0  0  0  0  0  0  0  0  0
  146.4929  140.6305  153.4723 H   0  0  0  0  0  0  0  0  0  0  0  0
  148.4492  137.6105  152.6348 H   0  0  0  0  0  0  0  0  0  0  0  0
  147.2779  136.1347  152.1127 H   0  0  0  0  0  0  0  0  0  0  0  0
  144.3748  136.2503  152.8034 H   0  0  0  0  0  0  0  0  0  0  0  0
  144.9516  135.8032  151.2105 H   0  0  0  0  0  0  0  0  0  0  0  0
  143.7640  133.9402  150.2985 H   0  0  0  0  0  0  0  0  0  0  0  0
  145.4462  134.3141  149.9022 H   0  0  0  0  0  0  0  0  0  0  0  0
  144.2305  132.0953  148.8478 H   0  0  0  0  0  0  0  0  0  0  0  0
  145.9347  132.0965  149.2976 H   0  0  0  0  0  0  0  0  0  0  0  0
  143.6085  131.0357  150.9063 H   0  0  0  0  0  0  0  0  0  0  0  0
  145.1606  130.2505  150.6187 H   0  0  0  0  0  0  0  0  0  0  0  0
  146.2555  131.6506  152.2242 H   0  0  0  0  0  0  0  0  0  0  0  0
  144.6394  131.6291  152.9380 H   0  0  0  0  0  0  0  0  0  0  0  0
  1  2  1  0  0  0  0
  1 21  1  0  0  0  0
  1 22  1  0  0  0  0
  1 23  1  0  0  0  0
  2  3  1  0  0  0  0
  3  8  1  0  0  0  0
  3  4  2  0  0  0  0
  4  5  1  0  0  0  0
  5  6  2  0  0  0  0
  5 24  1  0  0  0  0
  6  7  1  0  0  0  0
  6 25  1  0  0  0  0
  7  8  2  0  0  0  0
  7 26  1  0  0  0  0
  8  9  1  0  0  0  0
  9 10  1  0  0  0  0
  9 27  1  0  0  0  0
 10 11  2  0  0  0  0
 10 12  1  0  0  0  0
 12 13  1  0  0  0  0
 12 28  1  0  0  0  0
 13 14  1  0  0  0  0
 13 29  1  0  0  0  0
 13 30  1  0  0  0  0
 14 15  2  0  0  0  0
 14 16  1  0  0  0  0
 16 20  1  0  0  0  0
 16 17  1  0  0  0  0
 17 18  1  0  0  0  0
 17 31  1  0  0  0  0
 17 32  1  0  0  0  0
 18 19  1  0  0  0  0
 18 33  1  0  0  0  0
 18 34  1  0  0  0  0
 19 20  1  0  0  0  0
 19 35  1  0  0  0  0
 19 36  1  0  0  0  0
 20 37  1  0  0  0  0
 20 38  1  0  0  0  0
M  END
> <s_m_source_file>
AV-unprocessed.smi

> <i_m_source_file_index>
1193

> <i_lp_mmshare_version>
43012

> <i_f3d_flags>
0

> <s_epik_input>
W0NIM11PYzFuW2NIXVtjSF1bY0hdYzFbTkhdQyg9TylbTkhdW0NIMl1DKD1PKU4yW0NIMl1bQ0gyXVtDSDJdW0NIMl0y

> <s_epik_cmdline>
J2VwaWtfcHl0aG9uJywgJy1waCcsICc3LjAnLCAnLXRuJywgJzgnLCAnLW1hJywgJzIwMCcsICctbWV0YWxfYmluZGluZycsICctaW1hZScsICc8aW5maWxlLm1hZT4nLCAnLW9tYWUnLCAnPG91dGZpbGUubWFlPic=

> <r_lp_tautomer_probability>
1

> <r_epik_Ionization_Penalty>
0.000141665

> <r_epik_Ionization_Penalty_Charging>
0

> <r_epik_Ionization_Penalty_Neutral>
0.000141665

> <r_epik_State_Penalty>
-0

> <r_epik_Charging_Adjusted_Penalty>
0

> <i_epik_Tot_Q>
0

> <i_epik_Tot_abs_Q>
0

> <r_epik_Metal_State_Penalty>
-0

> <b_epik_Metal_Only>
0

> <s_lp_Force_Field>
OPLS_2005

> <r_lp_Energy>
26.7485

> <b_lp_Chiralities_Consistent>
1

> <s_lp_Variant>
AV-unprocessed.smi:1193-1

> <Gold.Version>
5.8.1

> <Gold.Id.Protein>
6NUR|6NUR_protein|mol2

> <Gold.PLP.Fitness>
44.0102

> <Gold.PLP.PLP>
-32.8589

> <Gold.PLP.part.hbond>
-3.2440

> <Gold.PLP.part.metal>
0.0000

> <Gold.PLP.part.buried>
-2.5101

> <Gold.PLP.part.nonpolar>
-28.6500

> <Gold.PLP.part.repulsive>
1.1378

> <Gold.PLP.ligand.clash>
0.0000

> <Gold.PLP.ligand.torsion>
0.2371

> <Gold.PLP.Chemscore.Hbond>
2.9600

> <Gold.PLP.Chemscore.CHOScore>
0.9131

> <Gold.PLP.Chemscore.Metal>
0.0000

> <Gold.Chemscore.Hbonds>
donor molecule, donor type, donor heavy atom, donor atom, acceptor molecule, acceptor atom, score
      L1  H     9    27       P1  7948  1.00
      L1  H    12    28       P1  7948  1.00
      P1  H  7989  7998       L1     4  0.96
      L1  C     5    24       P1  8028  0.91

> <Gold.PLP.Chemscore.Internal.Correction>
0.0064

> <Gold.Rescore>
     Score         DG    S(hbond)    S(metal)    S(lipo)     H(rot)  DE(clash)    DE(int)     intcor
     15.55     -17.01       2.18        0.00      70.77       1.58       0.17       1.28       ----

> <Gold.Chemscore.Fitness>
15.5524

> <Gold.Chemscore.DG>
-17.0082

> <Gold.Chemscore.ZeroCoef>
-5.4800

> <Gold.Chemscore.Hbond>
2.1837

> <Gold.Chemscore.Metal>
0.0000

> <Gold.Chemscore.Lipo>
70.7731

> <Gold.Chemscore.Internal_Hbond>
0.0000

> <Gold.Chemscore.DEClash>
0.1724

> <Gold.Chemscore.DEInternal>
1.2834

> <Gold.Chemscore.Rot>
1.5804

> <Gold.Chemscore.Internal.Correction>
   9.000000E+99

> <Gold.Chemscore.Hbonds>
donor molecule, donor type, donor heavy atom, donor atom, acceptor molecule, acceptor atom, score
      L1  H     9    27       P1  7948  0.98
      L1  H    12    28       P1  7948  0.95
      P1  H  7989  7998       L1     4  0.16

> <Gold.Chemscore.Hbond.Weighted>
-7.2937

> <Gold.Chemscore.Metal.Weighted>
-0.0000

> <Gold.Chemscore.Lipo.Weighted>
-8.2805

> <Gold.Chemscore.Internal_Hbond.Weighted>
0.0000

> <Gold.Chemscore.DEClash.Weighted>
0.1724

> <Gold.Chemscore.DEInternal.Weighted>
1.2834

> <Gold.Chemscore.Rot.Weighted>
4.0459

> <Gold.Chemscore.Internal.Correction.Weighted>
   9.000000E+99

> <Gold.Protein.RotatedTorsions>
[ 6907 6896 6895 6894 ] final -153.55 input  -60.11 | X-H torsion
[ 7974 7965 7964 7962 ] final  -72.40 input  175.53 | X-H torsion
[ 8008 7997 7996 7995 ] final   98.24 input   59.86 | X-H torsion
[ 10167 10162 10161 10158 ] final  133.55 input  -65.29 | X-H torsion
[ 10718 10713 10712 10709 ] final   37.03 input   66.30 | X-H torsion
[ 10763 10752 10751 10750 ] final  -53.67 input  -60.55 | X-H torsion
[ 11005 11000 10999 10996 ] final  137.86 input  -57.11 | X-H torsion

> <Gold.Protein.ActiveResidues>
 VAL166  LYS551  ARG553  GLY616  TRP617  ASP618  TYR619  PRO620  LYS621  CYS622 
 ASP623  PHE694  ASN695  SER759  ASP760  ASP761  ALA762  ILE779  LEU786  VAL792 
 PHE793  MET794  SER795  GLU796  ALA797  LYS798  CYS799  TRP800  GLU811  SER814 

> <Gold.Protein.RotatedAtoms>
  151.2442  133.4383  159.2608 H   0  0  0  0  0  0  0  0  0  0  0  0  # atno 6907 bound_to 6896
  151.0677  134.9778  159.8303 H   0  0  0  0  0  0  0  0  0  0  0  0  # atno 6908 bound_to 6896
  152.5407  134.2389  159.8907 H   0  0  0  0  0  0  0  0  0  0  0  0  # atno 6909 bound_to 6896
  145.6656  140.9238  143.0910 H   0  0  0  0  0  0  0  0  0  0  0  0  # atno 7974 bound_to 7965
  156.0984  140.3246  155.7908 H   0  0  0  0  0  0  0  0  0  0  0  0  # atno 8008 bound_to 7997
  155.4879  140.0559  157.2975 H   0  0  0  0  0  0  0  0  0  0  0  0  # atno 8009 bound_to 7997
  154.4681  140.1998  156.0081 H   0  0  0  0  0  0  0  0  0  0  0  0  # atno 8010 bound_to 7997
  139.5292  144.6610  151.5013 H   0  0  0  0  0  0  0  0  0  0  0  0  # atno 10167 bound_to 10162
  157.3420  130.7553  149.6918 H   0  0  0  0  0  0  0  0  0  0  0  0  # atno 10718 bound_to 10713
  154.1625  135.6472  153.4989 H   0  0  0  0  0  0  0  0  0  0  0  0  # atno 10763 bound_to 10752
  153.0106  135.5364  154.6696 H   0  0  0  0  0  0  0  0  0  0  0  0  # atno 10764 bound_to 10752
  154.6013  135.2944  155.0503 H   0  0  0  0  0  0  0  0  0  0  0  0  # atno 10765 bound_to 10752
  140.0143  134.9425  157.0344 H   0  0  0  0  0  0  0  0  0  0  0  0  # atno 11005 bound_to 11000
  144.7074  139.8506  143.7425 LP  0  0  0  0  0  0  0  0  0  0  0  0  # atno 17320 bound_to 7965
  146.1088  139.4091  143.0300 LP  0  0  0  0  0  0  0  0  0  0  0  0  # atno 17321 bound_to 7965
  140.6458  143.8797  150.6736 LP  0  0  0  0  0  0  0  0  0  0  0  0  # atno 17342 bound_to 10162
  140.2146  143.3856  152.1691 LP  0  0  0  0  0  0  0  0  0  0  0  0  # atno 17343 bound_to 10162
  155.9709  130.4165  150.4233 LP  0  0  0  0  0  0  0  0  0  0  0  0  # atno 17370 bound_to 10713
  157.2283  131.0498  151.2507 LP  0  0  0  0  0  0  0  0  0  0  0  0  # atno 17371 bound_to 10713
  140.4498  134.1594  155.7180 LP  0  0  0  0  0  0  0  0  0  0  0  0  # atno 17394 bound_to 11000
  141.1732  133.8566  157.1504 LP  0  0  0  0  0  0  0  0  0  0  0  0  # atno 17395 bound_to 11000

$$$$
