AV-unprocessed.smi:1273|AV-procd|sdf|5338|dock1
  -GOLD-   22720 4463D 1   1.00000     0.00000
 Structure written by MMmdl.
 40 41  0  0  0  0  0  0  0  0  1 V2000
  156.7350  135.4964  160.9321 C   0  0  0  0  0  0  0  0  0  0  0  0
  155.3958  135.6024  161.6794 C   0  0  2  0  0  0  0  0  0  0  0  0
  154.5557  136.7855  161.1788 C   0  0  0  0  0  0  0  0  0  0  0  0
  153.4880  136.5787  160.6031 O   0  0  0  0  0  0  0  0  0  0  0  0
  155.0776  138.0066  161.4018 N   0  0  0  0  0  0  0  0  0  0  0  0
  154.5470  139.2771  161.0518 C   0  0  0  0  0  0  0  0  0  0  0  0
  153.5948  139.3321  160.0158 C   0  0  0  0  0  0  0  0  0  0  0  0
  153.0644  140.5782  159.6320 C   0  0  0  0  0  0  0  0  0  0  0  0
  153.5052  141.7488  160.2933 C   0  0  0  0  0  0  0  0  0  0  0  0
  152.9863  143.0107  159.9288 N   0  0  0  0  0  0  0  0  0  0  0  0
  152.3318  143.8084  160.9647 C   0  0  0  0  0  0  0  0  0  0  0  0
  152.0984  145.2453  160.4686 C   0  0  0  0  0  0  0  0  0  0  0  0
  151.3637  145.2184  159.2497 O   0  0  0  0  0  0  0  0  0  0  0  0
  152.0707  144.5328  158.2219 C   0  0  0  0  0  0  0  0  0  0  0  0
  152.3065  143.0701  158.6368 C   0  0  0  0  0  0  0  0  0  0  0  0
  154.4370  141.6968  161.2766 N   0  0  0  0  0  0  0  0  0  0  0  0
  154.9422  140.5002  161.6431 C   0  0  0  0  0  0  0  0  0  0  0  0
  155.7007  135.7639  163.5015 S   0  0  0  0  0  0  0  0  0  0  0  0
  155.0407  134.1827  164.1792 C   0  0  0  0  0  0  0  0  0  0  0  0
  157.1556  135.7839  163.7183 O   0  0  0  0  0  0  0  0  0  0  0  0
  154.8793  136.8642  164.0296 O   0  0  0  0  0  0  0  0  0  0  0  0
  156.5842  135.4297  159.8540 H   0  0  0  0  0  0  0  0  0  0  0  0
  157.2817  134.6056  161.2420 H   0  0  0  0  0  0  0  0  0  0  0  0
  157.3739  136.3581  161.1290 H   0  0  0  0  0  0  0  0  0  0  0  0
  154.8405  134.6757  161.5286 H   0  0  0  0  0  0  0  0  0  0  0  0
  155.9962  138.0243  161.8203 H   0  0  0  0  0  0  0  0  0  0  0  0
  153.2711  138.4303  159.5169 H   0  0  0  0  0  0  0  0  0  0  0  0
  152.3432  140.6214  158.8297 H   0  0  0  0  0  0  0  0  0  0  0  0
  151.3801  143.3456  161.2294 H   0  0  0  0  0  0  0  0  0  0  0  0
  152.9446  143.8348  161.8667 H   0  0  0  0  0  0  0  0  0  0  0  0
  151.5355  145.8117  161.2106 H   0  0  0  0  0  0  0  0  0  0  0  0
  153.0468  145.7653  160.3234 H   0  0  0  0  0  0  0  0  0  0  0  0
  151.4859  144.5721  157.3028 H   0  0  0  0  0  0  0  0  0  0  0  0
  153.0172  145.0362  158.0183 H   0  0  0  0  0  0  0  0  0  0  0  0
  152.8757  142.5696  157.8551 H   0  0  0  0  0  0  0  0  0  0  0  0
  151.3525  142.5479  158.7178 H   0  0  0  0  0  0  0  0  0  0  0  0
  155.6949  140.5484  162.4142 H   0  0  0  0  0  0  0  0  0  0  0  0
  155.2520  134.1348  165.2474 H   0  0  0  0  0  0  0  0  0  0  0  0
  155.5194  133.3410  163.6792 H   0  0  0  0  0  0  0  0  0  0  0  0
  153.9623  134.1345  164.0291 H   0  0  0  0  0  0  0  0  0  0  0  0
  1  2  1  0  0  0  0
  1 22  1  0  0  0  0
  1 23  1  0  0  0  0
  1 24  1  0  0  0  0
  2  3  1  0  0  0  0
  2 18  1  0  0  0  0
  2 25  1  0  0  0  0
  3  4  2  0  0  0  0
  3  5  1  0  0  0  0
  5  6  1  0  0  0  0
  5 26  1  0  0  0  0
  6 17  1  0  0  0  0
  6  7  2  0  0  0  0
  7  8  1  0  0  0  0
  7 27  1  0  0  0  0
  8  9  2  0  0  0  0
  8 28  1  0  0  0  0
  9 10  1  0  0  0  0
  9 16  1  0  0  0  0
 10 15  1  0  0  0  0
 10 11  1  0  0  0  0
 11 12  1  0  0  0  0
 11 29  1  0  0  0  0
 11 30  1  0  0  0  0
 12 13  1  0  0  0  0
 12 31  1  0  0  0  0
 12 32  1  0  0  0  0
 13 14  1  0  0  0  0
 14 15  1  0  0  0  0
 14 33  1  0  0  0  0
 14 34  1  0  0  0  0
 15 35  1  0  0  0  0
 15 36  1  0  0  0  0
 16 17  2  0  0  0  0
 17 37  1  0  0  0  0
 18 19  1  0  0  0  0
 18 20  2  0  0  0  0
 18 21  2  0  0  0  0
 19 38  1  0  0  0  0
 19 39  1  0  0  0  0
 19 40  1  0  0  0  0
M  END
> <s_m_source_file>
AV-unprocessed.smi

> <i_m_source_file_index>
1273

> <i_lp_mmshare_version>
43012

> <i_f3d_flags>
0

> <s_epik_input>
W0NIM11TKD1PKSg9TylbQ0BIXShbQ0gzXSlDKD1PKVtOSF1jMVtjSF1bY0hdYyhuW2NIXTEpTjJbQ0gyXVtDSDJdT1tDSDJdW0NIMl0y

> <s_epik_cmdline>
J2VwaWtfcHl0aG9uJywgJy1waCcsICc3LjAnLCAnLXRuJywgJzgnLCAnLW1hJywgJzIwMCcsICctbWV0YWxfYmluZGluZycsICctaW1hZScsICc8aW5maWxlLm1hZT4nLCAnLW9tYWUnLCAnPG91dGZpbGUubWFlPic=

> <r_lp_tautomer_probability>
1

> <r_epik_Ionization_Penalty>
0.000253983

> <r_epik_Ionization_Penalty_Charging>
0

> <r_epik_Ionization_Penalty_Neutral>
0.000253983

> <r_epik_State_Penalty>
-0

> <r_epik_Charging_Adjusted_Penalty>
0

> <i_epik_Tot_Q>
0

> <i_epik_Tot_abs_Q>
0

> <r_epik_Metal_State_Penalty>
-0

> <b_epik_Metal_Only>
0

> <s_lp_Force_Field>
OPLS_2005

> <r_lp_Energy>
19.002

> <b_lp_Chiralities_Consistent>
1

> <s_lp_Variant>
AV-unprocessed.smi:1273-1

> <Gold.Version>
5.8.1

> <Gold.Id.Protein>
6NUR|6NUR_protein|mol2

> <Gold.PLP.Fitness>
43.3033

> <Gold.PLP.PLP>
-41.0697

> <Gold.PLP.part.hbond>
-1.7028

> <Gold.PLP.part.metal>
0.0000

> <Gold.PLP.part.buried>
-7.2383

> <Gold.PLP.part.nonpolar>
-32.3604

> <Gold.PLP.part.repulsive>
0.2477

> <Gold.PLP.ligand.clash>
0.0000

> <Gold.PLP.ligand.torsion>
0.5027

> <Gold.PLP.Chemscore.Hbond>
0.9100

> <Gold.PLP.Chemscore.CHOScore>
0.0000

> <Gold.PLP.Chemscore.Metal>
0.0000

> <Gold.Chemscore.Hbonds>
donor molecule, donor type, donor heavy atom, donor atom, acceptor molecule, acceptor atom, score
      P1  H  6896  6907       L1     4  0.70

> <Gold.PLP.Chemscore.Internal.Correction>
0.5090

> <Gold.Rescore>
     Score         DG    S(hbond)    S(metal)    S(lipo)     H(rot)  DE(clash)    DE(int)     intcor
     12.89     -15.94       0.97        0.00      95.89       1.56       0.08       2.98       ----

> <Gold.Chemscore.Fitness>
12.8874

> <Gold.Chemscore.DG>
-15.9432

> <Gold.Chemscore.ZeroCoef>
-5.4800

> <Gold.Chemscore.Hbond>
0.9713

> <Gold.Chemscore.Metal>
0.0000

> <Gold.Chemscore.Lipo>
95.8873

> <Gold.Chemscore.Internal_Hbond>
0.0000

> <Gold.Chemscore.DEClash>
0.0786

> <Gold.Chemscore.DEInternal>
2.9772

> <Gold.Chemscore.Rot>
1.5624

> <Gold.Chemscore.Internal.Correction>
   9.000000E+99

> <Gold.Chemscore.Hbonds>
donor molecule, donor type, donor heavy atom, donor atom, acceptor molecule, acceptor atom, score
      P1  H  6896  6907       L1     4  0.71

> <Gold.Chemscore.Hbond.Weighted>
-3.2440

> <Gold.Chemscore.Metal.Weighted>
-0.0000

> <Gold.Chemscore.Lipo.Weighted>
-11.2188

> <Gold.Chemscore.Internal_Hbond.Weighted>
0.0000

> <Gold.Chemscore.DEClash.Weighted>
0.0786

> <Gold.Chemscore.DEInternal.Weighted>
2.9772

> <Gold.Chemscore.Rot.Weighted>
3.9996

> <Gold.Chemscore.Internal.Correction.Weighted>
   9.000000E+99

> <Gold.Protein.RotatedTorsions>
[ 6907 6896 6895 6894 ] final   35.08 input  -60.11 | X-H torsion
[ 7974 7965 7964 7962 ] final   51.04 input  175.53 | X-H torsion
[ 8008 7997 7996 7995 ] final   86.69 input   59.86 | X-H torsion
[ 10167 10162 10161 10158 ] final   31.94 input  -65.29 | X-H torsion
[ 10718 10713 10712 10709 ] final  120.58 input   66.30 | X-H torsion
[ 10763 10752 10751 10750 ] final  -74.46 input  -60.55 | X-H torsion
[ 11005 11000 10999 10996 ] final  -96.63 input  -57.11 | X-H torsion

> <Gold.Protein.ActiveResidues>
 VAL166  LYS551  ARG553  GLY616  TRP617  ASP618  TYR619  PRO620  LYS621  CYS622 
 ASP623  PHE694  ASN695  SER759  ASP760  ASP761  ALA762  ILE779  LEU786  VAL792 
 PHE793  MET794  SER795  GLU796  ALA797  LYS798  CYS799  TRP800  GLU811  SER814 

> <Gold.Protein.RotatedAtoms>
  152.1112  134.9273  160.0566 H   0  0  0  0  0  0  0  0  0  0  0  0  # atno 6907 bound_to 6896
  152.0450  133.3989  159.4361 H   0  0  0  0  0  0  0  0  0  0  0  0  # atno 6908 bound_to 6896
  150.6843  134.3293  159.4864 H   0  0  0  0  0  0  0  0  0  0  0  0  # atno 6909 bound_to 6896
  145.9952  139.4381  143.0049 H   0  0  0  0  0  0  0  0  0  0  0  0  # atno 7974 bound_to 7965
  155.9659  140.3389  155.6532 H   0  0  0  0  0  0  0  0  0  0  0  0  # atno 8008 bound_to 7997
  155.6737  140.0730  157.2528 H   0  0  0  0  0  0  0  0  0  0  0  0  # atno 8009 bound_to 7997
  154.4154  140.1687  156.1895 H   0  0  0  0  0  0  0  0  0  0  0  0  # atno 8010 bound_to 7997
  140.4543  144.1001  150.6198 H   0  0  0  0  0  0  0  0  0  0  0  0  # atno 10167 bound_to 10162
  157.5880  131.1067  150.8055 H   0  0  0  0  0  0  0  0  0  0  0  0  # atno 10718 bound_to 10713
  154.4733  135.5864  153.6337 H   0  0  0  0  0  0  0  0  0  0  0  0  # atno 10763 bound_to 10752
  152.9837  135.6072  154.3339 H   0  0  0  0  0  0  0  0  0  0  0  0  # atno 10764 bound_to 10752
  154.3223  135.2843  155.2493 H   0  0  0  0  0  0  0  0  0  0  0  0  # atno 10765 bound_to 10752
  141.1405  133.8112  157.0597 H   0  0  0  0  0  0  0  0  0  0  0  0  # atno 11005 bound_to 11000
  145.7570  140.9950  143.1220 LP  0  0  0  0  0  0  0  0  0  0  0  0  # atno 17320 bound_to 7965
  144.6901  139.9283  143.7471 LP  0  0  0  0  0  0  0  0  0  0  0  0  # atno 17321 bound_to 7965
  140.4169  143.2630  151.9763 LP  0  0  0  0  0  0  0  0  0  0  0  0  # atno 17342 bound_to 10162
  139.4799  144.5865  151.7844 LP  0  0  0  0  0  0  0  0  0  0  0  0  # atno 17343 bound_to 10162
  156.8485  130.5072  149.5314 LP  0  0  0  0  0  0  0  0  0  0  0  0  # atno 17370 bound_to 10713
  156.0931  130.5911  150.9767 LP  0  0  0  0  0  0  0  0  0  0  0  0  # atno 17371 bound_to 10713
  140.0579  134.9771  157.1253 LP  0  0  0  0  0  0  0  0  0  0  0  0  # atno 17394 bound_to 11000
  140.3892  134.2203  155.7167 LP  0  0  0  0  0  0  0  0  0  0  0  0  # atno 17395 bound_to 11000

$$$$
