#       Name:                AV-unprocessed.smi:795
#       Creating user name   scv26
#       Creation time:       Fri Mar 27 01:19:52 2020


#       File generated by GOLD software.
#

@<TRIPOS>MOLECULE
AV-unprocessed.smi:795
    55    58     1
SMALL
NO_CHARGES


@<TRIPOS>ATOM
      1 ****        -3.7062   0.6914   2.5313 C.3            1 S1                 0.0000
      2 ****        -3.0887  -0.6723   2.3765 C.2            1 S1                 0.0000
      3 ****        -1.8033  -0.7156   2.2510 N.2            1 S1                 0.0000
      4 ****        -1.1336  -1.9145   2.0984 N.am           1 S1                 0.0000
      5 ****         0.3180  -1.7601   1.9316 C.3            1 S1                 0.0000
      6 ****         0.7130  -1.5613   0.4626 C.2            1 S1                 0.0000
      7 ****         0.2507  -2.2903  -0.4154 O.2            1 S1                 0.0000
      8 ****         1.5825  -0.5707   0.2140 N.am           1 S1                 0.0000
      9 ****         2.0654  -0.1734  -1.1071 C.3            1 S1                 0.0000
     10 ****         3.2901   0.7679  -0.9871 C.3            1 S1                 0.0000
     11 ****         2.8853   2.1123  -0.3354 C.3            1 S1                 0.0000
     12 ****         1.8022   2.7964  -1.1970 C.3            1 S1                 0.0000
     13 ****         2.3633   3.0651  -2.6102 C.3            1 S1                 0.0000
     14 ****         2.7710   1.7259  -3.2618 C.3            1 S1                 0.0000
     15 ****         3.8548   1.0409  -2.3991 C.3            1 S1                 0.0000
     16 ****         1.5325   0.8084  -3.3669 C.3            1 S1                 0.0000
     17 ****         0.9731   0.5371  -1.9525 C.3            1 S1                 0.0000
     18 ****         0.5649   1.8789  -1.3003 C.3            1 S1                 0.0000
     19 ****        -1.7329  -3.1401   2.0741 C.2            1 S1                 0.0000
     20 ****        -1.0982  -4.1868   1.9377 O.2            1 S1                 0.0000
     21 ****        -3.1895  -3.0838   2.2189 C.2            1 S1                 0.0000
     22 ****        -3.8569  -4.3454   2.1959 C.1            1 S1                 0.0000
     23 ****        -4.4163  -5.3588   2.1852 N.1            1 S1                 0.0000
     24 ****        -3.8580  -1.9120   2.3621 C.2            1 S1                 0.0000
     25 ****        -5.3689  -1.7991   2.5129 C.3            1 S1                 0.0000
     26 ****        -4.2581   0.7632   3.4688 H              1 S1                 0.0000
     27 ****        -4.3972   0.8978   1.7138 H              1 S1                 0.0000
     28 ****        -2.9533   1.4813   2.5319 H              1 S1                 0.0000
     29 ****         0.6639  -0.9108   2.5246 H              1 S1                 0.0000
     30 ****         0.8576  -2.6231   2.3247 H              1 S1                 0.0000
     31 ****         1.9170  -0.0298   0.9982 H              1 S1                 0.0000
     32 ****         2.3790  -1.0839  -1.6218 H              1 S1                 0.0000
     33 ****         4.0612   0.2893  -0.3819 H              1 S1                 0.0000
     34 ****         2.5174   1.9549   0.6791 H              1 S1                 0.0000
     35 ****         3.7567   2.7618  -0.2436 H              1 S1                 0.0000
     36 ****         1.5149   3.7415  -0.7353 H              1 S1                 0.0000
     37 ****         1.6160   3.5708  -3.2229 H              1 S1                 0.0000
     38 ****         3.2216   3.7357  -2.5549 H              1 S1                 0.0000
     39 ****         3.1678   1.9144  -4.2598 H              1 S1                 0.0000
     40 ****         4.7414   1.6731  -2.3354 H              1 S1                 0.0000
     41 ****         4.1756   0.1086  -2.8654 H              1 S1                 0.0000
     42 ****         0.7693   1.2744  -3.9915 H              1 S1                 0.0000
     43 ****         1.7973  -0.1302  -3.8553 H              1 S1                 0.0000
     44 ****         0.0940  -0.1016  -2.0423 H              1 S1                 0.0000
     45 ****         0.1326   1.7107  -0.3133 H              1 S1                 0.0000
     46 ****        -0.2124   2.3623  -1.8932 H              1 S1                 0.0000
     47 ****        -5.8634  -2.7677   2.4482 H              1 S1                 0.0000
     48 ****        -5.7869  -1.1677   1.7282 H              1 S1                 0.0000
     49 ****        -5.6247  -1.3627   3.4790 H              1 S1                 0.0000
     50 ****        -1.2817   0.1374   2.2646 LP             1 S1                 0.0000
     51 ****        -0.3887  -3.0203  -0.1738 LP             1 S1                 0.0000
     52 ****         0.5146  -2.1524  -1.3700 LP             1 S1                 0.0000
     53 ****        -0.1035  -4.1592   1.8393 LP             1 S1                 0.0000
     54 ****        -1.5777  -5.0643   1.9254 LP             1 S1                 0.0000
     55 ****        -4.8996  -6.2343   2.1760 LP             1 S1                 0.0000
@<TRIPOS>BOND
    1    1    2 1     
    2    1   26 1     
    3    1   27 1     
    4    1   28 1     
    5    2   24 1     
    6    2    3 2     
    7    3    4 1     
    8    4    5 1     
    9    4   19 am    
   10    5    6 1     
   11    5   29 1     
   12    5   30 1     
   13    6    7 2     
   14    6    8 am    
   15    8    9 1     
   16    8   31 1     
   17    9   17 1     
   18    9   10 1     
   19    9   32 1     
   20   10   15 1     
   21   10   11 1     
   22   10   33 1     
   23   11   12 1     
   24   11   34 1     
   25   11   35 1     
   26   12   18 1     
   27   12   13 1     
   28   12   36 1     
   29   13   14 1     
   30   13   37 1     
   31   13   38 1     
   32   14   15 1     
   33   14   16 1     
   34   14   39 1     
   35   15   40 1     
   36   15   41 1     
   37   16   17 1     
   38   16   42 1     
   39   16   43 1     
   40   17   18 1     
   41   17   44 1     
   42   18   45 1     
   43   18   46 1     
   44   19   20 2     
   45   19   21 1     
   46   21   22 1     
   47   21   24 2     
   48   22   23 3     
   49   24   25 1     
   50   25   47 1     
   51   25   48 1     
   52   25   49 1     
   53    3   50 1     
   54    7   51 1     
   55    7   52 1     
   56   20   53 1     
   57   20   54 1     
   58   23   55 1     
@<TRIPOS>SUBSTRUCTURE
      1 S1             1
@<TRIPOS>SET
LONE_PAIRS      STATIC     ATOMS    <user>   **** ""
6 50 51 52 53 54 55
DONOR_HYDROGENS      STATIC     ATOMS    <user>   **** ""
1 31
ATOM$BLUE        STATIC     ATOMS    COLORGROUP SYSTEM
6 50 51 52 53 54 55
ATOM$RED        STATIC     ATOMS    COLORGROUP SYSTEM
1 31
