AV-unprocessed.smi:1867|AV-procd|sdf|7579|dock3
  -GOLD-   22720 9293D 1   1.00000     0.00000
 Structure written by MMmdl.
 52 55  0  0  0  0  0  0  0  0  4 V2000
  152.9791  136.9357  160.4152 O   0  0  0  0  0  0  0  0  0  0  0  0
  154.1287  137.0831  160.8256 C   0  0  0  0  0  0  0  0  0  0  0  0
  154.6549  138.3317  160.8773 N   0  0  0  0  0  0  0  0  0  0  0  0
  154.0365  139.5790  160.5936 C   0  0  0  0  0  0  0  0  0  0  0  0
  154.4024  140.6900  161.3814 C   0  0  0  0  0  0  0  0  0  0  0  0
  153.7980  141.9426  161.1492 C   0  0  0  0  0  0  0  0  0  0  0  0
  152.8223  142.0722  160.1328 C   0  0  0  0  0  0  0  0  0  0  0  0
  152.1763  143.2897  159.8459 N   0  0  0  0  0  0  0  0  0  0  0  0
  152.1457  143.8287  158.4951 C   0  0  0  0  0  0  0  0  0  0  0  0
  151.5510  145.2274  158.6502 C   0  0  0  0  0  0  0  0  0  0  0  0
  152.0458  145.6622  160.0294 C   0  0  0  0  0  0  0  0  0  0  0  0
  152.1064  144.3580  160.8333 C   0  0  0  0  0  0  0  0  0  0  0  0
  152.4846  140.9729  159.4175 N   0  3  0  0  0  0  0  0  0  0  0  0
  153.0391  139.7559  159.6057 C   0  0  0  0  0  0  0  0  0  0  0  0
  154.8854  136.0105  161.2073 N   0  5  0  0  0  0  0  0  0  0  0  0
  154.5198  134.8681  162.0628 C   0  0  1  0  0  0  0  0  0  0  0  0
  155.5180  133.7203  161.8628 C   0  0  0  0  0  0  0  0  0  0  0  0
  156.6910  134.0176  162.8165 C   0  0  0  0  0  0  0  0  0  0  0  0
  156.2086  135.0052  163.8160 N   0  3  1  0  0  0  0  0  0  0  0  0
  157.0338  136.2477  163.8387 C   0  0  0  0  0  0  0  0  0  0  0  0
  156.4016  137.3529  164.6928 C   0  0  0  0  0  0  0  0  0  0  0  0
  155.0169  137.7054  164.1456 C   0  0  0  0  0  0  0  0  0  0  0  0
  154.1172  136.4628  164.1851 C   0  0  0  0  0  0  0  0  0  0  0  0
  154.7536  135.1925  163.5536 C   0  0  1  0  0  0  0  0  0  0  0  0
  155.6360  138.3773  161.1106 H   0  0  0  0  0  0  0  0  0  0  0  0
  155.1457  140.5871  162.1584 H   0  0  0  0  0  0  0  0  0  0  0  0
  154.0855  142.7858  161.7593 H   0  0  0  0  0  0  0  0  0  0  0  0
  153.1614  143.8849  158.1006 H   0  0  0  0  0  0  0  0  0  0  0  0
  151.5475  143.2083  157.8268 H   0  0  0  0  0  0  0  0  0  0  0  0
  151.8521  145.9077  157.8531 H   0  0  0  0  0  0  0  0  0  0  0  0
  150.4617  145.1688  158.6516 H   0  0  0  0  0  0  0  0  0  0  0  0
  153.0484  146.0826  159.9391 H   0  0  0  0  0  0  0  0  0  0  0  0
  151.4083  146.4156  160.4929 H   0  0  0  0  0  0  0  0  0  0  0  0
  151.2014  144.2289  161.4276 H   0  0  0  0  0  0  0  0  0  0  0  0
  152.9625  144.3576  161.5083 H   0  0  0  0  0  0  0  0  0  0  0  0
  152.6522  138.9749  158.9684 H   0  0  0  0  0  0  0  0  0  0  0  0
  153.4953  134.5330  161.8948 H   0  0  0  0  0  0  0  0  0  0  0  0
  155.0455  132.7831  162.1601 H   0  0  0  0  0  0  0  0  0  0  0  0
  155.8394  133.5988  160.8272 H   0  0  0  0  0  0  0  0  0  0  0  0
  157.0243  133.1096  163.3197 H   0  0  0  0  0  0  0  0  0  0  0  0
  157.5467  134.4021  162.2576 H   0  0  0  0  0  0  0  0  0  0  0  0
  158.0261  136.0040  164.2190 H   0  0  0  0  0  0  0  0  0  0  0  0
  157.1738  136.6231  162.8236 H   0  0  0  0  0  0  0  0  0  0  0  0
  156.3277  137.0313  165.7326 H   0  0  0  0  0  0  0  0  0  0  0  0
  157.0390  138.2374  164.6832 H   0  0  0  0  0  0  0  0  0  0  0  0
  154.5717  138.5071  164.7351 H   0  0  0  0  0  0  0  0  0  0  0  0
  155.1019  138.0820  163.1257 H   0  0  0  0  0  0  0  0  0  0  0  0
  153.9132  136.2462  165.2347 H   0  0  0  0  0  0  0  0  0  0  0  0
  153.1427  136.6863  163.7468 H   0  0  0  0  0  0  0  0  0  0  0  0
  154.2833  134.3608  164.0820 H   0  0  0  0  0  0  0  0  0  0  0  0
  156.2872  134.5934  164.7341 H   0  0  0  0  0  0  0  0  0  0  0  0
  151.7701  141.0664  158.6957 H   0  0  0  0  0  0  0  0  0  0  0  0
  1  2  2  0  0  0  0
  2  3  1  0  0  0  0
  2 15  1  0  0  0  0
  3  4  1  0  0  0  0
  3 25  1  0  0  0  0
  4 14  1  0  0  0  0
  4  5  2  0  0  0  0
  5  6  1  0  0  0  0
  5 26  1  0  0  0  0
  6  7  2  0  0  0  0
  6 27  1  0  0  0  0
  7  8  1  0  0  0  0
  7 13  1  0  0  0  0
  8 12  1  0  0  0  0
  8  9  1  0  0  0  0
  9 10  1  0  0  0  0
  9 28  1  0  0  0  0
  9 29  1  0  0  0  0
 10 11  1  0  0  0  0
 10 30  1  0  0  0  0
 10 31  1  0  0  0  0
 11 12  1  0  0  0  0
 11 32  1  0  0  0  0
 11 33  1  0  0  0  0
 12 34  1  0  0  0  0
 12 35  1  0  0  0  0
 13 14  2  0  0  0  0
 13 52  1  0  0  0  0
 14 36  1  0  0  0  0
 15 16  1  0  0  0  0
 16 24  1  0  0  0  0
 16 17  1  0  0  0  0
 16 37  1  0  0  0  0
 17 18  1  0  0  0  0
 17 38  1  0  0  0  0
 17 39  1  0  0  0  0
 18 19  1  0  0  0  0
 18 40  1  0  0  0  0
 18 41  1  0  0  0  0
 19 24  1  0  0  0  0
 19 20  1  0  0  0  0
 19 51  1  0  0  0  0
 20 21  1  0  0  0  0
 20 42  1  0  0  0  0
 20 43  1  0  0  0  0
 21 22  1  0  0  0  0
 21 44  1  0  0  0  0
 21 45  1  0  0  0  0
 22 23  1  0  0  0  0
 22 46  1  0  0  0  0
 22 47  1  0  0  0  0
 23 24  1  0  0  0  0
 23 48  1  0  0  0  0
 23 49  1  0  0  0  0
 24 50  1  0  0  0  0
M  CHG  1  13   1
M  CHG  1  15  -1
M  CHG  1  19   1
M  END
> <s_m_source_file>
AV-unprocessed.smi

> <i_m_source_file_index>
1867

> <i_lp_mmshare_version>
43012

> <i_f3d_flags>
0

> <s_epik_input>
W0NIMl0xW0NIMl1bQ0gyXVtDSDJdW0NASF0oTjEyKVtDQEBIXShbQ0gyXVtDSDJdMilbTkhdQyg9TylbTkhdYzNbY0hdW2NIXWMobltjSF0zKU40W0NIMl1bQ0gyXVtDSDJdW0NIMl00

> <s_epik_cmdline>
J2VwaWtfcHl0aG9uJywgJy1waCcsICc3LjAnLCAnLXRuJywgJzgnLCAnLW1hJywgJzIwMCcsICctbWV0YWxfYmluZGluZycsICctaW1hZScsICc8aW5maWxlLm1hZT4nLCAnLW9tYWUnLCAnPG91dGZpbGUubWFlPic=

> <r_lp_tautomer_probability>
0.999994

> <r_epik_Ionization_Penalty>
8.56137

> <r_epik_Ionization_Penalty_Charging>
8.56136

> <r_epik_Ionization_Penalty_Neutral>
3.91889e-06

> <r_epik_State_Penalty>
8.16255

> <r_epik_Charging_Adjusted_Penalty>
16.7239

> <i_epik_Tot_Q>
1

> <i_epik_Tot_abs_Q>
3

> <r_epik_Metal_State_Penalty>
4.14279

> <b_epik_Metal_Only>
1

> <s_lp_Force_Field>
OPLS_2005

> <r_lp_Energy>
73.5992

> <b_lp_Chiralities_Consistent>
1

> <s_lp_Variant>
AV-unprocessed.smi:1867-20

> <Gold.Version>
5.8.1

> <Gold.Id.Protein>
6NUR|6NUR_protein|mol2

> <Gold.PLP.Fitness>
50.7581

> <Gold.PLP.PLP>
-51.3808

> <Gold.PLP.part.hbond>
-0.5820

> <Gold.PLP.part.metal>
0.0000

> <Gold.PLP.part.buried>
-6.3822

> <Gold.PLP.part.nonpolar>
-44.0400

> <Gold.PLP.part.repulsive>
0.1271

> <Gold.PLP.ligand.clash>
0.0000

> <Gold.PLP.ligand.torsion>
1.5212

> <Gold.PLP.Chemscore.Hbond>
0.7150

> <Gold.PLP.Chemscore.CHOScore>
0.0000

> <Gold.PLP.Chemscore.Metal>
0.0000

> <Gold.Chemscore.Hbonds>
donor molecule, donor type, donor heavy atom, donor atom, acceptor molecule, acceptor atom, score
      P1  H  6896  6909       L1     1  0.73

> <Gold.PLP.Chemscore.Internal.Correction>
0.2747

> <Gold.Rescore>
     Score         DG    S(hbond)    S(metal)    S(lipo)     H(rot)  DE(clash)    DE(int)     intcor
     18.04     -20.91       0.99        0.00     125.39       1.00       0.06       2.81       ----

> <Gold.Chemscore.Fitness>
18.0398

> <Gold.Chemscore.DG>
-20.9098

> <Gold.Chemscore.ZeroCoef>
-5.4800

> <Gold.Chemscore.Hbond>
0.9937

> <Gold.Chemscore.Metal>
0.0000

> <Gold.Chemscore.Lipo>
125.3907

> <Gold.Chemscore.Internal_Hbond>
0.0000

> <Gold.Chemscore.DEClash>
0.0624

> <Gold.Chemscore.DEInternal>
2.8076

> <Gold.Chemscore.Rot>
1.0000

> <Gold.Chemscore.Internal.Correction>
   9.000000E+99

> <Gold.Chemscore.Hbonds>
donor molecule, donor type, donor heavy atom, donor atom, acceptor molecule, acceptor atom, score
      P1  H  6896  6909       L1     1  0.72

> <Gold.Chemscore.Hbond.Weighted>
-3.3191

> <Gold.Chemscore.Metal.Weighted>
-0.0000

> <Gold.Chemscore.Lipo.Weighted>
-14.6707

> <Gold.Chemscore.Internal_Hbond.Weighted>
0.0000

> <Gold.Chemscore.DEClash.Weighted>
0.0624

> <Gold.Chemscore.DEInternal.Weighted>
2.8076

> <Gold.Chemscore.Rot.Weighted>
2.5600

> <Gold.Chemscore.Internal.Correction.Weighted>
   9.000000E+99

> <Gold.Protein.RotatedTorsions>
[ 6907 6896 6895 6894 ] final  151.95 input  -60.11 | X-H torsion
[ 7974 7965 7964 7962 ] final   10.30 input  175.53 | X-H torsion
[ 8008 7997 7996 7995 ] final -170.86 input   59.86 | X-H torsion
[ 10167 10162 10161 10158 ] final   11.00 input  -65.29 | X-H torsion
[ 10718 10713 10712 10709 ] final  -76.24 input   66.30 | X-H torsion
[ 10763 10752 10751 10750 ] final  -15.33 input  -60.55 | X-H torsion
[ 11005 11000 10999 10996 ] final   19.51 input  -57.11 | X-H torsion

> <Gold.Protein.ActiveResidues>
 VAL166  LYS551  ARG553  GLY616  TRP617  ASP618  TYR619  PRO620  LYS621  CYS622 
 ASP623  PHE694  ASN695  SER759  ASP760  ASP761  ALA762  ILE779  LEU786  VAL792 
 PHE793  MET794  SER795  GLU796  ALA797  LYS798  CYS799  TRP800  GLU811  SER814 

> <Gold.Protein.RotatedAtoms>
  152.0935  133.4213  159.4554 H   0  0  0  0  0  0  0  0  0  0  0  0  # atno 6907 bound_to 6896
  150.6863  134.2844  159.4649 H   0  0  0  0  0  0  0  0  0  0  0  0  # atno 6908 bound_to 6896
  152.0697  134.9541  160.0625 H   0  0  0  0  0  0  0  0  0  0  0  0  # atno 6909 bound_to 6896
  146.2390  139.9655  142.8453 H   0  0  0  0  0  0  0  0  0  0  0  0  # atno 7974 bound_to 7965
  155.9240  140.1079  157.1185 H   0  0  0  0  0  0  0  0  0  0  0  0  # atno 8008 bound_to 7997
  154.4059  140.1250  156.4781 H   0  0  0  0  0  0  0  0  0  0  0  0  # atno 8009 bound_to 7997
  155.7161  140.3470  155.4997 H   0  0  0  0  0  0  0  0  0  0  0  0  # atno 8010 bound_to 7997
  140.6159  143.8308  150.7118 H   0  0  0  0  0  0  0  0  0  0  0  0  # atno 10167 bound_to 10162
  156.0181  130.4460  150.3163 H   0  0  0  0  0  0  0  0  0  0  0  0  # atno 10718 bound_to 10713
  153.5418  135.7013  153.5633 H   0  0  0  0  0  0  0  0  0  0  0  0  # atno 10763 bound_to 10752
  153.3596  135.3973  155.1708 H   0  0  0  0  0  0  0  0  0  0  0  0  # atno 10764 bound_to 10752
  154.8672  135.3785  154.4923 H   0  0  0  0  0  0  0  0  0  0  0  0  # atno 10765 bound_to 10752
  140.4129  134.1599  155.7668 H   0  0  0  0  0  0  0  0  0  0  0  0  # atno 11005 bound_to 11000
  145.1731  140.9730  143.4310 LP  0  0  0  0  0  0  0  0  0  0  0  0  # atno 17320 bound_to 7965
  145.0010  139.3598  143.6167 LP  0  0  0  0  0  0  0  0  0  0  0  0  # atno 17321 bound_to 7965
  140.1888  143.4054  152.1879 LP  0  0  0  0  0  0  0  0  0  0  0  0  # atno 17342 bound_to 10162
  139.5398  144.7246  151.4770 LP  0  0  0  0  0  0  0  0  0  0  0  0  # atno 17343 bound_to 10162
  157.1264  131.0260  151.2987 LP  0  0  0  0  0  0  0  0  0  0  0  0  # atno 17370 bound_to 10713
  157.4586  130.7640  149.7215 LP  0  0  0  0  0  0  0  0  0  0  0  0  # atno 17371 bound_to 10713
  141.1814  133.8406  157.1244 LP  0  0  0  0  0  0  0  0  0  0  0  0  # atno 17394 bound_to 11000
  140.0254  134.9926  157.0676 LP  0  0  0  0  0  0  0  0  0  0  0  0  # atno 17395 bound_to 11000

$$$$
