#       Name:                AV-unprocessed.smi:2525
#       Creating user name   scv26
#       Creation time:       Fri Mar 27 13:57:36 2020


#       File generated by GOLD software.
#

@<TRIPOS>MOLECULE
AV-unprocessed.smi:2525
    50    51     1
SMALL
NO_CHARGES


@<TRIPOS>ATOM
      1 ****         0.9863  -1.8392   2.2452 C.3            1 S1                 0.0000
      2 ****        -0.0581  -1.9636   1.1198 C.3            1 S1                 0.0000
      3 ****        -0.9411  -0.7142   0.8390 C.3            1 S1                 0.0000
      4 ****        -1.5505  -0.2133   2.1665 C.3            1 S1                 0.0000
      5 ****        -2.5105  -1.2023   2.8478 C.3            1 S1                 0.0000
      6 ****        -0.3575   0.3963  -0.0790 C.3            1 S1                 0.0000
      7 ****         1.0972   0.4827  -0.1120 N.am           1 S1                 0.0000
      8 ****         1.8228   1.4197   0.5164 C.2            1 S1                 0.0000
      9 ****         1.3310   2.3005   1.2211 O.2            1 S1                 0.0000
     10 ****         3.3395   1.3450   0.3320 C.3            1 S1                 0.0000
     11 ****         3.7160   1.5794  -1.0515 N.pl3          1 S1                 0.0000
     12 ****         3.8289   2.7810  -1.7204 C.2            1 S1                 0.0000
     13 ****         4.1951   2.4091  -2.9823 C.2            1 S1                 0.0000
     14 ****         4.2896   1.0194  -3.0288 N.2            1 S1                 0.0000
     15 ****         4.0007   0.5322  -1.8632 N.2            1 S1                 0.0000
     16 ****        -0.9206  -0.3359  -1.3005 C.3            1 S1                 0.0000
     17 ****        -1.3589   0.4642  -2.5211 C.3            1 S1                 0.0000
     18 ****        -1.9523  -0.9299  -0.3241 C.3            1 S1                 0.0000
     19 ****        -3.1088  -0.1098  -0.1906 O.3            1 S1                 0.0000
     20 ****        -4.2044  -0.5620  -0.9676 C.3            1 S1                 0.0000
     21 ****         1.6280  -2.7202   2.2641 H              1 S1                 0.0000
     22 ****         0.5195  -1.7687   3.2271 H              1 S1                 0.0000
     23 ****         1.6313  -0.9721   2.1182 H              1 S1                 0.0000
     24 ****         0.4768  -2.2526   0.2156 H              1 S1                 0.0000
     25 ****        -0.6936  -2.8216   1.3402 H              1 S1                 0.0000
     26 ****        -0.7689   0.0789   2.8667 H              1 S1                 0.0000
     27 ****        -2.1017   0.7110   1.9909 H              1 S1                 0.0000
     28 ****        -2.9547  -0.7533   3.7363 H              1 S1                 0.0000
     29 ****        -2.0004  -2.1111   3.1654 H              1 S1                 0.0000
     30 ****        -3.3253  -1.4891   2.1829 H              1 S1                 0.0000
     31 ****        -0.8554   1.3590   0.0623 H              1 S1                 0.0000
     32 ****         1.5848  -0.2060  -0.6666 H              1 S1                 0.0000
     33 ****         3.8307   2.0904   0.9588 H              1 S1                 0.0000
     34 ****         3.7024   0.3666   0.6517 H              1 S1                 0.0000
     35 ****         3.6437   3.7420  -1.2634 H              1 S1                 0.0000
     36 ****         4.3947   3.0180  -3.8518 H              1 S1                 0.0000
     37 ****        -0.2362  -1.1282  -1.6094 H              1 S1                 0.0000
     38 ****        -2.0474   1.2654  -2.2514 H              1 S1                 0.0000
     39 ****        -1.8575  -0.1718  -3.2525 H              1 S1                 0.0000
     40 ****        -0.5022   0.9233  -3.0150 H              1 S1                 0.0000
     41 ****        -2.1838  -1.9823  -0.4987 H              1 S1                 0.0000
     42 ****        -5.0416   0.1265  -0.8540 H              1 S1                 0.0000
     43 ****        -4.5340  -1.5481  -0.6384 H              1 S1                 0.0000
     44 ****        -3.9528  -0.6147  -2.0269 H              1 S1                 0.0000
     45 ****         0.3401   2.3433   1.3493 LP             1 S1                 0.0000
     46 ****         1.9222   2.9735   1.6657 LP             1 S1                 0.0000
     47 ****         4.5407   0.4829  -3.8344 LP             1 S1                 0.0000
     48 ****         3.9899  -0.4352  -1.6101 LP             1 S1                 0.0000
     49 ****        -2.8755   0.8187  -0.4796 LP             1 S1                 0.0000
     50 ****        -3.3830  -0.1006   0.7710 LP             1 S1                 0.0000
@<TRIPOS>BOND
    1    1    2 1     
    2    1   21 1     
    3    1   22 1     
    4    1   23 1     
    5    2    3 1     
    6    2   24 1     
    7    2   25 1     
    8    3   18 1     
    9    3    4 1     
   10    3    6 1     
   11    4    5 1     
   12    4   26 1     
   13    4   27 1     
   14    5   28 1     
   15    5   29 1     
   16    5   30 1     
   17    6    7 1     
   18    6   16 1     
   19    6   31 1     
   20    7    8 am    
   21    7   32 1     
   22    8    9 2     
   23    8   10 1     
   24   10   11 1     
   25   10   33 1     
   26   10   34 1     
   27   11   15 1     
   28   11   12 1     
   29   12   13 2     
   30   12   35 1     
   31   13   14 1     
   32   13   36 1     
   33   14   15 2     
   34   16   17 1     
   35   16   18 1     
   36   16   37 1     
   37   17   38 1     
   38   17   39 1     
   39   17   40 1     
   40   18   19 1     
   41   18   41 1     
   42   19   20 1     
   43   20   42 1     
   44   20   43 1     
   45   20   44 1     
   46    9   45 1     
   47    9   46 1     
   48   14   47 1     
   49   15   48 1     
   50   19   49 1     
   51   19   50 1     
@<TRIPOS>SUBSTRUCTURE
      1 S1             1
@<TRIPOS>SET
LONE_PAIRS      STATIC     ATOMS    <user>   **** ""
6 45 46 47 48 49 50
DONOR_HYDROGENS      STATIC     ATOMS    <user>   **** ""
1 32
ATOM$BLUE        STATIC     ATOMS    COLORGROUP SYSTEM
6 45 46 47 48 49 50
ATOM$RED        STATIC     ATOMS    COLORGROUP SYSTEM
1 32
