#       Name:                AV-unprocessed.smi:1005
#       Creating user name   scv26
#       Creation time:       Fri Mar 27 02:30:30 2020


#       File generated by GOLD software.
#

@<TRIPOS>MOLECULE
AV-unprocessed.smi:1005
    62    64     1
SMALL
NO_CHARGES


@<TRIPOS>ATOM
      1 ****        -7.2099   0.8473  -1.7235 C.3            1 S1                 0.0000
      2 ****        -5.9586   1.0230  -0.8802 C.ar           1 S1                 0.0000
      3 ****        -6.1073   1.3059   0.4965 C.ar           1 S1                 0.0000
      4 ****        -4.9445   1.4585   1.2420 C.ar           1 S1                 0.0000
      5 ****        -4.7551   1.7356   2.5976 N.pl3          1 S1                 1.0000
      6 ****        -3.4216   1.7892   2.8690 C.2            1 S1                 0.0000
      7 ****        -2.7564   1.5472   1.7063 N.pl3          1 S1                 0.0000
      8 ****        -1.3137   1.4849   1.4359 C.3            1 S1                 0.0000
      9 ****        -0.7844   0.0402   1.3358 C.3            1 S1                 0.0000
     10 ****        -1.0399  -0.6352   2.5523 O.3            1 S1                 0.0000
     11 ****         0.7298  -0.0009   1.0492 C.3            1 S1                 0.0000
     12 ****         1.2159  -1.3803   0.7736 N.4            1 S1                 1.0000
     13 ****         0.9163  -1.8834  -0.5914 C.3            1 S1                 0.0000
     14 ****         1.8988  -1.3138  -1.6318 C.3            1 S1                 0.0000
     15 ****         3.2358  -1.5911  -1.2337 O.3            1 S1                 0.0000
     16 ****         3.5721  -0.9960   0.0157 C.3            1 S1                 0.0000
     17 ****         5.0539  -1.3052   0.3007 C.3            1 S1                 0.0000
     18 ****         5.9718  -0.6810  -0.6869 N.4            1 S1                 1.0000
     19 ****         6.1738   0.7697  -0.4662 C.3            1 S1                 0.0000
     20 ****         7.2619  -1.3995  -0.7811 C.3            1 S1                 0.0000
     21 ****         2.6482  -1.5891   1.1014 C.3            1 S1                 0.0000
     22 ****        -3.6659   1.3400   0.6637 C.ar           1 S1                 0.0000
     23 ****        -3.5010   1.0654  -0.6916 C.ar           1 S1                 0.0000
     24 ****        -4.6718   0.9047  -1.4667 C.ar           1 S1                 0.0000
     25 ****        -4.5242   0.5996  -2.9477 C.3            1 S1                 0.0000
     26 ****        -8.1141   0.9518  -1.1230 H              1 S1                 0.0000
     27 ****        -7.2274  -0.1418  -2.1818 H              1 S1                 0.0000
     28 ****        -7.2466   1.5968  -2.5144 H              1 S1                 0.0000
     29 ****        -7.0837   1.3982   0.9494 H              1 S1                 0.0000
     30 ****        -2.9744   1.9845   3.8331 H              1 S1                 0.0000
     31 ****        -1.1146   2.0390   0.5176 H              1 S1                 0.0000
     32 ****        -0.8060   2.0223   2.2383 H              1 S1                 0.0000
     33 ****        -1.3298  -0.4767   0.5473 H              1 S1                 0.0000
     34 ****        -0.6303  -0.1583   3.2583 H              1 S1                 0.0000
     35 ****         0.9728   0.6513   0.2103 H              1 S1                 0.0000
     36 ****         1.2553   0.4128   1.9113 H              1 S1                 0.0000
     37 ****         1.0041  -2.9706  -0.5769 H              1 S1                 0.0000
     38 ****        -0.1118  -1.6670  -0.8788 H              1 S1                 0.0000
     39 ****         1.7209  -1.7761  -2.6029 H              1 S1                 0.0000
     40 ****         1.7616  -0.2406  -1.7677 H              1 S1                 0.0000
     41 ****         3.4198   0.0823  -0.0371 H              1 S1                 0.0000
     42 ****         5.3291  -0.9798   1.3053 H              1 S1                 0.0000
     43 ****         5.1843  -2.3885   0.2854 H              1 S1                 0.0000
     44 ****         6.6326   0.9571   0.5056 H              1 S1                 0.0000
     45 ****         5.2334   1.3176  -0.5114 H              1 S1                 0.0000
     46 ****         6.8271   1.1863  -1.2338 H              1 S1                 0.0000
     47 ****         7.8008  -1.3626   0.1664 H              1 S1                 0.0000
     48 ****         7.8947  -0.9589  -1.5524 H              1 S1                 0.0000
     49 ****         7.1043  -2.4456  -1.0457 H              1 S1                 0.0000
     50 ****         2.8787  -1.1715   2.0821 H              1 S1                 0.0000
     51 ****         2.8236  -2.6630   1.1812 H              1 S1                 0.0000
     52 ****        -2.5222   0.9758  -1.1381 H              1 S1                 0.0000
     53 ****        -3.4757   0.5584  -3.2446 H              1 S1                 0.0000
     54 ****        -5.0096   1.3689  -3.5486 H              1 S1                 0.0000
     55 ****        -4.9758  -0.3636  -3.1865 H              1 S1                 0.0000
     56 ****         5.5347  -0.7837  -1.5921 H              1 S1                 0.0000
     57 ****         0.6998  -1.9659   1.4160 H              1 S1                 0.0000
     58 ****        -5.4805   1.8773   3.2891 H              1 S1                 0.0000
     59 ****        -0.6626  -1.5603   2.5086 LP             1 S1                 0.0000
     60 ****        -2.0264  -0.6846   2.7083 LP             1 S1                 0.0000
     61 ****         3.8575  -1.2390  -1.9334 LP             1 S1                 0.0000
     62 ****         3.3477  -2.5819  -1.1565 LP             1 S1                 0.0000
@<TRIPOS>BOND
    1    1    2 1     
    2    1   26 1     
    3    1   27 1     
    4    1   28 1     
    5    2   24 ar    
    6    2    3 ar    
    7    3    4 ar    
    8    3   29 1     
    9    4   22 ar    
   10    4    5 1     
   11    5    6 2     
   12    5   58 1     
   13    6    7 1     
   14    6   30 1     
   15    7    8 1     
   16    7   22 1     
   17    8    9 1     
   18    8   31 1     
   19    8   32 1     
   20    9   10 1     
   21    9   11 1     
   22    9   33 1     
   23   10   34 1     
   24   11   12 1     
   25   11   35 1     
   26   11   36 1     
   27   12   21 1     
   28   12   13 1     
   29   12   57 1     
   30   13   14 1     
   31   13   37 1     
   32   13   38 1     
   33   14   15 1     
   34   14   39 1     
   35   14   40 1     
   36   15   16 1     
   37   16   17 1     
   38   16   21 1     
   39   16   41 1     
   40   17   18 1     
   41   17   42 1     
   42   17   43 1     
   43   18   19 1     
   44   18   20 1     
   45   18   56 1     
   46   19   44 1     
   47   19   45 1     
   48   19   46 1     
   49   20   47 1     
   50   20   48 1     
   51   20   49 1     
   52   21   50 1     
   53   21   51 1     
   54   22   23 ar    
   55   23   24 ar    
   56   23   52 1     
   57   24   25 1     
   58   25   53 1     
   59   25   54 1     
   60   25   55 1     
   61   10   59 1     
   62   10   60 1     
   63   15   61 1     
   64   15   62 1     
@<TRIPOS>SUBSTRUCTURE
      1 S1             1
@<TRIPOS>SET
LONE_PAIRS      STATIC     ATOMS    <user>   **** ""
4 59 60 61 62
DONOR_HYDROGENS      STATIC     ATOMS    <user>   **** ""
4 58 34 57 56
ATOM$BLUE        STATIC     ATOMS    COLORGROUP SYSTEM
4 59 60 61 62
ATOM$RED        STATIC     ATOMS    COLORGROUP SYSTEM
4 58 34 57 56
