AV-unprocessed.smi:3338|AV-procd|sdf|12876|dock9
  -GOLD-   2272019283D 1   1.00000     0.00000
 Structure written by MMmdl.
 44 45  0  0  0  0  0  0  0  0  2 V2000
  145.8201  133.4259  154.7457 C   0  0  0  0  0  0  0  0  0  0  0  0
  146.2293  134.2369  153.5081 C   0  0  1  0  0  0  0  0  0  0  0  0
  145.6639  133.6182  152.2188 C   0  0  0  0  0  0  0  0  0  0  0  0
  146.0652  134.4633  151.0033 C   0  0  0  0  0  0  0  0  0  0  0  0
  145.6383  135.9284  151.1860 C   0  0  0  0  0  0  0  0  0  0  0  0
  146.2026  136.5001  152.4362 N   0  3  1  0  0  0  0  0  0  0  0  0
  145.9175  137.9519  152.5659 C   0  0  0  0  0  0  0  0  0  0  0  0
  146.8575  138.8144  151.7079 C   0  0  0  0  0  0  0  0  0  0  0  0
  147.3195  139.9724  152.4598 N   0  0  0  0  0  0  0  0  0  0  0  0
  148.2025  139.9140  153.4686 C   0  0  0  0  0  0  0  0  0  0  0  0
  148.6895  138.8546  153.8654 O   0  0  0  0  0  0  0  0  0  0  0  0
  148.5816  141.2538  154.1242 C   0  0  1  0  0  0  0  0  0  0  0  0
  147.3669  142.0095  154.6998 C   0  0  0  0  0  0  0  0  0  0  0  0
  149.6223  141.0629  155.1285 N   0  0  0  0  0  0  0  0  0  0  0  0
  149.7658  141.7139  156.3369 C   0  0  0  0  0  0  0  0  0  0  0  0
  150.8944  141.2292  156.9330 C   0  0  0  0  0  0  0  0  0  0  0  0
  151.3857  140.2741  156.0006 C   0  0  0  0  0  0  0  0  0  0  0  0
  150.6278  140.1811  154.9205 N   0  0  0  0  0  0  0  0  0  0  0  0
  145.7930  135.7108  153.6294 C   0  0  0  0  0  0  0  0  0  0  0  0
  144.7368  133.4115  154.8703 H   0  0  0  0  0  0  0  0  0  0  0  0
  146.2539  133.8470  155.6530 H   0  0  0  0  0  0  0  0  0  0  0  0
  146.1599  132.3926  154.6686 H   0  0  0  0  0  0  0  0  0  0  0  0
  147.3186  134.2123  153.4459 H   0  0  0  0  0  0  0  0  0  0  0  0
  146.0277  132.5972  152.0969 H   0  0  0  0  0  0  0  0  0  0  0  0
  144.5764  133.5565  152.2803 H   0  0  0  0  0  0  0  0  0  0  0  0
  147.1453  134.4104  150.8597 H   0  0  0  0  0  0  0  0  0  0  0  0
  145.6129  134.0533  150.0998 H   0  0  0  0  0  0  0  0  0  0  0  0
  145.9797  136.5072  150.3269 H   0  0  0  0  0  0  0  0  0  0  0  0
  144.5498  136.0041  151.2086 H   0  0  0  0  0  0  0  0  0  0  0  0
  144.8944  138.1463  152.2404 H   0  0  0  0  0  0  0  0  0  0  0  0
  145.9682  138.2462  153.6155 H   0  0  0  0  0  0  0  0  0  0  0  0
  147.7282  138.2447  151.3835 H   0  0  0  0  0  0  0  0  0  0  0  0
  146.3384  139.1523  150.8095 H   0  0  0  0  0  0  0  0  0  0  0  0
  146.9606  140.8770  152.1898 H   0  0  0  0  0  0  0  0  0  0  0  0
  149.0058  141.8790  153.3369 H   0  0  0  0  0  0  0  0  0  0  0  0
  146.6224  142.2073  153.9277 H   0  0  0  0  0  0  0  0  0  0  0  0
  147.6695  142.9717  155.1137 H   0  0  0  0  0  0  0  0  0  0  0  0
  146.8767  141.4483  155.4964 H   0  0  0  0  0  0  0  0  0  0  0  0
  149.0593  142.4601  156.6697 H   0  0  0  0  0  0  0  0  0  0  0  0
  151.3066  141.5130  157.8900 H   0  0  0  0  0  0  0  0  0  0  0  0
  152.2655  139.6520  156.0748 H   0  0  0  0  0  0  0  0  0  0  0  0
  144.7104  135.7753  153.7527 H   0  0  0  0  0  0  0  0  0  0  0  0
  146.2364  136.1342  154.5298 H   0  0  0  0  0  0  0  0  0  0  0  0
  147.2058  136.4128  152.3552 H   0  0  0  0  0  0  0  0  0  0  0  0
  1  2  1  0  0  0  0
  1 20  1  0  0  0  0
  1 21  1  0  0  0  0
  1 22  1  0  0  0  0
  2 19  1  0  0  0  0
  2  3  1  0  0  0  0
  2 23  1  0  0  0  0
  3  4  1  0  0  0  0
  3 24  1  0  0  0  0
  3 25  1  0  0  0  0
  4  5  1  0  0  0  0
  4 26  1  0  0  0  0
  4 27  1  0  0  0  0
  5  6  1  0  0  0  0
  5 28  1  0  0  0  0
  5 29  1  0  0  0  0
  6  7  1  0  0  0  0
  6 19  1  0  0  0  0
  6 44  1  0  0  0  0
  7  8  1  0  0  0  0
  7 30  1  0  0  0  0
  7 31  1  0  0  0  0
  8  9  1  0  0  0  0
  8 32  1  0  0  0  0
  8 33  1  0  0  0  0
  9 10  1  0  0  0  0
  9 34  1  0  0  0  0
 10 11  2  0  0  0  0
 10 12  1  0  0  0  0
 12 13  1  0  0  0  0
 12 14  1  0  0  0  0
 12 35  1  0  0  0  0
 13 36  1  0  0  0  0
 13 37  1  0  0  0  0
 13 38  1  0  0  0  0
 14 18  1  0  0  0  0
 14 15  1  0  0  0  0
 15 16  2  0  0  0  0
 15 39  1  0  0  0  0
 16 17  1  0  0  0  0
 16 40  1  0  0  0  0
 17 18  2  0  0  0  0
 17 41  1  0  0  0  0
 19 42  1  0  0  0  0
 19 43  1  0  0  0  0
M  CHG  1   6   1
M  END
> <s_m_source_file>
AV-unprocessed.smi

> <i_m_source_file_index>
3338

> <i_lp_mmshare_version>
43012

> <i_f3d_flags>
0

> <s_epik_input>
W0NIM11bQ0BASF0xW0NIMl1bQ0gyXVtDSDJdTihbQ0gyXTEpW0NIMl1bQ0gyXVtOSF1DKD1PKVtDQEhdKFtDSDNdKW4yW2NIXVtjSF1bY0hdbjI=

> <s_epik_cmdline>
J2VwaWtfcHl0aG9uJywgJy1waCcsICc3LjAnLCAnLXRuJywgJzgnLCAnLW1hJywgJzIwMCcsICctbWV0YWxfYmluZGluZycsICctaW1hZScsICc8aW5maWxlLm1hZT4nLCAnLW9tYWUnLCAnPG91dGZpbGUubWFlPic=

> <r_lp_tautomer_probability>
1

> <r_epik_Ionization_Penalty>
0.00225707

> <r_epik_Ionization_Penalty_Charging>
0.00223709

> <r_epik_Ionization_Penalty_Neutral>
1.99775e-05

> <r_epik_State_Penalty>
0.00153978

> <r_epik_Charging_Adjusted_Penalty>
0.00377687

> <i_epik_Tot_Q>
1

> <i_epik_Tot_abs_Q>
1

> <r_epik_Metal_State_Penalty>
-0

> <b_epik_Metal_Only>
0

> <s_lp_Force_Field>
OPLS_2005

> <r_lp_Energy>
20.7823

> <b_lp_Chiralities_Consistent>
1

> <s_lp_Variant>
AV-unprocessed.smi:3338-8

> <Gold.Version>
5.8.1

> <Gold.Id.Protein>
6NUR|6NUR_protein|mol2

> <Gold.PLP.Fitness>
44.5315

> <Gold.PLP.PLP>
-34.9798

> <Gold.PLP.part.hbond>
-3.0000

> <Gold.PLP.part.metal>
0.0000

> <Gold.PLP.part.buried>
0.3522

> <Gold.PLP.part.nonpolar>
-32.9048

> <Gold.PLP.part.repulsive>
1.0147

> <Gold.PLP.ligand.clash>
0.0000

> <Gold.PLP.ligand.torsion>
1.1474

> <Gold.PLP.Chemscore.Hbond>
3.0000

> <Gold.PLP.Chemscore.CHOScore>
0.9032

> <Gold.PLP.Chemscore.Metal>
0.0000

> <Gold.Chemscore.Hbonds>
donor molecule, donor type, donor heavy atom, donor atom, acceptor molecule, acceptor atom, score
      L1  H     6    44       P1  7948  2.00
      P1  H  7989  7998       L1    18  1.00
      L1  C    15    39       P1  8028  0.88

> <Gold.PLP.Chemscore.Internal.Correction>
0.1370

> <Gold.Rescore>
     Score         DG    S(hbond)    S(metal)    S(lipo)     H(rot)  DE(clash)    DE(int)     intcor
     11.73     -14.62       1.64        0.00      69.61       1.76       0.28       2.61       ----

> <Gold.Chemscore.Fitness>
11.7316

> <Gold.Chemscore.DG>
-14.6188

> <Gold.Chemscore.ZeroCoef>
-5.4800

> <Gold.Chemscore.Hbond>
1.6443

> <Gold.Chemscore.Metal>
0.0000

> <Gold.Chemscore.Lipo>
69.6136

> <Gold.Chemscore.Internal_Hbond>
0.0000

> <Gold.Chemscore.DEClash>
0.2762

> <Gold.Chemscore.DEInternal>
2.6110

> <Gold.Chemscore.Rot>
1.7570

> <Gold.Chemscore.Internal.Correction>
   9.000000E+99

> <Gold.Chemscore.Hbonds>
donor molecule, donor type, donor heavy atom, donor atom, acceptor molecule, acceptor atom, score
      L1  H     6    44       P1  7948  1.00
      P1  H  7989  7998       L1    18  0.33

> <Gold.Chemscore.Hbond.Weighted>
-5.4919

> <Gold.Chemscore.Metal.Weighted>
-0.0000

> <Gold.Chemscore.Lipo.Weighted>
-8.1448

> <Gold.Chemscore.Internal_Hbond.Weighted>
0.0000

> <Gold.Chemscore.DEClash.Weighted>
0.2762

> <Gold.Chemscore.DEInternal.Weighted>
2.6110

> <Gold.Chemscore.Rot.Weighted>
4.4979

> <Gold.Chemscore.Internal.Correction.Weighted>
   9.000000E+99

> <Gold.Protein.RotatedTorsions>
[ 6907 6896 6895 6894 ] final  -67.27 input  -60.11 | X-H torsion
[ 7974 7965 7964 7962 ] final   40.06 input  175.53 | X-H torsion
[ 8008 7997 7996 7995 ] final  -17.49 input   59.86 | X-H torsion
[ 10167 10162 10161 10158 ] final -163.87 input  -65.29 | X-H torsion
[ 10718 10713 10712 10709 ] final   43.45 input   66.30 | X-H torsion
[ 10763 10752 10751 10750 ] final -102.55 input  -60.55 | X-H torsion
[ 11005 11000 10999 10996 ] final  132.13 input  -57.11 | X-H torsion

> <Gold.Protein.ActiveResidues>
 VAL166  LYS551  ARG553  GLY616  TRP617  ASP618  TYR619  PRO620  LYS621  CYS622 
 ASP623  PHE694  ASN695  SER759  ASP760  ASP761  ALA762  ILE779  LEU786  VAL792 
 PHE793  MET794  SER795  GLU796  ALA797  LYS798  CYS799  TRP800  GLU811  SER814 

> <Gold.Protein.RotatedAtoms>
  150.7419  134.5904  159.5984 H   0  0  0  0  0  0  0  0  0  0  0  0  # atno 6907 bound_to 6896
  152.3294  134.7276  160.0302 H   0  0  0  0  0  0  0  0  0  0  0  0  # atno 6908 bound_to 6896
  151.7765  133.3310  159.3496 H   0  0  0  0  0  0  0  0  0  0  0  0  # atno 6909 bound_to 6896
  146.0935  139.5577  142.9461 H   0  0  0  0  0  0  0  0  0  0  0  0  # atno 7974 bound_to 7965
  154.4975  140.2141  155.9417 H   0  0  0  0  0  0  0  0  0  0  0  0  # atno 8008 bound_to 7997
  156.1389  140.3183  155.8432 H   0  0  0  0  0  0  0  0  0  0  0  0  # atno 8009 bound_to 7997
  155.4157  140.0493  157.3019 H   0  0  0  0  0  0  0  0  0  0  0  0  # atno 8010 bound_to 7997
  139.6290  144.0476  152.2000 H   0  0  0  0  0  0  0  0  0  0  0  0  # atno 10167 bound_to 10162
  157.4161  130.7942  149.7473 H   0  0  0  0  0  0  0  0  0  0  0  0  # atno 10718 bound_to 10713
  154.7742  135.4856  153.9711 H   0  0  0  0  0  0  0  0  0  0  0  0  # atno 10763 bound_to 10752
  153.1407  135.6772  153.9039 H   0  0  0  0  0  0  0  0  0  0  0  0  # atno 10764 bound_to 10752
  153.8714  135.3143  155.3420 H   0  0  0  0  0  0  0  0  0  0  0  0  # atno 10765 bound_to 10752
  139.9772  134.9560  156.9538 H   0  0  0  0  0  0  0  0  0  0  0  0  # atno 11005 bound_to 11000
  145.5994  141.0357  143.2026 LP  0  0  0  0  0  0  0  0  0  0  0  0  # atno 17320 bound_to 7965
  144.7377  139.7537  143.7323 LP  0  0  0  0  0  0  0  0  0  0  0  0  # atno 17321 bound_to 7965
  140.0136  144.6205  150.7626 LP  0  0  0  0  0  0  0  0  0  0  0  0  # atno 17342 bound_to 10162
  140.7428  143.2837  151.3524 LP  0  0  0  0  0  0  0  0  0  0  0  0  # atno 17343 bound_to 10162
  155.9865  130.3974  150.3207 LP  0  0  0  0  0  0  0  0  0  0  0  0  # atno 17370 bound_to 10713
  157.1350  131.0282  151.2952 LP  0  0  0  0  0  0  0  0  0  0  0  0  # atno 17371 bound_to 10713
  140.5171  134.0944  155.7283 LP  0  0  0  0  0  0  0  0  0  0  0  0  # atno 17394 bound_to 11000
  141.1447  133.9075  157.2242 LP  0  0  0  0  0  0  0  0  0  0  0  0  # atno 17395 bound_to 11000

$$$$
