#       Name:                AV-unprocessed.smi:2334
#       Creating user name   scv26
#       Creation time:       Fri Mar 27 12:54:13 2020


#       File generated by GOLD software.
#

@<TRIPOS>MOLECULE
AV-unprocessed.smi:2334
    54    56     1
SMALL
NO_CHARGES


@<TRIPOS>ATOM
      1 ****        -0.3411  -2.6579  -0.4333 C.3            1 S1                 0.0000
      2 ****        -1.1623  -1.4392  -0.0496 C.ar           1 S1                 0.0000
      3 ****        -2.5012  -1.6192  -0.0523 N.ar           1 S1                 0.0000
      4 ****        -3.3081  -0.5859   0.2850 C.ar           1 S1                 0.0000
      5 ****        -4.6980  -0.8157   0.2655 N.pl3          1 S1                 0.0000
      6 ****        -5.2525  -2.1442   0.0554 C.3            1 S1                 0.0000
      7 ****        -6.7568  -1.9713   0.2589 C.3            1 S1                 0.0000
      8 ****        -6.8387  -0.8650   1.3108 C.3            1 S1                 0.0000
      9 ****        -5.6230   0.0217   1.0169 C.3            1 S1                 0.0000
     10 ****        -2.7851   0.6800   0.6356 C.ar           1 S1                 0.0000
     11 ****        -1.3906   0.8689   0.6377 C.ar           1 S1                 0.0000
     12 ****        -0.5470  -0.2081   0.2777 C.ar           1 S1                 0.0000
     13 ****         0.8734  -0.1198   0.2737 N.am           1 S1                 0.0000
     14 ****         1.6419   0.9702   0.1080 C.2            1 S1                 0.0000
     15 ****         1.2203   2.1074  -0.0992 O.2            1 S1                 0.0000
     16 ****         2.9451   0.6504   0.1752 N.am           1 S1                 0.0000
     17 ****         4.1138   1.5309   0.0244 C.3            1 S1                 0.0000
     18 ****         4.1122   2.6028   1.1357 C.3            1 S1                 0.0000
     19 ****         5.3818   0.6600   0.1598 C.3            1 S1                 0.0000
     20 ****         5.5583  -0.2977  -1.0342 C.3            1 S1                 0.0000
     21 ****         5.5883   0.4383  -2.2512 O.3            1 S1                 0.0000
     22 ****         4.3846   1.1575  -2.4935 C.3            1 S1                 0.0000
     23 ****         4.1581   2.1911  -1.3755 C.3            1 S1                 0.0000
     24 ****         0.2795  -2.4388  -1.3029 H              1 S1                 0.0000
     25 ****        -0.9772  -3.5092  -0.6803 H              1 S1                 0.0000
     26 ****         0.3094  -2.9516   0.3912 H              1 S1                 0.0000
     27 ****        -5.0208  -2.5249  -0.9401 H              1 S1                 0.0000
     28 ****        -4.8404  -2.8326   0.7947 H              1 S1                 0.0000
     29 ****        -7.2190  -1.6317  -0.6691 H              1 S1                 0.0000
     30 ****        -7.2521  -2.8927   0.5661 H              1 S1                 0.0000
     31 ****        -7.7800  -0.3158   1.2798 H              1 S1                 0.0000
     32 ****        -6.7387  -1.3016   2.3054 H              1 S1                 0.0000
     33 ****        -5.1833   0.3973   1.9416 H              1 S1                 0.0000
     34 ****        -5.9059   0.8748   0.3995 H              1 S1                 0.0000
     35 ****        -3.4296   1.5051   0.8996 H              1 S1                 0.0000
     36 ****        -0.9973   1.8305   0.9283 H              1 S1                 0.0000
     37 ****         1.3610  -1.0012   0.3393 H              1 S1                 0.0000
     38 ****         3.1598  -0.3212   0.3457 H              1 S1                 0.0000
     39 ****         5.0188   3.2079   1.1022 H              1 S1                 0.0000
     40 ****         4.0599   2.1479   2.1254 H              1 S1                 0.0000
     41 ****         3.2704   3.2888   1.0424 H              1 S1                 0.0000
     42 ****         6.2623   1.3013   0.2190 H              1 S1                 0.0000
     43 ****         5.3583   0.0923   1.0910 H              1 S1                 0.0000
     44 ****         6.4949  -0.8467  -0.9356 H              1 S1                 0.0000
     45 ****         4.7606  -1.0412  -1.0669 H              1 S1                 0.0000
     46 ****         4.4676   1.6624  -3.4560 H              1 S1                 0.0000
     47 ****         3.5424   0.4683  -2.5709 H              1 S1                 0.0000
     48 ****         3.2529   2.7638  -1.5757 H              1 S1                 0.0000
     49 ****         4.9749   2.9136  -1.4062 H              1 S1                 0.0000
     50 ****        -2.8918  -2.5056  -0.3006 LP             1 S1                 0.0000
     51 ****         0.2357   2.2731  -0.1553 LP             1 S1                 0.0000
     52 ****         1.8622   2.8659  -0.2115 LP             1 S1                 0.0000
     53 ****         5.7360  -0.2001  -3.0066 LP             1 S1                 0.0000
     54 ****         6.3464   1.0892  -2.2118 LP             1 S1                 0.0000
@<TRIPOS>BOND
    1    1    2 1     
    2    1   24 1     
    3    1   25 1     
    4    1   26 1     
    5    2   12 ar    
    6    2    3 ar    
    7    3    4 ar    
    8    4    5 1     
    9    4   10 ar    
   10    5    9 1     
   11    5    6 1     
   12    6    7 1     
   13    6   27 1     
   14    6   28 1     
   15    7    8 1     
   16    7   29 1     
   17    7   30 1     
   18    8    9 1     
   19    8   31 1     
   20    8   32 1     
   21    9   33 1     
   22    9   34 1     
   23   10   11 ar    
   24   10   35 1     
   25   11   12 ar    
   26   11   36 1     
   27   12   13 1     
   28   13   14 am    
   29   13   37 1     
   30   14   15 2     
   31   14   16 am    
   32   16   17 1     
   33   16   38 1     
   34   17   23 1     
   35   17   18 1     
   36   17   19 1     
   37   18   39 1     
   38   18   40 1     
   39   18   41 1     
   40   19   20 1     
   41   19   42 1     
   42   19   43 1     
   43   20   21 1     
   44   20   44 1     
   45   20   45 1     
   46   21   22 1     
   47   22   23 1     
   48   22   46 1     
   49   22   47 1     
   50   23   48 1     
   51   23   49 1     
   52    3   50 1     
   53   15   51 1     
   54   15   52 1     
   55   21   53 1     
   56   21   54 1     
@<TRIPOS>SUBSTRUCTURE
      1 S1             1
@<TRIPOS>SET
LONE_PAIRS      STATIC     ATOMS    <user>   **** ""
5 50 51 52 53 54
DONOR_HYDROGENS      STATIC     ATOMS    <user>   **** ""
2 37 38
ATOM$BLUE        STATIC     ATOMS    COLORGROUP SYSTEM
5 50 51 52 53 54
ATOM$RED        STATIC     ATOMS    COLORGROUP SYSTEM
2 37 38
