AV-unprocessed.smi:1741|AV-procd|sdf|7016|dock6
  -GOLD-   22720 8233D 1   1.00000     0.00000
 Structure written by MMmdl.
 38 39  0  0  0  0  0  0  0  0  1 V2000
  151.0389  141.6938  157.5362 C   0  0  0  0  0  0  0  0  0  0  0  0
  150.5343  142.0230  156.1260 C   0  0  0  0  0  0  0  0  0  0  0  0
  150.2982  140.8235  155.3464 N   0  0  0  0  0  0  0  0  0  0  0  0
  149.1207  140.4050  154.7587 C   0  0  0  0  0  0  0  0  0  0  0  0
  149.4145  139.2185  154.1479 C   0  0  0  0  0  0  0  0  0  0  0  0
  148.5708  138.3565  153.4028 N   0  0  0  0  0  0  0  0  0  0  0  0
  147.2386  138.4434  153.2575 C   0  0  0  0  0  0  0  0  0  0  0  0
  146.5293  139.3190  153.7533 O   0  0  0  0  0  0  0  0  0  0  0  0
  146.7697  137.4499  152.4886 N   0  0  0  0  0  0  0  0  0  0  0  0
  145.3710  137.2362  152.1196 C   0  0  2  0  0  0  0  0  0  0  0  0
  144.5404  137.0777  153.4016 C   0  0  0  0  0  0  0  0  0  0  0  0
  145.2385  136.0079  151.1957 C   0  0  2  0  0  0  0  0  0  0  0  0
  143.8346  135.4062  151.1141 C   0  0  0  0  0  0  0  0  0  0  0  0
  144.1338  133.9989  150.6515 C   0  0  0  0  0  0  0  0  0  0  0  0
  145.4190  133.6821  151.4115 C   0  0  0  0  0  0  0  0  0  0  0  0
  146.0495  134.9350  151.6681 O   0  0  0  0  0  0  0  0  0  0  0  0
  150.7892  138.9799  154.4062 C   0  0  0  0  0  0  0  0  0  0  0  0
  151.3170  139.9547  155.1306 N   0  0  0  0  0  0  0  0  0  0  0  0
  151.2011  142.6048  158.1124 H   0  0  0  0  0  0  0  0  0  0  0  0
  151.9834  141.1500  157.5014 H   0  0  0  0  0  0  0  0  0  0  0  0
  150.3184  141.0805  158.0784 H   0  0  0  0  0  0  0  0  0  0  0  0
  149.6052  142.5910  156.1824 H   0  0  0  0  0  0  0  0  0  0  0  0
  151.2572  142.6484  155.6003 H   0  0  0  0  0  0  0  0  0  0  0  0
  148.2078  140.9773  154.8324 H   0  0  0  0  0  0  0  0  0  0  0  0
  149.0305  137.5908  152.9322 H   0  0  0  0  0  0  0  0  0  0  0  0
  147.4350  136.7827  152.1266 H   0  0  0  0  0  0  0  0  0  0  0  0
  144.9896  138.1102  151.5885 H   0  0  0  0  0  0  0  0  0  0  0  0
  143.4813  136.9571  153.1725 H   0  0  0  0  0  0  0  0  0  0  0  0
  144.6372  137.9540  154.0432 H   0  0  0  0  0  0  0  0  0  0  0  0
  144.8568  136.2065  153.9763 H   0  0  0  0  0  0  0  0  0  0  0  0
  145.5741  136.2586  150.1878 H   0  0  0  0  0  0  0  0  0  0  0  0
  143.3671  135.3836  152.0998 H   0  0  0  0  0  0  0  0  0  0  0  0
  143.1761  135.9475  150.4343 H   0  0  0  0  0  0  0  0  0  0  0  0
  143.3282  133.2952  150.8626 H   0  0  0  0  0  0  0  0  0  0  0  0
  144.3216  133.9924  149.5769 H   0  0  0  0  0  0  0  0  0  0  0  0
  145.1928  133.2075  152.3668 H   0  0  0  0  0  0  0  0  0  0  0  0
  146.0746  133.0164  150.8500 H   0  0  0  0  0  0  0  0  0  0  0  0
  151.4088  138.1501  154.0998 H   0  0  0  0  0  0  0  0  0  0  0  0
  1  2  1  0  0  0  0
  1 19  1  0  0  0  0
  1 20  1  0  0  0  0
  1 21  1  0  0  0  0
  2  3  1  0  0  0  0
  2 22  1  0  0  0  0
  2 23  1  0  0  0  0
  3 18  1  0  0  0  0
  3  4  1  0  0  0  0
  4  5  2  0  0  0  0
  4 24  1  0  0  0  0
  5  6  1  0  0  0  0
  5 17  1  0  0  0  0
  6  7  1  0  0  0  0
  6 25  1  0  0  0  0
  7  8  2  0  0  0  0
  7  9  1  0  0  0  0
  9 10  1  0  0  0  0
  9 26  1  0  0  0  0
 10 11  1  0  0  0  0
 10 12  1  0  0  0  0
 10 27  1  0  0  0  0
 11 28  1  0  0  0  0
 11 29  1  0  0  0  0
 11 30  1  0  0  0  0
 12 16  1  0  0  0  0
 12 13  1  0  0  0  0
 12 31  1  0  0  0  0
 13 14  1  0  0  0  0
 13 32  1  0  0  0  0
 13 33  1  0  0  0  0
 14 15  1  0  0  0  0
 14 34  1  0  0  0  0
 14 35  1  0  0  0  0
 15 16  1  0  0  0  0
 15 36  1  0  0  0  0
 15 37  1  0  0  0  0
 17 18  2  0  0  0  0
 17 38  1  0  0  0  0
M  END
> <s_m_source_file>
AV-unprocessed.smi

> <i_m_source_file_index>
1741

> <i_lp_mmshare_version>
43012

> <i_f3d_flags>
0

> <s_epik_input>
W0NIM11bQ0gyXW4xW2NIXWMoW2NIXW4xKVtOSF1DKD1PKVtOSF1bQ0BIXShbQ0gzXSlbQ0BASF0yW0NIMl1bQ0gyXVtDSDJdTzI=

> <s_epik_cmdline>
J2VwaWtfcHl0aG9uJywgJy1waCcsICc3LjAnLCAnLXRuJywgJzgnLCAnLW1hJywgJzIwMCcsICctbWV0YWxfYmluZGluZycsICctaW1hZScsICc8aW5maWxlLm1hZT4nLCAnLW9tYWUnLCAnPG91dGZpbGUubWFlPic=

> <r_lp_tautomer_probability>
1

> <r_epik_Ionization_Penalty>
0.000179292

> <r_epik_Ionization_Penalty_Charging>
0

> <r_epik_Ionization_Penalty_Neutral>
0.000179292

> <r_epik_State_Penalty>
-0

> <r_epik_Charging_Adjusted_Penalty>
0

> <i_epik_Tot_Q>
0

> <i_epik_Tot_abs_Q>
0

> <r_epik_Metal_State_Penalty>
-0

> <b_epik_Metal_Only>
0

> <s_lp_Force_Field>
OPLS_2005

> <r_lp_Energy>
21.1803

> <b_lp_Chiralities_Consistent>
1

> <s_lp_Variant>
AV-unprocessed.smi:1741-1

> <Gold.Version>
5.8.1

> <Gold.Id.Protein>
6NUR|6NUR_protein|mol2

> <Gold.PLP.Fitness>
36.9961

> <Gold.PLP.PLP>
-31.0925

> <Gold.PLP.part.hbond>
-3.9595

> <Gold.PLP.part.metal>
0.0000

> <Gold.PLP.part.buried>
-2.7359

> <Gold.PLP.part.nonpolar>
-25.3267

> <Gold.PLP.part.repulsive>
0.4308

> <Gold.PLP.ligand.clash>
0.0000

> <Gold.PLP.ligand.torsion>
0.3557

> <Gold.PLP.Chemscore.Hbond>
2.2000

> <Gold.PLP.Chemscore.CHOScore>
0.0000

> <Gold.PLP.Chemscore.Metal>
0.0000

> <Gold.Chemscore.Hbonds>
donor molecule, donor type, donor heavy atom, donor atom, acceptor molecule, acceptor atom, score
      L1  H     6    25       P1  7948  1.00
      L1  H     9    26       P1  7948  1.00
      P1  H  7989  7998       L1    18  0.16

> <Gold.PLP.Chemscore.Internal.Correction>
0.0150

> <Gold.Rescore>
     Score         DG    S(hbond)    S(metal)    S(lipo)     H(rot)  DE(clash)    DE(int)     intcor
     15.08     -16.47       1.94        0.00      68.72       1.38       0.10       1.28       ----

> <Gold.Chemscore.Fitness>
15.0831

> <Gold.Chemscore.DG>
-16.4663

> <Gold.Chemscore.ZeroCoef>
-5.4800

> <Gold.Chemscore.Hbond>
1.9390

> <Gold.Chemscore.Metal>
0.0000

> <Gold.Chemscore.Lipo>
68.7208

> <Gold.Chemscore.Internal_Hbond>
0.0000

> <Gold.Chemscore.DEClash>
0.1043

> <Gold.Chemscore.DEInternal>
1.2789

> <Gold.Chemscore.Rot>
1.3790

> <Gold.Chemscore.Internal.Correction>
   9.000000E+99

> <Gold.Chemscore.Hbonds>
donor molecule, donor type, donor heavy atom, donor atom, acceptor molecule, acceptor atom, score
      L1  H     6    25       P1  7948  0.95
      L1  H     9    26       P1  7948  0.97

> <Gold.Chemscore.Hbond.Weighted>
-6.4761

> <Gold.Chemscore.Metal.Weighted>
-0.0000

> <Gold.Chemscore.Lipo.Weighted>
-8.0403

> <Gold.Chemscore.Internal_Hbond.Weighted>
0.0000

> <Gold.Chemscore.DEClash.Weighted>
0.1043

> <Gold.Chemscore.DEInternal.Weighted>
1.2789

> <Gold.Chemscore.Rot.Weighted>
3.5302

> <Gold.Chemscore.Internal.Correction.Weighted>
   9.000000E+99

> <Gold.Protein.RotatedTorsions>
[ 6907 6896 6895 6894 ] final  -52.87 input  -60.11 | X-H torsion
[ 7974 7965 7964 7962 ] final   -5.25 input  175.53 | X-H torsion
[ 8008 7997 7996 7995 ] final   86.72 input   59.86 | X-H torsion
[ 10167 10162 10161 10158 ] final  -17.08 input  -65.29 | X-H torsion
[ 10718 10713 10712 10709 ] final  142.51 input   66.30 | X-H torsion
[ 10763 10752 10751 10750 ] final  168.09 input  -60.55 | X-H torsion
[ 11005 11000 10999 10996 ] final  148.26 input  -57.11 | X-H torsion

> <Gold.Protein.ActiveResidues>
 VAL166  LYS551  ARG553  GLY616  TRP617  ASP618  TYR619  PRO620  LYS621  CYS622 
 ASP623  PHE694  ASN695  SER759  ASP760  ASP761  ALA762  ILE779  LEU786  VAL792 
 PHE793  MET794  SER795  GLU796  ALA797  LYS798  CYS799  TRP800  GLU811  SER814 

> <Gold.Protein.RotatedAtoms>
  150.8478  134.7792  159.6983 H   0  0  0  0  0  0  0  0  0  0  0  0  # atno 6907 bound_to 6896
  152.4550  134.5307  159.9820 H   0  0  0  0  0  0  0  0  0  0  0  0  # atno 6908 bound_to 6896
  151.5434  133.3391  159.2975 H   0  0  0  0  0  0  0  0  0  0  0  0  # atno 6909 bound_to 6896
  146.2356  140.1992  142.8333 H   0  0  0  0  0  0  0  0  0  0  0  0  # atno 7974 bound_to 7965
  155.9664  140.3389  155.6536 H   0  0  0  0  0  0  0  0  0  0  0  0  # atno 8008 bound_to 7997
  155.6732  140.0729  157.2530 H   0  0  0  0  0  0  0  0  0  0  0  0  # atno 8009 bound_to 7997
  154.4155  140.1688  156.1889 H   0  0  0  0  0  0  0  0  0  0  0  0  # atno 8010 bound_to 7997
  140.7242  143.5051  150.9819 H   0  0  0  0  0  0  0  0  0  0  0  0  # atno 10167 bound_to 10162
  157.3798  131.0990  151.0750 H   0  0  0  0  0  0  0  0  0  0  0  0  # atno 10718 bound_to 10713
  154.3634  135.2753  155.2307 H   0  0  0  0  0  0  0  0  0  0  0  0  # atno 10763 bound_to 10752
  154.4485  135.5936  153.6179 H   0  0  0  0  0  0  0  0  0  0  0  0  # atno 10764 bound_to 10752
  152.9842  135.6036  154.3857 H   0  0  0  0  0  0  0  0  0  0  0  0  # atno 10765 bound_to 10752
  140.0944  134.9021  157.1701 H   0  0  0  0  0  0  0  0  0  0  0  0  # atno 11005 bound_to 11000
  144.9795  140.8446  143.5406 LP  0  0  0  0  0  0  0  0  0  0  0  0  # atno 17320 bound_to 7965
  145.1984  139.2265  143.5206 LP  0  0  0  0  0  0  0  0  0  0  0  0  # atno 17321 bound_to 7965
  139.8763  143.7129  152.3161 LP  0  0  0  0  0  0  0  0  0  0  0  0  # atno 17342 bound_to 10162
  139.7395  144.7563  151.0674 LP  0  0  0  0  0  0  0  0  0  0  0  0  # atno 17343 bound_to 10162
  157.1823  130.6315  149.5676 LP  0  0  0  0  0  0  0  0  0  0  0  0  # atno 17370 bound_to 10713
  155.9773  130.4749  150.6585 LP  0  0  0  0  0  0  0  0  0  0  0  0  # atno 17371 bound_to 10713
  140.3306  134.2814  155.7229 LP  0  0  0  0  0  0  0  0  0  0  0  0  # atno 17394 bound_to 11000
  141.2088  133.7768  157.0038 LP  0  0  0  0  0  0  0  0  0  0  0  0  # atno 17395 bound_to 11000

$$$$
