#       Name:                AV-unprocessed.smi:2829
#       Creating user name   scv26
#       Creation time:       Fri Mar 27 15:35:15 2020


#       File generated by GOLD software.
#

@<TRIPOS>MOLECULE
AV-unprocessed.smi:2829
    56    59     1
SMALL
NO_CHARGES


@<TRIPOS>ATOM
      1 ****        -5.9947   0.7739  -1.4632 C.3            1 S1                 0.0000
      2 ****        -5.5818   0.5738   0.0098 C.3            1 S1                 0.0000
      3 ****        -6.1158   1.7401   0.8669 C.3            1 S1                 0.0000
      4 ****        -6.2624  -0.7199   0.5114 C.3            1 S1                 0.0000
      5 ****        -4.0473   0.5105   0.1158 C.ar           1 S1                 0.0000
      6 ****        -3.3522  -0.6128   0.6180 C.ar           1 S1                 0.0000
      7 ****        -1.9497  -0.5464   0.6664 C.ar           1 S1                 0.0000
      8 ****        -1.3165   0.6280   0.2131 C.ar           1 S1                 0.0000
      9 ****         0.1004   0.6224   0.2898 N.am           1 S1                 0.0000
     10 ****         0.9612   1.5867  -0.0925 C.2            1 S1                 0.0000
     11 ****         0.6337   2.6748  -0.5616 O.2            1 S1                 0.0000
     12 ****         2.2546   1.2603   0.0760 N.am           1 S1                 0.0000
     13 ****         3.4279   2.0859  -0.2406 C.3            1 S1                 0.0000
     14 ****         3.7657   3.1362   0.8259 C.3            1 S1                 0.0000
     15 ****         3.0079   3.8556   1.8816 C.3            1 S1                 0.0000
     16 ****         4.1144   3.8186   2.9666 C.3            1 S1                 0.0000
     17 ****         5.1467   2.9410   2.4495 O.3            1 S1                 0.0000
     18 ****         4.4566   2.0326   1.6103 C.3            1 S1                 0.0000
     19 ****         4.7813   1.4545   0.2207 C.3            1 S1                 0.0000
     20 ****         5.0964  -0.0355   0.0369 C.3            1 S1                 0.0000
     21 ****         6.5711   0.3467  -0.1292 C.3            1 S1                 0.0000
     22 ****         6.1185   1.7705  -0.4687 C.3            1 S1                 0.0000
     23 ****        -2.0466   1.6692  -0.2588 N.ar           1 S1                 0.0000
     24 ****        -3.3809   1.6128  -0.3063 N.ar           1 S1                 0.0000
     25 ****        -7.0794   0.8011  -1.5720 H              1 S1                 0.0000
     26 ****        -5.6213  -0.0354  -2.0917 H              1 S1                 0.0000
     27 ****        -5.6086   1.7096  -1.8691 H              1 S1                 0.0000
     28 ****        -5.7290   2.7019   0.5285 H              1 S1                 0.0000
     29 ****        -5.8343   1.6228   1.9139 H              1 S1                 0.0000
     30 ****        -7.2040   1.7993   0.8239 H              1 S1                 0.0000
     31 ****        -7.3479  -0.6529   0.4281 H              1 S1                 0.0000
     32 ****        -6.0354  -0.9146   1.5603 H              1 S1                 0.0000
     33 ****        -5.9523  -1.5899  -0.0687 H              1 S1                 0.0000
     34 ****        -3.8522  -1.5052   0.9609 H              1 S1                 0.0000
     35 ****        -1.3764  -1.3809   1.0434 H              1 S1                 0.0000
     36 ****         0.5128  -0.2204   0.6615 H              1 S1                 0.0000
     37 ****         2.4466   0.3427   0.4517 H              1 S1                 0.0000
     38 ****         3.4537   2.4610  -1.2647 H              1 S1                 0.0000
     39 ****         4.4879   3.8291   0.3784 H              1 S1                 0.0000
     40 ****         2.7324   4.8698   1.5920 H              1 S1                 0.0000
     41 ****         2.1143   3.3135   2.1933 H              1 S1                 0.0000
     42 ****         4.5346   4.8068   3.1551 H              1 S1                 0.0000
     43 ****         3.7224   3.4310   3.9077 H              1 S1                 0.0000
     44 ****         3.7746   1.3977   2.1838 H              1 S1                 0.0000
     45 ****         4.8825  -0.6593   0.9052 H              1 S1                 0.0000
     46 ****         4.6629  -0.4485  -0.8752 H              1 S1                 0.0000
     47 ****         7.1274   0.2949   0.8080 H              1 S1                 0.0000
     48 ****         7.0885  -0.1721  -0.9366 H              1 S1                 0.0000
     49 ****         6.0115   1.9339  -1.5420 H              1 S1                 0.0000
     50 ****         6.7059   2.5582   0.0040 H              1 S1                 0.0000
     51 ****        -0.3339   2.8961  -0.6832 LP             1 S1                 0.0000
     52 ****         1.3349   3.3386  -0.8217 LP             1 S1                 0.0000
     53 ****         5.6033   2.4556   3.1950 LP             1 S1                 0.0000
     54 ****         5.8225   3.4607   1.9268 LP             1 S1                 0.0000
     55 ****        -1.5781   2.4935  -0.5768 LP             1 S1                 0.0000
     56 ****        -3.8950   2.3949  -0.6583 LP             1 S1                 0.0000
@<TRIPOS>BOND
    1    1    2 1     
    2    1   25 1     
    3    1   26 1     
    4    1   27 1     
    5    2    3 1     
    6    2    4 1     
    7    2    5 1     
    8    3   28 1     
    9    3   29 1     
   10    3   30 1     
   11    4   31 1     
   12    4   32 1     
   13    4   33 1     
   14    5   24 ar    
   15    5    6 ar    
   16    6    7 ar    
   17    6   34 1     
   18    7    8 ar    
   19    7   35 1     
   20    8    9 1     
   21    8   23 ar    
   22    9   10 am    
   23    9   36 1     
   24   10   11 2     
   25   10   12 am    
   26   12   13 1     
   27   12   37 1     
   28   13   19 1     
   29   13   14 1     
   30   13   38 1     
   31   14   18 1     
   32   14   15 1     
   33   14   39 1     
   34   15   16 1     
   35   15   40 1     
   36   15   41 1     
   37   16   17 1     
   38   16   42 1     
   39   16   43 1     
   40   17   18 1     
   41   18   19 1     
   42   18   44 1     
   43   19   22 1     
   44   19   20 1     
   45   20   21 1     
   46   20   45 1     
   47   20   46 1     
   48   21   22 1     
   49   21   47 1     
   50   21   48 1     
   51   22   49 1     
   52   22   50 1     
   53   23   24 ar    
   54   11   51 1     
   55   11   52 1     
   56   17   53 1     
   57   17   54 1     
   58   23   55 1     
   59   24   56 1     
@<TRIPOS>SUBSTRUCTURE
      1 S1             1
@<TRIPOS>SET
LONE_PAIRS      STATIC     ATOMS    <user>   **** ""
6 51 52 53 54 55 56
DONOR_HYDROGENS      STATIC     ATOMS    <user>   **** ""
2 36 37
ATOM$BLUE        STATIC     ATOMS    COLORGROUP SYSTEM
6 51 52 53 54 55 56
ATOM$RED        STATIC     ATOMS    COLORGROUP SYSTEM
2 36 37
