AV-unprocessed.smi:3330|AV-procd|sdf|12814|dock5
  -GOLD-   2272019183D 1   1.00000     0.00000
 Structure written by MMmdl.
 37 38  0  0  0  0  0  0  0  0  2 V2000
  150.4572  135.5693  154.9878 C   0  0  0  0  0  0  0  0  0  0  0  0
  149.7380  136.9269  155.0933 C   0  0  1  0  0  0  0  0  0  0  0  0
  149.7518  137.3064  156.5017 N   0  0  0  0  0  0  0  0  0  0  0  0
  148.8813  136.4471  157.2884 C   0  0  0  0  0  0  0  0  0  0  0  0
  149.0987  136.7251  158.7826 C   0  0  0  0  0  0  0  0  0  0  0  0
  148.3210  135.7967  159.6073 N   0  0  0  0  0  0  0  0  0  0  0  0
  147.5521  136.1679  160.6355 C   0  0  0  0  0  0  0  0  0  0  0  0
  147.3669  137.3045  161.0710 O   0  0  0  0  0  0  0  0  0  0  0  0
  146.9101  134.9206  161.1966 C   0  0  0  0  0  0  0  0  0  0  0  0
  147.4302  133.8880  160.3289 N   0  5  0  0  0  0  0  0  0  0  0  0
  148.2470  134.4655  159.4170 C   0  0  0  0  0  0  0  0  0  0  0  0
  148.8577  133.8966  158.5127 O   0  0  0  0  0  0  0  0  0  0  0  0
  150.3996  138.0463  154.2453 C   0  0  2  0  0  0  0  0  0  0  0  0
  151.8440  138.3586  154.6781 C   0  0  0  0  0  0  0  0  0  0  0  0
  149.6098  139.2711  154.2671 N   0  0  0  0  0  0  0  0  0  0  0  0
  148.2684  139.4361  153.9844 C   0  0  0  0  0  0  0  0  0  0  0  0
  147.9775  140.7611  154.1389 C   0  0  0  0  0  0  0  0  0  0  0  0
  149.2209  141.3365  154.5216 C   0  0  0  0  0  0  0  0  0  0  0  0
  150.1942  140.4437  154.5986 N   0  0  0  0  0  0  0  0  0  0  0  0
  150.4146  135.1684  153.9751 H   0  0  0  0  0  0  0  0  0  0  0  0
  149.9959  134.8282  155.6415 H   0  0  0  0  0  0  0  0  0  0  0  0
  151.5081  135.6528  155.2677 H   0  0  0  0  0  0  0  0  0  0  0  0
  148.7122  136.7813  154.7501 H   0  0  0  0  0  0  0  0  0  0  0  0
  150.6929  137.2382  156.8621 H   0  0  0  0  0  0  0  0  0  0  0  0
  147.8392  136.6271  157.0222 H   0  0  0  0  0  0  0  0  0  0  0  0
  149.1013  135.4025  157.0631 H   0  0  0  0  0  0  0  0  0  0  0  0
  150.1584  136.6460  159.0314 H   0  0  0  0  0  0  0  0  0  0  0  0
  148.8158  137.7533  159.0159 H   0  0  0  0  0  0  0  0  0  0  0  0
  147.1990  134.7923  162.2403 H   0  0  0  0  0  0  0  0  0  0  0  0
  145.8241  135.0113  161.1558 H   0  0  0  0  0  0  0  0  0  0  0  0
  150.4372  137.7042  153.2090 H   0  0  0  0  0  0  0  0  0  0  0  0
  152.4966  137.4967  154.5385 H   0  0  0  0  0  0  0  0  0  0  0  0
  151.8935  138.6466  155.7286 H   0  0  0  0  0  0  0  0  0  0  0  0
  152.2615  139.1755  154.0886 H   0  0  0  0  0  0  0  0  0  0  0  0
  147.6404  138.6050  153.6991 H   0  0  0  0  0  0  0  0  0  0  0  0
  147.0225  141.2452  153.9990 H   0  0  0  0  0  0  0  0  0  0  0  0
  149.4438  142.3694  154.7451 H   0  0  0  0  0  0  0  0  0  0  0  0
  1  2  1  0  0  0  0
  1 20  1  0  0  0  0
  1 21  1  0  0  0  0
  1 22  1  0  0  0  0
  2  3  1  0  0  0  0
  2 13  1  0  0  0  0
  2 23  1  0  0  0  0
  3  4  1  0  0  0  0
  3 24  1  0  0  0  0
  4  5  1  0  0  0  0
  4 25  1  0  0  0  0
  4 26  1  0  0  0  0
  5  6  1  0  0  0  0
  5 27  1  0  0  0  0
  5 28  1  0  0  0  0
  6 11  1  0  0  0  0
  6  7  1  0  0  0  0
  7  8  2  0  0  0  0
  7  9  1  0  0  0  0
  9 10  1  0  0  0  0
  9 29  1  0  0  0  0
  9 30  1  0  0  0  0
 10 11  1  0  0  0  0
 11 12  2  0  0  0  0
 13 14  1  0  0  0  0
 13 15  1  0  0  0  0
 13 31  1  0  0  0  0
 14 32  1  0  0  0  0
 14 33  1  0  0  0  0
 14 34  1  0  0  0  0
 15 19  1  0  0  0  0
 15 16  1  0  0  0  0
 16 17  2  0  0  0  0
 16 35  1  0  0  0  0
 17 18  1  0  0  0  0
 17 36  1  0  0  0  0
 18 19  2  0  0  0  0
 18 37  1  0  0  0  0
M  CHG  1  10  -1
M  END
> <s_m_source_file>
AV-unprocessed.smi

> <i_m_source_file_index>
3330

> <i_lp_mmshare_version>
43012

> <i_f3d_flags>
0

> <s_epik_input>
bjFbY0hdW2NIXVtjSF1uMVtDQEBIXShbQ0gzXSlbQ0BIXShbQ0gzXSlbTkhdW0NIMl1bQ0gyXU4yQyg9TylbQ0gyXVtOSF1DMj1P

> <s_epik_cmdline>
J2VwaWtfcHl0aG9uJywgJy1waCcsICc3LjAnLCAnLXRuJywgJzgnLCAnLW1hJywgJzIwMCcsICctbWV0YWxfYmluZGluZycsICctaW1hZScsICc8aW5maWxlLm1hZT4nLCAnLW9tYWUnLCAnPG91dGZpbGUubWFlPic=

> <r_lp_tautomer_probability>
1

> <r_epik_Ionization_Penalty>
8.77477

> <r_epik_Ionization_Penalty_Charging>
6.28461

> <r_epik_Ionization_Penalty_Neutral>
2.49016

> <r_epik_State_Penalty>
8.73376

> <r_epik_Charging_Adjusted_Penalty>
15.0184

> <i_epik_Tot_Q>
-1

> <i_epik_Tot_abs_Q>
1

> <r_epik_Metal_State_Penalty>
4.73175

> <b_epik_Metal_Only>
1

> <s_lp_Force_Field>
OPLS_2005

> <r_lp_Energy>
21.213

> <b_lp_Chiralities_Consistent>
1

> <s_lp_Variant>
AV-unprocessed.smi:3330-14

> <Gold.Version>
5.8.1

> <Gold.Id.Protein>
6NUR|6NUR_protein|mol2

> <Gold.PLP.Fitness>
46.5526

> <Gold.PLP.PLP>
-32.5267

> <Gold.PLP.part.hbond>
-4.0000

> <Gold.PLP.part.metal>
0.0000

> <Gold.PLP.part.buried>
-3.1147

> <Gold.PLP.part.nonpolar>
-25.3524

> <Gold.PLP.part.repulsive>
0.0870

> <Gold.PLP.ligand.clash>
0.0000

> <Gold.PLP.ligand.torsion>
0.3250

> <Gold.PLP.Chemscore.Hbond>
3.8560

> <Gold.PLP.Chemscore.CHOScore>
1.0000

> <Gold.PLP.Chemscore.Metal>
0.0000

> <Gold.Chemscore.Hbonds>
donor molecule, donor type, donor heavy atom, donor atom, acceptor molecule, acceptor atom, score
      P1  H  6896  6907       L1    12  0.89
      P1  H  6931  6943       L1     8  0.69
      P1  H  6934  6947       L1     8  1.00
      P1  H  7989  7998       L1    19  0.96
      L1  C    18    37       P1  8028  0.90

> <Gold.PLP.Chemscore.Internal.Correction>
0.1078

> <Gold.Rescore>
     Score         DG    S(hbond)    S(metal)    S(lipo)     H(rot)  DE(clash)    DE(int)     intcor
     13.95     -15.92       3.05        0.00      57.17       2.52       0.19       1.78       ----

> <Gold.Chemscore.Fitness>
13.9462

> <Gold.Chemscore.DG>
-15.9159

> <Gold.Chemscore.ZeroCoef>
-5.4800

> <Gold.Chemscore.Hbond>
3.0503

> <Gold.Chemscore.Metal>
0.0000

> <Gold.Chemscore.Lipo>
57.1715

> <Gold.Chemscore.Internal_Hbond>
0.0000

> <Gold.Chemscore.DEClash>
0.1938

> <Gold.Chemscore.DEInternal>
1.7759

> <Gold.Chemscore.Rot>
2.5160

> <Gold.Chemscore.Internal.Correction>
   9.000000E+99

> <Gold.Chemscore.Hbonds>
donor molecule, donor type, donor heavy atom, donor atom, acceptor molecule, acceptor atom, score
      P1  H  6896  6907       L1    12  0.29
      P1  H  6931  6943       L1     8  0.63
      P1  H  6934  6947       L1     8  0.96
      P1  H  7989  7998       L1    19  0.62

> <Gold.Chemscore.Hbond.Weighted>
-10.1879

> <Gold.Chemscore.Metal.Weighted>
-0.0000

> <Gold.Chemscore.Lipo.Weighted>
-6.6891

> <Gold.Chemscore.Internal_Hbond.Weighted>
0.0000

> <Gold.Chemscore.DEClash.Weighted>
0.1938

> <Gold.Chemscore.DEInternal.Weighted>
1.7759

> <Gold.Chemscore.Rot.Weighted>
6.4410

> <Gold.Chemscore.Internal.Correction.Weighted>
   9.000000E+99

> <Gold.Protein.RotatedTorsions>
[ 6907 6896 6895 6894 ] final -121.03 input  -60.11 | X-H torsion
[ 7974 7965 7964 7962 ] final  158.88 input  175.53 | X-H torsion
[ 8008 7997 7996 7995 ] final   72.61 input   59.86 | X-H torsion
[ 10167 10162 10161 10158 ] final -172.27 input  -65.29 | X-H torsion
[ 10718 10713 10712 10709 ] final  177.18 input   66.30 | X-H torsion
[ 10763 10752 10751 10750 ] final  169.37 input  -60.55 | X-H torsion
[ 11005 11000 10999 10996 ] final -144.20 input  -57.11 | X-H torsion

> <Gold.Protein.ActiveResidues>
 VAL166  LYS551  ARG553  GLY616  TRP617  ASP618  TYR619  PRO620  LYS621  CYS622 
 ASP623  PHE694  ASN695  SER759  ASP760  ASP761  ALA762  ILE779  LEU786  VAL792 
 PHE793  MET794  SER795  GLU796  ALA797  LYS798  CYS799  TRP800  GLU811  SER814 

> <Gold.Protein.RotatedAtoms>
  150.8446  133.7882  159.3047 H   0  0  0  0  0  0  0  0  0  0  0  0  # atno 6907 bound_to 6896
  151.5573  135.1064  159.9973 H   0  0  0  0  0  0  0  0  0  0  0  0  # atno 6908 bound_to 6896
  152.4503  133.7573  159.6783 H   0  0  0  0  0  0  0  0  0  0  0  0  # atno 6909 bound_to 6896
  144.7821  139.7539  143.6255 H   0  0  0  0  0  0  0  0  0  0  0  0  # atno 7974 bound_to 7965
  155.7714  140.3484  155.5249 H   0  0  0  0  0  0  0  0  0  0  0  0  # atno 8008 bound_to 7997
  155.8818  140.1003  157.1501 H   0  0  0  0  0  0  0  0  0  0  0  0  # atno 8009 bound_to 7997
  154.4025  140.1321  156.4193 H   0  0  0  0  0  0  0  0  0  0  0  0  # atno 8010 bound_to 7997
  139.5754  144.1544  152.1443 H   0  0  0  0  0  0  0  0  0  0  0  0  # atno 10167 bound_to 10162
  156.9091  130.9904  151.3023 H   0  0  0  0  0  0  0  0  0  0  0  0  # atno 10718 bound_to 10713
  154.3822  135.2753  155.2204 H   0  0  0  0  0  0  0  0  0  0  0  0  # atno 10763 bound_to 10752
  154.4306  135.5978  153.6070 H   0  0  0  0  0  0  0  0  0  0  0  0  # atno 10764 bound_to 10752
  152.9834  135.5995  154.4066 H   0  0  0  0  0  0  0  0  0  0  0  0  # atno 10765 bound_to 10752
  140.8049  134.2813  157.4964 H   0  0  0  0  0  0  0  0  0  0  0  0  # atno 11005 bound_to 11000
  146.2035  139.5344  142.9728 LP  0  0  0  0  0  0  0  0  0  0  0  0  # atno 17320 bound_to 7965
  145.6021  141.0353  143.2012 LP  0  0  0  0  0  0  0  0  0  0  0  0  # atno 17321 bound_to 7965
  140.1086  144.5477  150.6940 LP  0  0  0  0  0  0  0  0  0  0  0  0  # atno 17342 bound_to 10162
  140.7037  143.2452  151.4790 LP  0  0  0  0  0  0  0  0  0  0  0  0  # atno 17343 bound_to 10162
  157.5978  130.8490  149.8756 LP  0  0  0  0  0  0  0  0  0  0  0  0  # atno 17370 bound_to 10713
  156.0544  130.3711  150.1124 LP  0  0  0  0  0  0  0  0  0  0  0  0  # atno 17371 bound_to 10713
  139.8718  134.9450  156.3898 LP  0  0  0  0  0  0  0  0  0  0  0  0  # atno 17394 bound_to 11000
  140.9257  133.7614  155.9962 LP  0  0  0  0  0  0  0  0  0  0  0  0  # atno 17395 bound_to 11000

$$$$
