AV-unprocessed.smi:169|AV-procd|sdf|1404|dock7
  -GOLD-   2262019153D 1   1.00000     0.00000
 Structure written by MMmdl.
 56 60  0  0  0  0  0  0  0  0  2 V2000
  141.5204  134.9137  153.4735 C   0  0  0  0  0  0  0  0  0  0  0  0
  141.7908  133.6881  152.5823 C   0  0  0  0  0  0  0  0  0  0  0  0
  143.2323  133.3647  152.4158 N   0  3  2  0  0  0  0  0  0  0  0  0
  144.1275  134.5434  152.5334 C   0  0  0  0  0  0  0  0  0  0  0  0
  145.4166  134.1957  153.3017 C   0  0  0  0  0  0  0  0  0  0  0  0
  146.3398  133.1520  152.6380 C   0  0  2  0  0  0  0  0  0  0  0  0
  146.8424  133.5757  151.2535 C   0  0  0  0  0  0  0  0  0  0  0  0
  145.8689  132.9199  150.2672 C   0  0  0  0  0  0  0  0  0  0  0  0
  144.9698  131.9989  151.1176 C   0  0  2  0  0  0  0  0  0  0  0  0
  143.5080  132.4982  151.2366 C   0  0  0  0  0  0  0  0  0  0  0  0
  145.6404  131.8895  152.4112 N   0  0  0  0  0  0  0  0  0  0  0  0
  146.2503  130.7002  152.6513 C   0  0  0  0  0  0  0  0  0  0  0  0
  145.6496  129.5299  152.3096 N   0  0  0  0  0  0  0  0  0  0  0  0
  146.2535  128.3638  152.5589 C   0  0  0  0  0  0  0  0  0  0  0  0
  147.4383  128.1438  153.1319 N   0  0  0  0  0  0  0  0  0  0  0  0
  148.0462  129.3147  153.4775 C   0  0  0  0  0  0  0  0  0  0  0  0
  147.5289  130.6238  153.2703 C   0  0  0  0  0  0  0  0  0  0  0  0
  148.4345  131.5712  153.7315 N   0  0  0  0  0  0  0  0  0  0  0  0
  149.4282  130.8613  154.1920 C   0  0  0  0  0  0  0  0  0  0  0  0
  149.2718  129.4960  154.0955 N   0  0  0  0  0  0  0  0  0  0  0  0
  150.2140  128.4718  154.5250 C   0  0  0  0  0  0  0  0  0  0  0  0
  151.4882  129.0104  155.2202 C   0  0  0  0  0  0  0  0  0  0  0  0
  151.0619  129.7183  156.5137 C   0  0  0  0  0  0  0  0  0  0  0  0
  152.1789  130.2317  157.2112 O   0  0  0  0  0  0  0  0  0  0  0  0
  152.6421  128.0050  155.3748 C   0  0  0  0  0  0  0  0  0  0  0  0
  153.3535  128.5700  154.2537 O   0  0  0  0  0  0  0  0  0  0  0  0
  152.5234  129.7466  154.3512 C   0  0  0  0  0  0  0  0  0  0  0  0
  140.4473  135.0687  153.5879 H   0  0  0  0  0  0  0  0  0  0  0  0
  141.9319  135.8279  153.0470 H   0  0  0  0  0  0  0  0  0  0  0  0
  141.9377  134.7901  154.4731 H   0  0  0  0  0  0  0  0  0  0  0  0
  141.2860  132.8169  153.0021 H   0  0  0  0  0  0  0  0  0  0  0  0
  141.3447  133.8444  151.5994 H   0  0  0  0  0  0  0  0  0  0  0  0
  144.3379  134.9717  151.5530 H   0  0  0  0  0  0  0  0  0  0  0  0
  143.6217  135.3282  153.0976 H   0  0  0  0  0  0  0  0  0  0  0  0
  145.9858  135.1125  153.4589 H   0  0  0  0  0  0  0  0  0  0  0  0
  145.1493  133.8440  154.2991 H   0  0  0  0  0  0  0  0  0  0  0  0
  147.1934  133.0249  153.3044 H   0  0  0  0  0  0  0  0  0  0  0  0
  146.9001  134.6583  151.1356 H   0  0  0  0  0  0  0  0  0  0  0  0
  147.8447  133.1771  151.0902 H   0  0  0  0  0  0  0  0  0  0  0  0
  145.2974  133.6657  149.7143 H   0  0  0  0  0  0  0  0  0  0  0  0
  146.4255  132.3370  149.5325 H   0  0  0  0  0  0  0  0  0  0  0  0
  144.9409  131.0328  150.6108 H   0  0  0  0  0  0  0  0  0  0  0  0
  142.8689  131.6199  151.3371 H   0  0  0  0  0  0  0  0  0  0  0  0
  143.1991  132.9842  150.3113 H   0  0  0  0  0  0  0  0  0  0  0  0
  145.7086  127.4810  152.2581 H   0  0  0  0  0  0  0  0  0  0  0  0
  150.3084  131.3199  154.6180 H   0  0  0  0  0  0  0  0  0  0  0  0
  149.6730  127.7882  155.1800 H   0  0  0  0  0  0  0  0  0  0  0  0
  150.4852  127.8844  153.6468 H   0  0  0  0  0  0  0  0  0  0  0  0
  150.3674  130.5331  156.3061 H   0  0  0  0  0  0  0  0  0  0  0  0
  150.5416  129.0311  157.1816 H   0  0  0  0  0  0  0  0  0  0  0  0
  151.9680  130.2717  158.1315 H   0  0  0  0  0  0  0  0  0  0  0  0
  153.2061  128.1150  156.3027 H   0  0  0  0  0  0  0  0  0  0  0  0
  152.3627  126.9635  155.2232 H   0  0  0  0  0  0  0  0  0  0  0  0
  152.1544  130.0898  153.3861 H   0  0  0  0  0  0  0  0  0  0  0  0
  153.0366  130.5571  154.8718 H   0  0  0  0  0  0  0  0  0  0  0  0
  143.4547  132.7932  153.2185 H   0  0  0  0  0  0  0  0  0  0  0  0
  1  2  1  0  0  0  0
  1 28  1  0  0  0  0
  1 29  1  0  0  0  0
  1 30  1  0  0  0  0
  2  3  1  0  0  0  0
  2 31  1  0  0  0  0
  2 32  1  0  0  0  0
  3 10  1  0  0  0  0
  3  4  1  0  0  0  0
  3 56  1  0  0  0  0
  4  5  1  0  0  0  0
  4 33  1  0  0  0  0
  4 34  1  0  0  0  0
  5  6  1  0  0  0  0
  5 35  1  0  0  0  0
  5 36  1  0  0  0  0
  6 11  1  0  0  0  0
  6  7  1  0  0  0  0
  6 37  1  0  0  0  0
  7  8  1  0  0  0  0
  7 38  1  0  0  0  0
  7 39  1  0  0  0  0
  8  9  1  0  0  0  0
  8 40  1  0  0  0  0
  8 41  1  0  0  0  0
  9 10  1  0  0  0  0
  9 11  1  0  0  0  0
  9 42  1  0  0  0  0
 10 43  1  0  0  0  0
 10 44  1  0  0  0  0
 11 12  1  0  0  0  0
 12 17  1  0  0  0  0
 12 13  2  0  0  0  0
 13 14  1  0  0  0  0
 14 15  2  0  0  0  0
 14 45  1  0  0  0  0
 15 16  1  0  0  0  0
 16 20  1  0  0  0  0
 16 17  2  0  0  0  0
 17 18  1  0  0  0  0
 18 19  2  0  0  0  0
 19 20  1  0  0  0  0
 19 46  1  0  0  0  0
 20 21  1  0  0  0  0
 21 22  1  0  0  0  0
 21 47  1  0  0  0  0
 21 48  1  0  0  0  0
 22 27  1  0  0  0  0
 22 23  1  0  0  0  0
 22 25  1  0  0  0  0
 23 24  1  0  0  0  0
 23 49  1  0  0  0  0
 23 50  1  0  0  0  0
 24 51  1  0  0  0  0
 25 26  1  0  0  0  0
 25 52  1  0  0  0  0
 25 53  1  0  0  0  0
 26 27  1  0  0  0  0
 27 54  1  0  0  0  0
 27 55  1  0  0  0  0
M  CHG  1   3   1
M  END
> <s_m_source_file>
AV-unprocessed.smi

> <i_m_source_file_index>
169

> <i_lp_mmshare_version>
43012

> <i_f3d_flags>
0

> <s_epik_input>
W0NASF0xMltDSDJdW0NIMl1OKFtDSDJdW0NIM10pW0NIMl1bQ0BIXShbQ0gyXVtDSDJdMSlOMmMobltjSF1uMyljKGMzNCluW2NIXW40W0NIMl1DNShbQ0gyXVtPSF0pW0NIMl1PW0NIMl01

> <s_epik_cmdline>
J2VwaWtfcHl0aG9uJywgJy1waCcsICc3LjAnLCAnLXRuJywgJzgnLCAnLW1hJywgJzIwMCcsICctbWV0YWxfYmluZGluZycsICctaW1hZScsICc8aW5maWxlLm1hZT4nLCAnLW9tYWUnLCAnPG91dGZpbGUubWFlPic=

> <r_lp_tautomer_probability>
1

> <r_epik_Ionization_Penalty>
0.00274162

> <r_epik_Ionization_Penalty_Charging>
0.00243722

> <r_epik_Ionization_Penalty_Neutral>
0.000304399

> <r_epik_State_Penalty>
-0

> <r_epik_Charging_Adjusted_Penalty>
0.00243722

> <i_epik_Tot_Q>
1

> <i_epik_Tot_abs_Q>
1

> <r_epik_Metal_State_Penalty>
-0

> <b_epik_Metal_Only>
0

> <s_lp_Force_Field>
OPLS_2005

> <r_lp_Energy>
74.1365

> <b_lp_Chiralities_Consistent>
1

> <s_lp_Variant>
AV-unprocessed.smi:169-7

> <Gold.Version>
5.8.1

> <Gold.Id.Protein>
6NUR|6NUR_protein|mol2

> <Gold.PLP.Fitness>
42.1976

> <Gold.PLP.PLP>
-37.4999

> <Gold.PLP.part.hbond>
-1.0000

> <Gold.PLP.part.metal>
0.0000

> <Gold.PLP.part.buried>
-5.3611

> <Gold.PLP.part.nonpolar>
-33.1086

> <Gold.PLP.part.repulsive>
0.5387

> <Gold.PLP.ligand.clash>
0.0000

> <Gold.PLP.ligand.torsion>
0.7687

> <Gold.PLP.Chemscore.Hbond>
1.9032

> <Gold.PLP.Chemscore.CHOScore>
0.0000

> <Gold.PLP.Chemscore.Metal>
0.0000

> <Gold.Chemscore.Hbonds>
donor molecule, donor type, donor heavy atom, donor atom, acceptor molecule, acceptor atom, score
      L1  H     3    56       P1 10957  1.76

> <Gold.PLP.Chemscore.Internal.Correction>
0.5255

> <Gold.Rescore>
     Score         DG    S(hbond)    S(metal)    S(lipo)     H(rot)  DE(clash)    DE(int)     intcor
      7.23      -9.77       0.52        0.00      79.28       2.62       0.47       2.08       ----

> <Gold.Chemscore.Fitness>
7.2310

> <Gold.Chemscore.DG>
-9.7743

> <Gold.Chemscore.ZeroCoef>
-5.4800

> <Gold.Chemscore.Hbond>
0.5174

> <Gold.Chemscore.Metal>
0.0000

> <Gold.Chemscore.Lipo>
79.2848

> <Gold.Chemscore.Internal_Hbond>
0.0000

> <Gold.Chemscore.DEClash>
0.4675

> <Gold.Chemscore.DEInternal>
2.0759

> <Gold.Chemscore.Rot>
2.6212

> <Gold.Chemscore.Internal.Correction>
   9.000000E+99

> <Gold.Chemscore.Hbonds>
donor molecule, donor type, donor heavy atom, donor atom, acceptor molecule, acceptor atom, score
      L1  H     3    56       P1 10957  0.37

> <Gold.Chemscore.Hbond.Weighted>
-1.7282

> <Gold.Chemscore.Metal.Weighted>
-0.0000

> <Gold.Chemscore.Lipo.Weighted>
-9.2763

> <Gold.Chemscore.Internal_Hbond.Weighted>
0.0000

> <Gold.Chemscore.DEClash.Weighted>
0.4675

> <Gold.Chemscore.DEInternal.Weighted>
2.0759

> <Gold.Chemscore.Rot.Weighted>
6.7102

> <Gold.Chemscore.Internal.Correction.Weighted>
   9.000000E+99

> <Gold.Protein.RotatedTorsions>
[ 6907 6896 6895 6894 ] final -155.65 input  -60.11 | X-H torsion
[ 7974 7965 7964 7962 ] final -131.44 input  175.53 | X-H torsion
[ 8008 7997 7996 7995 ] final  141.40 input   59.86 | X-H torsion
[ 10167 10162 10161 10158 ] final  155.69 input  -65.29 | X-H torsion
[ 10718 10713 10712 10709 ] final   77.95 input   66.30 | X-H torsion
[ 10763 10752 10751 10750 ] final  108.31 input  -60.55 | X-H torsion
[ 11005 11000 10999 10996 ] final  -83.53 input  -57.11 | X-H torsion

> <Gold.Protein.ActiveResidues>
 VAL166  LYS551  ARG553  GLY616  TRP617  ASP618  TYR619  PRO620  LYS621  CYS622 
 ASP623  PHE694  ASN695  SER759  ASP760  ASP761  ALA762  ILE779  LEU786  VAL792 
 PHE793  MET794  SER795  GLU796  ALA797  LYS798  CYS799  TRP800  GLU811  SER814 

> <Gold.Protein.RotatedAtoms>
  151.2757  133.4233  159.2623 H   0  0  0  0  0  0  0  0  0  0  0  0  # atno 6907 bound_to 6896
  151.0405  134.9604  159.8169 H   0  0  0  0  0  0  0  0  0  0  0  0  # atno 6908 bound_to 6896
  152.5364  134.2715  159.9026 H   0  0  0  0  0  0  0  0  0  0  0  0  # atno 6909 bound_to 6896
  144.9379  140.7204  143.4865 H   0  0  0  0  0  0  0  0  0  0  0  0  # atno 7974 bound_to 7965
  156.2966  140.2316  156.4559 H   0  0  0  0  0  0  0  0  0  0  0  0  # atno 8008 bound_to 7997
  154.8061  140.0445  157.1329 H   0  0  0  0  0  0  0  0  0  0  0  0  # atno 8009 bound_to 7997
  154.9477  140.3038  155.5093 H   0  0  0  0  0  0  0  0  0  0  0  0  # atno 8010 bound_to 7997
  139.4821  144.5076  151.8074 H   0  0  0  0  0  0  0  0  0  0  0  0  # atno 10167 bound_to 10162
  157.6728  130.9845  150.1716 H   0  0  0  0  0  0  0  0  0  0  0  0  # atno 10718 bound_to 10713
  153.4189  135.3816  155.2098 H   0  0  0  0  0  0  0  0  0  0  0  0  # atno 10763 bound_to 10752
  154.8743  135.3812  154.4408 H   0  0  0  0  0  0  0  0  0  0  0  0  # atno 10764 bound_to 10752
  153.4926  135.7088  153.5938 H   0  0  0  0  0  0  0  0  0  0  0  0  # atno 10765 bound_to 10752
  141.1657  133.7299  156.8734 H   0  0  0  0  0  0  0  0  0  0  0  0  # atno 11005 bound_to 11000
  145.3038  139.1841  143.4675 LP  0  0  0  0  0  0  0  0  0  0  0  0  # atno 17320 bound_to 7965
  146.3274  140.3033  142.8622 LP  0  0  0  0  0  0  0  0  0  0  0  0  # atno 17321 bound_to 7965
  140.4575  144.1768  150.5903 LP  0  0  0  0  0  0  0  0  0  0  0  0  # atno 17342 bound_to 10162
  140.4520  143.2483  151.9336 LP  0  0  0  0  0  0  0  0  0  0  0  0  # atno 17343 bound_to 10162
  156.2469  130.3696  149.8275 LP  0  0  0  0  0  0  0  0  0  0  0  0  # atno 17370 bound_to 10713
  156.6059  130.8566  151.3443 LP  0  0  0  0  0  0  0  0  0  0  0  0  # atno 17371 bound_to 10713
  140.1766  134.9063  157.2898 LP  0  0  0  0  0  0  0  0  0  0  0  0  # atno 17394 bound_to 11000
  140.2442  134.3759  155.7468 LP  0  0  0  0  0  0  0  0  0  0  0  0  # atno 17395 bound_to 11000

$$$$
