AV-unprocessed.smi:102|AV-procd|sdf|947|dock7
  -GOLD-   2262017473D 1   1.00000     0.00000
 Structure written by MMmdl.
 44 45  0  0  0  0  0  0  0  0  1 V2000
  146.8742  135.3053  162.1647 C   0  0  0  0  0  0  0  0  0  0  0  0
  147.2294  136.0078  160.8612 C   0  0  0  0  0  0  0  0  0  0  0  0
  147.0878  137.2231  160.7259 O   0  0  0  0  0  0  0  0  0  0  0  0
  147.6914  135.1600  159.9321 O   0  0  0  0  0  0  0  0  0  0  0  0
  148.2754  135.6694  158.7430 C   0  0  0  0  0  0  0  0  0  0  0  0
  148.5210  134.5370  157.7358 C   0  0  2  0  0  0  0  0  0  0  0  0
  149.9175  134.3110  157.5588 O   0  0  0  0  0  0  0  0  0  0  0  0
  150.2778  134.4415  156.2149 C   0  0  2  0  0  0  0  0  0  0  0  0
  150.8841  135.8260  156.0272 N   0  0  0  0  0  0  0  0  0  0  0  0
  150.3328  136.8222  155.2238 C   0  0  0  0  0  0  0  0  0  0  0  0
  150.8661  138.0618  155.1112 C   0  0  0  0  0  0  0  0  0  0  0  0
  150.2718  138.9694  154.3181 F   0  0  0  0  0  0  0  0  0  0  0  0
  152.0692  138.4277  155.8498 C   0  0  0  0  0  0  0  0  0  0  0  0
  152.6233  139.5245  155.8128 O   0  0  0  0  0  0  0  0  0  0  0  0
  152.5820  137.4074  156.6531 N   0  0  0  0  0  0  0  0  0  0  0  0
  152.0424  136.1271  156.7805 C   0  0  0  0  0  0  0  0  0  0  0  0
  152.5777  135.3116  157.5306 O   0  0  0  0  0  0  0  0  0  0  0  0
  148.9905  134.1896  155.4123 C   0  0  1  0  0  0  0  0  0  0  0  0
  148.8137  132.7858  155.2405 O   0  0  0  0  0  0  0  0  0  0  0  0
  149.4096  132.1442  154.2206 C   0  0  0  0  0  0  0  0  0  0  0  0
  149.7332  130.6945  154.5558 C   0  0  0  0  0  0  0  0  0  0  0  0
  149.6915  132.6293  153.1250 O   0  0  0  0  0  0  0  0  0  0  0  0
  147.9240  134.7645  156.3427 C   0  0  1  0  0  0  0  0  0  0  0  0
  146.6580  134.1331  156.1890 O   0  0  0  0  0  0  0  0  0  0  0  0
  145.5953  134.5771  156.8830 C   0  0  0  0  0  0  0  0  0  0  0  0
  144.3477  133.7388  156.6384 C   0  0  0  0  0  0  0  0  0  0  0  0
  145.5782  135.5511  157.6358 O   0  0  0  0  0  0  0  0  0  0  0  0
  153.4110  137.6152  157.1905 H   0  0  0  0  0  0  0  0  0  0  0  0
  147.6814  134.6404  162.4723 H   0  0  0  0  0  0  0  0  0  0  0  0
  145.9664  134.7153  162.0393 H   0  0  0  0  0  0  0  0  0  0  0  0
  146.7056  136.0335  162.9582 H   0  0  0  0  0  0  0  0  0  0  0  0
  147.6200  136.4216  158.3021 H   0  0  0  0  0  0  0  0  0  0  0  0
  149.2195  136.1600  158.9839 H   0  0  0  0  0  0  0  0  0  0  0  0
  148.1206  133.6101  158.1485 H   0  0  0  0  0  0  0  0  0  0  0  0
  151.0827  133.7545  155.9452 H   0  0  0  0  0  0  0  0  0  0  0  0
  149.4397  136.6460  154.6479 H   0  0  0  0  0  0  0  0  0  0  0  0
  149.0089  134.6779  154.4382 H   0  0  0  0  0  0  0  0  0  0  0  0
  148.9201  130.2419  155.1237 H   0  0  0  0  0  0  0  0  0  0  0  0
  150.6450  130.6401  155.1503 H   0  0  0  0  0  0  0  0  0  0  0  0
  149.8800  130.1155  153.6438 H   0  0  0  0  0  0  0  0  0  0  0  0
  147.8257  135.8365  156.1735 H   0  0  0  0  0  0  0  0  0  0  0  0
  144.6091  132.6876  156.5143 H   0  0  0  0  0  0  0  0  0  0  0  0
  143.8372  134.0785  155.7373 H   0  0  0  0  0  0  0  0  0  0  0  0
  143.6596  133.8251  157.4795 H   0  0  0  0  0  0  0  0  0  0  0  0
  1  2  1  0  0  0  0
  1 29  1  0  0  0  0
  1 30  1  0  0  0  0
  1 31  1  0  0  0  0
  2  3  2  0  0  0  0
  2  4  1  0  0  0  0
  4  5  1  0  0  0  0
  5  6  1  0  0  0  0
  5 32  1  0  0  0  0
  5 33  1  0  0  0  0
  6 23  1  0  0  0  0
  6  7  1  0  0  0  0
  6 34  1  0  0  0  0
  7  8  1  0  0  0  0
  8  9  1  0  0  0  0
  8 18  1  0  0  0  0
  8 35  1  0  0  0  0
  9 16  1  0  0  0  0
  9 10  1  0  0  0  0
 10 11  2  0  0  0  0
 10 36  1  0  0  0  0
 11 12  1  0  0  0  0
 11 13  1  0  0  0  0
 13 14  2  0  0  0  0
 13 15  1  0  0  0  0
 15 28  1  0  0  0  0
 15 16  1  0  0  0  0
 16 17  2  0  0  0  0
 18 19  1  0  0  0  0
 18 23  1  0  0  0  0
 18 37  1  0  0  0  0
 19 20  1  0  0  0  0
 20 21  1  0  0  0  0
 20 22  2  0  0  0  0
 21 38  1  0  0  0  0
 21 39  1  0  0  0  0
 21 40  1  0  0  0  0
 23 24  1  0  0  0  0
 23 41  1  0  0  0  0
 24 25  1  0  0  0  0
 25 26  1  0  0  0  0
 25 27  2  0  0  0  0
 26 42  1  0  0  0  0
 26 43  1  0  0  0  0
 26 44  1  0  0  0  0
M  END
> <s_m_source_file>
AV-unprocessed.smi

> <i_m_source_file_index>
102

> <i_lp_mmshare_version>
43012

> <i_f3d_flags>
0

> <s_epik_input>
W0NIM11DKD1PKU9bQ0gyXVtDQEBIXTFPW0NASF0oW0NAQEhdKE9DKD1PKVtDSDNdKVtDQEhdMU9DKD1PKVtDSDNdKW4yW2NIXWMoRiljKD1PKVtuSF1jMj1P

> <s_epik_cmdline>
J2VwaWtfcHl0aG9uJywgJy1waCcsICc3LjAnLCAnLXRuJywgJzgnLCAnLW1hJywgJzIwMCcsICctbWV0YWxfYmluZGluZycsICctaW1hZScsICc8aW5maWxlLm1hZT4nLCAnLW9tYWUnLCAnPG91dGZpbGUubWFlPic=

> <r_lp_tautomer_probability>
0.999537

> <r_epik_Ionization_Penalty>
0.058267

> <r_epik_Ionization_Penalty_Charging>
0.058267

> <r_epik_Ionization_Penalty_Neutral>
6.57791e-16

> <r_epik_State_Penalty>
0.0503774

> <r_epik_Charging_Adjusted_Penalty>
0.108644

> <i_epik_Tot_Q>
0

> <i_epik_Tot_abs_Q>
0

> <r_epik_Metal_State_Penalty>
2.6644

> <b_epik_Metal_Only>
0

> <s_epik_Chemistry_Notes>
This compound has an ester and may undergo hydrolysis at high or low pH. This compound contains an acetal/aminal-like group ( X-CH(R)-Y where X, Y are N, S, or O) that may be acid/base labile, releasing an aldehyde.

> <s_lp_Force_Field>
OPLS_2005

> <r_lp_Energy>
12.8292

> <b_lp_Chiralities_Consistent>
1

> <s_lp_Variant>
AV-unprocessed.smi:102-3

> <Gold.Version>
5.8.1

> <Gold.Id.Protein>
6NUR|6NUR_protein|mol2

> <Gold.PLP.Fitness>
40.7118

> <Gold.PLP.PLP>
-32.1951

> <Gold.PLP.part.hbond>
-5.5643

> <Gold.PLP.part.metal>
0.0000

> <Gold.PLP.part.buried>
-4.1008

> <Gold.PLP.part.nonpolar>
-23.5124

> <Gold.PLP.part.repulsive>
0.3865

> <Gold.PLP.ligand.clash>
0.0000

> <Gold.PLP.ligand.torsion>
1.4745

> <Gold.PLP.Chemscore.Hbond>
3.7519

> <Gold.PLP.Chemscore.CHOScore>
0.0000

> <Gold.PLP.Chemscore.Metal>
0.0000

> <Gold.Chemscore.Hbonds>
donor molecule, donor type, donor heavy atom, donor atom, acceptor molecule, acceptor atom, score
      P1  H  6896  6909       L1     7  0.93
      P1  H  6934  6947       L1     3  1.00
      P1  H  7997  8008       L1    14  1.00
      L1  C    10    36       P1  7948  0.24

> <Gold.PLP.Chemscore.Internal.Correction>
0.2101

> <Gold.Rescore>
     Score         DG    S(hbond)    S(metal)    S(lipo)     H(rot)  DE(clash)    DE(int)     intcor
      8.77     -11.42       3.74        0.00      32.54       4.05       0.00       2.65       ----

> <Gold.Chemscore.Fitness>
8.7690

> <Gold.Chemscore.DG>
-11.4228

> <Gold.Chemscore.ZeroCoef>
-5.4800

> <Gold.Chemscore.Hbond>
3.7450

> <Gold.Chemscore.Metal>
0.0000

> <Gold.Chemscore.Lipo>
32.5449

> <Gold.Chemscore.Internal_Hbond>
0.0000

> <Gold.Chemscore.DEClash>
0.0000

> <Gold.Chemscore.DEInternal>
2.6539

> <Gold.Chemscore.Rot>
4.0520

> <Gold.Chemscore.Internal.Correction>
   9.000000E+99

> <Gold.Chemscore.Hbonds>
donor molecule, donor type, donor heavy atom, donor atom, acceptor molecule, acceptor atom, score
      P1  H  6896  6909       L1     7  0.63
      P1  H  6931  6943       L1     3  0.01
      P1  H  6934  6947       L1     3  1.00
      P1  H  7997  8008       L1    14  1.00

> <Gold.Chemscore.Hbond.Weighted>
-12.5082

> <Gold.Chemscore.Metal.Weighted>
-0.0000

> <Gold.Chemscore.Lipo.Weighted>
-3.8078

> <Gold.Chemscore.Internal_Hbond.Weighted>
0.0000

> <Gold.Chemscore.DEClash.Weighted>
0.0000

> <Gold.Chemscore.DEInternal.Weighted>
2.6539

> <Gold.Chemscore.Rot.Weighted>
10.3732

> <Gold.Chemscore.Internal.Correction.Weighted>
   9.000000E+99

> <Gold.Protein.RotatedTorsions>
[ 6907 6896 6895 6894 ] final    8.54 input  -60.11 | X-H torsion
[ 7974 7965 7964 7962 ] final  118.94 input  175.53 | X-H torsion
[ 8008 7997 7996 7995 ] final  -36.92 input   59.86 | X-H torsion
[ 10167 10162 10161 10158 ] final  -12.16 input  -65.29 | X-H torsion
[ 10718 10713 10712 10709 ] final  138.22 input   66.30 | X-H torsion
[ 10763 10752 10751 10750 ] final  -87.40 input  -60.55 | X-H torsion
[ 11005 11000 10999 10996 ] final  140.32 input  -57.11 | X-H torsion

> <Gold.Protein.ActiveResidues>
 VAL166  LYS551  ARG553  GLY616  TRP617  ASP618  TYR619  PRO620  LYS621  CYS622 
 ASP623  PHE694  ASN695  SER759  ASP760  ASP761  ALA762  ILE779  LEU786  VAL792 
 PHE793  MET794  SER795  GLU796  ALA797  LYS798  CYS799  TRP800  GLU811  SER814 

> <Gold.Protein.RotatedAtoms>
  151.7077  135.0918  160.0261 H   0  0  0  0  0  0  0  0  0  0  0  0  # atno 6907 bound_to 6896
  152.3681  133.6379  159.6074 H   0  0  0  0  0  0  0  0  0  0  0  0  # atno 6908 bound_to 6896
  150.7653  133.9231  159.3445 H   0  0  0  0  0  0  0  0  0  0  0  0  # atno 6909 bound_to 6896
  145.1491  139.3221  143.4576 H   0  0  0  0  0  0  0  0  0  0  0  0  # atno 7974 bound_to 7965
  154.4063  140.1618  156.2453 H   0  0  0  0  0  0  0  0  0  0  0  0  # atno 8008 bound_to 7997
  155.9166  140.3424  155.6117 H   0  0  0  0  0  0  0  0  0  0  0  0  # atno 8009 bound_to 7997
  155.7272  140.0776  157.2295 H   0  0  0  0  0  0  0  0  0  0  0  0  # atno 8010 bound_to 7997
  140.7155  143.5562  150.9246 H   0  0  0  0  0  0  0  0  0  0  0  0  # atno 10167 bound_to 10162
  157.4277  131.1045  151.0285 H   0  0  0  0  0  0  0  0  0  0  0  0  # atno 10718 bound_to 10713
  154.6332  135.5414  153.7704 H   0  0  0  0  0  0  0  0  0  0  0  0  # atno 10763 bound_to 10752
  153.0295  135.6441  154.1270 H   0  0  0  0  0  0  0  0  0  0  0  0  # atno 10764 bound_to 10752
  154.1199  135.2921  155.3191 H   0  0  0  0  0  0  0  0  0  0  0  0  # atno 10765 bound_to 10752
  140.0319  134.9348  157.0678 H   0  0  0  0  0  0  0  0  0  0  0  0  # atno 11005 bound_to 11000
  146.3496  140.1558  142.8591 LP  0  0  0  0  0  0  0  0  0  0  0  0  # atno 17320 bound_to 7965
  145.0450  140.8974  143.5030 LP  0  0  0  0  0  0  0  0  0  0  0  0  # atno 17321 bound_to 7965
  139.9287  143.6519  152.3081 LP  0  0  0  0  0  0  0  0  0  0  0  0  # atno 17342 bound_to 10162
  139.6962  144.7641  151.1352 LP  0  0  0  0  0  0  0  0  0  0  0  0  # atno 17343 bound_to 10162
  157.1193  130.6055  149.5501 LP  0  0  0  0  0  0  0  0  0  0  0  0  # atno 17370 bound_to 10713
  155.9902  130.4952  150.7247 LP  0  0  0  0  0  0  0  0  0  0  0  0  # atno 17371 bound_to 10713
  140.4212  134.1879  155.7164 LP  0  0  0  0  0  0  0  0  0  0  0  0  # atno 17394 bound_to 11000
  141.1835  133.8362  157.1171 LP  0  0  0  0  0  0  0  0  0  0  0  0  # atno 17395 bound_to 11000

$$$$
