#       Name:                AV-unprocessed.smi:2179
#       Creating user name   scv26
#       Creation time:       Fri Mar 27 12:05:28 2020


#       File generated by GOLD software.
#

@<TRIPOS>MOLECULE
AV-unprocessed.smi:2179
    55    56     1
SMALL
NO_CHARGES


@<TRIPOS>ATOM
      1 ****        -8.4271   1.8129   2.5498 C.3            1 S1                 0.0000
      2 ****        -6.9233   1.5657   2.4963 C.2            1 S1                 0.0000
      3 ****        -6.3118   1.2551   3.5179 O.2            1 S1                 0.0000
      4 ****        -6.3407   1.7039   1.2961 N.am           1 S1                 0.0000
      5 ****        -4.9199   1.5167   1.0291 C.3            1 S1                 0.0000
      6 ****        -4.5632   0.0267   0.8847 C.3            1 S1                 0.0000
      7 ****        -3.1393  -0.1566   0.6341 N.am           1 S1                 0.0000
      8 ****        -2.5431  -0.0244  -0.5617 C.2            1 S1                 0.0000
      9 ****        -3.1448   0.2848  -1.5903 O.2            1 S1                 0.0000
     10 ****        -1.0531  -0.2085  -0.5677 C.ar           1 S1                 0.0000
     11 ****        -0.4086  -1.0925   0.3252 C.ar           1 S1                 0.0000
     12 ****         0.9902  -1.2366   0.2575 C.ar           1 S1                 0.0000
     13 ****         1.7146  -0.5009  -0.7097 C.ar           1 S1                 0.0000
     14 ****         3.1170  -0.6323  -0.7943 N.3            1 S1                 0.0000
     15 ****         3.6144  -1.9980  -0.9350 C.3            1 S1                 0.0000
     16 ****         5.1341  -2.0616  -0.6861 C.3            1 S1                 0.0000
     17 ****         5.5153  -1.9537   0.8010 C.3            1 S1                 0.0000
     18 ****         5.8083  -1.0902  -1.4892 O.3            1 S1                 0.0000
     19 ****         5.3567   0.2516  -1.3096 C.3            1 S1                 0.0000
     20 ****         6.1733   1.1561  -2.2385 C.3            1 S1                 0.0000
     21 ****         3.8496   0.3328  -1.6090 C.3            1 S1                 0.0000
     22 ****         1.0935   0.3425  -1.5702 N.ar           1 S1                 0.0000
     23 ****        -0.2480   0.4766  -1.5026 C.ar           1 S1                 0.0000
     24 ****        -8.9587   1.0353   2.0009 H              1 S1                 0.0000
     25 ****        -8.6736   2.7792   2.1084 H              1 S1                 0.0000
     26 ****        -8.7833   1.8090   3.5805 H              1 S1                 0.0000
     27 ****        -6.9223   1.9596   0.5115 H              1 S1                 0.0000
     28 ****        -4.6795   2.0521   0.1100 H              1 S1                 0.0000
     29 ****        -4.3269   1.9777   1.8207 H              1 S1                 0.0000
     30 ****        -4.8112  -0.5109   1.8001 H              1 S1                 0.0000
     31 ****        -5.1482  -0.4330   0.0862 H              1 S1                 0.0000
     32 ****        -2.5626  -0.3885   1.4299 H              1 S1                 0.0000
     33 ****        -0.9673  -1.6572   1.0574 H              1 S1                 0.0000
     34 ****         1.4899  -1.8964   0.9511 H              1 S1                 0.0000
     35 ****         3.1089  -2.6905  -0.2633 H              1 S1                 0.0000
     36 ****         3.3967  -2.3345  -1.9496 H              1 S1                 0.0000
     37 ****         5.4850  -3.0349  -1.0304 H              1 S1                 0.0000
     38 ****         5.0973  -2.7862   1.3674 H              1 S1                 0.0000
     39 ****         5.1454  -1.0359   1.2578 H              1 S1                 0.0000
     40 ****         6.5978  -1.9792   0.9277 H              1 S1                 0.0000
     41 ****         5.5430   0.5679  -0.2831 H              1 S1                 0.0000
     42 ****         5.8728   2.1990  -2.1343 H              1 S1                 0.0000
     43 ****         6.0412   0.8719  -3.2830 H              1 S1                 0.0000
     44 ****         7.2369   1.0926  -2.0077 H              1 S1                 0.0000
     45 ****         3.6622   0.1274  -2.6639 H              1 S1                 0.0000
     46 ****         3.4957   1.3444  -1.4055 H              1 S1                 0.0000
     47 ****        -0.6849   1.1591  -2.2170 H              1 S1                 0.0000
     48 ****        -6.8009   1.1644   4.3854 LP             1 S1                 0.0000
     49 ****        -5.3256   1.0935   3.4807 LP             1 S1                 0.0000
     50 ****        -4.1303   0.4521  -1.5620 LP             1 S1                 0.0000
     51 ****        -2.6480   0.3687  -2.4541 LP             1 S1                 0.0000
     52 ****         3.3539  -0.3490   0.1351 LP             1 S1                 0.0000
     53 ****         5.6785  -1.3363  -2.4497 LP             1 S1                 0.0000
     54 ****         6.7824  -1.1233  -1.2654 LP             1 S1                 0.0000
     55 ****         1.6215   0.8579  -2.2453 LP             1 S1                 0.0000
@<TRIPOS>BOND
    1    1    2 1     
    2    1   24 1     
    3    1   25 1     
    4    1   26 1     
    5    2    3 2     
    6    2    4 am    
    7    4    5 1     
    8    4   27 1     
    9    5    6 1     
   10    5   28 1     
   11    5   29 1     
   12    6    7 1     
   13    6   30 1     
   14    6   31 1     
   15    7    8 am    
   16    7   32 1     
   17    8    9 2     
   18    8   10 1     
   19   10   23 ar    
   20   10   11 ar    
   21   11   12 ar    
   22   11   33 1     
   23   12   13 ar    
   24   12   34 1     
   25   13   14 1     
   26   13   22 ar    
   27   14   21 1     
   28   14   15 1     
   29   15   16 1     
   30   15   35 1     
   31   15   36 1     
   32   16   17 1     
   33   16   18 1     
   34   16   37 1     
   35   17   38 1     
   36   17   39 1     
   37   17   40 1     
   38   18   19 1     
   39   19   20 1     
   40   19   21 1     
   41   19   41 1     
   42   20   42 1     
   43   20   43 1     
   44   20   44 1     
   45   21   45 1     
   46   21   46 1     
   47   22   23 ar    
   48   23   47 1     
   49    3   48 1     
   50    3   49 1     
   51    9   50 1     
   52    9   51 1     
   53   14   52 1     
   54   18   53 1     
   55   18   54 1     
   56   22   55 1     
@<TRIPOS>SUBSTRUCTURE
      1 S1             1
@<TRIPOS>SET
LONE_PAIRS      STATIC     ATOMS    <user>   **** ""
8 48 49 50 51 52 53 54 55
DONOR_HYDROGENS      STATIC     ATOMS    <user>   **** ""
2 27 32
ATOM$BLUE        STATIC     ATOMS    COLORGROUP SYSTEM
8 48 49 50 51 52 53 54 55
ATOM$RED        STATIC     ATOMS    COLORGROUP SYSTEM
2 27 32
