AV-unprocessed.smi:1930|AV-procd|sdf|7809|dock2
  -GOLD-   22720 9553D 1   1.00000     0.00000
 Structure written by MMmdl.
 41 42  0  0  0  0  0  0  0  0  1 V2000
  150.5111  139.1190  157.2504 C   0  0  0  0  0  0  0  0  0  0  0  0
  151.1327  139.3011  155.5289 S   0  0  0  0  0  0  0  0  0  0  0  0
  150.4219  140.4241  154.8985 O   0  0  0  0  0  0  0  0  0  0  0  0
  152.6032  139.2980  155.5670 O   0  0  0  0  0  0  0  0  0  0  0  0
  150.6162  137.8359  154.7471 N   0  0  0  0  0  0  0  0  0  0  0  0
  149.1675  137.5613  154.6081 C   0  0  0  0  0  0  0  0  0  0  0  0
  148.6959  136.4859  155.6059 C   0  0  0  0  0  0  0  0  0  0  0  0
  149.5314  135.2891  155.4403 N   0  0  0  0  0  0  0  0  0  0  0  0
  149.1792  134.1336  154.8234 C   0  0  0  0  0  0  0  0  0  0  0  0
  149.9205  133.1524  154.7547 O   0  0  0  0  0  0  0  0  0  0  0  0
  147.9381  134.1260  154.3113 N   0  0  0  0  0  0  0  0  0  0  0  0
  147.3420  133.0026  153.6027 C   0  0  0  0  0  0  0  0  0  0  0  0
  147.3070  133.2763  152.0936 C   0  0  0  0  0  0  0  0  0  0  0  0
  145.9504  132.9732  151.4887 C   0  0  0  0  0  0  0  0  0  0  0  0
  144.7793  133.5596  152.0109 C   0  0  0  0  0  0  0  0  0  0  0  0
  143.5417  133.2500  151.4148 C   0  0  0  0  0  0  0  0  0  0  0  0
  143.5282  132.3651  150.3184 C   0  0  0  0  0  0  0  0  0  0  0  0
  144.6433  131.7987  149.8089 N   0  0  0  0  0  0  0  0  0  0  0  0
  145.8262  132.1010  150.3863 C   0  0  0  0  0  0  0  0  0  0  0  0
  150.9157  135.5923  155.8090 C   0  0  0  0  0  0  0  0  0  0  0  0
  151.4783  136.6338  154.8217 C   0  0  0  0  0  0  0  0  0  0  0  0
  150.7914  140.0007  157.8261 H   0  0  0  0  0  0  0  0  0  0  0  0
  150.9545  138.2378  157.7114 H   0  0  0  0  0  0  0  0  0  0  0  0
  149.4260  139.0292  157.2438 H   0  0  0  0  0  0  0  0  0  0  0  0
  148.5915  138.4769  154.7391 H   0  0  0  0  0  0  0  0  0  0  0  0
  148.9784  137.2220  153.5890 H   0  0  0  0  0  0  0  0  0  0  0  0
  148.7899  136.8494  156.6291 H   0  0  0  0  0  0  0  0  0  0  0  0
  147.6308  136.3012  155.4686 H   0  0  0  0  0  0  0  0  0  0  0  0
  147.3751  134.9578  154.4119 H   0  0  0  0  0  0  0  0  0  0  0  0
  147.9210  132.1003  153.8067 H   0  0  0  0  0  0  0  0  0  0  0  0
  146.3315  132.8312  153.9780 H   0  0  0  0  0  0  0  0  0  0  0  0
  147.5602  134.3191  151.8958 H   0  0  0  0  0  0  0  0  0  0  0  0
  148.0617  132.6741  151.5854 H   0  0  0  0  0  0  0  0  0  0  0  0
  144.8271  134.2354  152.8521 H   0  0  0  0  0  0  0  0  0  0  0  0
  142.6246  133.6805  151.7888 H   0  0  0  0  0  0  0  0  0  0  0  0
  142.5967  132.1055  149.8376 H   0  0  0  0  0  0  0  0  0  0  0  0
  146.6987  131.6331  149.9546 H   0  0  0  0  0  0  0  0  0  0  0  0
  150.9450  135.9748  156.8293 H   0  0  0  0  0  0  0  0  0  0  0  0
  151.5510  134.7056  155.8138 H   0  0  0  0  0  0  0  0  0  0  0  0
  151.5424  136.1948  153.8253 H   0  0  0  0  0  0  0  0  0  0  0  0
  152.4944  136.9096  155.1020 H   0  0  0  0  0  0  0  0  0  0  0  0
  1  2  1  0  0  0  0
  1 22  1  0  0  0  0
  1 23  1  0  0  0  0
  1 24  1  0  0  0  0
  2  3  2  0  0  0  0
  2  4  2  0  0  0  0
  2  5  1  0  0  0  0
  5 21  1  0  0  0  0
  5  6  1  0  0  0  0
  6  7  1  0  0  0  0
  6 25  1  0  0  0  0
  6 26  1  0  0  0  0
  7  8  1  0  0  0  0
  7 27  1  0  0  0  0
  7 28  1  0  0  0  0
  8  9  1  0  0  0  0
  8 20  1  0  0  0  0
  9 10  2  0  0  0  0
  9 11  1  0  0  0  0
 11 12  1  0  0  0  0
 11 29  1  0  0  0  0
 12 13  1  0  0  0  0
 12 30  1  0  0  0  0
 12 31  1  0  0  0  0
 13 14  1  0  0  0  0
 13 32  1  0  0  0  0
 13 33  1  0  0  0  0
 14 19  1  0  0  0  0
 14 15  2  0  0  0  0
 15 16  1  0  0  0  0
 15 34  1  0  0  0  0
 16 17  2  0  0  0  0
 16 35  1  0  0  0  0
 17 18  1  0  0  0  0
 17 36  1  0  0  0  0
 18 19  2  0  0  0  0
 19 37  1  0  0  0  0
 20 21  1  0  0  0  0
 20 38  1  0  0  0  0
 20 39  1  0  0  0  0
 21 40  1  0  0  0  0
 21 41  1  0  0  0  0
M  END
> <s_m_source_file>
AV-unprocessed.smi

> <i_m_source_file_index>
1930

> <i_lp_mmshare_version>
43012

> <i_f3d_flags>
0

> <s_epik_input>
W0NIM11TKD1PKSg9TylOMVtDSDJdW0NIMl1OKFtDSDJdW0NIMl0xKUMoPU8pW05IXVtDSDJdW0NIMl1jMltjSF1bY0hdW2NIXW5bY0hdMg==

> <s_epik_cmdline>
J2VwaWtfcHl0aG9uJywgJy1waCcsICc3LjAnLCAnLXRuJywgJzgnLCAnLW1hJywgJzIwMCcsICctbWV0YWxfYmluZGluZycsICctaW1hZScsICc8aW5maWxlLm1hZT4nLCAnLW9tYWUnLCAnPG91dGZpbGUubWFlPic=

> <r_epik_Ionization_Penalty>
0.0143741

> <r_epik_Ionization_Penalty_Charging>
0

> <r_epik_Ionization_Penalty_Neutral>
0.0143741

> <r_epik_State_Penalty>
0.0112033

> <r_epik_Charging_Adjusted_Penalty>
0.0112033

> <i_epik_Tot_Q>
0

> <i_epik_Tot_abs_Q>
0

> <r_epik_Metal_State_Penalty>
0.0109376

> <b_epik_Metal_Only>
0

> <s_lp_Force_Field>
OPLS_2005

> <r_lp_Energy>
24.8651

> <b_lp_Chiralities_Consistent>
1

> <s_lp_Variant>
AV-unprocessed.smi:1930-1

> <Gold.Version>
5.8.1

> <Gold.Id.Protein>
6NUR|6NUR_protein|mol2

> <Gold.PLP.Fitness>
42.7139

> <Gold.PLP.PLP>
-30.9721

> <Gold.PLP.part.hbond>
-2.6738

> <Gold.PLP.part.metal>
0.0000

> <Gold.PLP.part.buried>
-3.0681

> <Gold.PLP.part.nonpolar>
-27.0788

> <Gold.PLP.part.repulsive>
0.3040

> <Gold.PLP.ligand.clash>
0.0000

> <Gold.PLP.ligand.torsion>
1.5459

> <Gold.PLP.Chemscore.Hbond>
2.0000

> <Gold.PLP.Chemscore.CHOScore>
2.2329

> <Gold.PLP.Chemscore.Metal>
0.0000

> <Gold.Chemscore.Hbonds>
donor molecule, donor type, donor heavy atom, donor atom, acceptor molecule, acceptor atom, score
      P1  H  7989  7998       L1     3  1.00
      P1  H  7997  8009       L1     4  0.99
      L1  C    17    36       P1 10186  0.18
      L1  C    17    36       P1 10952  1.00
      L1  C    19    37       P1 10747  1.00

> <Gold.PLP.Chemscore.Internal.Correction>
2.1348

> <Gold.Rescore>
     Score         DG    S(hbond)    S(metal)    S(lipo)     H(rot)  DE(clash)    DE(int)     intcor
     13.76     -17.02       1.97        0.00      73.22       1.40       1.71       1.55       ----

> <Gold.Chemscore.Fitness>
13.7600

> <Gold.Chemscore.DG>
-17.0223

> <Gold.Chemscore.ZeroCoef>
-5.4800

> <Gold.Chemscore.Hbond>
1.9669

> <Gold.Chemscore.Metal>
0.0000

> <Gold.Chemscore.Lipo>
73.2176

> <Gold.Chemscore.Internal_Hbond>
0.0000

> <Gold.Chemscore.DEClash>
1.7105

> <Gold.Chemscore.DEInternal>
1.5519

> <Gold.Chemscore.Rot>
1.4037

> <Gold.Chemscore.Internal.Correction>
   9.000000E+99

> <Gold.Chemscore.Hbonds>
donor molecule, donor type, donor heavy atom, donor atom, acceptor molecule, acceptor atom, score
      P1  H  7989  7998       L1     3  0.29
      P1  H  7997  8009       L1     4  0.92

> <Gold.Chemscore.Hbond.Weighted>
-6.5694

> <Gold.Chemscore.Metal.Weighted>
-0.0000

> <Gold.Chemscore.Lipo.Weighted>
-8.5665

> <Gold.Chemscore.Internal_Hbond.Weighted>
0.0000

> <Gold.Chemscore.DEClash.Weighted>
1.7105

> <Gold.Chemscore.DEInternal.Weighted>
1.5519

> <Gold.Chemscore.Rot.Weighted>
3.5935

> <Gold.Chemscore.Internal.Correction.Weighted>
   9.000000E+99

> <Gold.Protein.RotatedTorsions>
[ 6907 6896 6895 6894 ] final  -36.76 input  -60.11 | X-H torsion
[ 7974 7965 7964 7962 ] final  147.27 input  175.53 | X-H torsion
[ 8008 7997 7996 7995 ] final -153.31 input   59.86 | X-H torsion
[ 10167 10162 10161 10158 ] final  146.45 input  -65.29 | X-H torsion
[ 10718 10713 10712 10709 ] final  159.13 input   66.30 | X-H torsion
[ 10763 10752 10751 10750 ] final  175.17 input  -60.55 | X-H torsion
[ 11005 11000 10999 10996 ] final  -31.28 input  -57.11 | X-H torsion

> <Gold.Protein.ActiveResidues>
 VAL166  LYS551  ARG553  GLY616  TRP617  ASP618  TYR619  PRO620  LYS621  CYS622 
 ASP623  PHE694  ASN695  SER759  ASP760  ASP761  ALA762  ILE779  LEU786  VAL792 
 PHE793  MET794  SER795  GLU796  ALA797  LYS798  CYS799  TRP800  GLU811  SER814 

> <Gold.Protein.RotatedAtoms>
  151.0231  134.9484  159.8070 H   0  0  0  0  0  0  0  0  0  0  0  0  # atno 6907 bound_to 6896
  152.5329  134.2877  159.9041 H   0  0  0  0  0  0  0  0  0  0  0  0  # atno 6908 bound_to 6896
  151.2885  133.4134  159.2665 H   0  0  0  0  0  0  0  0  0  0  0  0  # atno 6909 bound_to 6896
  144.8605  139.6008  143.5933 H   0  0  0  0  0  0  0  0  0  0  0  0  # atno 7974 bound_to 7965
  155.6687  140.0731  157.2528 H   0  0  0  0  0  0  0  0  0  0  0  0  # atno 8008 bound_to 7997
  154.4127  140.1703  156.1907 H   0  0  0  0  0  0  0  0  0  0  0  0  # atno 8009 bound_to 7997
  155.9635  140.3368  155.6514 H   0  0  0  0  0  0  0  0  0  0  0  0  # atno 8010 bound_to 7997
  139.4907  144.5829  151.6837 H   0  0  0  0  0  0  0  0  0  0  0  0  # atno 10167 bound_to 10162
  157.1684  131.0604  151.2196 H   0  0  0  0  0  0  0  0  0  0  0  0  # atno 10718 bound_to 10713
  154.4640  135.2768  155.1692 H   0  0  0  0  0  0  0  0  0  0  0  0  # atno 10763 bound_to 10752
  154.3468  135.6158  153.5627 H   0  0  0  0  0  0  0  0  0  0  0  0  # atno 10764 bound_to 10752
  152.9857  135.5802  154.5008 H   0  0  0  0  0  0  0  0  0  0  0  0  # atno 10765 bound_to 10752
  140.9455  133.7253  156.1139 H   0  0  0  0  0  0  0  0  0  0  0  0  # atno 11005 bound_to 11000
  146.2856  139.6996  142.9198 LP  0  0  0  0  0  0  0  0  0  0  0  0  # atno 17320 bound_to 7965
  145.4322  141.0416  143.2904 LP  0  0  0  0  0  0  0  0  0  0  0  0  # atno 17321 bound_to 7965
  140.5438  144.0536  150.6099 LP  0  0  0  0  0  0  0  0  0  0  0  0  # atno 17342 bound_to 10162
  140.3567  143.2932  152.0428 LP  0  0  0  0  0  0  0  0  0  0  0  0  # atno 17343 bound_to 10162
  157.4066  130.7362  149.6807 LP  0  0  0  0  0  0  0  0  0  0  0  0  # atno 17370 bound_to 10713
  155.9742  130.4106  150.3940 LP  0  0  0  0  0  0  0  0  0  0  0  0  # atno 17371 bound_to 10713
  140.7676  134.3869  157.5514 LP  0  0  0  0  0  0  0  0  0  0  0  0  # atno 17394 bound_to 11000
  139.8832  134.9001  156.2782 LP  0  0  0  0  0  0  0  0  0  0  0  0  # atno 17395 bound_to 11000

$$$$
