AV-unprocessed.smi:3308|AV-procd|sdf|12713|dock4
  -GOLD-   2272019 53D 1   1.00000     0.00000
 Structure written by MMmdl.
 40 41  0  0  0  0  0  0  0  0  1 V2000
  148.7781  141.1261  157.2323 C   0  0  0  0  0  0  0  0  0  0  0  0
  149.6166  141.7142  156.0763 C   0  0  1  0  0  0  0  0  0  0  0  0
  151.0316  141.5661  156.4038 N   0  0  0  0  0  0  0  0  0  0  0  0
  151.4009  142.2850  157.6298 C   0  0  0  0  0  0  0  0  0  0  0  0
  152.2927  141.4260  158.5317 C   0  0  0  0  0  0  0  0  0  0  0  0
  152.7275  140.3619  158.0910 O   0  0  0  0  0  0  0  0  0  0  0  0
  152.5720  141.8594  159.7795 N   0  0  0  0  0  0  0  0  0  0  0  0
  153.4087  141.1693  160.7615 C   0  0  0  0  0  0  0  0  0  0  0  0
  153.6111  142.1628  161.9058 C   0  0  0  0  0  0  0  0  0  0  0  0
  152.4014  143.0829  161.8191 C   0  0  0  0  0  0  0  0  0  0  0  0
  152.0618  143.1140  160.3290 C   0  0  0  0  0  0  0  0  0  0  0  0
  149.3532  141.0148  154.7156 C   0  0  2  0  0  0  0  0  0  0  0  0
  147.8521  140.8654  154.4045 C   0  0  0  0  0  0  0  0  0  0  0  0
  149.9960  139.7082  154.6447 N   0  0  0  0  0  0  0  0  0  0  0  0
  149.4102  138.4649  154.5094 C   0  0  0  0  0  0  0  0  0  0  0  0
  150.4143  137.5401  154.4866 C   0  0  0  0  0  0  0  0  0  0  0  0
  151.5964  138.3223  154.6086 C   0  0  0  0  0  0  0  0  0  0  0  0
  151.3434  139.6177  154.7003 N   0  0  0  0  0  0  0  0  0  0  0  0
  147.7098  141.2629  157.0652 H   0  0  0  0  0  0  0  0  0  0  0  0
  149.0039  141.5989  158.1875 H   0  0  0  0  0  0  0  0  0  0  0  0
  148.9595  140.0565  157.3443 H   0  0  0  0  0  0  0  0  0  0  0  0
  149.3743  142.7729  155.9650 H   0  0  0  0  0  0  0  0  0  0  0  0
  151.5824  141.8927  155.6226 H   0  0  0  0  0  0  0  0  0  0  0  0
  151.9407  143.1950  157.3629 H   0  0  0  0  0  0  0  0  0  0  0  0
  150.5172  142.6036  158.1814 H   0  0  0  0  0  0  0  0  0  0  0  0
  152.8830  140.2821  161.1175 H   0  0  0  0  0  0  0  0  0  0  0  0
  154.3662  140.8544  160.3451 H   0  0  0  0  0  0  0  0  0  0  0  0
  153.7041  141.6763  162.8770 H   0  0  0  0  0  0  0  0  0  0  0  0
  154.5210  142.7395  161.7327 H   0  0  0  0  0  0  0  0  0  0  0  0
  151.5705  142.6456  162.3745 H   0  0  0  0  0  0  0  0  0  0  0  0
  152.5928  144.0747  162.2300 H   0  0  0  0  0  0  0  0  0  0  0  0
  152.5680  143.9466  159.8382 H   0  0  0  0  0  0  0  0  0  0  0  0
  150.9885  143.2276  160.1691 H   0  0  0  0  0  0  0  0  0  0  0  0
  149.7920  141.6329  153.9291 H   0  0  0  0  0  0  0  0  0  0  0  0
  147.3566  141.8342  154.3401 H   0  0  0  0  0  0  0  0  0  0  0  0
  147.3412  140.2830  155.1718 H   0  0  0  0  0  0  0  0  0  0  0  0
  147.7003  140.3616  153.4492 H   0  0  0  0  0  0  0  0  0  0  0  0
  148.3386  138.3438  154.4452 H   0  0  0  0  0  0  0  0  0  0  0  0
  150.3190  136.4683  154.3953 H   0  0  0  0  0  0  0  0  0  0  0  0
  152.6237  137.9899  154.6325 H   0  0  0  0  0  0  0  0  0  0  0  0
  1  2  1  0  0  0  0
  1 19  1  0  0  0  0
  1 20  1  0  0  0  0
  1 21  1  0  0  0  0
  2  3  1  0  0  0  0
  2 12  1  0  0  0  0
  2 22  1  0  0  0  0
  3  4  1  0  0  0  0
  3 23  1  0  0  0  0
  4  5  1  0  0  0  0
  4 24  1  0  0  0  0
  4 25  1  0  0  0  0
  5  6  2  0  0  0  0
  5  7  1  0  0  0  0
  7 11  1  0  0  0  0
  7  8  1  0  0  0  0
  8  9  1  0  0  0  0
  8 26  1  0  0  0  0
  8 27  1  0  0  0  0
  9 10  1  0  0  0  0
  9 28  1  0  0  0  0
  9 29  1  0  0  0  0
 10 11  1  0  0  0  0
 10 30  1  0  0  0  0
 10 31  1  0  0  0  0
 11 32  1  0  0  0  0
 11 33  1  0  0  0  0
 12 13  1  0  0  0  0
 12 14  1  0  0  0  0
 12 34  1  0  0  0  0
 13 35  1  0  0  0  0
 13 36  1  0  0  0  0
 13 37  1  0  0  0  0
 14 18  1  0  0  0  0
 14 15  1  0  0  0  0
 15 16  2  0  0  0  0
 15 38  1  0  0  0  0
 16 17  1  0  0  0  0
 16 39  1  0  0  0  0
 17 18  2  0  0  0  0
 17 40  1  0  0  0  0
M  END
> <s_m_source_file>
AV-unprocessed.smi

> <i_m_source_file_index>
3308

> <i_lp_mmshare_version>
43012

> <i_f3d_flags>
0

> <s_epik_input>
bjFbY0hdW2NIXVtjSF1uMVtDQEBIXShbQ0gzXSlbQ0BIXShbQ0gzXSlbTkhdW0NIMl1DKD1PKU4yW0NIMl1bQ0gyXVtDSDJdW0NIMl0y

> <s_epik_cmdline>
J2VwaWtfcHl0aG9uJywgJy1waCcsICc3LjAnLCAnLXRuJywgJzgnLCAnLW1hJywgJzIwMCcsICctbWV0YWxfYmluZGluZycsICctaW1hZScsICc8aW5maWxlLm1hZT4nLCAnLW9tYWUnLCAnPG91dGZpbGUubWFlPic=

> <r_lp_tautomer_probability>
1

> <r_epik_Ionization_Penalty>
0.918676

> <r_epik_Ionization_Penalty_Charging>
0

> <r_epik_Ionization_Penalty_Neutral>
0.918676

> <r_epik_State_Penalty>
0.958258

> <r_epik_Charging_Adjusted_Penalty>
0.958258

> <i_epik_Tot_Q>
0

> <i_epik_Tot_abs_Q>
0

> <r_epik_Metal_State_Penalty>
0.956879

> <b_epik_Metal_Only>
0

> <s_lp_Force_Field>
OPLS_2005

> <r_lp_Energy>
35.768

> <b_lp_Chiralities_Consistent>
1

> <s_lp_Variant>
AV-unprocessed.smi:3308-6

> <Gold.Version>
5.8.1

> <Gold.Id.Protein>
6NUR|6NUR_protein|mol2

> <Gold.PLP.Fitness>
45.4098

> <Gold.PLP.PLP>
-41.6687

> <Gold.PLP.part.hbond>
-2.0000

> <Gold.PLP.part.metal>
0.0000

> <Gold.PLP.part.buried>
-2.4813

> <Gold.PLP.part.nonpolar>
-35.8626

> <Gold.PLP.part.repulsive>
0.0754

> <Gold.PLP.ligand.clash>
0.0000

> <Gold.PLP.ligand.torsion>
0.6673

> <Gold.PLP.Chemscore.Hbond>
1.6643

> <Gold.PLP.Chemscore.CHOScore>
0.0000

> <Gold.PLP.Chemscore.Metal>
0.0000

> <Gold.Chemscore.Hbonds>
donor molecule, donor type, donor heavy atom, donor atom, acceptor molecule, acceptor atom, score
      P1  H  7989  7998       L1    18  0.80
      P1  H  7997  8009       L1     6  0.65

> <Gold.PLP.Chemscore.Internal.Correction>
0.0827

> <Gold.Rescore>
     Score         DG    S(hbond)    S(metal)    S(lipo)     H(rot)  DE(clash)    DE(int)     intcor
     15.20     -17.76       1.79        0.00      91.66       1.72       0.18       2.38       ----

> <Gold.Chemscore.Fitness>
15.2045

> <Gold.Chemscore.DG>
-17.7643

> <Gold.Chemscore.ZeroCoef>
-5.4800

> <Gold.Chemscore.Hbond>
1.7854

> <Gold.Chemscore.Metal>
0.0000

> <Gold.Chemscore.Lipo>
91.6591

> <Gold.Chemscore.Internal_Hbond>
0.0000

> <Gold.Chemscore.DEClash>
0.1777

> <Gold.Chemscore.DEInternal>
2.3821

> <Gold.Chemscore.Rot>
1.7200

> <Gold.Chemscore.Internal.Correction>
   9.000000E+99

> <Gold.Chemscore.Hbonds>
donor molecule, donor type, donor heavy atom, donor atom, acceptor molecule, acceptor atom, score
      P1  H  7989  7998       L1    18  0.12
      P1  H  7997  8009       L1     6  0.63

> <Gold.Chemscore.Hbond.Weighted>
-5.9633

> <Gold.Chemscore.Metal.Weighted>
-0.0000

> <Gold.Chemscore.Lipo.Weighted>
-10.7241

> <Gold.Chemscore.Internal_Hbond.Weighted>
0.0000

> <Gold.Chemscore.DEClash.Weighted>
0.1777

> <Gold.Chemscore.DEInternal.Weighted>
2.3821

> <Gold.Chemscore.Rot.Weighted>
4.4031

> <Gold.Chemscore.Internal.Correction.Weighted>
   9.000000E+99

> <Gold.Protein.RotatedTorsions>
[ 6907 6896 6895 6894 ] final  145.72 input  -60.11 | X-H torsion
[ 7974 7965 7964 7962 ] final   94.29 input  175.53 | X-H torsion
[ 8008 7997 7996 7995 ] final  163.10 input   59.86 | X-H torsion
[ 10167 10162 10161 10158 ] final -124.05 input  -65.29 | X-H torsion
[ 10718 10713 10712 10709 ] final  146.26 input   66.30 | X-H torsion
[ 10763 10752 10751 10750 ] final  -99.86 input  -60.55 | X-H torsion
[ 11005 11000 10999 10996 ] final  133.57 input  -57.11 | X-H torsion

> <Gold.Protein.ActiveResidues>
 VAL166  LYS551  ARG553  GLY616  TRP617  ASP618  TYR619  PRO620  LYS621  CYS622 
 ASP623  PHE694  ASN695  SER759  ASP760  ASP761  ALA762  ILE779  LEU786  VAL792 
 PHE793  MET794  SER795  GLU796  ALA797  LYS798  CYS799  TRP800  GLU811  SER814 

> <Gold.Protein.RotatedAtoms>
  152.1772  133.4683  159.4939 H   0  0  0  0  0  0  0  0  0  0  0  0  # atno 6907 bound_to 6896
  150.6929  134.1879  159.4283 H   0  0  0  0  0  0  0  0  0  0  0  0  # atno 6908 bound_to 6896
  151.9788  135.0039  160.0607 H   0  0  0  0  0  0  0  0  0  0  0  0  # atno 6909 bound_to 6896
  145.4676  139.2283  143.2953 H   0  0  0  0  0  0  0  0  0  0  0  0  # atno 7974 bound_to 7965
  156.1982  140.1732  156.7954 H   0  0  0  0  0  0  0  0  0  0  0  0  # atno 8008 bound_to 7997
  154.5557  140.0709  156.8770 H   0  0  0  0  0  0  0  0  0  0  0  0  # atno 8009 bound_to 7997
  155.2943  140.3357  155.4253 H   0  0  0  0  0  0  0  0  0  0  0  0  # atno 8010 bound_to 7997
  139.9969  143.5581  152.2319 H   0  0  0  0  0  0  0  0  0  0  0  0  # atno 10167 bound_to 10162
  157.3353  131.0927  151.1128 H   0  0  0  0  0  0  0  0  0  0  0  0  # atno 10718 bound_to 10713
  154.7533  135.4956  153.9328 H   0  0  0  0  0  0  0  0  0  0  0  0  # atno 10763 bound_to 10752
  153.1167  135.6722  153.9413 H   0  0  0  0  0  0  0  0  0  0  0  0  # atno 10764 bound_to 10752
  153.9157  135.3094  155.3427 H   0  0  0  0  0  0  0  0  0  0  0  0  # atno 10765 bound_to 10752
  139.9860  134.9532  156.9744 H   0  0  0  0  0  0  0  0  0  0  0  0  # atno 11005 bound_to 11000
  146.2415  140.5450  142.8932 LP  0  0  0  0  0  0  0  0  0  0  0  0  # atno 17320 bound_to 7965
  144.7965  140.6132  143.6507 LP  0  0  0  0  0  0  0  0  0  0  0  0  # atno 17321 bound_to 7965
  139.6300  144.7643  151.2557 LP  0  0  0  0  0  0  0  0  0  0  0  0  # atno 17342 bound_to 10162
  140.7434  143.6497  150.8260 LP  0  0  0  0  0  0  0  0  0  0  0  0  # atno 17343 bound_to 10162
  157.2360  130.6547  149.5870 LP  0  0  0  0  0  0  0  0  0  0  0  0  # atno 17370 bound_to 10713
  155.9701  130.4583  150.5995 LP  0  0  0  0  0  0  0  0  0  0  0  0  # atno 17371 bound_to 10713
  140.5001  134.1105  155.7249 LP  0  0  0  0  0  0  0  0  0  0  0  0  # atno 17394 bound_to 11000
  141.1525  133.8943  157.2062 LP  0  0  0  0  0  0  0  0  0  0  0  0  # atno 17395 bound_to 11000

$$$$
