#       Name:                AV-unprocessed.smi:1522
#       Creating user name   scv26
#       Creation time:       Fri Mar 27 06:28:01 2020


#       File generated by GOLD software.
#

@<TRIPOS>MOLECULE
AV-unprocessed.smi:1522
    39    40     1
SMALL
NO_CHARGES


@<TRIPOS>ATOM
      1 ****        -1.8532   1.8737   1.3310 C.3            1 S1                 0.0000
      2 ****        -1.1169   0.5625   1.6857 C.3            1 S1                 0.0000
      3 ****         0.3464   0.8640   2.0931 C.3            1 S1                 0.0000
      4 ****         1.0967   1.5268   1.0271 N.am           1 S1                 0.0000
      5 ****         1.8479   0.9356   0.0876 C.2            1 S1                 0.0000
      6 ****         2.0085  -0.2861   0.1029 O.2            1 S1                 0.0000
      7 ****         2.3523   1.7967  -0.8230 N.pl3          1 S1                -1.0000
      8 ****         3.0870   1.3330  -1.8474 C.2            1 S1                 0.0000
      9 ****         2.5508   1.0547  -3.0467 N.2            1 S1                 0.0000
     10 ****         3.4809   0.5868  -3.9647 N.2            1 S1                 0.0000
     11 ****         4.7027   0.5334  -3.4344 C.2            1 S1                 0.0000
     12 ****         4.8275   1.0483  -1.7653 S.3            1 S1                 0.0000
     13 ****        -1.1768  -0.4396   0.5816 N.4            1 S1                 1.0000
     14 ****        -0.7866  -1.8125   0.9642 C.3            1 S1                 0.0000
     15 ****        -1.2370  -2.6849  -0.2041 C.3            1 S1                 0.0000
     16 ****        -2.4725  -1.9737  -0.7618 C.3            1 S1                 0.0000
     17 ****        -2.4796  -0.5864  -0.1052 C.3            1 S1                 0.0000
     18 ****        -1.7219   2.6177   2.1173 H              1 S1                 0.0000
     19 ****        -2.9269   1.7236   1.2199 H              1 S1                 0.0000
     20 ****        -1.4800   2.3075   0.4024 H              1 S1                 0.0000
     21 ****        -1.6257   0.1346   2.5507 H              1 S1                 0.0000
     22 ****         0.3503   1.5321   2.9548 H              1 S1                 0.0000
     23 ****         0.8601  -0.0384   2.4266 H              1 S1                 0.0000
     24 ****         1.0111   2.5317   0.9745 H              1 S1                 0.0000
     25 ****         5.5356   0.1903  -4.0298 H              1 S1                 0.0000
     26 ****         0.2798  -1.9140   1.1606 H              1 S1                 0.0000
     27 ****        -1.3218  -2.1060   1.8687 H              1 S1                 0.0000
     28 ****        -0.4546  -2.7097  -0.9642 H              1 S1                 0.0000
     29 ****        -1.4408  -3.7128   0.0971 H              1 S1                 0.0000
     30 ****        -2.4150  -1.8992  -1.8485 H              1 S1                 0.0000
     31 ****        -3.3858  -2.5172  -0.5170 H              1 S1                 0.0000
     32 ****        -3.2882  -0.5426   0.6262 H              1 S1                 0.0000
     33 ****        -2.6365   0.2099  -0.8337 H              1 S1                 0.0000
     34 ****        -0.5188  -0.1400  -0.1252 H              1 S1                 0.0000
     35 ****         1.5781  -0.8381   0.8170 LP             1 S1                 0.0000
     36 ****         2.5693  -0.7255  -0.5989 LP             1 S1                 0.0000
     37 ****         2.1790   2.7776  -0.7346 LP             1 S1                 0.0000
     38 ****         1.5803   1.1725  -3.2570 LP             1 S1                 0.0000
     39 ****         3.2623   0.3233  -4.9043 LP             1 S1                 0.0000
@<TRIPOS>BOND
    1    1    2 1     
    2    1   18 1     
    3    1   19 1     
    4    1   20 1     
    5    2    3 1     
    6    2   13 1     
    7    2   21 1     
    8    3    4 1     
    9    3   22 1     
   10    3   23 1     
   11    4    5 am    
   12    4   24 1     
   13    5    6 2     
   14    5    7 1     
   15    7    8 1     
   16    8   12 1     
   17    8    9 2     
   18    9   10 1     
   19   10   11 2     
   20   11   12 1     
   21   11   25 1     
   22   13   17 1     
   23   13   14 1     
   24   13   34 1     
   25   14   15 1     
   26   14   26 1     
   27   14   27 1     
   28   15   16 1     
   29   15   28 1     
   30   15   29 1     
   31   16   17 1     
   32   16   30 1     
   33   16   31 1     
   34   17   32 1     
   35   17   33 1     
   36    6   35 1     
   37    6   36 1     
   38    7   37 1     
   39    9   38 1     
   40   10   39 1     
@<TRIPOS>SUBSTRUCTURE
      1 S1             1
@<TRIPOS>SET
LONE_PAIRS      STATIC     ATOMS    <user>   **** ""
5 35 36 37 38 39
DONOR_HYDROGENS      STATIC     ATOMS    <user>   **** ""
2 24 34
ATOM$BLUE        STATIC     ATOMS    COLORGROUP SYSTEM
5 35 36 37 38 39
ATOM$RED        STATIC     ATOMS    COLORGROUP SYSTEM
2 24 34
