#       Name:                AV-unprocessed.smi:3278
#       Creating user name   scv26
#       Creation time:       Fri Mar 27 18:45:43 2020


#       File generated by GOLD software.
#

@<TRIPOS>MOLECULE
AV-unprocessed.smi:3278
    42    43     1
SMALL
NO_CHARGES


@<TRIPOS>ATOM
      1 ****        -3.0809   0.3401   4.0849 C.3            1 S1                 0.0000
      2 ****        -2.8971   0.1606   2.6607 N.pl3          1 S1                 0.0000
      3 ****        -2.2728   0.9965   1.7608 C.2            1 S1                 0.0000
      4 ****        -2.3477   0.4094   0.5271 C.2            1 S1                 0.0000
      5 ****        -1.8075   0.9154  -0.7940 C.3            1 S1                 0.0000
      6 ****        -2.3755   2.3124  -1.0993 C.3            1 S1                 0.0000
      7 ****        -2.2038   0.0926  -1.8758 O.3            1 S1                 0.0000
      8 ****        -0.2639   0.9489  -0.7859 C.3            1 S1                 0.0000
      9 ****         0.3124  -0.3757  -0.4600 N.4            1 S1                 1.0000
     10 ****         1.7886  -0.4280  -0.3811 C.3            1 S1                 0.0000
     11 ****         2.4198  -0.4508  -1.7911 C.3            1 S1                 0.0000
     12 ****         3.9572  -0.4572  -1.7575 C.3            1 S1                 0.0000
     13 ****         4.5240  -1.6858  -1.0341 C.3            1 S1                 0.0000
     14 ****         3.9997  -1.7178   0.7004 S.3            1 S1                 0.0000
     15 ****         2.2062  -1.6631   0.4376 C.3            1 S1                 0.0000
     16 ****        -3.0533  -0.8024   0.7896 C.2            1 S1                 0.0000
     17 ****        -3.3745  -0.9494   2.0639 N.2            1 S1                 0.0000
     18 ****        -2.6183   1.2732   4.4075 H              1 S1                 0.0000
     19 ****        -2.6211  -0.4885   4.6244 H              1 S1                 0.0000
     20 ****        -4.1458   0.3729   4.3182 H              1 S1                 0.0000
     21 ****        -1.8301   1.9325   2.0689 H              1 S1                 0.0000
     22 ****        -2.0927   3.0346  -0.3326 H              1 S1                 0.0000
     23 ****        -3.4652   2.2956  -1.1472 H              1 S1                 0.0000
     24 ****        -2.0101   2.6933  -2.0537 H              1 S1                 0.0000
     25 ****        -1.9199   0.4942  -2.6831 H              1 S1                 0.0000
     26 ****         0.1069   1.2912  -1.7522 H              1 S1                 0.0000
     27 ****         0.0835   1.6692  -0.0437 H              1 S1                 0.0000
     28 ****        -0.0532  -0.6403   0.4438 H              1 S1                 0.0000
     29 ****         2.1298   0.4604   0.1531 H              1 S1                 0.0000
     30 ****         2.0647  -1.3233  -2.3416 H              1 S1                 0.0000
     31 ****         2.0983   0.4193  -2.3627 H              1 S1                 0.0000
     32 ****         4.3385  -0.4358  -2.7790 H              1 S1                 0.0000
     33 ****         4.3207   0.4528  -1.2783 H              1 S1                 0.0000
     34 ****         4.1944  -2.6032  -1.5235 H              1 S1                 0.0000
     35 ****         5.6135  -1.6771  -1.0710 H              1 S1                 0.0000
     36 ****         1.7221  -1.6534   1.4148 H              1 S1                 0.0000
     37 ****         1.8946  -2.5807  -0.0630 H              1 S1                 0.0000
     38 ****        -3.3353  -1.5798   0.0946 H              1 S1                 0.0000
     39 ****        -0.0066  -1.0519  -1.1393 H              1 S1                 0.0000
     40 ****        -3.1993  -0.0020  -1.8792 LP             1 S1                 0.0000
     41 ****        -1.7835  -0.8101  -1.7833 LP             1 S1                 0.0000
     42 ****        -3.8618  -1.7123   2.4889 LP             1 S1                 0.0000
@<TRIPOS>BOND
    1    1    2 1     
    2    1   18 1     
    3    1   19 1     
    4    1   20 1     
    5    2   17 1     
    6    2    3 1     
    7    3    4 2     
    8    3   21 1     
    9    4    5 1     
   10    4   16 1     
   11    5    6 1     
   12    5    7 1     
   13    5    8 1     
   14    6   22 1     
   15    6   23 1     
   16    6   24 1     
   17    7   25 1     
   18    8    9 1     
   19    8   26 1     
   20    8   27 1     
   21    9   10 1     
   22    9   28 1     
   23    9   39 1     
   24   10   15 1     
   25   10   11 1     
   26   10   29 1     
   27   11   12 1     
   28   11   30 1     
   29   11   31 1     
   30   12   13 1     
   31   12   32 1     
   32   12   33 1     
   33   13   14 1     
   34   13   34 1     
   35   13   35 1     
   36   14   15 1     
   37   15   36 1     
   38   15   37 1     
   39   16   17 2     
   40   16   38 1     
   41    7   40 1     
   42    7   41 1     
   43   17   42 1     
@<TRIPOS>SUBSTRUCTURE
      1 S1             1
@<TRIPOS>SET
LONE_PAIRS      STATIC     ATOMS    <user>   **** ""
3 40 41 42
DONOR_HYDROGENS      STATIC     ATOMS    <user>   **** ""
3 25 28 39
ATOM$BLUE        STATIC     ATOMS    COLORGROUP SYSTEM
3 40 41 42
ATOM$RED        STATIC     ATOMS    COLORGROUP SYSTEM
3 25 28 39
