AV-unprocessed.smi:1554|AV-procd|sdf|6257|dock1
  -GOLD-   22720 6443D 1   1.00000     0.00000
 Structure written by MMmdl.
 49 51  0  0  0  0  0  0  0  0  3 V2000
  152.1811  139.6439  156.4822 C   0  0  0  0  0  0  0  0  0  0  0  0
  150.9366  139.8528  155.6362 C   0  0  0  0  0  0  0  0  0  0  0  0
  150.2667  141.0943  155.7167 C   0  0  0  0  0  0  0  0  0  0  0  0
  149.1333  141.2558  154.9286 C   0  0  0  0  0  0  0  0  0  0  0  0
  148.2685  142.3424  154.7847 N   0  3  0  0  0  0  0  0  0  0  0  0
  147.2924  142.0308  153.8880 C   0  0  0  0  0  0  0  0  0  0  0  0
  147.5204  140.7603  153.4562 N   0  0  0  0  0  0  0  0  0  0  0  0
  146.7641  139.9494  152.4901 C   0  0  0  0  0  0  0  0  0  0  0  0
  146.3104  138.5943  153.0694 C   0  0  1  0  0  0  0  0  0  0  0  0
  145.2464  138.7968  153.9799 O   0  0  0  0  0  0  0  0  0  0  0  0
  145.8385  137.6290  151.9636 C   0  0  0  0  0  0  0  0  0  0  0  0
  146.2016  136.2156  152.2427 N   0  3  1  0  0  0  0  0  0  0  0  0
  145.8402  135.7984  153.6182 C   0  0  0  0  0  0  0  0  0  0  0  0
  146.2918  134.3518  153.8772 C   0  0  0  0  0  0  0  0  0  0  0  0
  145.7129  133.4912  152.9043 O   0  0  0  0  0  0  0  0  0  0  0  0
  146.1220  133.8200  151.5813 C   0  0  1  0  0  0  0  0  0  0  0  0
  145.5225  132.7848  150.6230 C   0  0  0  0  0  0  0  0  0  0  0  0
  145.6589  135.2528  151.2521 C   0  0  0  0  0  0  0  0  0  0  0  0
  148.6587  140.2354  154.0812 C   0  0  0  0  0  0  0  0  0  0  0  0
  149.3068  139.0053  153.9921 C   0  0  0  0  0  0  0  0  0  0  0  0
  150.4618  138.8211  154.7854 C   0  0  0  0  0  0  0  0  0  0  0  0
  151.1896  137.4898  154.7070 C   0  0  0  0  0  0  0  0  0  0  0  0
  152.4218  140.5338  157.0646 H   0  0  0  0  0  0  0  0  0  0  0  0
  153.0405  139.4174  155.8505 H   0  0  0  0  0  0  0  0  0  0  0  0
  152.0357  138.8186  157.1794 H   0  0  0  0  0  0  0  0  0  0  0  0
  150.6220  141.8840  156.3626 H   0  0  0  0  0  0  0  0  0  0  0  0
  146.4836  142.6760  153.5767 H   0  0  0  0  0  0  0  0  0  0  0  0
  145.9187  140.5269  152.1154 H   0  0  0  0  0  0  0  0  0  0  0  0
  147.4200  139.7829  151.6347 H   0  0  0  0  0  0  0  0  0  0  0  0
  147.1457  138.1616  153.6193 H   0  0  0  0  0  0  0  0  0  0  0  0
  144.5241  139.1954  153.5188 H   0  0  0  0  0  0  0  0  0  0  0  0
  144.7550  137.7175  151.8670 H   0  0  0  0  0  0  0  0  0  0  0  0
  146.2524  137.9204  150.9970 H   0  0  0  0  0  0  0  0  0  0  0  0
  146.3104  136.4627  154.3443 H   0  0  0  0  0  0  0  0  0  0  0  0
  144.7610  135.8839  153.7549 H   0  0  0  0  0  0  0  0  0  0  0  0
  147.3797  134.2717  153.8522 H   0  0  0  0  0  0  0  0  0  0  0  0
  145.9721  134.0303  154.8686 H   0  0  0  0  0  0  0  0  0  0  0  0
  147.2100  133.7615  151.5176 H   0  0  0  0  0  0  0  0  0  0  0  0
  145.8198  132.9840  149.5931 H   0  0  0  0  0  0  0  0  0  0  0  0
  144.4328  132.7915  150.6644 H   0  0  0  0  0  0  0  0  0  0  0  0
  145.8586  131.7790  150.8762 H   0  0  0  0  0  0  0  0  0  0  0  0
  144.5688  135.3041  151.2536 H   0  0  0  0  0  0  0  0  0  0  0  0
  145.9884  135.5154  150.2475 H   0  0  0  0  0  0  0  0  0  0  0  0
  148.9507  138.2192  153.3435 H   0  0  0  0  0  0  0  0  0  0  0  0
  150.6806  136.7953  154.0379 H   0  0  0  0  0  0  0  0  0  0  0  0
  151.2437  137.0228  155.6907 H   0  0  0  0  0  0  0  0  0  0  0  0
  152.2040  137.6303  154.3331 H   0  0  0  0  0  0  0  0  0  0  0  0
  147.2091  136.1629  152.1870 H   0  0  0  0  0  0  0  0  0  0  0  0
  148.3371  143.2320  155.2626 H   0  0  0  0  0  0  0  0  0  0  0  0
  1  2  1  0  0  0  0
  1 23  1  0  0  0  0
  1 24  1  0  0  0  0
  1 25  1  0  0  0  0
  2 21  1  0  0  0  0
  2  3  2  0  0  0  0
  3  4  1  0  0  0  0
  3 26  1  0  0  0  0
  4 19  2  0  0  0  0
  4  5  1  0  0  0  0
  5  6  2  0  0  0  0
  5 49  1  0  0  0  0
  6  7  1  0  0  0  0
  6 27  1  0  0  0  0
  7  8  1  0  0  0  0
  7 19  1  0  0  0  0
  8  9  1  0  0  0  0
  8 28  1  0  0  0  0
  8 29  1  0  0  0  0
  9 10  1  0  0  0  0
  9 11  1  0  0  0  0
  9 30  1  0  0  0  0
 10 31  1  0  0  0  0
 11 12  1  0  0  0  0
 11 32  1  0  0  0  0
 11 33  1  0  0  0  0
 12 18  1  0  0  0  0
 12 13  1  0  0  0  0
 12 48  1  0  0  0  0
 13 14  1  0  0  0  0
 13 34  1  0  0  0  0
 13 35  1  0  0  0  0
 14 15  1  0  0  0  0
 14 36  1  0  0  0  0
 14 37  1  0  0  0  0
 15 16  1  0  0  0  0
 16 17  1  0  0  0  0
 16 18  1  0  0  0  0
 16 38  1  0  0  0  0
 17 39  1  0  0  0  0
 17 40  1  0  0  0  0
 17 41  1  0  0  0  0
 18 42  1  0  0  0  0
 18 43  1  0  0  0  0
 19 20  1  0  0  0  0
 20 21  2  0  0  0  0
 20 44  1  0  0  0  0
 21 22  1  0  0  0  0
 22 45  1  0  0  0  0
 22 46  1  0  0  0  0
 22 47  1  0  0  0  0
M  CHG  1   5   1
M  CHG  1  12   1
M  END
> <s_m_source_file>
AV-unprocessed.smi

> <i_m_source_file_index>
1554

> <i_lp_mmshare_version>
43012

> <i_f3d_flags>
0

> <s_epik_input>
W0NIM11jKFtjSF0xKWMoW0NIM10pW2NIXWMoYzEyKW4oW2NIXW4yKVtDSDJdW0NASF0oW09IXSlbQ0gyXU4zW0NIMl1bQ0gyXU9bQ0BASF0oW0NIM10pW0NIMl0z

> <s_epik_cmdline>
J2VwaWtfcHl0aG9uJywgJy1waCcsICc3LjAnLCAnLXRuJywgJzgnLCAnLW1hJywgJzIwMCcsICctbWV0YWxfYmluZGluZycsICctaW1hZScsICc8aW5maWxlLm1hZT4nLCAnLW9tYWUnLCAnPG91dGZpbGUubWFlPic=

> <r_epik_Ionization_Penalty>
1.8848

> <r_epik_Ionization_Penalty_Charging>
1.88479

> <r_epik_Ionization_Penalty_Neutral>
1.42224e-05

> <r_epik_State_Penalty>
1.94551

> <r_epik_Charging_Adjusted_Penalty>
3.8303

> <i_epik_Tot_Q>
2

> <i_epik_Tot_abs_Q>
2

> <r_epik_Metal_State_Penalty>
5.95849

> <b_epik_Metal_Only>
0

> <s_lp_Force_Field>
OPLS_2005

> <r_lp_Energy>
30.3036

> <b_lp_Chiralities_Consistent>
1

> <s_lp_Variant>
AV-unprocessed.smi:1554-18

> <Gold.Version>
5.8.1

> <Gold.Id.Protein>
6NUR|6NUR_protein|mol2

> <Gold.PLP.Fitness>
56.2447

> <Gold.PLP.PLP>
-42.3978

> <Gold.PLP.part.hbond>
-3.0000

> <Gold.PLP.part.metal>
0.0000

> <Gold.PLP.part.buried>
1.9158

> <Gold.PLP.part.nonpolar>
-42.4578

> <Gold.PLP.part.repulsive>
0.3194

> <Gold.PLP.ligand.clash>
0.0000

> <Gold.PLP.ligand.torsion>
0.6375

> <Gold.PLP.Chemscore.Hbond>
5.0000

> <Gold.PLP.Chemscore.CHOScore>
0.0000

> <Gold.PLP.Chemscore.Metal>
0.0000

> <Gold.Chemscore.Hbonds>
donor molecule, donor type, donor heavy atom, donor atom, acceptor molecule, acceptor atom, score
      L1  H     5    49       P1  8028  2.00
      L1  H    10    31       P1 10175  1.00
      L1  H    12    48       P1  7948  2.00

> <Gold.PLP.Chemscore.Internal.Correction>
0.1220

> <Gold.Rescore>
     Score         DG    S(hbond)    S(metal)    S(lipo)     H(rot)  DE(clash)    DE(int)     intcor
     20.61     -21.53       2.91        0.00     100.33       2.11       0.21       0.71       ----

> <Gold.Chemscore.Fitness>
20.6089

> <Gold.Chemscore.DG>
-21.5253

> <Gold.Chemscore.ZeroCoef>
-5.4800

> <Gold.Chemscore.Hbond>
2.9083

> <Gold.Chemscore.Metal>
0.0000

> <Gold.Chemscore.Lipo>
100.3303

> <Gold.Chemscore.Internal_Hbond>
0.0000

> <Gold.Chemscore.DEClash>
0.2105

> <Gold.Chemscore.DEInternal>
0.7058

> <Gold.Chemscore.Rot>
2.1122

> <Gold.Chemscore.Internal.Correction>
   9.000000E+99

> <Gold.Chemscore.Hbonds>
donor molecule, donor type, donor heavy atom, donor atom, acceptor molecule, acceptor atom, score
      L1  H     5    49       P1  8028  0.97
      L1  H    10    31       P1 10175  0.99
      L1  H    12    48       P1  7948  1.00

> <Gold.Chemscore.Hbond.Weighted>
-9.7139

> <Gold.Chemscore.Metal.Weighted>
-0.0000

> <Gold.Chemscore.Lipo.Weighted>
-11.7386

> <Gold.Chemscore.Internal_Hbond.Weighted>
0.0000

> <Gold.Chemscore.DEClash.Weighted>
0.2105

> <Gold.Chemscore.DEInternal.Weighted>
0.7058

> <Gold.Chemscore.Rot.Weighted>
5.4073

> <Gold.Chemscore.Internal.Correction.Weighted>
   9.000000E+99

> <Gold.Protein.RotatedTorsions>
[ 6907 6896 6895 6894 ] final -151.93 input  -60.11 | X-H torsion
[ 7974 7965 7964 7962 ] final -151.30 input  175.53 | X-H torsion
[ 8008 7997 7996 7995 ] final  169.93 input   59.86 | X-H torsion
[ 10167 10162 10161 10158 ] final  -14.75 input  -65.29 | X-H torsion
[ 10718 10713 10712 10709 ] final   77.16 input   66.30 | X-H torsion
[ 10763 10752 10751 10750 ] final -148.23 input  -60.55 | X-H torsion
[ 11005 11000 10999 10996 ] final  127.78 input  -57.11 | X-H torsion

> <Gold.Protein.ActiveResidues>
 VAL166  LYS551  ARG553  GLY616  TRP617  ASP618  TYR619  PRO620  LYS621  CYS622 
 ASP623  PHE694  ASN695  SER759  ASP760  ASP761  ALA762  ILE779  LEU786  VAL792 
 PHE793  MET794  SER795  GLU796  ALA797  LYS798  CYS799  TRP800  GLU811  SER814 

> <Gold.Protein.RotatedAtoms>
  151.2203  133.4506  159.2600 H   0  0  0  0  0  0  0  0  0  0  0  0  # atno 6907 bound_to 6896
  151.0891  134.9905  159.8404 H   0  0  0  0  0  0  0  0  0  0  0  0  # atno 6908 bound_to 6896
  152.5432  134.2138  159.8813 H   0  0  0  0  0  0  0  0  0  0  0  0  # atno 6909 bound_to 6896
  144.7858  140.4816  143.5807 H   0  0  0  0  0  0  0  0  0  0  0  0  # atno 7974 bound_to 7965
  156.1412  140.1551  156.8917 H   0  0  0  0  0  0  0  0  0  0  0  0  # atno 8008 bound_to 7997
  154.4989  140.0830  156.7795 H   0  0  0  0  0  0  0  0  0  0  0  0  # atno 8009 bound_to 7997
  155.4074  140.3417  155.4263 H   0  0  0  0  0  0  0  0  0  0  0  0  # atno 8010 bound_to 7997
  140.7207  143.5289  150.9544 H   0  0  0  0  0  0  0  0  0  0  0  0  # atno 10167 bound_to 10162
  157.6700  130.9808  150.1601 H   0  0  0  0  0  0  0  0  0  0  0  0  # atno 10718 bound_to 10713
  154.8244  135.3340  154.6942 H   0  0  0  0  0  0  0  0  0  0  0  0  # atno 10763 bound_to 10752
  153.7570  135.6935  153.4938 H   0  0  0  0  0  0  0  0  0  0  0  0  # atno 10764 bound_to 10752
  153.2137  135.4473  155.0359 H   0  0  0  0  0  0  0  0  0  0  0  0  # atno 10765 bound_to 10752
  139.9526  134.9619  156.8905 H   0  0  0  0  0  0  0  0  0  0  0  0  # atno 11005 bound_to 11000
  145.5927  139.1497  143.3173 LP  0  0  0  0  0  0  0  0  0  0  0  0  # atno 17320 bound_to 7965
  146.2088  140.6052  142.9069 LP  0  0  0  0  0  0  0  0  0  0  0  0  # atno 17321 bound_to 7965
  139.9008  143.6838  152.3131 LP  0  0  0  0  0  0  0  0  0  0  0  0  # atno 17342 bound_to 10162
  139.7187  144.7607  151.0992 LP  0  0  0  0  0  0  0  0  0  0  0  0  # atno 17343 bound_to 10162
  156.2379  130.3688  149.8370 LP  0  0  0  0  0  0  0  0  0  0  0  0  # atno 17370 bound_to 10713
  156.6178  130.8613  151.3469 LP  0  0  0  0  0  0  0  0  0  0  0  0  # atno 17371 bound_to 10713
  140.5684  134.0467  155.7422 LP  0  0  0  0  0  0  0  0  0  0  0  0  # atno 17394 bound_to 11000
  141.1191  133.9491  157.2764 LP  0  0  0  0  0  0  0  0  0  0  0  0  # atno 17395 bound_to 11000

$$$$
