AV-unprocessed.smi:2083|AV-procd|sdf|8502|dock7
  -GOLD-   2272011213D 1   1.00000     0.00000
 Structure written by MMmdl.
 44 45  0  0  0  0  0  0  0  0  3 V2000
  150.9656  141.2069  155.8597 C   0  0  0  0  0  0  0  0  0  0  0  0
  151.3260  139.8200  155.4487 C   0  0  0  0  0  0  0  0  0  0  0  0
  150.5966  138.6720  155.3203 C   0  0  0  0  0  0  0  0  0  0  0  0
  151.5605  137.7217  154.8855 C   0  0  0  0  0  0  0  0  0  0  0  0
  151.3323  136.4235  154.6336 N   0  5  0  0  0  0  0  0  0  0  0  0
  150.3308  135.7706  155.2661 C   0  0  0  0  0  0  0  0  0  0  0  0
  150.3164  135.4121  156.4458 O   0  0  0  0  0  0  0  0  0  0  0  0
  149.2776  135.5158  154.4795 N   0  0  0  0  0  0  0  0  0  0  0  0
  148.0595  134.8311  154.8952 C   0  0  0  0  0  0  0  0  0  0  0  0
  147.7524  133.6072  154.0000 C   0  0  2  0  0  0  0  0  0  0  0  0
  149.0563  132.8325  153.6866 C   0  0  0  0  0  0  0  0  0  0  0  0
  146.9946  134.0487  152.7831 N   0  3  1  0  0  0  0  0  0  0  0  0
  146.6857  132.9873  151.7807 C   0  0  0  0  0  0  0  0  0  0  0  0
  146.0385  133.5735  150.5149 C   0  0  0  0  0  0  0  0  0  0  0  0
  144.7835  134.3864  150.8518 C   0  0  0  0  0  0  0  0  0  0  0  0
  145.0901  135.4545  151.9141 C   0  0  2  0  0  0  0  0  0  0  0  0
  145.9009  136.6394  151.3605 C   0  0  0  0  0  0  0  0  0  0  0  0
  145.7620  134.8094  153.1424 C   0  0  0  0  0  0  0  0  0  0  0  0
  152.7708  138.2432  154.7752 N   0  0  0  0  0  0  0  0  0  0  0  0
  152.6278  139.5903  155.1288 O   0  0  0  0  0  0  0  0  0  0  0  0
  150.5454  141.2135  156.8655 H   0  0  0  0  0  0  0  0  0  0  0  0
  150.2250  141.6293  155.1805 H   0  0  0  0  0  0  0  0  0  0  0  0
  151.8394  141.8591  155.8546 H   0  0  0  0  0  0  0  0  0  0  0  0
  149.5419  138.5336  155.5050 H   0  0  0  0  0  0  0  0  0  0  0  0
  149.3289  135.8270  153.5205 H   0  0  0  0  0  0  0  0  0  0  0  0
  148.1842  134.5456  155.9389 H   0  0  0  0  0  0  0  0  0  0  0  0
  147.2212  135.5293  154.8601 H   0  0  0  0  0  0  0  0  0  0  0  0
  147.1130  132.9211  154.5582 H   0  0  0  0  0  0  0  0  0  0  0  0
  149.5799  132.5390  154.5965 H   0  0  0  0  0  0  0  0  0  0  0  0
  149.7478  133.4357  153.0972 H   0  0  0  0  0  0  0  0  0  0  0  0
  148.8621  131.9051  153.1478 H   0  0  0  0  0  0  0  0  0  0  0  0
  147.5926  132.4764  151.4602 H   0  0  0  0  0  0  0  0  0  0  0  0
  146.0310  132.2385  152.2296 H   0  0  0  0  0  0  0  0  0  0  0  0
  146.7595  134.2022  149.9914 H   0  0  0  0  0  0  0  0  0  0  0  0
  145.7818  132.7688  149.8251 H   0  0  0  0  0  0  0  0  0  0  0  0
  144.3729  134.8445  149.9513 H   0  0  0  0  0  0  0  0  0  0  0  0
  144.0139  133.7123  151.2306 H   0  0  0  0  0  0  0  0  0  0  0  0
  144.1346  135.8650  152.2433 H   0  0  0  0  0  0  0  0  0  0  0  0
  146.8977  136.3381  151.0383 H   0  0  0  0  0  0  0  0  0  0  0  0
  146.0219  137.4153  152.1170 H   0  0  0  0  0  0  0  0  0  0  0  0
  145.3982  137.0926  150.5055 H   0  0  0  0  0  0  0  0  0  0  0  0
  145.0585  134.1288  153.6253 H   0  0  0  0  0  0  0  0  0  0  0  0
  145.9777  135.5867  153.8738 H   0  0  0  0  0  0  0  0  0  0  0  0
  147.6054  134.6965  152.3063 H   0  0  0  0  0  0  0  0  0  0  0  0
  1  2  1  0  0  0  0
  1 21  1  0  0  0  0
  1 22  1  0  0  0  0
  1 23  1  0  0  0  0
  2 20  1  0  0  0  0
  2  3  2  0  0  0  0
  3  4  1  0  0  0  0
  3 24  1  0  0  0  0
  4  5  1  0  0  0  0
  4 19  2  0  0  0  0
  5  6  1  0  0  0  0
  6  7  2  0  0  0  0
  6  8  1  0  0  0  0
  8  9  1  0  0  0  0
  8 25  1  0  0  0  0
  9 10  1  0  0  0  0
  9 26  1  0  0  0  0
  9 27  1  0  0  0  0
 10 11  1  0  0  0  0
 10 12  1  0  0  0  0
 10 28  1  0  0  0  0
 11 29  1  0  0  0  0
 11 30  1  0  0  0  0
 11 31  1  0  0  0  0
 12 18  1  0  0  0  0
 12 13  1  0  0  0  0
 12 44  1  0  0  0  0
 13 14  1  0  0  0  0
 13 32  1  0  0  0  0
 13 33  1  0  0  0  0
 14 15  1  0  0  0  0
 14 34  1  0  0  0  0
 14 35  1  0  0  0  0
 15 16  1  0  0  0  0
 15 36  1  0  0  0  0
 15 37  1  0  0  0  0
 16 17  1  0  0  0  0
 16 18  1  0  0  0  0
 16 38  1  0  0  0  0
 17 39  1  0  0  0  0
 17 40  1  0  0  0  0
 17 41  1  0  0  0  0
 18 42  1  0  0  0  0
 18 43  1  0  0  0  0
 19 20  1  0  0  0  0
M  CHG  1   5  -1
M  CHG  1  12   1
M  END
> <s_m_source_file>
AV-unprocessed.smi

> <i_m_source_file_index>
2083

> <i_lp_mmshare_version>
43012

> <i_f3d_flags>
0

> <s_epik_input>
W0NIM11jMVtjSF1jKG5vMSlbTkhdQyg9TylbTkhdW0NIMl1bQ0BIXShbQ0gzXSlOMltDSDJdW0NIMl1bQ0gyXVtDQEBIXShbQ0gzXSlbQ0gyXTI=

> <s_epik_cmdline>
J2VwaWtfcHl0aG9uJywgJy1waCcsICc3LjAnLCAnLXRuJywgJzgnLCAnLW1hJywgJzIwMCcsICctbWV0YWxfYmluZGluZycsICctaW1hZScsICc8aW5maWxlLm1hZT4nLCAnLW9tYWUnLCAnPG91dGZpbGUubWFlPic=

> <r_epik_Ionization_Penalty>
6.22434

> <r_epik_Ionization_Penalty_Charging>
6.22425

> <r_epik_Ionization_Penalty_Neutral>
9.62407e-05

> <r_epik_State_Penalty>
6.22423

> <r_epik_Charging_Adjusted_Penalty>
12.4485

> <i_epik_Tot_Q>
0

> <i_epik_Tot_abs_Q>
2

> <r_epik_Metal_State_Penalty>
2.16764

> <b_epik_Metal_Only>
1

> <s_lp_Force_Field>
OPLS_2005

> <r_lp_Energy>
14.8953

> <b_lp_Chiralities_Consistent>
1

> <s_lp_Variant>
AV-unprocessed.smi:2083-13

> <Gold.Version>
5.8.1

> <Gold.Id.Protein>
6NUR|6NUR_protein|mol2

> <Gold.PLP.Fitness>
50.6997

> <Gold.PLP.PLP>
-34.8439

> <Gold.PLP.part.hbond>
-5.2185

> <Gold.PLP.part.metal>
0.0000

> <Gold.PLP.part.buried>
-2.6196

> <Gold.PLP.part.nonpolar>
-27.0181

> <Gold.PLP.part.repulsive>
0.5538

> <Gold.PLP.ligand.clash>
0.0000

> <Gold.PLP.ligand.torsion>
1.1135

> <Gold.PLP.Chemscore.Hbond>
6.0000

> <Gold.PLP.Chemscore.CHOScore>
0.0000

> <Gold.PLP.Chemscore.Metal>
0.0000

> <Gold.Chemscore.Hbonds>
donor molecule, donor type, donor heavy atom, donor atom, acceptor molecule, acceptor atom, score
      L1  H     8    25       P1  7948  1.00
      L1  H    12    44       P1  7948  1.92
      P1  H  7997  8009       L1    20  0.93
      P1  H 10752 10765       L1     5  2.00

> <Gold.PLP.Chemscore.Internal.Correction>
0.0828

> <Gold.Rescore>
     Score         DG    S(hbond)    S(metal)    S(lipo)     H(rot)  DE(clash)    DE(int)     intcor
     18.26     -19.99       3.26        0.00      64.11       1.52       0.61       1.12       ----

> <Gold.Chemscore.Fitness>
18.2579

> <Gold.Chemscore.DG>
-19.9947

> <Gold.Chemscore.ZeroCoef>
-5.4800

> <Gold.Chemscore.Hbond>
3.2640

> <Gold.Chemscore.Metal>
0.0000

> <Gold.Chemscore.Lipo>
64.1148

> <Gold.Chemscore.Internal_Hbond>
0.0000

> <Gold.Chemscore.DEClash>
0.6130

> <Gold.Chemscore.DEInternal>
1.1237

> <Gold.Chemscore.Rot>
1.5190

> <Gold.Chemscore.Internal.Correction>
   9.000000E+99

> <Gold.Chemscore.Hbonds>
donor molecule, donor type, donor heavy atom, donor atom, acceptor molecule, acceptor atom, score
      L1  H     8    25       P1  7948  0.55
      L1  H    12    44       P1  7948  0.74
      P1  H  7997  8009       L1    20  0.53
      P1  H 10752 10765       L1     5  0.55

> <Gold.Chemscore.Hbond.Weighted>
-10.9019

> <Gold.Chemscore.Metal.Weighted>
-0.0000

> <Gold.Chemscore.Lipo.Weighted>
-7.5014

> <Gold.Chemscore.Internal_Hbond.Weighted>
0.0000

> <Gold.Chemscore.DEClash.Weighted>
0.6130

> <Gold.Chemscore.DEInternal.Weighted>
1.1237

> <Gold.Chemscore.Rot.Weighted>
3.8886

> <Gold.Chemscore.Internal.Correction.Weighted>
   9.000000E+99

> <Gold.Protein.RotatedTorsions>
[ 6907 6896 6895 6894 ] final   46.70 input  -60.11 | X-H torsion
[ 7974 7965 7964 7962 ] final   38.19 input  175.53 | X-H torsion
[ 8008 7997 7996 7995 ] final -140.78 input   59.86 | X-H torsion
[ 10167 10162 10161 10158 ] final   79.24 input  -65.29 | X-H torsion
[ 10718 10713 10712 10709 ] final -111.63 input   66.30 | X-H torsion
[ 10763 10752 10751 10750 ] final -175.22 input  -60.55 | X-H torsion
[ 11005 11000 10999 10996 ] final   63.07 input  -57.11 | X-H torsion

> <Gold.Protein.ActiveResidues>
 VAL166  LYS551  ARG553  GLY616  TRP617  ASP618  TYR619  PRO620  LYS621  CYS622 
 ASP623  PHE694  ASN695  SER759  ASP760  ASP761  ALA762  ILE779  LEU786  VAL792 
 PHE793  MET794  SER795  GLU796  ALA797  LYS798  CYS799  TRP800  GLU811  SER814 

> <Gold.Protein.RotatedAtoms>
  152.2594  134.8050  160.0432 H   0  0  0  0  0  0  0  0  0  0  0  0  # atno 6907 bound_to 6896
  151.8701  133.3469  159.3740 H   0  0  0  0  0  0  0  0  0  0  0  0  # atno 6908 bound_to 6896
  150.7111  134.5048  159.5623 H   0  0  0  0  0  0  0  0  0  0  0  0  # atno 6909 bound_to 6896
  146.1080  139.5802  142.9371 H   0  0  0  0  0  0  0  0  0  0  0  0  # atno 7974 bound_to 7965
  155.4671  140.0550  157.2984 H   0  0  0  0  0  0  0  0  0  0  0  0  # atno 8008 bound_to 7997
  154.4713  140.2042  155.9941 H   0  0  0  0  0  0  0  0  0  0  0  0  # atno 8009 bound_to 7997
  156.1061  140.3211  155.8013 H   0  0  0  0  0  0  0  0  0  0  0  0  # atno 8010 bound_to 7997
  139.9624  144.5952  150.8060 H   0  0  0  0  0  0  0  0  0  0  0  0  # atno 10167 bound_to 10162
  156.0658  130.5878  150.8400 H   0  0  0  0  0  0  0  0  0  0  0  0  # atno 10718 bound_to 10713
  154.5870  135.2841  155.0674 H   0  0  0  0  0  0  0  0  0  0  0  0  # atno 10763 bound_to 10752
  154.1989  135.6428  153.5085 H   0  0  0  0  0  0  0  0  0  0  0  0  # atno 10764 bound_to 10752
  153.0108  135.5464  154.6543 H   0  0  0  0  0  0  0  0  0  0  0  0  # atno 10765 bound_to 10752
  140.0050  134.6384  155.9870 H   0  0  0  0  0  0  0  0  0  0  0  0  # atno 11005 bound_to 11000
  145.5721  141.0393  143.2168 LP  0  0  0  0  0  0  0  0  0  0  0  0  # atno 17320 bound_to 7965
  144.7487  139.7250  143.7282 LP  0  0  0  0  0  0  0  0  0  0  0  0  # atno 17321 bound_to 7965
  140.7549  143.3035  151.3019 LP  0  0  0  0  0  0  0  0  0  0  0  0  # atno 17342 bound_to 10162
  139.6544  144.0304  152.2649 LP  0  0  0  0  0  0  0  0  0  0  0  0  # atno 17343 bound_to 10162
  157.5699  131.0946  150.9433 LP  0  0  0  0  0  0  0  0  0  0  0  0  # atno 17370 bound_to 10713
  156.9652  130.5470  149.5288 LP  0  0  0  0  0  0  0  0  0  0  0  0  # atno 17371 bound_to 10713
  141.1670  133.6537  156.4514 LP  0  0  0  0  0  0  0  0  0  0  0  0  # atno 17394 bound_to 11000
  140.4659  134.6798  157.5107 LP  0  0  0  0  0  0  0  0  0  0  0  0  # atno 17395 bound_to 11000

$$$$
