AV-unprocessed.smi:702|AV-procd|sdf|3425|dock10
  -GOLD-   22720 0413D 1   1.00000     0.00000
 Structure written by MMmdl.
 50 52  0  0  0  0  0  0  0  0  4 V2000
  155.8428  139.7469  162.9403 C   0  0  0  0  0  0  0  0  0  0  0  0
  154.9668  139.5729  161.6823 C   0  0  1  0  0  0  0  0  0  0  0  0
  155.0282  140.8252  160.9190 N   0  5  0  0  0  0  0  0  0  0  0  0
  154.2053  141.1568  159.8875 C   0  0  0  0  0  0  0  0  0  0  0  0
  154.1986  140.6816  158.7468 O   0  0  0  0  0  0  0  0  0  0  0  0
  153.3182  142.1062  160.2341 N   0  0  0  0  0  0  0  0  0  0  0  0
  152.3387  142.7532  159.4330 C   0  0  0  0  0  0  0  0  0  0  0  0
  151.7941  143.9641  159.9142 C   0  0  0  0  0  0  0  0  0  0  0  0
  150.8367  144.6513  159.1409 C   0  0  0  0  0  0  0  0  0  0  0  0
  150.4574  144.1549  157.9437 N   0  3  0  0  0  0  0  0  0  0  0  0
  150.9630  143.0111  157.4341 C   0  0  0  0  0  0  0  0  0  0  0  0
  151.9242  142.2808  158.1619 C   0  0  0  0  0  0  0  0  0  0  0  0
  155.3169  138.3341  160.7465 C   0  0  0  0  0  0  0  0  0  0  0  0
  155.6333  137.0511  161.5105 N   0  3  0  0  0  0  0  0  0  0  0  0
  156.9350  136.9712  162.2430 C   0  0  0  0  0  0  0  0  0  0  0  0
  157.2520  135.5136  162.6069 C   0  0  0  0  0  0  0  0  0  0  0  0
  156.2014  134.9876  163.4060 O   0  0  0  0  0  0  0  0  0  0  0  0
  154.9624  134.9796  162.7101 C   0  0  0  0  0  0  0  0  0  0  0  0
  154.5589  136.4138  162.3295 C   0  0  0  0  0  0  0  0  0  0  0  0
  154.2479  138.0816  159.6409 C   0  0  0  0  0  0  0  0  0  0  0  0
  154.9317  137.2053  158.5844 C   0  0  0  0  0  0  0  0  0  0  0  0
  156.4209  137.5559  158.6787 C   0  0  0  0  0  0  0  0  0  0  0  0
  156.5268  138.5976  159.8027 C   0  0  0  0  0  0  0  0  0  0  0  0
  155.7795  138.8899  163.6086 H   0  0  0  0  0  0  0  0  0  0  0  0
  155.5106  140.6087  163.5207 H   0  0  0  0  0  0  0  0  0  0  0  0
  156.8918  139.9145  162.6989 H   0  0  0  0  0  0  0  0  0  0  0  0
  153.9602  139.3906  162.0607 H   0  0  0  0  0  0  0  0  0  0  0  0
  153.3150  142.3554  161.2123 H   0  0  0  0  0  0  0  0  0  0  0  0
  152.1013  144.3616  160.8708 H   0  0  0  0  0  0  0  0  0  0  0  0
  150.3686  145.5773  159.4409 H   0  0  0  0  0  0  0  0  0  0  0  0
  150.5915  142.7193  156.4627 H   0  0  0  0  0  0  0  0  0  0  0  0
  152.3348  141.3812  157.7291 H   0  0  0  0  0  0  0  0  0  0  0  0
  157.7562  137.3732  161.6529 H   0  0  0  0  0  0  0  0  0  0  0  0
  156.8906  137.5582  163.1613 H   0  0  0  0  0  0  0  0  0  0  0  0
  157.3881  134.9070  161.7100 H   0  0  0  0  0  0  0  0  0  0  0  0
  158.1829  135.4617  163.1718 H   0  0  0  0  0  0  0  0  0  0  0  0
  155.0347  134.3486  161.8227 H   0  0  0  0  0  0  0  0  0  0  0  0
  154.2020  134.5357  163.3532 H   0  0  0  0  0  0  0  0  0  0  0  0
  154.3749  136.9844  163.2383 H   0  0  0  0  0  0  0  0  0  0  0  0
  153.6151  136.3461  161.7956 H   0  0  0  0  0  0  0  0  0  0  0  0
  153.3004  137.6732  159.9896 H   0  0  0  0  0  0  0  0  0  0  0  0
  153.9786  139.0084  159.1318 H   0  0  0  0  0  0  0  0  0  0  0  0
  154.7813  136.1489  158.8101 H   0  0  0  0  0  0  0  0  0  0  0  0
  154.5280  137.3891  157.5882 H   0  0  0  0  0  0  0  0  0  0  0  0
  156.9984  136.6650  158.9285 H   0  0  0  0  0  0  0  0  0  0  0  0
  156.8101  137.9451  157.7373 H   0  0  0  0  0  0  0  0  0  0  0  0
  156.4637  139.5717  159.3162 H   0  0  0  0  0  0  0  0  0  0  0  0
  157.5017  138.5721  160.2872 H   0  0  0  0  0  0  0  0  0  0  0  0
  155.7492  136.3933  160.7538 H   0  0  0  0  0  0  0  0  0  0  0  0
  149.7641  144.6680  157.3989 H   0  0  0  0  0  0  0  0  0  0  0  0
  1  2  1  0  0  0  0
  1 24  1  0  0  0  0
  1 25  1  0  0  0  0
  1 26  1  0  0  0  0
  2  3  1  0  0  0  0
  2 13  1  0  0  0  0
  2 27  1  0  0  0  0
  3  4  1  0  0  0  0
  4  5  2  0  0  0  0
  4  6  1  0  0  0  0
  6  7  1  0  0  0  0
  6 28  1  0  0  0  0
  7 12  1  0  0  0  0
  7  8  2  0  0  0  0
  8  9  1  0  0  0  0
  8 29  1  0  0  0  0
  9 10  2  0  0  0  0
  9 30  1  0  0  0  0
 10 11  1  0  0  0  0
 10 50  1  0  0  0  0
 11 12  2  0  0  0  0
 11 31  1  0  0  0  0
 12 32  1  0  0  0  0
 13 23  1  0  0  0  0
 13 14  1  0  0  0  0
 13 20  1  0  0  0  0
 14 19  1  0  0  0  0
 14 15  1  0  0  0  0
 14 49  1  0  0  0  0
 15 16  1  0  0  0  0
 15 33  1  0  0  0  0
 15 34  1  0  0  0  0
 16 17  1  0  0  0  0
 16 35  1  0  0  0  0
 16 36  1  0  0  0  0
 17 18  1  0  0  0  0
 18 19  1  0  0  0  0
 18 37  1  0  0  0  0
 18 38  1  0  0  0  0
 19 39  1  0  0  0  0
 19 40  1  0  0  0  0
 20 21  1  0  0  0  0
 20 41  1  0  0  0  0
 20 42  1  0  0  0  0
 21 22  1  0  0  0  0
 21 43  1  0  0  0  0
 21 44  1  0  0  0  0
 22 23  1  0  0  0  0
 22 45  1  0  0  0  0
 22 46  1  0  0  0  0
 23 47  1  0  0  0  0
 23 48  1  0  0  0  0
M  CHG  1   3  -1
M  CHG  1  10   1
M  CHG  1  14   1
M  END
> <s_m_source_file>
AV-unprocessed.smi

> <i_m_source_file_index>
702

> <i_lp_mmshare_version>
43012

> <i_f3d_flags>
0

> <s_epik_input>
W0NIMl0xW0NIMl1PW0NIMl1bQ0gyXU4xQzIoW0NIMl1bQ0gyXVtDSDJdW0NIMl0yKVtDQEhdKFtDSDNdKVtOSF1DKD1PKVtOSF1jM1tjSF1bY0hdbltjSF1bY0hdMw==

> <s_epik_cmdline>
J2VwaWtfcHl0aG9uJywgJy1waCcsICc3LjAnLCAnLXRuJywgJzgnLCAnLW1hJywgJzIwMCcsICctbWV0YWxfYmluZGluZycsICctaW1hZScsICc8aW5maWxlLm1hZT4nLCAnLW9tYWUnLCAnPG91dGZpbGUubWFlPic=

> <r_epik_Ionization_Penalty>
8.33674

> <r_epik_Ionization_Penalty_Charging>
8.33674

> <r_epik_Ionization_Penalty_Neutral>
3.60854e-06

> <r_epik_State_Penalty>
8.24268

> <r_epik_Charging_Adjusted_Penalty>
16.5794

> <i_epik_Tot_Q>
1

> <i_epik_Tot_abs_Q>
3

> <r_epik_Metal_State_Penalty>
4.24853

> <b_epik_Metal_Only>
1

> <s_lp_Force_Field>
OPLS_2005

> <r_lp_Energy>
61.2868

> <b_lp_Chiralities_Consistent>
1

> <s_lp_Variant>
AV-unprocessed.smi:702-10

> <Gold.Version>
5.8.1

> <Gold.Id.Protein>
6NUR|6NUR_protein|mol2

> <Gold.PLP.Fitness>
45.1157

> <Gold.PLP.PLP>
-38.7682

> <Gold.PLP.part.hbond>
-2.8310

> <Gold.PLP.part.metal>
0.0000

> <Gold.PLP.part.buried>
-4.8329

> <Gold.PLP.part.nonpolar>
-31.6568

> <Gold.PLP.part.repulsive>
0.1762

> <Gold.PLP.ligand.clash>
0.0026

> <Gold.PLP.ligand.torsion>
1.3499

> <Gold.PLP.Chemscore.Hbond>
2.8640

> <Gold.PLP.Chemscore.CHOScore>
0.0000

> <Gold.PLP.Chemscore.Metal>
0.0000

> <Gold.Chemscore.Hbonds>
donor molecule, donor type, donor heavy atom, donor atom, acceptor molecule, acceptor atom, score
      L1  H    10    50       P1  8028  1.16
      P1  H  7997  8008       L1     5  0.61

> <Gold.PLP.Chemscore.Internal.Correction>
0.4580

> <Gold.Rescore>
     Score         DG    S(hbond)    S(metal)    S(lipo)     H(rot)  DE(clash)    DE(int)     intcor
     15.06     -21.86       1.92        0.00     116.99       1.45       1.82       4.99       ----

> <Gold.Chemscore.Fitness>
15.0570

> <Gold.Chemscore.DG>
-21.8629

> <Gold.Chemscore.ZeroCoef>
-5.4800

> <Gold.Chemscore.Hbond>
1.9184

> <Gold.Chemscore.Metal>
0.0000

> <Gold.Chemscore.Lipo>
116.9946

> <Gold.Chemscore.Internal_Hbond>
0.0000

> <Gold.Chemscore.DEClash>
1.8189

> <Gold.Chemscore.DEInternal>
4.9871

> <Gold.Chemscore.Rot>
1.4504

> <Gold.Chemscore.Internal.Correction>
   9.000000E+99

> <Gold.Chemscore.Hbonds>
donor molecule, donor type, donor heavy atom, donor atom, acceptor molecule, acceptor atom, score
      L1  H    10    50       P1  8028  0.05
      P1  H  7997  8008       L1     5  0.60

> <Gold.Chemscore.Hbond.Weighted>
-6.4075

> <Gold.Chemscore.Metal.Weighted>
-0.0000

> <Gold.Chemscore.Lipo.Weighted>
-13.6884

> <Gold.Chemscore.Internal_Hbond.Weighted>
0.0000

> <Gold.Chemscore.DEClash.Weighted>
1.8189

> <Gold.Chemscore.DEInternal.Weighted>
4.9871

> <Gold.Chemscore.Rot.Weighted>
3.7129

> <Gold.Chemscore.Internal.Correction.Weighted>
   9.000000E+99

> <Gold.Protein.RotatedTorsions>
[ 6907 6896 6895 6894 ] final -106.66 input  -60.11 | X-H torsion
[ 7974 7965 7964 7962 ] final  174.90 input  175.53 | X-H torsion
[ 8008 7997 7996 7995 ] final -103.28 input   59.86 | X-H torsion
[ 10167 10162 10161 10158 ] final  -86.38 input  -65.29 | X-H torsion
[ 10718 10713 10712 10709 ] final   35.95 input   66.30 | X-H torsion
[ 10763 10752 10751 10750 ] final   18.49 input  -60.55 | X-H torsion
[ 11005 11000 10999 10996 ] final  166.54 input  -57.11 | X-H torsion

> <Gold.Protein.ActiveResidues>
 VAL166  LYS551  ARG553  GLY616  TRP617  ASP618  TYR619  PRO620  LYS621  CYS622 
 ASP623  PHE694  ASN695  SER759  ASP760  ASP761  ALA762  ILE779  LEU786  VAL792 
 PHE793  MET794  SER795  GLU796  ALA797  LYS798  CYS799  TRP800  GLU811  SER814 

> <Gold.Protein.RotatedAtoms>
  150.7401  133.9943  159.3616 H   0  0  0  0  0  0  0  0  0  0  0  0  # atno 6907 bound_to 6896
  151.7893  135.0738  160.0394 H   0  0  0  0  0  0  0  0  0  0  0  0  # atno 6908 bound_to 6896
  152.3219  133.5827  159.5786 H   0  0  0  0  0  0  0  0  0  0  0  0  # atno 6909 bound_to 6896
  144.7212  139.9866  143.6439 H   0  0  0  0  0  0  0  0  0  0  0  0  # atno 7974 bound_to 7965
  154.8686  140.0424  157.1710 H   0  0  0  0  0  0  0  0  0  0  0  0  # atno 8008 bound_to 7997
  154.8763  140.2966  155.5431 H   0  0  0  0  0  0  0  0  0  0  0  0  # atno 8009 bound_to 7997
  156.2999  140.2419  156.3759 H   0  0  0  0  0  0  0  0  0  0  0  0  # atno 8010 bound_to 7997
  140.3947  143.2689  151.9220 H   0  0  0  0  0  0  0  0  0  0  0  0  # atno 10167 bound_to 10162
  157.3289  130.7487  149.6834 H   0  0  0  0  0  0  0  0  0  0  0  0  # atno 10718 bound_to 10713
  153.1244  135.6726  153.9281 H   0  0  0  0  0  0  0  0  0  0  0  0  # atno 10763 bound_to 10752
  153.8786  135.3061  155.3446 H   0  0  0  0  0  0  0  0  0  0  0  0  # atno 10764 bound_to 10752
  154.7652  135.4968  153.9620 H   0  0  0  0  0  0  0  0  0  0  0  0  # atno 10765 bound_to 10752
  140.2675  134.7853  157.3646 H   0  0  0  0  0  0  0  0  0  0  0  0  # atno 11005 bound_to 11000
  146.0445  139.3453  143.0677 LP  0  0  0  0  0  0  0  0  0  0  0  0  # atno 17320 bound_to 7965
  145.8293  140.9639  143.0857 LP  0  0  0  0  0  0  0  0  0  0  0  0  # atno 17321 bound_to 7965
  139.4787  144.5693  151.8114 LP  0  0  0  0  0  0  0  0  0  0  0  0  # atno 17342 bound_to 10162
  140.4803  144.1459  150.5931 LP  0  0  0  0  0  0  0  0  0  0  0  0  # atno 17343 bound_to 10162
  155.9693  130.4201  150.4407 LP  0  0  0  0  0  0  0  0  0  0  0  0  # atno 17370 bound_to 10713
  157.2435  131.0530  151.2422 LP  0  0  0  0  0  0  0  0  0  0  0  0  # atno 17371 bound_to 10713
  140.1405  134.4978  155.8035 LP  0  0  0  0  0  0  0  0  0  0  0  0  # atno 17394 bound_to 11000
  141.2182  133.6823  156.7201 LP  0  0  0  0  0  0  0  0  0  0  0  0  # atno 17395 bound_to 11000

$$$$
