AV-unprocessed.smi:1592|AV-procd|sdf|6408|dock1
  -GOLD-   22720 7 43D 1   1.00000     0.00000
 Structure written by MMmdl.
 26 27  0  0  0  0  0  0  0  0  2 V2000
  151.7963  139.0490  157.7758 O   0  0  0  0  0  0  0  0  0  0  0  0
  151.7834  140.0554  157.0650 C   0  0  0  0  0  0  0  0  0  0  0  0
  152.0380  141.3039  157.4974 N   0  0  0  0  0  0  0  0  0  0  0  0
  152.3851  141.7409  158.8060 C   0  0  0  0  0  0  0  0  0  0  0  0
  151.8325  142.8352  159.3881 N   0  0  0  0  0  0  0  0  0  0  0  0
  152.2144  143.1859  160.6333 C   0  0  0  0  0  0  0  0  0  0  0  0
  153.1682  142.4700  161.3777 C   0  0  0  0  0  0  0  0  0  0  0  0
  153.7494  141.3338  160.7886 C   0  0  0  0  0  0  0  0  0  0  0  0
  153.3565  140.9605  159.4876 C   0  0  0  0  0  0  0  0  0  0  0  0
  153.9224  139.8530  158.9160 O   0  5  0  0  0  0  0  0  0  0  0  0
  151.4441  139.9277  155.5757 C   0  0  1  0  0  0  0  0  0  0  0  0
  152.4070  139.0143  154.7937 C   0  0  0  0  0  0  0  0  0  0  0  0
  151.5493  137.8229  154.4125 C   0  0  0  0  0  0  0  0  0  0  0  0
  150.1606  138.4416  154.3488 C   0  0  0  0  0  0  0  0  0  0  0  0
  150.1579  139.3222  155.4604 O   0  0  0  0  0  0  0  0  0  0  0  0
  151.9846  142.0399  156.8079 H   0  0  0  0  0  0  0  0  0  0  0  0
  151.7440  144.0648  161.0484 H   0  0  0  0  0  0  0  0  0  0  0  0
  153.4466  142.7832  162.3726 H   0  0  0  0  0  0  0  0  0  0  0  0
  154.4860  140.7575  161.3294 H   0  0  0  0  0  0  0  0  0  0  0  0
  151.4129  140.9129  155.1067 H   0  0  0  0  0  0  0  0  0  0  0  0
  152.7520  139.5297  153.8965 H   0  0  0  0  0  0  0  0  0  0  0  0
  153.2927  138.7144  155.3558 H   0  0  0  0  0  0  0  0  0  0  0  0
  151.8541  137.3569  153.4752 H   0  0  0  0  0  0  0  0  0  0  0  0
  151.5846  137.0685  155.1999 H   0  0  0  0  0  0  0  0  0  0  0  0
  150.0271  139.0112  153.4278 H   0  0  0  0  0  0  0  0  0  0  0  0
  149.3631  137.7017  154.4193 H   0  0  0  0  0  0  0  0  0  0  0  0
  1  2  2  0  0  0  0
  2  3  1  0  0  0  0
  2 11  1  0  0  0  0
  3 16  1  0  0  0  0
  3  4  1  0  0  0  0
  4  9  2  0  0  0  0
  4  5  1  0  0  0  0
  5  6  2  0  0  0  0
  6 17  1  0  0  0  0
  6  7  1  0  0  0  0
  7 18  1  0  0  0  0
  7  8  2  0  0  0  0
  8  9  1  0  0  0  0
  8 19  1  0  0  0  0
  9 10  1  0  0  0  0
 11 15  1  0  0  0  0
 11 12  1  0  0  0  0
 11 20  1  0  0  0  0
 12 13  1  0  0  0  0
 12 21  1  0  0  0  0
 12 22  1  0  0  0  0
 13 14  1  0  0  0  0
 13 23  1  0  0  0  0
 13 24  1  0  0  0  0
 14 15  1  0  0  0  0
 14 25  1  0  0  0  0
 14 26  1  0  0  0  0
M  CHG  1  10  -1
M  END
> <s_m_source_file>
AV-unprocessed.smi

> <i_m_source_file_index>
1592

> <i_lp_mmshare_version>
43012

> <i_f3d_flags>
0

> <s_epik_input>
TzFbQ0gyXVtDSDJdW0NIMl1bQ0BIXTFDKD1PKVtOSF1jMm5bY0hdW2NIXVtjSF1jMltPSF0=

> <s_epik_cmdline>
J2VwaWtfcHl0aG9uJywgJy1waCcsICc3LjAnLCAnLXRuJywgJzgnLCAnLW1hJywgJzIwMCcsICctbWV0YWxfYmluZGluZycsICctaW1hZScsICc8aW5maWxlLm1hZT4nLCAnLW9tYWUnLCAnPG91dGZpbGUubWFlPic=

> <r_epik_Ionization_Penalty>
4.05601

> <r_epik_Ionization_Penalty_Charging>
2.06015

> <r_epik_Ionization_Penalty_Neutral>
1.99585

> <r_epik_State_Penalty>
2.62166

> <r_epik_Charging_Adjusted_Penalty>
4.68182

> <i_epik_Tot_Q>
-1

> <i_epik_Tot_abs_Q>
1

> <r_epik_Metal_State_Penalty>
0.603772

> <b_epik_Metal_Only>
0

> <s_lp_Force_Field>
OPLS_2005

> <r_lp_Energy>
18.4071

> <b_lp_Chiralities_Consistent>
1

> <s_lp_Variant>
AV-unprocessed.smi:1592-8

> <Gold.Version>
5.8.1

> <Gold.Id.Protein>
6NUR|6NUR_protein|mol2

> <Gold.PLP.Fitness>
36.3877

> <Gold.PLP.PLP>
-31.1218

> <Gold.PLP.part.hbond>
-1.0000

> <Gold.PLP.part.metal>
0.0000

> <Gold.PLP.part.buried>
-2.1168

> <Gold.PLP.part.nonpolar>
-27.4317

> <Gold.PLP.part.repulsive>
0.1243

> <Gold.PLP.ligand.clash>
0.0000

> <Gold.PLP.ligand.torsion>
0.3711

> <Gold.PLP.Chemscore.Hbond>
2.0000

> <Gold.PLP.Chemscore.CHOScore>
0.0000

> <Gold.PLP.Chemscore.Metal>
0.0000

> <Gold.Chemscore.Hbonds>
donor molecule, donor type, donor heavy atom, donor atom, acceptor molecule, acceptor atom, score
      P1  H  7997  8010       L1    10  2.00

> <Gold.PLP.Chemscore.Internal.Correction>
0.0082

> <Gold.Rescore>
     Score         DG    S(hbond)    S(metal)    S(lipo)     H(rot)  DE(clash)    DE(int)     intcor
     11.39     -14.67       0.93        0.00      73.75       1.00       0.13       3.15       ----

> <Gold.Chemscore.Fitness>
11.3929

> <Gold.Chemscore.DG>
-14.6675

> <Gold.Chemscore.ZeroCoef>
-5.4800

> <Gold.Chemscore.Hbond>
0.9337

> <Gold.Chemscore.Metal>
0.0000

> <Gold.Chemscore.Lipo>
73.7509

> <Gold.Chemscore.Internal_Hbond>
0.0000

> <Gold.Chemscore.DEClash>
0.1277

> <Gold.Chemscore.DEInternal>
3.1469

> <Gold.Chemscore.Rot>
1.0000

> <Gold.Chemscore.Internal.Correction>
   9.000000E+99

> <Gold.Chemscore.Hbonds>
donor molecule, donor type, donor heavy atom, donor atom, acceptor molecule, acceptor atom, score
      P1  H  7997  8010       L1    10  0.95

> <Gold.Chemscore.Hbond.Weighted>
-3.1186

> <Gold.Chemscore.Metal.Weighted>
-0.0000

> <Gold.Chemscore.Lipo.Weighted>
-8.6289

> <Gold.Chemscore.Internal_Hbond.Weighted>
0.0000

> <Gold.Chemscore.DEClash.Weighted>
0.1277

> <Gold.Chemscore.DEInternal.Weighted>
3.1469

> <Gold.Chemscore.Rot.Weighted>
2.5600

> <Gold.Chemscore.Internal.Correction.Weighted>
   9.000000E+99

> <Gold.Protein.RotatedTorsions>
[ 6907 6896 6895 6894 ] final  150.12 input  -60.11 | X-H torsion
[ 7974 7965 7964 7962 ] final   72.04 input  175.53 | X-H torsion
[ 8008 7997 7996 7995 ] final    9.42 input   59.86 | X-H torsion
[ 10167 10162 10161 10158 ] final  -39.75 input  -65.29 | X-H torsion
[ 10718 10713 10712 10709 ] final  -70.22 input   66.30 | X-H torsion
[ 10763 10752 10751 10750 ] final   14.04 input  -60.55 | X-H torsion
[ 11005 11000 10999 10996 ] final  -51.46 input  -57.11 | X-H torsion

> <Gold.Protein.ActiveResidues>
 VAL166  LYS551  ARG553  GLY616  TRP617  ASP618  TYR619  PRO620  LYS621  CYS622 
 ASP623  PHE694  ASN695  SER759  ASP760  ASP761  ALA762  ILE779  LEU786  VAL792 
 PHE793  MET794  SER795  GLU796  ALA797  LYS798  CYS799  TRP800  GLU811  SER814 

> <Gold.Protein.RotatedAtoms>
  152.1187  133.4341  159.4665 H   0  0  0  0  0  0  0  0  0  0  0  0  # atno 6907 bound_to 6896
  150.6871  134.2560  159.4539 H   0  0  0  0  0  0  0  0  0  0  0  0  # atno 6908 bound_to 6896
  152.0435  134.9696  160.0625 H   0  0  0  0  0  0  0  0  0  0  0  0  # atno 6909 bound_to 6896
  145.7584  139.2790  143.1391 H   0  0  0  0  0  0  0  0  0  0  0  0  # atno 7974 bound_to 7965
  154.7798  140.2817  155.6072 H   0  0  0  0  0  0  0  0  0  0  0  0  # atno 8008 bound_to 7997
  156.2948  140.2625  156.2549 H   0  0  0  0  0  0  0  0  0  0  0  0  # atno 8009 bound_to 7997
  154.9798  140.0375  157.2262 H   0  0  0  0  0  0  0  0  0  0  0  0  # atno 8010 bound_to 7997
  140.7055  143.3195  151.2826 H   0  0  0  0  0  0  0  0  0  0  0  0  # atno 10167 bound_to 10162
  156.0418  130.4327  150.2263 H   0  0  0  0  0  0  0  0  0  0  0  0  # atno 10718 bound_to 10713
  153.1662  135.6804  153.8672 H   0  0  0  0  0  0  0  0  0  0  0  0  # atno 10763 bound_to 10752
  153.8052  135.3150  155.3396 H   0  0  0  0  0  0  0  0  0  0  0  0  # atno 10764 bound_to 10752
  154.7967  135.4803  154.0267 H   0  0  0  0  0  0  0  0  0  0  0  0  # atno 10765 bound_to 10752
  141.0872  133.6640  156.3881 H   0  0  0  0  0  0  0  0  0  0  0  0  # atno 11005 bound_to 11000
  146.0288  140.8277  142.9886 LP  0  0  0  0  0  0  0  0  0  0  0  0  # atno 17320 bound_to 7965
  144.6835  140.2738  143.7302 LP  0  0  0  0  0  0  0  0  0  0  0  0  # atno 17321 bound_to 7965
  139.6645  144.0130  152.2714 LP  0  0  0  0  0  0  0  0  0  0  0  0  # atno 17342 bound_to 10162
  139.9708  144.6495  150.7990 LP  0  0  0  0  0  0  0  0  0  0  0  0  # atno 17343 bound_to 10162
  157.0357  131.0020  151.3299 LP  0  0  0  0  0  0  0  0  0  0  0  0  # atno 17370 bound_to 10713
  157.5245  130.8019  149.7846 LP  0  0  0  0  0  0  0  0  0  0  0  0  # atno 17371 bound_to 10713
  140.5335  134.6189  157.5357 LP  0  0  0  0  0  0  0  0  0  0  0  0  # atno 17394 bound_to 11000
  139.9692  134.7321  156.0075 LP  0  0  0  0  0  0  0  0  0  0  0  0  # atno 17395 bound_to 11000

$$$$
