AV-unprocessed.smi:3144|AV-procd|sdf|11978|dock5
  -GOLD-   2272017373D 1   1.00000     0.00000
 Structure written by MMmdl.
 40 41  0  0  0  0  0  0  0  0  2 V2000
  144.4503  133.3088  150.0205 C   0  0  0  0  0  0  0  0  0  0  0  0
  145.0295  134.2709  151.0175 C   0  0  0  0  0  0  0  0  0  0  0  0
  145.8668  133.9755  152.1306 C   0  0  0  0  0  0  0  0  0  0  0  0
  146.2066  135.0535  152.8188 N   0  0  0  0  0  0  0  0  0  0  0  0
  145.6010  136.0711  152.1718 N   0  0  0  0  0  0  0  0  0  0  0  0
  145.7595  137.4270  152.6599 C   0  0  0  0  0  0  0  0  0  0  0  0
  146.4849  138.3155  151.6392 C   0  0  0  0  0  0  0  0  0  0  0  0
  147.7867  138.7700  152.1638 N   0  3  0  0  0  0  0  0  0  0  0  0
  147.7325  139.2775  153.5495 C   0  0  0  0  0  0  0  0  0  0  0  0
  149.0801  139.8799  153.9878 C   0  0  0  0  0  0  0  0  0  0  0  0
  150.0573  138.7738  154.4370 C   0  0  0  0  0  0  0  0  0  0  0  0
  151.4126  139.3537  154.8735 C   0  0  0  0  0  0  0  0  0  0  0  0
  151.2378  140.3995  155.9849 C   0  0  0  0  0  0  0  0  0  0  0  0
  150.2659  141.5073  155.5522 C   0  0  0  0  0  0  0  0  0  0  0  0
  148.9127  140.9229  155.1151 C   0  0  0  0  0  0  0  0  0  0  0  0
  144.8843  135.6282  151.0804 C   0  0  0  0  0  0  0  0  0  0  0  0
  145.0995  132.4465  149.8676 H   0  0  0  0  0  0  0  0  0  0  0  0
  144.3027  133.7747  149.0459 H   0  0  0  0  0  0  0  0  0  0  0  0
  143.4820  132.9283  150.3463 H   0  0  0  0  0  0  0  0  0  0  0  0
  146.2356  133.0141  152.4568 H   0  0  0  0  0  0  0  0  0  0  0  0
  144.7716  137.8310  152.8868 H   0  0  0  0  0  0  0  0  0  0  0  0
  146.3127  137.3957  153.5995 H   0  0  0  0  0  0  0  0  0  0  0  0
  146.6420  137.7646  150.7109 H   0  0  0  0  0  0  0  0  0  0  0  0
  145.8749  139.1873  151.3982 H   0  0  0  0  0  0  0  0  0  0  0  0
  148.4336  137.9949  152.1308 H   0  0  0  0  0  0  0  0  0  0  0  0
  146.9380  140.0198  153.6384 H   0  0  0  0  0  0  0  0  0  0  0  0
  147.4684  138.4483  154.2076 H   0  0  0  0  0  0  0  0  0  0  0  0
  149.5230  140.3785  153.1236 H   0  0  0  0  0  0  0  0  0  0  0  0
  149.6219  138.2096  155.2630 H   0  0  0  0  0  0  0  0  0  0  0  0
  150.2138  138.0606  153.6267 H   0  0  0  0  0  0  0  0  0  0  0  0
  152.0667  138.5521  155.2181 H   0  0  0  0  0  0  0  0  0  0  0  0
  151.9088  139.8100  154.0158 H   0  0  0  0  0  0  0  0  0  0  0  0
  150.8625  139.9154  156.8872 H   0  0  0  0  0  0  0  0  0  0  0  0
  152.2041  140.8325  156.2454 H   0  0  0  0  0  0  0  0  0  0  0  0
  150.1198  142.2127  156.3706 H   0  0  0  0  0  0  0  0  0  0  0  0
  150.7021  142.0752  154.7293 H   0  0  0  0  0  0  0  0  0  0  0  0
  148.2623  141.7350  154.7890 H   0  0  0  0  0  0  0  0  0  0  0  0
  148.4225  140.4631  155.9742 H   0  0  0  0  0  0  0  0  0  0  0  0
  144.3348  136.3073  150.4452 H   0  0  0  0  0  0  0  0  0  0  0  0
  148.1344  139.5070  151.5673 H   0  0  0  0  0  0  0  0  0  0  0  0
  1  2  1  0  0  0  0
  1 17  1  0  0  0  0
  1 18  1  0  0  0  0
  1 19  1  0  0  0  0
  2 16  2  0  0  0  0
  2  3  1  0  0  0  0
  3  4  2  0  0  0  0
  3 20  1  0  0  0  0
  4  5  1  0  0  0  0
  5  6  1  0  0  0  0
  5 16  1  0  0  0  0
  6  7  1  0  0  0  0
  6 21  1  0  0  0  0
  6 22  1  0  0  0  0
  7  8  1  0  0  0  0
  7 23  1  0  0  0  0
  7 24  1  0  0  0  0
  8  9  1  0  0  0  0
  8 25  1  0  0  0  0
  8 40  1  0  0  0  0
  9 10  1  0  0  0  0
  9 26  1  0  0  0  0
  9 27  1  0  0  0  0
 10 15  1  0  0  0  0
 10 11  1  0  0  0  0
 10 28  1  0  0  0  0
 11 12  1  0  0  0  0
 11 29  1  0  0  0  0
 11 30  1  0  0  0  0
 12 13  1  0  0  0  0
 12 31  1  0  0  0  0
 12 32  1  0  0  0  0
 13 14  1  0  0  0  0
 13 33  1  0  0  0  0
 13 34  1  0  0  0  0
 14 15  1  0  0  0  0
 14 35  1  0  0  0  0
 14 36  1  0  0  0  0
 15 37  1  0  0  0  0
 15 38  1  0  0  0  0
 16 39  1  0  0  0  0
M  CHG  1   8   1
M  END
> <s_m_source_file>
AV-unprocessed.smi

> <i_m_source_file_index>
3144

> <i_lp_mmshare_version>
43012

> <i_f3d_flags>
0

> <s_epik_input>
W0NIM11jMVtjSF1ubihbY0hdMSlbQ0gyXVtDSDJdW05IXVtDSDJdW0NIXTJbQ0gyXVtDSDJdW0NIMl1bQ0gyXVtDSDJdMg==

> <s_epik_cmdline>
J2VwaWtfcHl0aG9uJywgJy1waCcsICc3LjAnLCAnLXRuJywgJzgnLCAnLW1hJywgJzIwMCcsICctbWV0YWxfYmluZGluZycsICctaW1hZScsICc8aW5maWxlLm1hZT4nLCAnLW9tYWUnLCAnPG91dGZpbGUubWFlPic=

> <r_lp_tautomer_probability>
1

> <r_epik_Ionization_Penalty>
0.0017464

> <r_epik_Ionization_Penalty_Charging>
0.00174052

> <r_epik_Ionization_Penalty_Neutral>
5.87243e-06

> <r_epik_State_Penalty>
-0

> <r_epik_Charging_Adjusted_Penalty>
0.00174052

> <i_epik_Tot_Q>
1

> <i_epik_Tot_abs_Q>
1

> <r_epik_Metal_State_Penalty>
-0

> <b_epik_Metal_Only>
0

> <s_lp_Force_Field>
OPLS_2005

> <r_lp_Energy>
13.1437

> <b_lp_Chiralities_Consistent>
1

> <s_lp_Variant>
AV-unprocessed.smi:3144-1

> <Gold.Version>
5.8.1

> <Gold.Id.Protein>
6NUR|6NUR_protein|mol2

> <Gold.PLP.Fitness>
44.5960

> <Gold.PLP.PLP>
-34.6425

> <Gold.PLP.part.hbond>
-1.6428

> <Gold.PLP.part.metal>
0.0000

> <Gold.PLP.part.buried>
0.3512

> <Gold.PLP.part.nonpolar>
-32.8974

> <Gold.PLP.part.repulsive>
0.3261

> <Gold.PLP.ligand.clash>
0.0000

> <Gold.PLP.ligand.torsion>
0.6814

> <Gold.PLP.Chemscore.Hbond>
2.7520

> <Gold.PLP.Chemscore.CHOScore>
1.0000

> <Gold.PLP.Chemscore.Metal>
0.0000

> <Gold.Chemscore.Hbonds>
donor molecule, donor type, donor heavy atom, donor atom, acceptor molecule, acceptor atom, score
      L1  H     8    25       P1  7948  2.00
      L1  H     8    40       P1  7957  0.72
      L1  C    16    39       P1 10171  1.00

> <Gold.PLP.Chemscore.Internal.Correction>
0.0602

> <Gold.Rescore>
     Score         DG    S(hbond)    S(metal)    S(lipo)     H(rot)  DE(clash)    DE(int)     intcor
     17.02     -17.91       1.85        0.00      86.37       1.50       0.10       0.79       ----

> <Gold.Chemscore.Fitness>
17.0200

> <Gold.Chemscore.DG>
-17.9112

> <Gold.Chemscore.ZeroCoef>
-5.4800

> <Gold.Chemscore.Hbond>
1.8490

> <Gold.Chemscore.Metal>
0.0000

> <Gold.Chemscore.Lipo>
86.3653

> <Gold.Chemscore.Internal_Hbond>
0.0000

> <Gold.Chemscore.DEClash>
0.1042

> <Gold.Chemscore.DEInternal>
0.7871

> <Gold.Chemscore.Rot>
1.5036

> <Gold.Chemscore.Internal.Correction>
   9.000000E+99

> <Gold.Chemscore.Hbonds>
donor molecule, donor type, donor heavy atom, donor atom, acceptor molecule, acceptor atom, score
      L1  H     8    25       P1  7948  0.99
      L1  H     8    40       P1  7957  0.70

> <Gold.Chemscore.Hbond.Weighted>
-6.1757

> <Gold.Chemscore.Metal.Weighted>
-0.0000

> <Gold.Chemscore.Lipo.Weighted>
-10.1047

> <Gold.Chemscore.Internal_Hbond.Weighted>
0.0000

> <Gold.Chemscore.DEClash.Weighted>
0.1042

> <Gold.Chemscore.DEInternal.Weighted>
0.7871

> <Gold.Chemscore.Rot.Weighted>
3.8492

> <Gold.Chemscore.Internal.Correction.Weighted>
   9.000000E+99

> <Gold.Protein.RotatedTorsions>
[ 6907 6896 6895 6894 ] final -117.02 input  -60.11 | X-H torsion
[ 7974 7965 7964 7962 ] final  -73.01 input  175.53 | X-H torsion
[ 8008 7997 7996 7995 ] final   12.46 input   59.86 | X-H torsion
[ 10167 10162 10161 10158 ] final   92.12 input  -65.29 | X-H torsion
[ 10718 10713 10712 10709 ] final -145.38 input   66.30 | X-H torsion
[ 10763 10752 10751 10750 ] final  168.36 input  -60.55 | X-H torsion
[ 11005 11000 10999 10996 ] final  -93.18 input  -57.11 | X-H torsion

> <Gold.Protein.ActiveResidues>
 VAL166  LYS551  ARG553  GLY616  TRP617  ASP618  TYR619  PRO620  LYS621  CYS622 
 ASP623  PHE694  ASN695  SER759  ASP760  ASP761  ALA762  ILE779  LEU786  VAL792 
 PHE793  MET794  SER795  GLU796  ALA797  LYS798  CYS799  TRP800  GLU811  SER814 

> <Gold.Protein.RotatedAtoms>
  150.8102  133.8435  159.3185 H   0  0  0  0  0  0  0  0  0  0  0  0  # atno 6907 bound_to 6896
  151.6223  135.1029  160.0114 H   0  0  0  0  0  0  0  0  0  0  0  0  # atno 6908 bound_to 6896
  152.4194  133.7051  159.6503 H   0  0  0  0  0  0  0  0  0  0  0  0  # atno 6909 bound_to 6896
  145.6577  140.9262  143.0950 H   0  0  0  0  0  0  0  0  0  0  0  0  # atno 7974 bound_to 7965
  154.8210  140.2884  155.5787 H   0  0  0  0  0  0  0  0  0  0  0  0  # atno 8008 bound_to 7997
  156.2997  140.2550  156.3047 H   0  0  0  0  0  0  0  0  0  0  0  0  # atno 8009 bound_to 7997
  154.9339  140.0383  157.2051 H   0  0  0  0  0  0  0  0  0  0  0  0  # atno 8010 bound_to 7997
  139.8308  144.6688  150.9402 H   0  0  0  0  0  0  0  0  0  0  0  0  # atno 10167 bound_to 10162
  156.3818  130.7841  151.2034 H   0  0  0  0  0  0  0  0  0  0  0  0  # atno 10718 bound_to 10713
  154.3674  135.2753  155.2286 H   0  0  0  0  0  0  0  0  0  0  0  0  # atno 10763 bound_to 10752
  154.4448  135.5945  153.6156 H   0  0  0  0  0  0  0  0  0  0  0  0  # atno 10764 bound_to 10752
  152.9840  135.6027  154.3901 H   0  0  0  0  0  0  0  0  0  0  0  0  # atno 10765 bound_to 10752
  141.1503  133.7870  157.0123 H   0  0  0  0  0  0  0  0  0  0  0  0  # atno 11005 bound_to 11000
  144.7100  139.8408  143.7417 LP  0  0  0  0  0  0  0  0  0  0  0  0  # atno 17320 bound_to 7965
  146.1151  139.4161  143.0263 LP  0  0  0  0  0  0  0  0  0  0  0  0  # atno 17321 bound_to 7965
  140.7807  143.4003  151.1160 LP  0  0  0  0  0  0  0  0  0  0  0  0  # atno 17342 bound_to 10162
  139.7657  143.8569  152.3110 LP  0  0  0  0  0  0  0  0  0  0  0  0  # atno 17343 bound_to 10162
  157.7493  131.0342  150.4305 LP  0  0  0  0  0  0  0  0  0  0  0  0  # atno 17370 bound_to 10713
  156.4551  130.4020  149.6611 LP  0  0  0  0  0  0  0  0  0  0  0  0  # atno 17371 bound_to 10713
  140.0869  134.9615  157.1715 LP  0  0  0  0  0  0  0  0  0  0  0  0  # atno 17394 bound_to 11000
  140.3499  134.2610  155.7200 LP  0  0  0  0  0  0  0  0  0  0  0  0  # atno 17395 bound_to 11000

$$$$
