AV-unprocessed.smi:1797|AV-procd|sdf|7256|dock8
  -GOLD-   22720 8503D 1   1.00000     0.00000
 Structure written by MMmdl.
 30 31  0  0  0  0  0  0  0  0  1 V2000
  144.2543  143.9309  161.1996 C   0  0  0  0  0  0  0  0  0  0  0  0
  145.5025  143.5734  160.4676 C   0  0  0  0  0  0  0  0  0  0  0  0
  146.5925  143.1057  161.0865 N   0  0  0  0  0  0  0  0  0  0  0  0
  147.6288  142.8459  160.2013 N   0  0  0  0  0  0  0  0  0  0  0  0
  147.2908  143.1234  158.9337 C   0  0  0  0  0  0  0  0  0  0  0  0
  148.1527  142.9637  157.8095 N   0  0  0  0  0  0  0  0  0  0  0  0
  148.8527  141.9020  157.3553 C   0  0  0  0  0  0  0  0  0  0  0  0
  148.8194  140.8240  157.9461 O   0  0  0  0  0  0  0  0  0  0  0  0
  149.5810  142.0960  156.2435 N   0  0  0  0  0  0  0  0  0  0  0  0
  150.4132  141.0924  155.5884 C   0  0  1  0  0  0  0  0  0  0  0  0
  151.2647  140.3628  156.6346 C   0  0  0  0  0  0  0  0  0  0  0  0
  152.1717  139.3127  155.9736 C   0  0  0  0  0  0  0  0  0  0  0  0
  151.4421  138.4380  154.9431 C   0  0  0  0  0  0  0  0  0  0  0  0
  151.9443  137.3731  154.5910 O   0  0  0  0  0  0  0  0  0  0  0  0
  150.2828  138.8749  154.4205 N   0  0  0  0  0  0  0  0  0  0  0  0
  149.5471  140.0746  154.8190 C   0  0  0  0  0  0  0  0  0  0  0  0
  145.6605  143.7416  158.7236 S   0  0  0  0  0  0  0  0  0  0  0  0
  144.0106  143.1586  161.9296 H   0  0  0  0  0  0  0  0  0  0  0  0
  143.4207  144.0272  160.5037 H   0  0  0  0  0  0  0  0  0  0  0  0
  144.3867  144.8791  161.7208 H   0  0  0  0  0  0  0  0  0  0  0  0
  148.2604  143.7983  157.2516 H   0  0  0  0  0  0  0  0  0  0  0  0
  149.5542  143.0122  155.8186 H   0  0  0  0  0  0  0  0  0  0  0  0
  151.0875  141.5911  154.8890 H   0  0  0  0  0  0  0  0  0  0  0  0
  151.8771  141.0778  157.1854 H   0  0  0  0  0  0  0  0  0  0  0  0
  150.6195  139.8788  157.3697 H   0  0  0  0  0  0  0  0  0  0  0  0
  152.9915  139.8138  155.4579 H   0  0  0  0  0  0  0  0  0  0  0  0
  152.6248  138.6775  156.7353 H   0  0  0  0  0  0  0  0  0  0  0  0
  149.8442  138.2932  153.7212 H   0  0  0  0  0  0  0  0  0  0  0  0
  148.7113  139.7506  155.4406 H   0  0  0  0  0  0  0  0  0  0  0  0
  149.1154  140.5361  153.9304 H   0  0  0  0  0  0  0  0  0  0  0  0
  1  2  1  0  0  0  0
  1 18  1  0  0  0  0
  1 19  1  0  0  0  0
  1 20  1  0  0  0  0
  2 17  1  0  0  0  0
  2  3  2  0  0  0  0
  3  4  1  0  0  0  0
  4  5  2  0  0  0  0
  5  6  1  0  0  0  0
  5 17  1  0  0  0  0
  6  7  1  0  0  0  0
  6 21  1  0  0  0  0
  7  8  2  0  0  0  0
  7  9  1  0  0  0  0
  9 10  1  0  0  0  0
  9 22  1  0  0  0  0
 10 16  1  0  0  0  0
 10 11  1  0  0  0  0
 10 23  1  0  0  0  0
 11 12  1  0  0  0  0
 11 24  1  0  0  0  0
 11 25  1  0  0  0  0
 12 13  1  0  0  0  0
 12 26  1  0  0  0  0
 12 27  1  0  0  0  0
 13 14  2  0  0  0  0
 13 15  1  0  0  0  0
 15 16  1  0  0  0  0
 15 28  1  0  0  0  0
 16 29  1  0  0  0  0
 16 30  1  0  0  0  0
M  END
> <s_m_source_file>
AV-unprocessed.smi

> <i_m_source_file_index>
1797

> <i_lp_mmshare_version>
43012

> <i_f3d_flags>
0

> <s_epik_input>
W0NIM11jMW5uYyhzMSlbTkhdQyg9TylbTkhdW0NAQEhdMltDSDJdW0NIMl1DKD1PKVtOSF1bQ0gyXTI=

> <s_epik_cmdline>
J2VwaWtfcHl0aG9uJywgJy1waCcsICc3LjAnLCAnLXRuJywgJzgnLCAnLW1hJywgJzIwMCcsICctbWV0YWxfYmluZGluZycsICctaW1hZScsICc8aW5maWxlLm1hZT4nLCAnLW9tYWUnLCAnPG91dGZpbGUubWFlPic=

> <r_lp_tautomer_probability>
1

> <r_epik_Ionization_Penalty>
0.00282347

> <r_epik_Ionization_Penalty_Charging>
0

> <r_epik_Ionization_Penalty_Neutral>
0.00282347

> <r_epik_State_Penalty>
-0

> <r_epik_Charging_Adjusted_Penalty>
0

> <i_epik_Tot_Q>
0

> <i_epik_Tot_abs_Q>
0

> <r_epik_Metal_State_Penalty>
0.357935

> <b_epik_Metal_Only>
0

> <s_lp_Force_Field>
OPLS_2005

> <r_lp_Energy>
10.7191

> <b_lp_Chiralities_Consistent>
1

> <s_lp_Variant>
AV-unprocessed.smi:1797-2

> <Gold.Version>
5.8.1

> <Gold.Id.Protein>
6NUR|6NUR_protein|mol2

> <Gold.PLP.Fitness>
32.1232

> <Gold.PLP.PLP>
-25.3690

> <Gold.PLP.part.hbond>
-7.7367

> <Gold.PLP.part.metal>
0.0000

> <Gold.PLP.part.buried>
-2.7805

> <Gold.PLP.part.nonpolar>
-16.1816

> <Gold.PLP.part.repulsive>
0.4316

> <Gold.PLP.ligand.clash>
0.0000

> <Gold.PLP.ligand.torsion>
0.6681

> <Gold.PLP.Chemscore.Hbond>
2.6964

> <Gold.PLP.Chemscore.CHOScore>
0.0000

> <Gold.PLP.Chemscore.Metal>
0.0000

> <Gold.Chemscore.Hbonds>
donor molecule, donor type, donor heavy atom, donor atom, acceptor molecule, acceptor atom, score
      L1  H     6    21       P1  8028  0.20
      L1  H     9    22       P1  8028  1.00
      P1  H  6933  6944       L1     4  0.39
      P1  H 10752 10765       L1    14  0.93

> <Gold.PLP.Chemscore.Internal.Correction>
0.0012

> <Gold.Rescore>
     Score         DG    S(hbond)    S(metal)    S(lipo)     H(rot)  DE(clash)    DE(int)     intcor
     12.55     -14.22       2.17        0.00      34.67       1.00       0.01       1.67       ----

> <Gold.Chemscore.Fitness>
12.5461

> <Gold.Chemscore.DG>
-14.2245

> <Gold.Chemscore.ZeroCoef>
-5.4800

> <Gold.Chemscore.Hbond>
2.1699

> <Gold.Chemscore.Metal>
0.0000

> <Gold.Chemscore.Lipo>
34.6749

> <Gold.Chemscore.Internal_Hbond>
0.0000

> <Gold.Chemscore.DEClash>
0.0064

> <Gold.Chemscore.DEInternal>
1.6720

> <Gold.Chemscore.Rot>
1.0000

> <Gold.Chemscore.Internal.Correction>
   9.000000E+99

> <Gold.Chemscore.Hbonds>
donor molecule, donor type, donor heavy atom, donor atom, acceptor molecule, acceptor atom, score
      L1  H     9    22       P1  8028  0.97
      P1  H  6933  6944       L1     4  0.01
      P1  H 10752 10765       L1    14  0.87

> <Gold.Chemscore.Hbond.Weighted>
-7.2475

> <Gold.Chemscore.Metal.Weighted>
-0.0000

> <Gold.Chemscore.Lipo.Weighted>
-4.0570

> <Gold.Chemscore.Internal_Hbond.Weighted>
0.0000

> <Gold.Chemscore.DEClash.Weighted>
0.0064

> <Gold.Chemscore.DEInternal.Weighted>
1.6720

> <Gold.Chemscore.Rot.Weighted>
2.5600

> <Gold.Chemscore.Internal.Correction.Weighted>
   9.000000E+99

> <Gold.Protein.RotatedTorsions>
[ 6907 6896 6895 6894 ] final  -95.54 input  -60.11 | X-H torsion
[ 7974 7965 7964 7962 ] final  117.25 input  175.53 | X-H torsion
[ 8008 7997 7996 7995 ] final  147.10 input   59.86 | X-H torsion
[ 10167 10162 10161 10158 ] final   10.77 input  -65.29 | X-H torsion
[ 10718 10713 10712 10709 ] final   59.45 input   66.30 | X-H torsion
[ 10763 10752 10751 10750 ] final  163.91 input  -60.55 | X-H torsion
[ 11005 11000 10999 10996 ] final -155.09 input  -57.11 | X-H torsion

> <Gold.Protein.ActiveResidues>
 VAL166  LYS551  ARG553  GLY616  TRP617  ASP618  TYR619  PRO620  LYS621  CYS622 
 ASP623  PHE694  ASN695  SER759  ASP760  ASP761  ALA762  ILE779  LEU786  VAL792 
 PHE793  MET794  SER795  GLU796  ALA797  LYS798  CYS799  TRP800  GLU811  SER814 

> <Gold.Protein.RotatedAtoms>
  150.6966  134.1642  159.4187 H   0  0  0  0  0  0  0  0  0  0  0  0  # atno 6907 bound_to 6896
  151.9622  135.0116  160.0557 H   0  0  0  0  0  0  0  0  0  0  0  0  # atno 6908 bound_to 6896
  152.1917  133.4742  159.5048 H   0  0  0  0  0  0  0  0  0  0  0  0  # atno 6909 bound_to 6896
  145.1697  139.3108  143.4474 H   0  0  0  0  0  0  0  0  0  0  0  0  # atno 7974 bound_to 7965
  156.2835  140.2164  156.5483 H   0  0  0  0  0  0  0  0  0  0  0  0  # atno 8008 bound_to 7997
  154.7312  140.0495  157.0751 H   0  0  0  0  0  0  0  0  0  0  0  0  # atno 8009 bound_to 7997
  155.0351  140.3139  155.4747 H   0  0  0  0  0  0  0  0  0  0  0  0  # atno 8010 bound_to 7997
  140.6173  143.8280  150.7134 H   0  0  0  0  0  0  0  0  0  0  0  0  # atno 10167 bound_to 10162
  157.5677  130.8883  149.9214 H   0  0  0  0  0  0  0  0  0  0  0  0  # atno 10718 bound_to 10713
  154.3009  135.2759  155.2611 H   0  0  0  0  0  0  0  0  0  0  0  0  # atno 10763 bound_to 10752
  154.5048  135.5798  153.6562 H   0  0  0  0  0  0  0  0  0  0  0  0  # atno 10764 bound_to 10752
  152.9900  135.6167  154.3180 H   0  0  0  0  0  0  0  0  0  0  0  0  # atno 10765 bound_to 10752
  140.6903  134.4049  157.5220 H   0  0  0  0  0  0  0  0  0  0  0  0  # atno 11005 bound_to 11000
  146.3470  140.1838  142.8589 LP  0  0  0  0  0  0  0  0  0  0  0  0  # atno 17320 bound_to 7965
  145.0245  140.8821  143.5146 LP  0  0  0  0  0  0  0  0  0  0  0  0  # atno 17321 bound_to 7965
  140.1862  143.4074  152.1897 LP  0  0  0  0  0  0  0  0  0  0  0  0  # atno 17342 bound_to 10162
  139.5409  144.7255  151.4736 LP  0  0  0  0  0  0  0  0  0  0  0  0  # atno 17343 bound_to 10162
  156.0724  130.3683  150.0748 LP  0  0  0  0  0  0  0  0  0  0  0  0  # atno 17370 bound_to 10713
  156.8905  130.9587  151.3589 LP  0  0  0  0  0  0  0  0  0  0  0  0  # atno 17371 bound_to 10713
  139.8925  134.8752  156.2266 LP  0  0  0  0  0  0  0  0  0  0  0  0  # atno 17394 bound_to 11000
  141.0247  133.7022  156.1327 LP  0  0  0  0  0  0  0  0  0  0  0  0  # atno 17395 bound_to 11000

$$$$
