AV-unprocessed.smi:705|AV-procd|sdf|3450|dock1
  -GOLD-   22720 0433D 1   1.00000     0.00000
 Structure written by MMmdl.
 28 29  0  0  0  0  0  0  0  0  3 V2000
  149.9953  138.1353  153.6372 N   0  0  0  0  0  0  0  0  0  0  0  0
  150.9786  137.7960  154.4744 C   0  0  0  0  0  0  0  0  0  0  0  0
  151.4966  136.6805  154.4831 O   0  0  0  0  0  0  0  0  0  0  0  0
  151.4184  138.8735  155.4198 C   0  0  0  0  0  0  0  0  0  0  0  0
  150.7332  140.1036  155.5873 C   0  0  0  0  0  0  0  0  0  0  0  0
  151.5921  140.6904  156.5878 C   0  0  0  0  0  0  0  0  0  0  0  0
  151.2306  142.0676  157.1097 C   0  0  2  0  0  0  0  0  0  0  0  0
  152.2558  142.5714  158.1422 C   0  0  0  0  0  0  0  0  0  0  0  0
  151.8394  143.9469  158.6854 C   0  0  0  0  0  0  0  0  0  0  0  0
  150.4053  143.9074  159.2396 C   0  0  0  0  0  0  0  0  0  0  0  0
  149.4592  143.4240  158.2104 N   0  3  0  0  0  0  0  0  0  0  0  0
  149.8051  142.0820  157.6943 C   0  0  0  0  0  0  0  0  0  0  0  0
  152.6216  139.8924  156.9278 N   0  0  0  0  0  0  0  0  0  0  0  0
  152.5035  138.7878  156.2120 N   0  5  0  0  0  0  0  0  0  0  0  0
  149.6410  137.4690  152.9682 H   0  0  0  0  0  0  0  0  0  0  0  0
  149.6170  139.0709  153.6889 H   0  0  0  0  0  0  0  0  0  0  0  0
  149.8373  140.4816  155.1104 H   0  0  0  0  0  0  0  0  0  0  0  0
  151.2482  142.7572  156.2638 H   0  0  0  0  0  0  0  0  0  0  0  0
  152.3293  141.8623  158.9681 H   0  0  0  0  0  0  0  0  0  0  0  0
  153.2480  142.6307  157.6933 H   0  0  0  0  0  0  0  0  0  0  0  0
  152.5326  144.2656  159.4645 H   0  0  0  0  0  0  0  0  0  0  0  0
  151.9055  144.6898  157.8893 H   0  0  0  0  0  0  0  0  0  0  0  0
  150.3528  143.2532  160.1111 H   0  0  0  0  0  0  0  0  0  0  0  0
  150.0987  144.9009  159.5672 H   0  0  0  0  0  0  0  0  0  0  0  0
  148.5303  143.3919  158.6057 H   0  0  0  0  0  0  0  0  0  0  0  0
  149.0788  141.7984  156.9320 H   0  0  0  0  0  0  0  0  0  0  0  0
  149.7162  141.3564  158.5044 H   0  0  0  0  0  0  0  0  0  0  0  0
  149.4636  144.0741  157.4376 H   0  0  0  0  0  0  0  0  0  0  0  0
  1  2  1  0  0  0  0
  1 15  1  0  0  0  0
  1 16  1  0  0  0  0
  2  3  2  0  0  0  0
  2  4  1  0  0  0  0
  4 14  1  0  0  0  0
  4  5  2  0  0  0  0
  5  6  1  0  0  0  0
  5 17  1  0  0  0  0
  6  7  1  0  0  0  0
  6 13  2  0  0  0  0
  7 12  1  0  0  0  0
  7  8  1  0  0  0  0
  7 18  1  0  0  0  0
  8  9  1  0  0  0  0
  8 19  1  0  0  0  0
  8 20  1  0  0  0  0
  9 10  1  0  0  0  0
  9 21  1  0  0  0  0
  9 22  1  0  0  0  0
 10 11  1  0  0  0  0
 10 23  1  0  0  0  0
 10 24  1  0  0  0  0
 11 12  1  0  0  0  0
 11 25  1  0  0  0  0
 11 28  1  0  0  0  0
 12 26  1  0  0  0  0
 12 27  1  0  0  0  0
 13 14  1  0  0  0  0
M  CHG  1  11   1
M  CHG  1  14  -1
M  END
> <s_m_source_file>
AV-unprocessed.smi

> <i_m_source_file_index>
705

> <i_lp_mmshare_version>
43012

> <i_f3d_flags>
0

> <s_epik_input>
W05IMl1DKD1PKWMxW2NIXWMoW25IXW4xKVtDQEBIXTJbQ0gyXVtDSDJdW0NIMl1bTkhdW0NIMl0y

> <s_epik_cmdline>
J2VwaWtfcHl0aG9uJywgJy1waCcsICc3LjAnLCAnLXRuJywgJzgnLCAnLW1hJywgJzIwMCcsICctbWV0YWxfYmluZGluZycsICctaW1hZScsICc8aW5maWxlLm1hZT4nLCAnLW9tYWUnLCAnPG91dGZpbGUubWFlPic=

> <r_lp_tautomer_probability>
0.5

> <r_epik_Ionization_Penalty>
8.1602

> <r_epik_Ionization_Penalty_Charging>
5.25561

> <r_epik_Ionization_Penalty_Neutral>
2.90459

> <r_epik_State_Penalty>
5.66605

> <r_epik_Charging_Adjusted_Penalty>
10.9217

> <i_epik_Tot_Q>
0

> <i_epik_Tot_abs_Q>
2

> <r_epik_Metal_State_Penalty>
1.68656

> <b_epik_Metal_Only>
1

> <s_lp_Force_Field>
OPLS_2005

> <r_lp_Energy>
5.1844

> <b_lp_Chiralities_Consistent>
1

> <s_lp_Variant>
AV-unprocessed.smi:705-5

> <Gold.Version>
5.8.1

> <Gold.Id.Protein>
6NUR|6NUR_protein|mol2

> <Gold.PLP.Fitness>
42.0176

> <Gold.PLP.PLP>
-27.5482

> <Gold.PLP.part.hbond>
-6.7176

> <Gold.PLP.part.metal>
0.0000

> <Gold.PLP.part.buried>
-4.3945

> <Gold.PLP.part.nonpolar>
-17.5803

> <Gold.PLP.part.repulsive>
0.9246

> <Gold.PLP.ligand.clash>
0.0000

> <Gold.PLP.ligand.torsion>
0.0509

> <Gold.PLP.Chemscore.Hbond>
4.8500

> <Gold.PLP.Chemscore.CHOScore>
0.0000

> <Gold.PLP.Chemscore.Metal>
0.0000

> <Gold.Chemscore.Hbonds>
donor molecule, donor type, donor heavy atom, donor atom, acceptor molecule, acceptor atom, score
      L1  H     1    15       P1  7948  1.00
      L1  H    11    28       P1  8028  1.90
      P1  H  7997  8009       L1    13  0.89
      P1  H 10752 10763       L1     3  1.00

> <Gold.PLP.Chemscore.Internal.Correction>
0.0213

> <Gold.Rescore>
     Score         DG    S(hbond)    S(metal)    S(lipo)     H(rot)  DE(clash)    DE(int)     intcor
     19.66     -20.71       3.09        0.00      63.72       1.00       0.90       0.15       ----

> <Gold.Chemscore.Fitness>
19.6554

> <Gold.Chemscore.DG>
-20.7055

> <Gold.Chemscore.ZeroCoef>
-5.4800

> <Gold.Chemscore.Hbond>
3.0928

> <Gold.Chemscore.Metal>
0.0000

> <Gold.Chemscore.Lipo>
63.7231

> <Gold.Chemscore.Internal_Hbond>
0.0000

> <Gold.Chemscore.DEClash>
0.9032

> <Gold.Chemscore.DEInternal>
0.1470

> <Gold.Chemscore.Rot>
1.0000

> <Gold.Chemscore.Internal.Correction>
   9.000000E+99

> <Gold.Chemscore.Hbonds>
donor molecule, donor type, donor heavy atom, donor atom, acceptor molecule, acceptor atom, score
      L1  H     1    15       P1  7948  0.65
      L1  H    11    28       P1  8028  0.21
      P1  H  7997  8009       L1    13  0.17
      P1  H 10752 10763       L1     3  0.95

> <Gold.Chemscore.Hbond.Weighted>
-10.3299

> <Gold.Chemscore.Metal.Weighted>
-0.0000

> <Gold.Chemscore.Lipo.Weighted>
-7.4556

> <Gold.Chemscore.Internal_Hbond.Weighted>
0.0000

> <Gold.Chemscore.DEClash.Weighted>
0.9032

> <Gold.Chemscore.DEInternal.Weighted>
0.1470

> <Gold.Chemscore.Rot.Weighted>
2.5600

> <Gold.Chemscore.Internal.Correction.Weighted>
   9.000000E+99

> <Gold.Protein.RotatedTorsions>
[ 6907 6896 6895 6894 ] final   16.64 input  -60.11 | X-H torsion
[ 7974 7965 7964 7962 ] final  127.87 input  175.53 | X-H torsion
[ 8008 7997 7996 7995 ] final  167.28 input   59.86 | X-H torsion
[ 10167 10162 10161 10158 ] final  -83.76 input  -65.29 | X-H torsion
[ 10718 10713 10712 10709 ] final -130.95 input   66.30 | X-H torsion
[ 10763 10752 10751 10750 ] final   27.56 input  -60.55 | X-H torsion
[ 11005 11000 10999 10996 ] final  -51.42 input  -57.11 | X-H torsion

> <Gold.Protein.ActiveResidues>
 VAL166  LYS551  ARG553  GLY616  TRP617  ASP618  TYR619  PRO620  LYS621  CYS622 
 ASP623  PHE694  ASN695  SER759  ASP760  ASP761  ALA762  ILE779  LEU786  VAL792 
 PHE793  MET794  SER795  GLU796  ALA797  LYS798  CYS799  TRP800  GLU811  SER814 

> <Gold.Protein.RotatedAtoms>
  151.8371  135.0602  160.0443 H   0  0  0  0  0  0  0  0  0  0  0  0  # atno 6907 bound_to 6896
  152.2837  133.5490  159.5522 H   0  0  0  0  0  0  0  0  0  0  0  0  # atno 6908 bound_to 6896
  150.7200  134.0444  159.3819 H   0  0  0  0  0  0  0  0  0  0  0  0  # atno 6909 bound_to 6896
  145.0458  139.3924  143.5079 H   0  0  0  0  0  0  0  0  0  0  0  0  # atno 7974 bound_to 7965
  156.1647  140.1621  156.8552 H   0  0  0  0  0  0  0  0  0  0  0  0  # atno 8008 bound_to 7997
  154.5195  140.0781  156.8181 H   0  0  0  0  0  0  0  0  0  0  0  0  # atno 8009 bound_to 7997
  155.3636  140.3396  155.4243 H   0  0  0  0  0  0  0  0  0  0  0  0  # atno 8010 bound_to 7997
  140.4196  143.2590  151.8908 H   0  0  0  0  0  0  0  0  0  0  0  0  # atno 10167 bound_to 10162
  156.2196  130.6970  151.0741 H   0  0  0  0  0  0  0  0  0  0  0  0  # atno 10718 bound_to 10713
  153.0548  135.6534  154.0604 H   0  0  0  0  0  0  0  0  0  0  0  0  # atno 10763 bound_to 10752
  154.0285  135.2913  155.3373 H   0  0  0  0  0  0  0  0  0  0  0  0  # atno 10764 bound_to 10752
  154.6857  135.5302  153.8390 H   0  0  0  0  0  0  0  0  0  0  0  0  # atno 10765 bound_to 10752
  141.0870  133.6640  156.3875 H   0  0  0  0  0  0  0  0  0  0  0  0  # atno 11005 bound_to 11000
  146.3513  140.0083  142.8669 LP  0  0  0  0  0  0  0  0  0  0  0  0  # atno 17320 bound_to 7965
  145.1589  140.9662  143.4389 LP  0  0  0  0  0  0  0  0  0  0  0  0  # atno 17321 bound_to 7965
  139.4782  144.5451  151.8469 LP  0  0  0  0  0  0  0  0  0  0  0  0  # atno 17342 bound_to 10162
  140.4548  144.1804  150.5900 LP  0  0  0  0  0  0  0  0  0  0  0  0  # atno 17343 bound_to 10162
  157.7080  131.0747  150.6599 LP  0  0  0  0  0  0  0  0  0  0  0  0  # atno 17370 bound_to 10713
  156.6661  130.4526  149.5672 LP  0  0  0  0  0  0  0  0  0  0  0  0  # atno 17371 bound_to 10713
  140.5340  134.6185  157.5359 LP  0  0  0  0  0  0  0  0  0  0  0  0  # atno 17394 bound_to 11000
  139.9690  134.7325  156.0080 LP  0  0  0  0  0  0  0  0  0  0  0  0  # atno 17395 bound_to 11000

$$$$
