AV-unprocessed.smi:261|AV-procd|sdf|1997|dock10
  -GOLD-   2262021193D 1   1.00000     0.00000
 Structure written by MMmdl.
 51 54  0  0  0  0  0  0  0  0  1 V2000
  147.3157  135.0425  160.2722 C   0  0  0  0  0  0  0  0  0  0  0  0
  147.0670  134.7892  158.8989 O   0  0  0  0  0  0  0  0  0  0  0  0
  148.2227  134.9060  158.0816 C   0  0  1  0  0  0  0  0  0  0  0  0
  148.0087  134.4122  156.6477 C   0  0  0  0  0  0  0  0  0  0  0  0
  149.0555  135.1764  155.8188 C   0  0  2  0  0  0  0  0  0  0  0  0
  150.3821  134.4000  155.7291 C   0  0  0  0  0  0  0  0  0  0  0  0
  150.3327  133.1922  155.1623 N   0  0  0  0  0  0  0  0  0  0  0  0
  151.4296  134.8709  156.1700 O   0  0  0  0  0  0  0  0  0  0  0  0
  149.2026  136.4362  156.5481 N   0  0  0  0  0  0  0  0  0  0  0  0
  149.7084  137.5910  156.0319 C   0  0  0  0  0  0  0  0  0  0  0  0
  149.8858  137.6568  154.6854 N   0  0  0  0  0  0  0  0  0  0  0  0
  150.3749  138.7581  154.1109 C   0  0  0  0  0  0  0  0  0  0  0  0
  150.7485  139.9007  154.6859 N   0  0  0  0  0  0  0  0  0  0  0  0
  150.5775  139.8507  156.0373 C   0  0  0  0  0  0  0  0  0  0  0  0
  150.0723  138.7480  156.7880 C   0  0  0  0  0  0  0  0  0  0  0  0
  150.0585  139.0829  158.1385 N   0  0  0  0  0  0  0  0  0  0  0  0
  150.5204  140.3013  158.1820 C   0  0  0  0  0  0  0  0  0  0  0  0
  150.8396  140.8478  156.9613 N   0  0  0  0  0  0  0  0  0  0  0  0
  151.3772  142.1761  156.7181 C   0  0  0  0  0  0  0  0  0  0  0  0
  150.9040  143.2366  157.7391 C   0  0  1  0  0  0  0  0  0  0  0  0
  149.4917  143.1829  157.7220 O   0  0  0  0  0  0  0  0  0  0  0  0
  151.3508  142.9983  159.2003 C   0  0  1  0  0  0  0  0  0  0  0  0
  152.8457  142.7550  159.4201 C   0  0  0  0  0  0  0  0  0  0  0  0
  153.0719  143.1728  160.8630 C   0  0  0  0  0  0  0  0  0  0  0  0
  151.8634  144.0542  161.1816 C   0  0  0  0  0  0  0  0  0  0  0  0
  151.1710  144.1925  159.9486 O   0  0  0  0  0  0  0  0  0  0  0  0
  148.5920  136.3749  157.8725 C   0  0  0  0  0  0  0  0  0  0  0  0
  149.0705  134.3875  158.5337 H   0  0  0  0  0  0  0  0  0  0  0  0
  148.6539  135.3481  154.8199 H   0  0  0  0  0  0  0  0  0  0  0  0
  146.3810  134.9768  160.8288 H   0  0  0  0  0  0  0  0  0  0  0  0
  147.7254  136.0422  160.4225 H   0  0  0  0  0  0  0  0  0  0  0  0
  148.0065  134.3131  160.6961 H   0  0  0  0  0  0  0  0  0  0  0  0
  148.0915  133.3278  156.5600 H   0  0  0  0  0  0  0  0  0  0  0  0
  147.0089  134.6896  156.3100 H   0  0  0  0  0  0  0  0  0  0  0  0
  151.1719  132.6362  155.0860 H   0  0  0  0  0  0  0  0  0  0  0  0
  149.4523  132.8356  154.8199 H   0  0  0  0  0  0  0  0  0  0  0  0
  150.4800  138.7182  153.0368 H   0  0  0  0  0  0  0  0  0  0  0  0
  150.6350  140.8394  159.1118 H   0  0  0  0  0  0  0  0  0  0  0  0
  152.4641  142.0864  156.7522 H   0  0  0  0  0  0  0  0  0  0  0  0
  151.1262  142.4885  155.7037 H   0  0  0  0  0  0  0  0  0  0  0  0
  151.2083  144.2313  157.4115 H   0  0  0  0  0  0  0  0  0  0  0  0
  149.1803  143.6974  156.9931 H   0  0  0  0  0  0  0  0  0  0  0  0
  150.7773  142.1886  159.6564 H   0  0  0  0  0  0  0  0  0  0  0  0
  153.1377  141.7208  159.2409 H   0  0  0  0  0  0  0  0  0  0  0  0
  153.4340  143.3961  158.7623 H   0  0  0  0  0  0  0  0  0  0  0  0
  153.0954  142.3066  161.5252 H   0  0  0  0  0  0  0  0  0  0  0  0
  154.0139  143.7099  160.9764 H   0  0  0  0  0  0  0  0  0  0  0  0
  151.2130  143.5676  161.9094 H   0  0  0  0  0  0  0  0  0  0  0  0
  152.1492  145.0290  161.5770 H   0  0  0  0  0  0  0  0  0  0  0  0
  147.6997  137.0028  157.8781 H   0  0  0  0  0  0  0  0  0  0  0  0
  149.2647  136.7265  158.6557 H   0  0  0  0  0  0  0  0  0  0  0  0
  1  2  1  0  0  0  0
  1 30  1  0  0  0  0
  1 31  1  0  0  0  0
  1 32  1  0  0  0  0
  2  3  1  0  0  0  0
  3 28  1  0  0  0  0
  3 27  1  0  0  0  0
  3  4  1  0  0  0  0
  4  5  1  0  0  0  0
  4 33  1  0  0  0  0
  4 34  1  0  0  0  0
  5 29  1  0  0  0  0
  5  6  1  0  0  0  0
  5  9  1  0  0  0  0
  6  7  1  0  0  0  0
  6  8  2  0  0  0  0
  7 35  1  0  0  0  0
  7 36  1  0  0  0  0
  9 10  1  0  0  0  0
  9 27  1  0  0  0  0
 10 15  1  0  0  0  0
 10 11  2  0  0  0  0
 11 12  1  0  0  0  0
 12 13  2  0  0  0  0
 12 37  1  0  0  0  0
 13 14  1  0  0  0  0
 14 18  1  0  0  0  0
 14 15  2  0  0  0  0
 15 16  1  0  0  0  0
 16 17  2  0  0  0  0
 17 18  1  0  0  0  0
 17 38  1  0  0  0  0
 18 19  1  0  0  0  0
 19 20  1  0  0  0  0
 19 39  1  0  0  0  0
 19 40  1  0  0  0  0
 20 21  1  0  0  0  0
 20 22  1  0  0  0  0
 20 41  1  0  0  0  0
 21 42  1  0  0  0  0
 22 26  1  0  0  0  0
 22 23  1  0  0  0  0
 22 43  1  0  0  0  0
 23 24  1  0  0  0  0
 23 44  1  0  0  0  0
 23 45  1  0  0  0  0
 24 25  1  0  0  0  0
 24 46  1  0  0  0  0
 24 47  1  0  0  0  0
 25 26  1  0  0  0  0
 25 48  1  0  0  0  0
 25 49  1  0  0  0  0
 27 50  1  0  0  0  0
 27 51  1  0  0  0  0
M  END
> <s_m_source_file>
AV-unprocessed.smi

> <i_m_source_file_index>
261

> <i_lp_mmshare_version>
43012

> <i_f3d_flags>
0

> <s_epik_input>
W0NIM11PW0NASF0xW0NIMl1bQ0BASF0oQyg9TylbTkgyXSlOKFtDSDJdMSljKG5bY0hdbjIpYyhjMjMpbltjSF1uM1tDSDJdW0NASF0oW09IXSlbQ0BASF00W0NIMl1bQ0gyXVtDSDJdTzQ=

> <s_epik_cmdline>
J2VwaWtfcHl0aG9uJywgJy1waCcsICc3LjAnLCAnLXRuJywgJzgnLCAnLW1hJywgJzIwMCcsICctbWV0YWxfYmluZGluZycsICctaW1hZScsICc8aW5maWxlLm1hZT4nLCAnLW9tYWUnLCAnPG91dGZpbGUubWFlPic=

> <r_lp_tautomer_probability>
1

> <r_epik_Ionization_Penalty>
0.000713824

> <r_epik_Ionization_Penalty_Charging>
0

> <r_epik_Ionization_Penalty_Neutral>
0.000713824

> <r_epik_State_Penalty>
0.000402132

> <r_epik_Charging_Adjusted_Penalty>
0.000402132

> <i_epik_Tot_Q>
0

> <i_epik_Tot_abs_Q>
0

> <r_epik_Metal_State_Penalty>
-0

> <b_epik_Metal_Only>
0

> <s_lp_Force_Field>
OPLS_2005

> <r_lp_Energy>
45.931

> <b_lp_Chiralities_Consistent>
1

> <s_lp_Variant>
AV-unprocessed.smi:261-15

> <Gold.Version>
5.8.1

> <Gold.Id.Protein>
6NUR|6NUR_protein|mol2

> <Gold.PLP.Fitness>
44.0695

> <Gold.PLP.PLP>
-33.6486

> <Gold.PLP.part.hbond>
-3.3476

> <Gold.PLP.part.metal>
0.0000

> <Gold.PLP.part.buried>
-5.6167

> <Gold.PLP.part.nonpolar>
-23.7920

> <Gold.PLP.part.repulsive>
0.4092

> <Gold.PLP.ligand.clash>
0.0000

> <Gold.PLP.ligand.torsion>
0.7775

> <Gold.PLP.Chemscore.Hbond>
2.9357

> <Gold.PLP.Chemscore.CHOScore>
1.0000

> <Gold.PLP.Chemscore.Metal>
0.0000

> <Gold.Chemscore.Hbonds>
donor molecule, donor type, donor heavy atom, donor atom, acceptor molecule, acceptor atom, score
      L1  H    21    42       P1  8028  1.00
      P1  H  7989  7998       L1    13  1.00
      P1  H 10752 10763       L1     8  0.75
      L1  C    12    37       P1  7957  1.00

> <Gold.PLP.Chemscore.Internal.Correction>
0.1687

> <Gold.Rescore>
     Score         DG    S(hbond)    S(metal)    S(lipo)     H(rot)  DE(clash)    DE(int)     intcor
     13.22     -15.45       2.68        0.00      78.41       3.18       0.28       1.95       ----

> <Gold.Chemscore.Fitness>
13.2200

> <Gold.Chemscore.DG>
-15.4547

> <Gold.Chemscore.ZeroCoef>
-5.4800

> <Gold.Chemscore.Hbond>
2.6794

> <Gold.Chemscore.Metal>
0.0000

> <Gold.Chemscore.Lipo>
78.4110

> <Gold.Chemscore.Internal_Hbond>
0.0000

> <Gold.Chemscore.DEClash>
0.2820

> <Gold.Chemscore.DEInternal>
1.9527

> <Gold.Chemscore.Rot>
3.1831

> <Gold.Chemscore.Internal.Correction>
   9.000000E+99

> <Gold.Chemscore.Hbonds>
donor molecule, donor type, donor heavy atom, donor atom, acceptor molecule, acceptor atom, score
      L1  H    21    42       P1  8028  0.65
      P1  H  7989  7998       L1    13  0.65
      P1  H 10752 10763       L1     8  0.71

> <Gold.Chemscore.Hbond.Weighted>
-8.9492

> <Gold.Chemscore.Metal.Weighted>
-0.0000

> <Gold.Chemscore.Lipo.Weighted>
-9.1741

> <Gold.Chemscore.Internal_Hbond.Weighted>
0.0000

> <Gold.Chemscore.DEClash.Weighted>
0.2820

> <Gold.Chemscore.DEInternal.Weighted>
1.9527

> <Gold.Chemscore.Rot.Weighted>
8.1486

> <Gold.Chemscore.Internal.Correction.Weighted>
   9.000000E+99

> <Gold.Protein.RotatedTorsions>
[ 6907 6896 6895 6894 ] final  158.40 input  -60.11 | X-H torsion
[ 7974 7965 7964 7962 ] final  -50.48 input  175.53 | X-H torsion
[ 8008 7997 7996 7995 ] final -173.05 input   59.86 | X-H torsion
[ 10167 10162 10161 10158 ] final  154.09 input  -65.29 | X-H torsion
[ 10718 10713 10712 10709 ] final -169.34 input   66.30 | X-H torsion
[ 10763 10752 10751 10750 ] final   87.63 input  -60.55 | X-H torsion
[ 11005 11000 10999 10996 ] final  177.72 input  -57.11 | X-H torsion

> <Gold.Protein.ActiveResidues>
 VAL166  LYS551  ARG553  GLY616  TRP617  ASP618  TYR619  PRO620  LYS621  CYS622 
 ASP623  PHE694  ASN695  SER759  ASP760  ASP761  ALA762  ILE779  LEU786  VAL792 
 PHE793  MET794  SER795  GLU796  ALA797  LYS798  CYS799  TRP800  GLU811  SER814 

> <Gold.Protein.RotatedAtoms>
  152.0010  133.3825  159.4181 H   0  0  0  0  0  0  0  0  0  0  0  0  # atno 6907 bound_to 6896
  150.6910  134.3834  159.5053 H   0  0  0  0  0  0  0  0  0  0  0  0  # atno 6908 bound_to 6896
  152.1581  134.8934  160.0594 H   0  0  0  0  0  0  0  0  0  0  0  0  # atno 6909 bound_to 6896
  145.9294  140.7763  142.9607 H   0  0  0  0  0  0  0  0  0  0  0  0  # atno 7974 bound_to 7965
  155.9525  140.1129  157.0965 H   0  0  0  0  0  0  0  0  0  0  0  0  # atno 8008 bound_to 7997
  154.4113  140.1198  156.5138 H   0  0  0  0  0  0  0  0  0  0  0  0  # atno 8009 bound_to 7997
  155.6824  140.3473  155.4863 H   0  0  0  0  0  0  0  0  0  0  0  0  # atno 8010 bound_to 7997
  139.4824  144.5217  151.7865 H   0  0  0  0  0  0  0  0  0  0  0  0  # atno 10167 bound_to 10162
  156.7102  130.9230  151.3088 H   0  0  0  0  0  0  0  0  0  0  0  0  # atno 10718 bound_to 10713
  153.1687  135.4536  154.9872 H   0  0  0  0  0  0  0  0  0  0  0  0  # atno 10763 bound_to 10752
  154.7950  135.3234  154.7690 H   0  0  0  0  0  0  0  0  0  0  0  0  # atno 10764 bound_to 10752
  153.8169  135.6950  153.4887 H   0  0  0  0  0  0  0  0  0  0  0  0  # atno 10765 bound_to 10752
  140.3872  134.6894  157.4486 H   0  0  0  0  0  0  0  0  0  0  0  0  # atno 11005 bound_to 11000
  144.6763  140.2102  143.7378 LP  0  0  0  0  0  0  0  0  0  0  0  0  # atno 17320 bound_to 7965
  145.8446  139.2146  143.1807 LP  0  0  0  0  0  0  0  0  0  0  0  0  # atno 17321 bound_to 7965
  140.4732  144.1557  150.5921 LP  0  0  0  0  0  0  0  0  0  0  0  0  # atno 17342 bound_to 10162
  140.4359  143.2547  151.9535 LP  0  0  0  0  0  0  0  0  0  0  0  0  # atno 17343 bound_to 10162
  157.6939  130.9262  150.0590 LP  0  0  0  0  0  0  0  0  0  0  0  0  # atno 17370 bound_to 10713
  156.1666  130.3645  149.9223 LP  0  0  0  0  0  0  0  0  0  0  0  0  # atno 17371 bound_to 10713
  140.0434  134.6234  155.8952 LP  0  0  0  0  0  0  0  0  0  0  0  0  # atno 17394 bound_to 11000
  141.1903  133.6568  156.5407 LP  0  0  0  0  0  0  0  0  0  0  0  0  # atno 17395 bound_to 11000

$$$$
