AV-unprocessed.smi:2513|AV-procd|sdf|9891|dock8
  -GOLD-   2272013523D 1   1.00000     0.00000
 Structure written by MMmdl.
 35 36  0  0  0  0  0  0  0  0  1 V2000
  151.4196  138.9099  155.0452 C   0  0  0  0  0  0  0  0  0  0  0  0
  150.6879  140.1169  154.8889 O   0  0  0  0  0  0  0  0  0  0  0  0
  149.3797  140.0366  154.4524 C   0  0  0  0  0  0  0  0  0  0  0  0
  148.8997  139.0107  153.5986 C   0  0  0  0  0  0  0  0  0  0  0  0
  147.5501  139.0145  153.2061 C   0  0  0  0  0  0  0  0  0  0  0  0
  146.7235  140.0452  153.6820 C   0  0  0  0  0  0  0  0  0  0  0  0
  147.1658  141.0251  154.4941 N   0  0  0  0  0  0  0  0  0  0  0  0
  148.4661  141.0349  154.8806 C   0  0  0  0  0  0  0  0  0  0  0  0
  149.0103  142.0343  155.7344 N   0  0  0  0  0  0  0  0  0  0  0  0
  149.4697  141.9018  156.9910 C   0  0  0  0  0  0  0  0  0  0  0  0
  149.4955  140.8523  157.6346 O   0  0  0  0  0  0  0  0  0  0  0  0
  149.9083  143.0742  157.4718 N   0  0  0  0  0  0  0  0  0  0  0  0
  150.4694  143.2804  158.8036 C   0  0  2  0  0  0  0  0  0  0  0  0
  151.2490  144.6033  158.8401 C   0  0  0  0  0  0  0  0  0  0  0  0
  151.9551  144.7585  160.1916 C   0  0  0  0  0  0  0  0  0  0  0  0
  152.8012  143.5135  160.5013 C   0  0  0  0  0  0  0  0  0  0  0  0
  151.9796  142.3513  160.4727 O   0  0  0  0  0  0  0  0  0  0  0  0
  151.3964  142.1106  159.1960 C   0  0  0  0  0  0  0  0  0  0  0  0
  152.4255  139.1425  155.3950 H   0  0  0  0  0  0  0  0  0  0  0  0
  151.5150  138.3757  154.0989 H   0  0  0  0  0  0  0  0  0  0  0  0
  150.9567  138.2559  155.7854 H   0  0  0  0  0  0  0  0  0  0  0  0
  149.5390  138.2206  153.2357 H   0  0  0  0  0  0  0  0  0  0  0  0
  147.1587  138.2462  152.5558 H   0  0  0  0  0  0  0  0  0  0  0  0
  145.6807  140.0852  153.4038 H   0  0  0  0  0  0  0  0  0  0  0  0
  149.0533  142.9607  155.3362 H   0  0  0  0  0  0  0  0  0  0  0  0
  149.8497  143.8853  156.8738 H   0  0  0  0  0  0  0  0  0  0  0  0
  149.6561  143.3435  159.5292 H   0  0  0  0  0  0  0  0  0  0  0  0
  151.9917  144.6202  158.0409 H   0  0  0  0  0  0  0  0  0  0  0  0
  150.5801  145.4470  158.6654 H   0  0  0  0  0  0  0  0  0  0  0  0
  152.5821  145.6504  160.1892 H   0  0  0  0  0  0  0  0  0  0  0  0
  151.2132  144.8988  160.9787 H   0  0  0  0  0  0  0  0  0  0  0  0
  153.6197  143.4113  159.7869 H   0  0  0  0  0  0  0  0  0  0  0  0
  153.2513  143.6028  161.4901 H   0  0  0  0  0  0  0  0  0  0  0  0
  150.8329  141.1785  159.2467 H   0  0  0  0  0  0  0  0  0  0  0  0
  152.1815  141.9658  158.4520 H   0  0  0  0  0  0  0  0  0  0  0  0
  1  2  1  0  0  0  0
  1 19  1  0  0  0  0
  1 20  1  0  0  0  0
  1 21  1  0  0  0  0
  2  3  1  0  0  0  0
  3  8  1  0  0  0  0
  3  4  2  0  0  0  0
  4  5  1  0  0  0  0
  4 22  1  0  0  0  0
  5  6  2  0  0  0  0
  5 23  1  0  0  0  0
  6  7  1  0  0  0  0
  6 24  1  0  0  0  0
  7  8  2  0  0  0  0
  8  9  1  0  0  0  0
  9 10  1  0  0  0  0
  9 25  1  0  0  0  0
 10 11  2  0  0  0  0
 10 12  1  0  0  0  0
 12 13  1  0  0  0  0
 12 26  1  0  0  0  0
 13 18  1  0  0  0  0
 13 14  1  0  0  0  0
 13 27  1  0  0  0  0
 14 15  1  0  0  0  0
 14 28  1  0  0  0  0
 14 29  1  0  0  0  0
 15 16  1  0  0  0  0
 15 30  1  0  0  0  0
 15 31  1  0  0  0  0
 16 17  1  0  0  0  0
 16 32  1  0  0  0  0
 16 33  1  0  0  0  0
 17 18  1  0  0  0  0
 18 34  1  0  0  0  0
 18 35  1  0  0  0  0
M  END
> <s_m_source_file>
AV-unprocessed.smi

> <i_m_source_file_index>
2513

> <i_lp_mmshare_version>
43012

> <i_f3d_flags>
0

> <s_epik_input>
W0NIM11PYzFbY0hdW2NIXVtjSF1uYzFbTkhdQyg9TylbTkhdW0NAQEhdMltDSDJdW0NIMl1bQ0gyXU9bQ0gyXTI=

> <s_epik_cmdline>
J2VwaWtfcHl0aG9uJywgJy1waCcsICc3LjAnLCAnLXRuJywgJzgnLCAnLW1hJywgJzIwMCcsICctbWV0YWxfYmluZGluZycsICctaW1hZScsICc8aW5maWxlLm1hZT4nLCAnLW9tYWUnLCAnPG91dGZpbGUubWFlPic=

> <r_lp_tautomer_probability>
1

> <r_epik_Ionization_Penalty>
3.98976e-05

> <r_epik_Ionization_Penalty_Charging>
0

> <r_epik_Ionization_Penalty_Neutral>
3.98976e-05

> <r_epik_State_Penalty>
-0

> <r_epik_Charging_Adjusted_Penalty>
0

> <i_epik_Tot_Q>
0

> <i_epik_Tot_abs_Q>
0

> <r_epik_Metal_State_Penalty>
-0

> <b_epik_Metal_Only>
0

> <s_lp_Force_Field>
OPLS_2005

> <r_lp_Energy>
12.9865

> <b_lp_Chiralities_Consistent>
1

> <s_lp_Variant>
AV-unprocessed.smi:2513-1

> <Gold.Version>
5.8.1

> <Gold.Id.Protein>
6NUR|6NUR_protein|mol2

> <Gold.PLP.Fitness>
39.8900

> <Gold.PLP.PLP>
-30.8541

> <Gold.PLP.part.hbond>
-3.4524

> <Gold.PLP.part.metal>
0.0000

> <Gold.PLP.part.buried>
-1.0263

> <Gold.PLP.part.nonpolar>
-27.6956

> <Gold.PLP.part.repulsive>
0.3792

> <Gold.PLP.ligand.clash>
0.0000

> <Gold.PLP.ligand.torsion>
1.2676

> <Gold.PLP.Chemscore.Hbond>
2.8560

> <Gold.PLP.Chemscore.CHOScore>
1.0000

> <Gold.PLP.Chemscore.Metal>
0.0000

> <Gold.Chemscore.Hbonds>
donor molecule, donor type, donor heavy atom, donor atom, acceptor molecule, acceptor atom, score
      L1  H     9    25       P1  8028  0.93
      L1  H    12    26       P1  8028  0.93
      P1  H  7989  7998       L1     2  1.00
      L1  C     6    24       P1 10175  1.00

> <Gold.PLP.Chemscore.Internal.Correction>
0.0032

> <Gold.Rescore>
     Score         DG    S(hbond)    S(metal)    S(lipo)     H(rot)  DE(clash)    DE(int)     intcor
     15.51     -18.43       1.88        0.00      84.49       1.25       0.22       2.71       ----

> <Gold.Chemscore.Fitness>
15.5061

> <Gold.Chemscore.DG>
-18.4343

> <Gold.Chemscore.ZeroCoef>
-5.4800

> <Gold.Chemscore.Hbond>
1.8802

> <Gold.Chemscore.Metal>
0.0000

> <Gold.Chemscore.Lipo>
84.4873

> <Gold.Chemscore.Internal_Hbond>
0.0000

> <Gold.Chemscore.DEClash>
0.2228

> <Gold.Chemscore.DEInternal>
2.7054

> <Gold.Chemscore.Rot>
1.2542

> <Gold.Chemscore.Internal.Correction>
   9.000000E+99

> <Gold.Chemscore.Hbonds>
donor molecule, donor type, donor heavy atom, donor atom, acceptor molecule, acceptor atom, score
      L1  H     9    25       P1  8028  0.90
      L1  H    12    26       P1  8028  0.87
      P1  H  7989  7998       L1     2  0.14

> <Gold.Chemscore.Hbond.Weighted>
-6.2799

> <Gold.Chemscore.Metal.Weighted>
-0.0000

> <Gold.Chemscore.Lipo.Weighted>
-9.8850

> <Gold.Chemscore.Internal_Hbond.Weighted>
0.0000

> <Gold.Chemscore.DEClash.Weighted>
0.2228

> <Gold.Chemscore.DEInternal.Weighted>
2.7054

> <Gold.Chemscore.Rot.Weighted>
3.2107

> <Gold.Chemscore.Internal.Correction.Weighted>
   9.000000E+99

> <Gold.Protein.RotatedTorsions>
[ 6907 6896 6895 6894 ] final  -28.75 input  -60.11 | X-H torsion
[ 7974 7965 7964 7962 ] final  152.58 input  175.53 | X-H torsion
[ 8008 7997 7996 7995 ] final -158.17 input   59.86 | X-H torsion
[ 10167 10162 10161 10158 ] final   94.76 input  -65.29 | X-H torsion
[ 10718 10713 10712 10709 ] final  174.47 input   66.30 | X-H torsion
[ 10763 10752 10751 10750 ] final    4.07 input  -60.55 | X-H torsion
[ 11005 11000 10999 10996 ] final   52.01 input  -57.11 | X-H torsion

> <Gold.Protein.ActiveResidues>
 VAL166  LYS551  ARG553  GLY616  TRP617  ASP618  TYR619  PRO620  LYS621  CYS622 
 ASP623  PHE694  ASN695  SER759  ASP760  ASP761  ALA762  ILE779  LEU786  VAL792 
 PHE793  MET794  SER795  GLU796  ALA797  LYS798  CYS799  TRP800  GLU811  SER814 

> <Gold.Protein.RotatedAtoms>
  151.1286  135.0118  159.8571 H   0  0  0  0  0  0  0  0  0  0  0  0  # atno 6907 bound_to 6896
  152.5450  134.1637  159.8578 H   0  0  0  0  0  0  0  0  0  0  0  0  # atno 6908 bound_to 6896
  151.1702  133.4744  159.2627 H   0  0  0  0  0  0  0  0  0  0  0  0  # atno 6909 bound_to 6896
  144.8213  139.6687  143.6099 H   0  0  0  0  0  0  0  0  0  0  0  0  # atno 7974 bound_to 7965
  155.7434  140.0817  157.2235 H   0  0  0  0  0  0  0  0  0  0  0  0  # atno 8008 bound_to 7997
  154.4019  140.1573  156.2698 H   0  0  0  0  0  0  0  0  0  0  0  0  # atno 8009 bound_to 7997
  155.8998  140.3410  155.6021 H   0  0  0  0  0  0  0  0  0  0  0  0  # atno 8010 bound_to 7997
  139.8053  144.6796  150.9711 H   0  0  0  0  0  0  0  0  0  0  0  0  # atno 10167 bound_to 10162
  156.9492  131.0025  151.2952 H   0  0  0  0  0  0  0  0  0  0  0  0  # atno 10718 bound_to 10713
  153.2756  135.6936  153.7436 H   0  0  0  0  0  0  0  0  0  0  0  0  # atno 10763 bound_to 10752
  153.6443  135.3388  155.3082 H   0  0  0  0  0  0  0  0  0  0  0  0  # atno 10764 bound_to 10752
  154.8478  135.4439  154.1793 H   0  0  0  0  0  0  0  0  0  0  0  0  # atno 10765 bound_to 10752
  140.0885  134.5242  155.8876 H   0  0  0  0  0  0  0  0  0  0  0  0  # atno 11005 bound_to 11000
  146.2518  139.6216  142.9422 LP  0  0  0  0  0  0  0  0  0  0  0  0  # atno 17320 bound_to 7965
  145.5100  141.0435  143.2493 LP  0  0  0  0  0  0  0  0  0  0  0  0  # atno 17321 bound_to 7965
  140.7819  143.4240  151.0797 LP  0  0  0  0  0  0  0  0  0  0  0  0  # atno 17342 bound_to 10162
  139.7909  143.8219  152.3151 LP  0  0  0  0  0  0  0  0  0  0  0  0  # atno 17343 bound_to 10162
  157.5733  130.8326  149.8422 LP  0  0  0  0  0  0  0  0  0  0  0  0  # atno 17370 bound_to 10713
  156.0370  130.3748  150.1534 LP  0  0  0  0  0  0  0  0  0  0  0  0  # atno 17371 bound_to 10713
  141.2070  133.6660  156.6279 LP  0  0  0  0  0  0  0  0  0  0  0  0  # atno 17394 bound_to 11000
  140.3386  134.7868  157.4381 LP  0  0  0  0  0  0  0  0  0  0  0  0  # atno 17395 bound_to 11000

$$$$
