AV-unprocessed.smi:1144|AV-procd|sdf|4881|dock3
  -GOLD-   22720 3453D 1   1.00000     0.00000
 Structure written by MMmdl.
 34 35  0  0  0  0  0  0  0  0  1 V2000
  149.3505  137.3955  155.2315 C   0  0  0  0  0  0  0  0  0  0  0  0
  150.4560  138.3209  155.4267 N   0  0  0  0  0  0  0  0  0  0  0  0
  151.5611  138.0364  154.5215 C   0  0  0  0  0  0  0  0  0  0  0  0
  152.7350  139.0057  154.7387 C   0  0  0  0  0  0  0  0  0  0  0  0
  153.1482  138.9531  156.1008 O   0  0  0  0  0  0  0  0  0  0  0  0
  152.1058  139.2845  157.0173 C   0  0  2  0  0  0  0  0  0  0  0  0
  152.6668  139.1949  158.4427 C   0  0  0  0  0  0  0  0  0  0  0  0
  153.6301  140.2528  158.7085 N   0  0  0  0  0  0  0  0  0  0  0  0
  153.3644  141.3686  159.4789 C   0  0  0  0  0  0  0  0  0  0  0  0
  153.7870  141.3777  160.7484 N   0  0  0  0  0  0  0  0  0  0  0  0
  153.5145  142.4807  161.4778 C   0  0  0  0  0  0  0  0  0  0  0  0
  152.8160  143.5767  160.9339 C   0  0  0  0  0  0  0  0  0  0  0  0
  152.4178  143.4572  159.5835 C   0  0  0  0  0  0  0  0  0  0  0  0
  151.6587  144.5616  158.8634 C   0  0  0  0  0  0  0  0  0  0  0  0
  151.5601  145.6585  159.6154 F   0  0  0  0  0  0  0  0  0  0  0  0
  152.2911  144.8793  157.7338 F   0  0  0  0  0  0  0  0  0  0  0  0
  150.4291  144.1416  158.5652 F   0  0  0  0  0  0  0  0  0  0  0  0
  152.6969  142.3463  158.8624 N   0  0  0  0  0  0  0  0  0  0  0  0
  150.9350  138.3041  156.8032 C   0  0  0  0  0  0  0  0  0  0  0  0
  148.9844  137.4427  154.2053 H   0  0  0  0  0  0  0  0  0  0  0  0
  148.5190  137.6425  155.8920 H   0  0  0  0  0  0  0  0  0  0  0  0
  149.6546  136.3684  155.4371 H   0  0  0  0  0  0  0  0  0  0  0  0
  151.9072  137.0124  154.6705 H   0  0  0  0  0  0  0  0  0  0  0  0
  151.2206  138.1035  153.4877 H   0  0  0  0  0  0  0  0  0  0  0  0
  153.5749  138.7339  154.0993 H   0  0  0  0  0  0  0  0  0  0  0  0
  152.4490  140.0256  154.4770 H   0  0  0  0  0  0  0  0  0  0  0  0
  151.7618  140.3029  156.8253 H   0  0  0  0  0  0  0  0  0  0  0  0
  151.8527  139.2843  159.1630 H   0  0  0  0  0  0  0  0  0  0  0  0
  153.1346  138.2231  158.6050 H   0  0  0  0  0  0  0  0  0  0  0  0
  154.5715  140.1413  158.3612 H   0  0  0  0  0  0  0  0  0  0  0  0
  153.8559  142.4894  162.5024 H   0  0  0  0  0  0  0  0  0  0  0  0
  152.6026  144.4549  161.5247 H   0  0  0  0  0  0  0  0  0  0  0  0
  150.1181  138.5613  157.4787 H   0  0  0  0  0  0  0  0  0  0  0  0
  151.2538  137.2953  157.0702 H   0  0  0  0  0  0  0  0  0  0  0  0
  1  2  1  0  0  0  0
  1 20  1  0  0  0  0
  1 21  1  0  0  0  0
  1 22  1  0  0  0  0
  2 19  1  0  0  0  0
  2  3  1  0  0  0  0
  3  4  1  0  0  0  0
  3 23  1  0  0  0  0
  3 24  1  0  0  0  0
  4  5  1  0  0  0  0
  4 25  1  0  0  0  0
  4 26  1  0  0  0  0
  5  6  1  0  0  0  0
  6  7  1  0  0  0  0
  6 19  1  0  0  0  0
  6 27  1  0  0  0  0
  7  8  1  0  0  0  0
  7 28  1  0  0  0  0
  7 29  1  0  0  0  0
  8  9  1  0  0  0  0
  8 30  1  0  0  0  0
  9 18  1  0  0  0  0
  9 10  2  0  0  0  0
 10 11  1  0  0  0  0
 11 12  2  0  0  0  0
 11 31  1  0  0  0  0
 12 13  1  0  0  0  0
 12 32  1  0  0  0  0
 13 14  1  0  0  0  0
 13 18  2  0  0  0  0
 14 15  1  0  0  0  0
 14 16  1  0  0  0  0
 14 17  1  0  0  0  0
 19 33  1  0  0  0  0
 19 34  1  0  0  0  0
M  END
> <s_m_source_file>
AV-unprocessed.smi

> <i_m_source_file_index>
1144

> <i_lp_mmshare_version>
43012

> <i_f3d_flags>
0

> <s_epik_input>
W0NIM11OMVtDSDJdW0NIMl1PW0NASF0oW0NIMl0xKVtDSDJdW05IXWMybltjSF1bY0hdYyhuMilDKEYpKEYpRg==

> <s_epik_cmdline>
J2VwaWtfcHl0aG9uJywgJy1waCcsICc3LjAnLCAnLXRuJywgJzgnLCAnLW1hJywgJzIwMCcsICctbWV0YWxfYmluZGluZycsICctaW1hZScsICc8aW5maWxlLm1hZT4nLCAnLW9tYWUnLCAnPG91dGZpbGUubWFlPic=

> <r_lp_tautomer_probability>
1

> <r_epik_Ionization_Penalty>
0.797829

> <r_epik_Ionization_Penalty_Charging>
0

> <r_epik_Ionization_Penalty_Neutral>
0.797829

> <r_epik_State_Penalty>
0.828842

> <r_epik_Charging_Adjusted_Penalty>
0.828842

> <i_epik_Tot_Q>
0

> <i_epik_Tot_abs_Q>
0

> <r_epik_Metal_State_Penalty>
0.828842

> <b_epik_Metal_Only>
0

> <s_lp_Force_Field>
OPLS_2005

> <r_lp_Energy>
14.496

> <b_lp_Chiralities_Consistent>
1

> <s_lp_Variant>
AV-unprocessed.smi:1144-6

> <Gold.Version>
5.8.1

> <Gold.Id.Protein>
6NUR|6NUR_protein|mol2

> <Gold.PLP.Fitness>
45.3367

> <Gold.PLP.PLP>
-44.2945

> <Gold.PLP.part.hbond>
-1.0000

> <Gold.PLP.part.metal>
0.0000

> <Gold.PLP.part.buried>
-7.2167

> <Gold.PLP.part.nonpolar>
-37.1030

> <Gold.PLP.part.repulsive>
0.1585

> <Gold.PLP.ligand.clash>
0.0000

> <Gold.PLP.ligand.torsion>
0.9921

> <Gold.PLP.Chemscore.Hbond>
1.0000

> <Gold.PLP.Chemscore.CHOScore>
0.0000

> <Gold.PLP.Chemscore.Metal>
0.0000

> <Gold.Chemscore.Hbonds>
donor molecule, donor type, donor heavy atom, donor atom, acceptor molecule, acceptor atom, score
      P1  H  7997  8010       L1     5  0.91

> <Gold.PLP.Chemscore.Internal.Correction>
0.0263

> <Gold.Rescore>
     Score         DG    S(hbond)    S(metal)    S(lipo)     H(rot)  DE(clash)    DE(int)     intcor
     12.10     -12.93       0.45        0.00      79.59       1.31       0.01       0.82       ----

> <Gold.Chemscore.Fitness>
12.1013

> <Gold.Chemscore.DG>
-12.9307

> <Gold.Chemscore.ZeroCoef>
-5.4800

> <Gold.Chemscore.Hbond>
0.4505

> <Gold.Chemscore.Metal>
0.0000

> <Gold.Chemscore.Lipo>
79.5912

> <Gold.Chemscore.Internal_Hbond>
0.0000

> <Gold.Chemscore.DEClash>
0.0060

> <Gold.Chemscore.DEInternal>
0.8234

> <Gold.Chemscore.Rot>
1.3149

> <Gold.Chemscore.Internal.Correction>
   9.000000E+99

> <Gold.Chemscore.Hbonds>
donor molecule, donor type, donor heavy atom, donor atom, acceptor molecule, acceptor atom, score
      P1  H  7997  8010       L1     5  0.26

> <Gold.Chemscore.Hbond.Weighted>
-1.5047

> <Gold.Chemscore.Metal.Weighted>
-0.0000

> <Gold.Chemscore.Lipo.Weighted>
-9.3122

> <Gold.Chemscore.Internal_Hbond.Weighted>
0.0000

> <Gold.Chemscore.DEClash.Weighted>
0.0060

> <Gold.Chemscore.DEInternal.Weighted>
0.8234

> <Gold.Chemscore.Rot.Weighted>
3.3662

> <Gold.Chemscore.Internal.Correction.Weighted>
   9.000000E+99

> <Gold.Protein.RotatedTorsions>
[ 6907 6896 6895 6894 ] final    9.97 input  -60.11 | X-H torsion
[ 7974 7965 7964 7962 ] final  176.30 input  175.53 | X-H torsion
[ 8008 7997 7996 7995 ] final   58.67 input   59.86 | X-H torsion
[ 10167 10162 10161 10158 ] final  -60.22 input  -65.29 | X-H torsion
[ 10718 10713 10712 10709 ] final   50.12 input   66.30 | X-H torsion
[ 10763 10752 10751 10750 ] final  166.45 input  -60.55 | X-H torsion
[ 11005 11000 10999 10996 ] final  165.41 input  -57.11 | X-H torsion

> <Gold.Protein.ActiveResidues>
 VAL166  LYS551  ARG553  GLY616  TRP617  ASP618  TYR619  PRO620  LYS621  CYS622 
 ASP623  PHE694  ASN695  SER759  ASP760  ASP761  ALA762  ILE779  LEU786  VAL792 
 PHE793  MET794  SER795  GLU796  ALA797  LYS798  CYS799  TRP800  GLU811  SER814 

> <Gold.Protein.RotatedAtoms>
  151.7307  135.0875  160.0299 H   0  0  0  0  0  0  0  0  0  0  0  0  # atno 6907 bound_to 6896
  152.3543  133.6213  159.5976 H   0  0  0  0  0  0  0  0  0  0  0  0  # atno 6908 bound_to 6896
  150.7561  133.9441  159.3507 H   0  0  0  0  0  0  0  0  0  0  0  0  # atno 6909 bound_to 6896
  144.7186  140.0076  143.6440 H   0  0  0  0  0  0  0  0  0  0  0  0  # atno 7974 bound_to 7965
  155.5537  140.3487  155.4474 H   0  0  0  0  0  0  0  0  0  0  0  0  # atno 8008 bound_to 7997
  156.0564  140.1330  157.0017 H   0  0  0  0  0  0  0  0  0  0  0  0  # atno 8009 bound_to 7997
  154.4459  140.0994  156.6437 H   0  0  0  0  0  0  0  0  0  0  0  0  # atno 8010 bound_to 7997
  140.6085  143.2380  151.5765 H   0  0  0  0  0  0  0  0  0  0  0  0  # atno 10167 bound_to 10162
  157.4854  130.8342  149.8141 H   0  0  0  0  0  0  0  0  0  0  0  0  # atno 10718 bound_to 10713
  154.3392  135.2754  155.2431 H   0  0  0  0  0  0  0  0  0  0  0  0  # atno 10763 bound_to 10752
  154.4709  135.5883  153.6325 H   0  0  0  0  0  0  0  0  0  0  0  0  # atno 10764 bound_to 10752
  152.9859  135.6088  154.3592 H   0  0  0  0  0  0  0  0  0  0  0  0  # atno 10765 bound_to 10752
  140.2558  134.7941  157.3544 H   0  0  0  0  0  0  0  0  0  0  0  0  # atno 11005 bound_to 11000
  146.0285  139.3313  143.0770 LP  0  0  0  0  0  0  0  0  0  0  0  0  # atno 17320 bound_to 7965
  145.8482  140.9543  143.0763 LP  0  0  0  0  0  0  0  0  0  0  0  0  # atno 17321 bound_to 7965
  139.5343  144.2826  152.1217 LP  0  0  0  0  0  0  0  0  0  0  0  0  # atno 17342 bound_to 10162
  140.2020  144.4648  150.6426 LP  0  0  0  0  0  0  0  0  0  0  0  0  # atno 17343 bound_to 10162
  156.0144  130.3820  150.2159 LP  0  0  0  0  0  0  0  0  0  0  0  0  # atno 17370 bound_to 10713
  157.0346  131.0017  151.3302 LP  0  0  0  0  0  0  0  0  0  0  0  0  # atno 17371 bound_to 10713
  140.1513  134.4846  155.7959 LP  0  0  0  0  0  0  0  0  0  0  0  0  # atno 17394 bound_to 11000
  141.2196  133.6863  156.7383 LP  0  0  0  0  0  0  0  0  0  0  0  0  # atno 17395 bound_to 11000

$$$$
