AV-unprocessed.smi:1809|AV-procd|sdf|7315|dock4
  -GOLD-   22720 8573D 1   1.00000     0.00000
 Structure written by MMmdl.
 40 42  0  0  0  0  0  0  0  0  2 V2000
  150.7150  142.3882  157.5890 C   0  0  0  0  0  0  0  0  0  0  0  0
  150.5627  141.4018  156.4820 C   0  0  0  0  0  0  0  0  0  0  0  0
  151.6008  140.7472  155.9471 N   0  0  0  0  0  0  0  0  0  0  0  0
  151.2122  139.8851  154.9312 N   0  0  0  0  0  0  0  0  0  0  0  0
  149.8874  139.9139  154.7305 C   0  0  0  0  0  0  0  0  0  0  0  0
  149.2214  139.1318  153.7498 N   0  0  0  0  0  0  0  0  0  0  0  0
  147.9266  139.1756  153.3901 C   0  0  0  0  0  0  0  0  0  0  0  0
  147.0794  139.9319  153.8655 O   0  0  0  0  0  0  0  0  0  0  0  0
  147.6549  138.2771  152.4326 N   0  0  0  0  0  0  0  0  0  0  0  0
  146.3376  138.0639  151.8426 C   0  0  0  0  0  0  0  0  0  0  0  0
  145.4218  137.2197  152.7579 C   0  0  2  0  0  0  0  0  0  0  0  0
  146.2141  136.2972  153.7159 C   0  0  0  0  0  0  0  0  0  0  0  0
  146.7448  135.1516  152.9541 N   0  3  1  0  0  0  0  0  0  0  0  0
  147.5409  134.1455  153.6777 C   0  0  0  0  0  0  0  0  0  0  0  0
  147.4222  132.8634  152.8300 C   0  0  0  0  0  0  0  0  0  0  0  0
  146.3818  133.1779  151.7396 C   0  0  0  0  0  0  0  0  0  0  0  0
  145.6728  134.4158  152.2806 C   0  0  2  0  0  0  0  0  0  0  0  0
  144.9814  135.3455  151.2770 C   0  0  0  0  0  0  0  0  0  0  0  0
  144.4626  136.4671  151.9977 O   0  0  0  0  0  0  0  0  0  0  0  0
  148.9986  141.0036  155.7814 S   0  0  0  0  0  0  0  0  0  0  0  0
  151.7444  142.7443  157.6469 H   0  0  0  0  0  0  0  0  0  0  0  0
  150.4508  141.9242  158.5393 H   0  0  0  0  0  0  0  0  0  0  0  0
  150.0606  143.2437  157.4216 H   0  0  0  0  0  0  0  0  0  0  0  0
  149.7969  138.4511  153.2766 H   0  0  0  0  0  0  0  0  0  0  0  0
  148.4077  137.6947  152.0956 H   0  0  0  0  0  0  0  0  0  0  0  0
  145.8950  139.0369  151.6317 H   0  0  0  0  0  0  0  0  0  0  0  0
  146.4515  137.5735  150.8743 H   0  0  0  0  0  0  0  0  0  0  0  0
  144.8491  137.9094  153.3788 H   0  0  0  0  0  0  0  0  0  0  0  0
  147.0289  136.8403  154.1957 H   0  0  0  0  0  0  0  0  0  0  0  0
  145.5605  135.9334  154.5102 H   0  0  0  0  0  0  0  0  0  0  0  0
  148.5730  134.4753  153.7990 H   0  0  0  0  0  0  0  0  0  0  0  0
  147.1174  133.9788  154.6698 H   0  0  0  0  0  0  0  0  0  0  0  0
  148.3783  132.5852  152.3850 H   0  0  0  0  0  0  0  0  0  0  0  0
  147.0950  132.0298  153.4522 H   0  0  0  0  0  0  0  0  0  0  0  0
  146.8880  133.4124  150.8020 H   0  0  0  0  0  0  0  0  0  0  0  0
  145.6983  132.3485  151.5549 H   0  0  0  0  0  0  0  0  0  0  0  0
  144.9452  134.0952  153.0296 H   0  0  0  0  0  0  0  0  0  0  0  0
  145.6664  135.6685  150.4927 H   0  0  0  0  0  0  0  0  0  0  0  0
  144.1568  134.8284  150.7863 H   0  0  0  0  0  0  0  0  0  0  0  0
  147.3409  135.5204  152.2271 H   0  0  0  0  0  0  0  0  0  0  0  0
  1  2  1  0  0  0  0
  1 21  1  0  0  0  0
  1 22  1  0  0  0  0
  1 23  1  0  0  0  0
  2 20  1  0  0  0  0
  2  3  2  0  0  0  0
  3  4  1  0  0  0  0
  4  5  2  0  0  0  0
  5  6  1  0  0  0  0
  5 20  1  0  0  0  0
  6  7  1  0  0  0  0
  6 24  1  0  0  0  0
  7  8  2  0  0  0  0
  7  9  1  0  0  0  0
  9 10  1  0  0  0  0
  9 25  1  0  0  0  0
 10 11  1  0  0  0  0
 10 26  1  0  0  0  0
 10 27  1  0  0  0  0
 11 19  1  0  0  0  0
 11 12  1  0  0  0  0
 11 28  1  0  0  0  0
 12 13  1  0  0  0  0
 12 29  1  0  0  0  0
 12 30  1  0  0  0  0
 13 17  1  0  0  0  0
 13 14  1  0  0  0  0
 13 40  1  0  0  0  0
 14 15  1  0  0  0  0
 14 31  1  0  0  0  0
 14 32  1  0  0  0  0
 15 16  1  0  0  0  0
 15 33  1  0  0  0  0
 15 34  1  0  0  0  0
 16 17  1  0  0  0  0
 16 35  1  0  0  0  0
 16 36  1  0  0  0  0
 17 18  1  0  0  0  0
 17 37  1  0  0  0  0
 18 19  1  0  0  0  0
 18 38  1  0  0  0  0
 18 39  1  0  0  0  0
M  CHG  1  13   1
M  END
> <s_m_source_file>
AV-unprocessed.smi

> <i_m_source_file_index>
1809

> <i_lp_mmshare_version>
43012

> <i_f3d_flags>
0

> <s_epik_input>
W0NIM11jMW5uYyhzMSlbTkhdQyg9TylbTkhdW0NIMl1bQ0BIXShbQ0gyXTIpT1tDSDJdW0NAQEhdKE4yMylbQ0gyXVtDSDJdW0NIMl0z

> <s_epik_cmdline>
J2VwaWtfcHl0aG9uJywgJy1waCcsICc3LjAnLCAnLXRuJywgJzgnLCAnLW1hJywgJzIwMCcsICctbWV0YWxfYmluZGluZycsICctaW1hZScsICc8aW5maWxlLm1hZT4nLCAnLW9tYWUnLCAnPG91dGZpbGUubWFlPic=

> <r_lp_tautomer_probability>
1

> <r_epik_Ionization_Penalty>
0.112474

> <r_epik_Ionization_Penalty_Charging>
0.108916

> <r_epik_Ionization_Penalty_Neutral>
0.00355844

> <r_epik_State_Penalty>
0.0565397

> <r_epik_Charging_Adjusted_Penalty>
0.165456

> <i_epik_Tot_Q>
1

> <i_epik_Tot_abs_Q>
1

> <r_epik_Metal_State_Penalty>
0.422831

> <b_epik_Metal_Only>
0

> <s_lp_Force_Field>
OPLS_2005

> <r_lp_Energy>
36.9848

> <b_lp_Chiralities_Consistent>
1

> <s_lp_Variant>
AV-unprocessed.smi:1809-7

> <Gold.Version>
5.8.1

> <Gold.Id.Protein>
6NUR|6NUR_protein|mol2

> <Gold.PLP.Fitness>
40.4369

> <Gold.PLP.PLP>
-30.2644

> <Gold.PLP.part.hbond>
-5.9072

> <Gold.PLP.part.metal>
0.0000

> <Gold.PLP.part.buried>
0.9535

> <Gold.PLP.part.nonpolar>
-26.0820

> <Gold.PLP.part.repulsive>
0.9216

> <Gold.PLP.ligand.clash>
0.0000

> <Gold.PLP.ligand.torsion>
0.5463

> <Gold.PLP.Chemscore.Hbond>
3.7520

> <Gold.PLP.Chemscore.CHOScore>
0.0000

> <Gold.PLP.Chemscore.Metal>
0.0000

> <Gold.Chemscore.Hbonds>
donor molecule, donor type, donor heavy atom, donor atom, acceptor molecule, acceptor atom, score
      L1  H     9    25       P1  7948  0.98
      L1  H    13    40       P1  7948  1.86
      P1  H  7989  7998       L1     4  0.80

> <Gold.PLP.Chemscore.Internal.Correction>
0.0091

> <Gold.Rescore>
     Score         DG    S(hbond)    S(metal)    S(lipo)     H(rot)  DE(clash)    DE(int)     intcor
     13.31     -15.20       1.88        0.00      58.78       1.34       0.11       1.78       ----

> <Gold.Chemscore.Fitness>
13.3053

> <Gold.Chemscore.DG>
-15.1955

> <Gold.Chemscore.ZeroCoef>
-5.4800

> <Gold.Chemscore.Hbond>
1.8762

> <Gold.Chemscore.Metal>
0.0000

> <Gold.Chemscore.Lipo>
58.7791

> <Gold.Chemscore.Internal_Hbond>
0.0000

> <Gold.Chemscore.DEClash>
0.1111

> <Gold.Chemscore.DEInternal>
1.7792

> <Gold.Chemscore.Rot>
1.3391

> <Gold.Chemscore.Internal.Correction>
   9.000000E+99

> <Gold.Chemscore.Hbonds>
donor molecule, donor type, donor heavy atom, donor atom, acceptor molecule, acceptor atom, score
      L1  H     9    25       P1  7948  0.89
      L1  H    13    40       P1  7948  0.90
      P1  H  7989  7998       L1     4  0.03

> <Gold.Chemscore.Hbond.Weighted>
-6.2664

> <Gold.Chemscore.Metal.Weighted>
-0.0000

> <Gold.Chemscore.Lipo.Weighted>
-6.8772

> <Gold.Chemscore.Internal_Hbond.Weighted>
0.0000

> <Gold.Chemscore.DEClash.Weighted>
0.1111

> <Gold.Chemscore.DEInternal.Weighted>
1.7792

> <Gold.Chemscore.Rot.Weighted>
3.4281

> <Gold.Chemscore.Internal.Correction.Weighted>
   9.000000E+99

> <Gold.Protein.RotatedTorsions>
[ 6907 6896 6895 6894 ] final  -54.22 input  -60.11 | X-H torsion
[ 7974 7965 7964 7962 ] final  153.81 input  175.53 | X-H torsion
[ 8008 7997 7996 7995 ] final   15.12 input   59.86 | X-H torsion
[ 10167 10162 10161 10158 ] final -122.06 input  -65.29 | X-H torsion
[ 10718 10713 10712 10709 ] final   -0.42 input   66.30 | X-H torsion
[ 10763 10752 10751 10750 ] final  102.14 input  -60.55 | X-H torsion
[ 11005 11000 10999 10996 ] final -174.19 input  -57.11 | X-H torsion

> <Gold.Protein.ActiveResidues>
 VAL166  LYS551  ARG553  GLY616  TRP617  ASP618  TYR619  PRO620  LYS621  CYS622 
 ASP623  PHE694  ASN695  SER759  ASP760  ASP761  ALA762  ILE779  LEU786  VAL792 
 PHE793  MET794  SER795  GLU796  ALA797  LYS798  CYS799  TRP800  GLU811  SER814 

> <Gold.Protein.RotatedAtoms>
  150.8357  134.7630  159.6890 H   0  0  0  0  0  0  0  0  0  0  0  0  # atno 6907 bound_to 6896
  152.4454  134.5501  159.9874 H   0  0  0  0  0  0  0  0  0  0  0  0  # atno 6908 bound_to 6896
  151.5652  133.3360  159.3014 H   0  0  0  0  0  0  0  0  0  0  0  0  # atno 6909 bound_to 6896
  144.8130  139.6850  143.6133 H   0  0  0  0  0  0  0  0  0  0  0  0  # atno 7974 bound_to 7965
  154.8582  140.2940  155.5556 H   0  0  0  0  0  0  0  0  0  0  0  0  # atno 8008 bound_to 7997
  156.3019  140.2483  156.3484 H   0  0  0  0  0  0  0  0  0  0  0  0  # atno 8009 bound_to 7997
  154.8947  140.0393  157.1848 H   0  0  0  0  0  0  0  0  0  0  0  0  # atno 8010 bound_to 7997
  140.0184  143.5370  152.2232 H   0  0  0  0  0  0  0  0  0  0  0  0  # atno 10167 bound_to 10162
  156.8206  130.5455  149.5697 H   0  0  0  0  0  0  0  0  0  0  0  0  # atno 10718 bound_to 10713
  153.3357  135.4020  155.1531 H   0  0  0  0  0  0  0  0  0  0  0  0  # atno 10763 bound_to 10752
  154.8633  135.3621  154.5411 H   0  0  0  0  0  0  0  0  0  0  0  0  # atno 10764 bound_to 10752
  153.5853  135.7075  153.5505 H   0  0  0  0  0  0  0  0  0  0  0  0  # atno 10765 bound_to 10752
  140.4773  134.6109  157.4906 H   0  0  0  0  0  0  0  0  0  0  0  0  # atno 11005 bound_to 11000
  146.2430  139.6040  142.9478 LP  0  0  0  0  0  0  0  0  0  0  0  0  # atno 17320 bound_to 7965
  145.5280  141.0428  143.2398 LP  0  0  0  0  0  0  0  0  0  0  0  0  # atno 17321 bound_to 7965
  139.6157  144.7619  151.2852 LP  0  0  0  0  0  0  0  0  0  0  0  0  # atno 17342 bound_to 10162
  140.7353  143.6741  150.8056 LP  0  0  0  0  0  0  0  0  0  0  0  0  # atno 17343 bound_to 10162
  156.0991  130.5955  150.9863 LP  0  0  0  0  0  0  0  0  0  0  0  0  # atno 17370 bound_to 10713
  157.6458  131.0904  150.8155 LP  0  0  0  0  0  0  0  0  0  0  0  0  # atno 17371 bound_to 10713
  139.9848  134.7079  155.9794 LP  0  0  0  0  0  0  0  0  0  0  0  0  # atno 17394 bound_to 11000
  141.1548  133.6544  156.4127 LP  0  0  0  0  0  0  0  0  0  0  0  0  # atno 17395 bound_to 11000

$$$$
