AV-unprocessed.smi:138|AV-procd|sdf|1180|dock7
  -GOLD-   2262018333D 1   1.00000     0.00000
 Structure written by MMmdl.
 52 55  0  0  0  0  0  0  0  0  1 V2000
  150.5914  142.5640  157.3492 C   0  0  0  0  0  0  0  0  0  0  0  0
  150.8999  141.2263  157.9419 C   0  0  0  0  0  0  0  0  0  0  0  0
  150.1661  140.0774  157.9242 C   0  0  0  0  0  0  0  0  0  0  0  0
  150.8842  139.0697  158.6262 C   0  0  0  0  0  0  0  0  0  0  0  0
  150.4762  137.6663  158.8904 C   0  0  0  0  0  0  0  0  0  0  0  0
  151.1235  136.8976  159.6029 O   0  0  0  0  0  0  0  0  0  0  0  0
  149.1651  137.2137  158.2207 C   0  0  0  0  0  0  0  0  0  0  0  0
  148.5836  136.0306  158.8439 N   0  0  0  0  0  0  0  0  0  0  0  0
  148.6278  134.8123  158.1208 C   0  0  0  0  0  0  0  0  0  0  0  0
  149.1414  134.7306  157.0037 O   0  0  0  0  0  0  0  0  0  0  0  0
  148.0036  133.6832  158.8005 C   0  0  0  0  0  0  0  0  0  0  0  0
  147.9777  132.4794  158.2035 F   0  0  0  0  0  0  0  0  0  0  0  0
  147.4452  133.8264  160.0216 C   0  0  0  0  0  0  0  0  0  0  0  0
  147.4282  135.0239  160.7138 N   0  0  0  0  0  0  0  0  0  0  0  0
  146.7296  135.0819  162.0552 C   0  0  1  0  0  0  0  0  0  0  0  0
  145.5188  136.0266  162.0834 C   0  0  0  0  0  0  0  0  0  0  0  0
  144.5938  135.2891  163.0273 C   0  0  0  0  0  0  0  0  0  0  0  0
  144.8930  133.8322  162.6911 C   0  0  0  0  0  0  0  0  0  0  0  0
  146.2880  133.8003  162.3995 O   0  0  0  0  0  0  0  0  0  0  0  0
  147.9792  136.1821  160.1159 C   0  0  0  0  0  0  0  0  0  0  0  0
  147.9231  137.2792  160.6741 O   0  0  0  0  0  0  0  0  0  0  0  0
  152.0686  139.6293  159.0500 C   0  0  0  0  0  0  0  0  0  0  0  0
  153.2191  139.0325  159.8135 C   0  0  0  0  0  0  0  0  0  0  0  0
  152.0692  140.9667  158.6465 N   0  0  0  0  0  0  0  0  0  0  0  0
  153.1196  141.9486  158.8986 C   0  0  0  0  0  0  0  0  0  0  0  0
  152.5909  143.2153  159.4902 C   0  0  0  0  0  0  0  0  0  0  0  0
  152.5908  144.5175  159.0717 C   0  0  0  0  0  0  0  0  0  0  0  0
  151.9334  145.2659  160.0868 C   0  0  0  0  0  0  0  0  0  0  0  0
  151.5796  144.3644  161.0496 C   0  0  0  0  0  0  0  0  0  0  0  0
  151.9722  143.1093  160.7005 O   0  0  0  0  0  0  0  0  0  0  0  0
  149.6690  142.5267  156.7689 H   0  0  0  0  0  0  0  0  0  0  0  0
  151.3889  142.8913  156.6823 H   0  0  0  0  0  0  0  0  0  0  0  0
  150.4635  143.3170  158.1272 H   0  0  0  0  0  0  0  0  0  0  0  0
  149.1988  139.9756  157.4545 H   0  0  0  0  0  0  0  0  0  0  0  0
  148.4202  138.0104  158.2435 H   0  0  0  0  0  0  0  0  0  0  0  0
  149.3206  136.9953  157.1629 H   0  0  0  0  0  0  0  0  0  0  0  0
  146.9933  132.9554  160.4734 H   0  0  0  0  0  0  0  0  0  0  0  0
  147.4895  135.3801  162.7785 H   0  0  0  0  0  0  0  0  0  0  0  0
  145.8044  137.0172  162.4381 H   0  0  0  0  0  0  0  0  0  0  0  0
  145.0626  136.1262  161.0994 H   0  0  0  0  0  0  0  0  0  0  0  0
  144.8704  135.4986  164.0615 H   0  0  0  0  0  0  0  0  0  0  0  0
  143.5444  135.5518  162.8928 H   0  0  0  0  0  0  0  0  0  0  0  0
  144.6424  133.1548  163.5074 H   0  0  0  0  0  0  0  0  0  0  0  0
  144.3306  133.5194  161.8112 H   0  0  0  0  0  0  0  0  0  0  0  0
  153.4165  138.0106  159.4917 H   0  0  0  0  0  0  0  0  0  0  0  0
  153.0042  139.0148  160.8820 H   0  0  0  0  0  0  0  0  0  0  0  0
  154.1506  139.5753  159.6657 H   0  0  0  0  0  0  0  0  0  0  0  0
  153.8585  141.5093  159.5690 H   0  0  0  0  0  0  0  0  0  0  0  0
  153.6633  142.1552  157.9777 H   0  0  0  0  0  0  0  0  0  0  0  0
  153.0148  144.8859  158.1492 H   0  0  0  0  0  0  0  0  0  0  0  0
  151.7439  146.3290  160.1102 H   0  0  0  0  0  0  0  0  0  0  0  0
  151.0701  144.4411  161.9987 H   0  0  0  0  0  0  0  0  0  0  0  0
  1  2  1  0  0  0  0
  1 31  1  0  0  0  0
  1 32  1  0  0  0  0
  1 33  1  0  0  0  0
  2 24  1  0  0  0  0
  2  3  2  0  0  0  0
  3  4  1  0  0  0  0
  3 34  1  0  0  0  0
  4  5  1  0  0  0  0
  4 22  2  0  0  0  0
  5  6  2  0  0  0  0
  5  7  1  0  0  0  0
  7  8  1  0  0  0  0
  7 35  1  0  0  0  0
  7 36  1  0  0  0  0
  8 20  1  0  0  0  0
  8  9  1  0  0  0  0
  9 10  2  0  0  0  0
  9 11  1  0  0  0  0
 11 12  1  0  0  0  0
 11 13  2  0  0  0  0
 13 14  1  0  0  0  0
 13 37  1  0  0  0  0
 14 15  1  0  0  0  0
 14 20  1  0  0  0  0
 15 19  1  0  0  0  0
 15 16  1  0  0  0  0
 15 38  1  0  0  0  0
 16 17  1  0  0  0  0
 16 39  1  0  0  0  0
 16 40  1  0  0  0  0
 17 18  1  0  0  0  0
 17 41  1  0  0  0  0
 17 42  1  0  0  0  0
 18 19  1  0  0  0  0
 18 43  1  0  0  0  0
 18 44  1  0  0  0  0
 20 21  2  0  0  0  0
 22 23  1  0  0  0  0
 22 24  1  0  0  0  0
 23 45  1  0  0  0  0
 23 46  1  0  0  0  0
 23 47  1  0  0  0  0
 24 25  1  0  0  0  0
 25 26  1  0  0  0  0
 25 48  1  0  0  0  0
 25 49  1  0  0  0  0
 26 30  1  0  0  0  0
 26 27  2  0  0  0  0
 27 28  1  0  0  0  0
 27 50  1  0  0  0  0
 28 29  2  0  0  0  0
 28 51  1  0  0  0  0
 29 30  1  0  0  0  0
 29 52  1  0  0  0  0
M  END
> <s_m_source_file>
AV-unprocessed.smi

> <i_m_source_file_index>
138

> <i_lp_mmshare_version>
43012

> <i_f3d_flags>
0

> <s_epik_input>
bzFbY0hdW2NIXVtjSF1jMVtDSDJdbjJjKFtDSDNdKWMoW2NIXWMyW0NIM10pQyg9TylbQ0gyXW4zYyg9TyljKEYpW2NIXW4oYzM9TylbQ0BASF00W0NIMl1bQ0gyXVtDSDJdTzQ=

> <s_epik_cmdline>
J2VwaWtfcHl0aG9uJywgJy1waCcsICc3LjAnLCAnLXRuJywgJzgnLCAnLW1hJywgJzIwMCcsICctbWV0YWxfYmluZGluZycsICctaW1hZScsICc8aW5maWxlLm1hZT4nLCAnLW9tYWUnLCAnPG91dGZpbGUubWFlPic=

> <r_lp_tautomer_probability>
1

> <r_epik_Ionization_Penalty>
5.03107e-09

> <r_epik_Ionization_Penalty_Charging>
5.01743e-09

> <r_epik_Ionization_Penalty_Neutral>
1.36377e-11

> <r_epik_State_Penalty>
-0

> <r_epik_Charging_Adjusted_Penalty>
5.01743e-09

> <i_epik_Tot_Q>
0

> <i_epik_Tot_abs_Q>
0

> <r_epik_Metal_State_Penalty>
-0

> <b_epik_Metal_Only>
0

> <s_epik_Chemistry_Notes>
This compound contains an acetal/aminal-like group ( X-CH(R)-Y where X, Y are N, S, or O) that may be acid/base labile, releasing an aldehyde.

> <s_lp_Force_Field>
OPLS_2005

> <r_lp_Energy>
34.2081

> <b_lp_Chiralities_Consistent>
1

> <s_lp_Variant>
AV-unprocessed.smi:138-2

> <Gold.Version>
5.8.1

> <Gold.Id.Protein>
6NUR|6NUR_protein|mol2

> <Gold.PLP.Fitness>
61.2725

> <Gold.PLP.PLP>
-54.3136

> <Gold.PLP.part.hbond>
-3.2544

> <Gold.PLP.part.metal>
0.0000

> <Gold.PLP.part.buried>
-7.4505

> <Gold.PLP.part.nonpolar>
-43.9547

> <Gold.PLP.part.repulsive>
0.0930

> <Gold.PLP.ligand.clash>
0.0000

> <Gold.PLP.ligand.torsion>
0.4972

> <Gold.PLP.Chemscore.Hbond>
2.5840

> <Gold.PLP.Chemscore.CHOScore>
0.0000

> <Gold.PLP.Chemscore.Metal>
0.0000

> <Gold.Chemscore.Hbonds>
donor molecule, donor type, donor heavy atom, donor atom, acceptor molecule, acceptor atom, score
      P1  H  6896  6909       L1     6  1.00
      P1  H  6931  6943       L1    21  0.77
      P1  H  6934  6947       L1    21  0.78

> <Gold.PLP.Chemscore.Internal.Correction>
0.2012

> <Gold.Rescore>
     Score         DG    S(hbond)    S(metal)    S(lipo)     H(rot)  DE(clash)    DE(int)     intcor
     20.64     -23.26       2.64        0.00     120.19       2.00       0.05       2.57       ----

> <Gold.Chemscore.Fitness>
20.6439

> <Gold.Chemscore.DG>
-23.2650

> <Gold.Chemscore.ZeroCoef>
-5.4800

> <Gold.Chemscore.Hbond>
2.6443

> <Gold.Chemscore.Metal>
0.0000

> <Gold.Chemscore.Lipo>
120.1897

> <Gold.Chemscore.Internal_Hbond>
0.0000

> <Gold.Chemscore.DEClash>
0.0535

> <Gold.Chemscore.DEInternal>
2.5676

> <Gold.Chemscore.Rot>
1.9958

> <Gold.Chemscore.Internal.Correction>
   9.000000E+99

> <Gold.Chemscore.Hbonds>
donor molecule, donor type, donor heavy atom, donor atom, acceptor molecule, acceptor atom, score
      P1  H  6896  6909       L1     6  1.00
      P1  H  6931  6943       L1    21  0.77
      P1  H  6934  6947       L1    21  0.77

> <Gold.Chemscore.Hbond.Weighted>
-8.8320

> <Gold.Chemscore.Metal.Weighted>
-0.0000

> <Gold.Chemscore.Lipo.Weighted>
-14.0622

> <Gold.Chemscore.Internal_Hbond.Weighted>
0.0000

> <Gold.Chemscore.DEClash.Weighted>
0.0535

> <Gold.Chemscore.DEInternal.Weighted>
2.5676

> <Gold.Chemscore.Rot.Weighted>
5.1092

> <Gold.Chemscore.Internal.Correction.Weighted>
   9.000000E+99

> <Gold.Protein.RotatedTorsions>
[ 6907 6896 6895 6894 ] final  115.94 input  -60.11 | X-H torsion
[ 7974 7965 7964 7962 ] final  150.33 input  175.53 | X-H torsion
[ 8008 7997 7996 7995 ] final  148.58 input   59.86 | X-H torsion
[ 10167 10162 10161 10158 ] final   82.64 input  -65.29 | X-H torsion
[ 10718 10713 10712 10709 ] final  -90.35 input   66.30 | X-H torsion
[ 10763 10752 10751 10750 ] final   71.64 input  -60.55 | X-H torsion
[ 11005 11000 10999 10996 ] final   31.32 input  -57.11 | X-H torsion

> <Gold.Protein.ActiveResidues>
 VAL166  LYS551  ARG553  GLY616  TRP617  ASP618  TYR619  PRO620  LYS621  CYS622 
 ASP623  PHE694  ASN695  SER759  ASP760  ASP761  ALA762  ILE779  LEU786  VAL792 
 PHE793  MET794  SER795  GLU796  ALA797  LYS798  CYS799  TRP800  GLU811  SER814 

> <Gold.Protein.RotatedAtoms>
  152.4710  133.8029  159.6962 H   0  0  0  0  0  0  0  0  0  0  0  0  # atno 6907 bound_to 6896
  150.8699  133.7511  159.2971 H   0  0  0  0  0  0  0  0  0  0  0  0  # atno 6908 bound_to 6896
  151.5049  135.1066  159.9891 H   0  0  0  0  0  0  0  0  0  0  0  0  # atno 6909 bound_to 6896
  144.8372  139.6395  143.6033 H   0  0  0  0  0  0  0  0  0  0  0  0  # atno 7974 bound_to 7965
  156.2786  140.2125  156.5721 H   0  0  0  0  0  0  0  0  0  0  0  0  # atno 8008 bound_to 7997
  154.7127  140.0510  157.0588 H   0  0  0  0  0  0  0  0  0  0  0  0  # atno 8009 bound_to 7997
  155.0584  140.3164  155.4672 H   0  0  0  0  0  0  0  0  0  0  0  0  # atno 8010 bound_to 7997
  139.9267  144.6178  150.8385 H   0  0  0  0  0  0  0  0  0  0  0  0  # atno 10167 bound_to 10162
  155.9987  130.4906  150.5310 H   0  0  0  0  0  0  0  0  0  0  0  0  # atno 10718 bound_to 10713
  153.0411  135.5129  154.7623 H   0  0  0  0  0  0  0  0  0  0  0  0  # atno 10763 bound_to 10752
  154.6560  135.2932  154.9929 H   0  0  0  0  0  0  0  0  0  0  0  0  # atno 10764 bound_to 10752
  154.0796  135.6666  153.4888 H   0  0  0  0  0  0  0  0  0  0  0  0  # atno 10765 bound_to 10752
  140.2851  134.2928  155.7790 H   0  0  0  0  0  0  0  0  0  0  0  0  # atno 11005 bound_to 11000
  146.2669  139.6542  142.9323 LP  0  0  0  0  0  0  0  0  0  0  0  0  # atno 17320 bound_to 7965
  145.4770  141.0437  143.2667 LP  0  0  0  0  0  0  0  0  0  0  0  0  # atno 17321 bound_to 7965
  140.7648  143.3259  151.2518 LP  0  0  0  0  0  0  0  0  0  0  0  0  # atno 17342 bound_to 10162
  139.6816  143.9845  152.2811 LP  0  0  0  0  0  0  0  0  0  0  0  0  # atno 17343 bound_to 10162
  157.3259  131.0690  151.1897 LP  0  0  0  0  0  0  0  0  0  0  0  0  # atno 17370 bound_to 10713
  157.2794  130.6743  149.6058 LP  0  0  0  0  0  0  0  0  0  0  0  0  # atno 17371 bound_to 10713
  141.2156  133.7550  156.9540 LP  0  0  0  0  0  0  0  0  0  0  0  0  # atno 17394 bound_to 11000
  140.1247  134.9394  157.2253 LP  0  0  0  0  0  0  0  0  0  0  0  0  # atno 17395 bound_to 11000

$$$$
