AV-unprocessed.smi:1887|AV-procd|sdf|7655|dock7
  -GOLD-   22720 9393D 1   1.00000     0.00000
 Structure written by MMmdl.
 44 46  0  0  0  0  0  0  0  0  1 V2000
  143.9891  134.0853  157.6911 C   0  0  0  0  0  0  0  0  0  0  0  0
  144.7199  134.4585  156.5373 O   0  0  0  0  0  0  0  0  0  0  0  0
  146.1152  134.5405  156.7749 C   0  0  0  0  0  0  0  0  0  0  0  0
  146.4118  135.7430  157.6813 C   0  0  0  0  0  0  0  0  0  0  0  0
  147.8436  136.0084  157.7900 N   0  0  0  0  0  0  0  0  0  0  0  0
  148.6081  136.0724  158.9113 C   0  0  0  0  0  0  0  0  0  0  0  0
  148.0582  135.8667  160.1938 N   0  0  0  0  0  0  0  0  0  0  0  0
  148.2703  136.7697  161.1734 N   0  0  0  0  0  0  0  0  0  0  0  0
  147.6448  136.2783  162.2295 C   0  0  0  0  0  0  0  0  0  0  0  0
  147.6664  137.0565  163.5135 C   0  0  0  0  0  0  0  0  0  0  0  0
  147.0234  135.0241  161.9590 C   0  0  0  0  0  0  0  0  0  0  0  0
  146.2363  134.1678  162.9129 C   0  0  0  0  0  0  0  0  0  0  0  0
  147.3125  134.7912  160.6415 C   0  0  0  0  0  0  0  0  0  0  0  0
  146.9482  133.6380  159.7600 C   0  0  0  0  0  0  0  0  0  0  0  0
  149.9054  136.3084  158.6971 N   0  0  0  0  0  0  0  0  0  0  0  0
  149.9739  136.4084  157.3149 C   0  0  0  0  0  0  0  0  0  0  0  0
  148.7512  136.2248  156.7539 C   0  0  0  0  0  0  0  0  0  0  0  0
  148.5362  136.2515  155.3019 C   0  0  0  0  0  0  0  0  0  0  0  0
  147.4388  136.0775  154.7763 O   0  0  0  0  0  0  0  0  0  0  0  0
  149.6735  136.4797  154.6014 N   0  0  0  0  0  0  0  0  0  0  0  0
  150.9326  136.6737  155.1003 C   0  0  0  0  0  0  0  0  0  0  0  0
  151.8755  136.8649  154.3324 O   0  0  0  0  0  0  0  0  0  0  0  0
  151.0907  136.6429  156.4625 N   0  0  0  0  0  0  0  0  0  0  0  0
  152.4169  136.8416  157.0502 C   0  0  0  0  0  0  0  0  0  0  0  0
  149.5826  136.5063  153.5963 H   0  0  0  0  0  0  0  0  0  0  0  0
  142.9274  134.0349  157.4493 H   0  0  0  0  0  0  0  0  0  0  0  0
  144.1179  134.8143  158.4920 H   0  0  0  0  0  0  0  0  0  0  0  0
  144.2994  133.1049  158.0545 H   0  0  0  0  0  0  0  0  0  0  0  0
  146.4693  133.6209  157.2433 H   0  0  0  0  0  0  0  0  0  0  0  0
  146.6478  134.6511  155.8293 H   0  0  0  0  0  0  0  0  0  0  0  0
  145.9127  136.6361  157.3069 H   0  0  0  0  0  0  0  0  0  0  0  0
  145.9925  135.5701  158.6710 H   0  0  0  0  0  0  0  0  0  0  0  0
  147.1711  136.5144  164.3188 H   0  0  0  0  0  0  0  0  0  0  0  0
  147.1571  138.0136  163.3986 H   0  0  0  0  0  0  0  0  0  0  0  0
  148.6890  137.2590  163.8328 H   0  0  0  0  0  0  0  0  0  0  0  0
  146.0849  133.1584  162.5306 H   0  0  0  0  0  0  0  0  0  0  0  0
  145.2500  134.5887  163.1085 H   0  0  0  0  0  0  0  0  0  0  0  0
  146.7401  134.0680  163.8744 H   0  0  0  0  0  0  0  0  0  0  0  0
  146.0052  133.1901  160.0732 H   0  0  0  0  0  0  0  0  0  0  0  0
  147.7182  132.8675  159.7980 H   0  0  0  0  0  0  0  0  0  0  0  0
  146.8326  133.9476  158.7213 H   0  0  0  0  0  0  0  0  0  0  0  0
  152.8551  137.7797  156.7058 H   0  0  0  0  0  0  0  0  0  0  0  0
  153.0845  136.0279  156.7635 H   0  0  0  0  0  0  0  0  0  0  0  0
  152.3917  136.8778  158.1392 H   0  0  0  0  0  0  0  0  0  0  0  0
  1  2  1  0  0  0  0
  1 26  1  0  0  0  0
  1 27  1  0  0  0  0
  1 28  1  0  0  0  0
  2  3  1  0  0  0  0
  3  4  1  0  0  0  0
  3 29  1  0  0  0  0
  3 30  1  0  0  0  0
  4  5  1  0  0  0  0
  4 31  1  0  0  0  0
  4 32  1  0  0  0  0
  5 17  1  0  0  0  0
  5  6  1  0  0  0  0
  6  7  1  0  0  0  0
  6 15  2  0  0  0  0
  7 13  1  0  0  0  0
  7  8  1  0  0  0  0
  8  9  2  0  0  0  0
  9 10  1  0  0  0  0
  9 11  1  0  0  0  0
 10 33  1  0  0  0  0
 10 34  1  0  0  0  0
 10 35  1  0  0  0  0
 11 12  1  0  0  0  0
 11 13  2  0  0  0  0
 12 36  1  0  0  0  0
 12 37  1  0  0  0  0
 12 38  1  0  0  0  0
 13 14  1  0  0  0  0
 14 39  1  0  0  0  0
 14 40  1  0  0  0  0
 14 41  1  0  0  0  0
 15 16  1  0  0  0  0
 16 23  1  0  0  0  0
 16 17  2  0  0  0  0
 17 18  1  0  0  0  0
 18 19  2  0  0  0  0
 18 20  1  0  0  0  0
 20 25  1  0  0  0  0
 20 21  1  0  0  0  0
 21 22  2  0  0  0  0
 21 23  1  0  0  0  0
 23 24  1  0  0  0  0
 24 42  1  0  0  0  0
 24 43  1  0  0  0  0
 24 44  1  0  0  0  0
M  END
> <s_m_source_file>
AV-unprocessed.smi

> <i_m_source_file_index>
1887

> <i_lp_mmshare_version>
43012

> <i_f3d_flags>
0

> <s_epik_input>
W0NIM11uMWMoPU8pW25IXWMoPU8pYyhjMTIpbihbQ0gyXVtDSDJdT1tDSDNdKWMobjIpLW4zbmMoW0NIM10pYyhbQ0gzXSljM1tDSDNd

> <s_epik_cmdline>
J2VwaWtfcHl0aG9uJywgJy1waCcsICc3LjAnLCAnLXRuJywgJzgnLCAnLW1hJywgJzIwMCcsICctbWV0YWxfYmluZGluZycsICctaW1hZScsICc8aW5maWxlLm1hZT4nLCAnLW9tYWUnLCAnPG91dGZpbGUubWFlPic=

> <r_lp_tautomer_probability>
1

> <r_epik_Ionization_Penalty>
0.00244877

> <r_epik_Ionization_Penalty_Charging>
0.000731299

> <r_epik_Ionization_Penalty_Neutral>
0.00171747

> <r_epik_State_Penalty>
-0

> <r_epik_Charging_Adjusted_Penalty>
0.000731299

> <i_epik_Tot_Q>
0

> <i_epik_Tot_abs_Q>
0

> <r_epik_Metal_State_Penalty>
0.260296

> <b_epik_Metal_Only>
0

> <s_lp_Force_Field>
OPLS_2005

> <r_lp_Energy>
24.2445

> <b_lp_Chiralities_Consistent>
1

> <s_lp_Variant>
AV-unprocessed.smi:1887-1

> <Gold.Version>
5.8.1

> <Gold.Id.Protein>
6NUR|6NUR_protein|mol2

> <Gold.PLP.Fitness>
38.7059

> <Gold.PLP.PLP>
-28.3984

> <Gold.PLP.part.hbond>
-4.2797

> <Gold.PLP.part.metal>
0.0000

> <Gold.PLP.part.buried>
-2.9547

> <Gold.PLP.part.nonpolar>
-22.6020

> <Gold.PLP.part.repulsive>
0.3434

> <Gold.PLP.ligand.clash>
0.0000

> <Gold.PLP.ligand.torsion>
1.0299

> <Gold.PLP.Chemscore.Hbond>
4.0000

> <Gold.PLP.Chemscore.CHOScore>
0.0000

> <Gold.PLP.Chemscore.Metal>
0.0000

> <Gold.Chemscore.Hbonds>
donor molecule, donor type, donor heavy atom, donor atom, acceptor molecule, acceptor atom, score
      L1  H    20    25       P1  7948  1.00
      P1  H  6896  6908       L1    15  1.00
      P1  H  6931  6943       L1     8  1.00
      P1  H 10752 10764       L1    22  1.00

> <Gold.PLP.Chemscore.Internal.Correction>
0.3672

> <Gold.Rescore>
     Score         DG    S(hbond)    S(metal)    S(lipo)     H(rot)  DE(clash)    DE(int)     intcor
     16.13     -18.75       3.18        0.00      55.58       1.50       0.23       2.40       ----

> <Gold.Chemscore.Fitness>
16.1282

> <Gold.Chemscore.DG>
-18.7543

> <Gold.Chemscore.ZeroCoef>
-5.4800

> <Gold.Chemscore.Hbond>
3.1782

> <Gold.Chemscore.Metal>
0.0000

> <Gold.Chemscore.Lipo>
55.5794

> <Gold.Chemscore.Internal_Hbond>
0.0000

> <Gold.Chemscore.DEClash>
0.2303

> <Gold.Chemscore.DEInternal>
2.3957

> <Gold.Chemscore.Rot>
1.5014

> <Gold.Chemscore.Internal.Correction>
   9.000000E+99

> <Gold.Chemscore.Hbonds>
donor molecule, donor type, donor heavy atom, donor atom, acceptor molecule, acceptor atom, score
      L1  H    20    25       P1  7948  0.65
      P1  H  6896  6908       L1    15  0.62
      P1  H  6931  6943       L1     8  0.30
      P1  H 10752 10764       L1    22  0.76

> <Gold.Chemscore.Hbond.Weighted>
-10.6151

> <Gold.Chemscore.Metal.Weighted>
-0.0000

> <Gold.Chemscore.Lipo.Weighted>
-6.5028

> <Gold.Chemscore.Internal_Hbond.Weighted>
0.0000

> <Gold.Chemscore.DEClash.Weighted>
0.2303

> <Gold.Chemscore.DEInternal.Weighted>
2.3957

> <Gold.Chemscore.Rot.Weighted>
3.8437

> <Gold.Chemscore.Internal.Correction.Weighted>
   9.000000E+99

> <Gold.Protein.RotatedTorsions>
[ 6907 6896 6895 6894 ] final -159.01 input  -60.11 | X-H torsion
[ 7974 7965 7964 7962 ] final  -79.35 input  175.53 | X-H torsion
[ 8008 7997 7996 7995 ] final -127.65 input   59.86 | X-H torsion
[ 10167 10162 10161 10158 ] final  -19.38 input  -65.29 | X-H torsion
[ 10718 10713 10712 10709 ] final  148.67 input   66.30 | X-H torsion
[ 10763 10752 10751 10750 ] final  -69.85 input  -60.55 | X-H torsion
[ 11005 11000 10999 10996 ] final   54.40 input  -57.11 | X-H torsion

> <Gold.Protein.ActiveResidues>
 VAL166  LYS551  ARG553  GLY616  TRP617  ASP618  TYR619  PRO620  LYS621  CYS622 
 ASP623  PHE694  ASN695  SER759  ASP760  ASP761  ALA762  ILE779  LEU786  VAL792 
 PHE793  MET794  SER795  GLU796  ALA797  LYS798  CYS799  TRP800  GLU811  SER814 

> <Gold.Protein.RotatedAtoms>
  151.3270  133.4016  159.2659 H   0  0  0  0  0  0  0  0  0  0  0  0  # atno 6907 bound_to 6896
  150.9987  134.9305  159.7951 H   0  0  0  0  0  0  0  0  0  0  0  0  # atno 6908 bound_to 6896
  152.5268  134.3235  159.9209 H   0  0  0  0  0  0  0  0  0  0  0  0  # atno 6909 bound_to 6896
  145.5744  140.9460  143.1378 H   0  0  0  0  0  0  0  0  0  0  0  0  # atno 7974 bound_to 7965
  155.2496  140.0432  157.2985 H   0  0  0  0  0  0  0  0  0  0  0  0  # atno 8008 bound_to 7997
  154.5777  140.2392  155.8068 H   0  0  0  0  0  0  0  0  0  0  0  0  # atno 8009 bound_to 7997
  156.2170  140.2981  155.9871 H   0  0  0  0  0  0  0  0  0  0  0  0  # atno 8010 bound_to 7997
  140.7268  143.4824  151.0100 H   0  0  0  0  0  0  0  0  0  0  0  0  # atno 10167 bound_to 10162
  157.3057  131.0879  151.1356 H   0  0  0  0  0  0  0  0  0  0  0  0  # atno 10718 bound_to 10713
  154.4092  135.6013  153.5943 H   0  0  0  0  0  0  0  0  0  0  0  0  # atno 10763 bound_to 10752
  152.9790  135.5925  154.4090 H   0  0  0  0  0  0  0  0  0  0  0  0  # atno 10764 bound_to 10752
  154.3900  135.2842  155.2139 H   0  0  0  0  0  0  0  0  0  0  0  0  # atno 10765 bound_to 10752
  140.0689  134.5497  155.9068 H   0  0  0  0  0  0  0  0  0  0  0  0  # atno 11005 bound_to 11000
  144.7423  139.7415  143.7306 LP  0  0  0  0  0  0  0  0  0  0  0  0  # atno 17320 bound_to 7965
  146.1761  139.4933  142.9896 LP  0  0  0  0  0  0  0  0  0  0  0  0  # atno 17321 bound_to 7965
  139.8524  143.7421  152.3177 LP  0  0  0  0  0  0  0  0  0  0  0  0  # atno 17342 bound_to 10162
  139.7608  144.7507  151.0367 LP  0  0  0  0  0  0  0  0  0  0  0  0  # atno 17343 bound_to 10162
  157.2697  130.6698  149.6014 LP  0  0  0  0  0  0  0  0  0  0  0  0  # atno 17370 bound_to 10713
  155.9674  130.4483  150.5613 LP  0  0  0  0  0  0  0  0  0  0  0  0  # atno 17371 bound_to 10713
  141.2004  133.6612  156.5894 LP  0  0  0  0  0  0  0  0  0  0  0  0  # atno 17394 bound_to 11000
  140.3657  134.7649  157.4564 LP  0  0  0  0  0  0  0  0  0  0  0  0  # atno 17395 bound_to 11000

$$$$
