AV-unprocessed.smi:732|AV-procd|sdf|3528|dock5
  -GOLD-   22720 0523D 1   1.00000     0.00000
 Structure written by MMmdl.
 34 36  0  0  0  0  0  0  0  0  1 V2000
  150.7122  142.1438  155.8389 C   0  0  0  0  0  0  0  0  0  0  0  0
  150.3072  140.9347  155.0677 C   0  0  0  0  0  0  0  0  0  0  0  0
  149.1536  140.5854  154.4238 C   0  0  0  0  0  0  0  0  0  0  0  0
  149.4565  139.3007  153.8996 C   0  0  0  0  0  0  0  0  0  0  0  0
  148.4984  138.5801  153.1422 N   0  0  0  0  0  0  0  0  0  0  0  0
  147.1999  138.8779  152.9657 C   0  0  0  0  0  0  0  0  0  0  0  0
  146.6277  139.8620  153.4353 O   0  0  0  0  0  0  0  0  0  0  0  0
  146.5942  137.9591  152.2019 N   0  0  0  0  0  0  0  0  0  0  0  0
  145.2198  137.9756  151.8098 C   0  0  2  0  0  0  0  0  0  0  0  0
  144.3306  136.8014  152.1802 C   0  0  2  0  0  0  0  0  0  0  0  0
  144.8276  135.5203  152.8330 C   0  0  0  0  0  0  0  0  0  0  0  0
  144.5733  134.3030  151.9222 C   0  0  0  0  0  0  0  0  0  0  0  0
  145.0080  134.5078  150.4478 C   0  0  0  0  0  0  0  0  0  0  0  0
  145.6062  135.8968  150.1494 C   0  0  0  0  0  0  0  0  0  0  0  0
  144.7462  137.0021  150.7442 C   0  0  2  0  0  0  0  0  0  0  0  0
  150.6835  138.9012  154.1972 N   0  0  0  0  0  0  0  0  0  0  0  0
  151.2350  139.9467  154.9471 O   0  0  0  0  0  0  0  0  0  0  0  0
  149.8569  142.7950  156.0199 H   0  0  0  0  0  0  0  0  0  0  0  0
  151.4634  142.7154  155.2937 H   0  0  0  0  0  0  0  0  0  0  0  0
  151.1339  141.8640  156.8045 H   0  0  0  0  0  0  0  0  0  0  0  0
  148.2423  141.1590  154.3423 H   0  0  0  0  0  0  0  0  0  0  0  0
  148.8377  137.7446  152.6891 H   0  0  0  0  0  0  0  0  0  0  0  0
  147.1476  137.1851  151.8643 H   0  0  0  0  0  0  0  0  0  0  0  0
  144.7300  138.9483  151.7996 H   0  0  0  0  0  0  0  0  0  0  0  0
  143.2873  137.0260  152.3934 H   0  0  0  0  0  0  0  0  0  0  0  0
  145.8945  135.5957  153.0415 H   0  0  0  0  0  0  0  0  0  0  0  0
  144.3346  135.3912  153.7969 H   0  0  0  0  0  0  0  0  0  0  0  0
  145.0735  133.4279  152.3381 H   0  0  0  0  0  0  0  0  0  0  0  0
  143.5080  134.0698  151.9408 H   0  0  0  0  0  0  0  0  0  0  0  0
  145.7241  133.7366  150.1627 H   0  0  0  0  0  0  0  0  0  0  0  0
  144.1397  134.3560  149.8054 H   0  0  0  0  0  0  0  0  0  0  0  0
  146.6150  135.9469  150.5585 H   0  0  0  0  0  0  0  0  0  0  0  0
  145.7031  136.0532  149.0747 H   0  0  0  0  0  0  0  0  0  0  0  0
  143.9554  137.3475  150.0809 H   0  0  0  0  0  0  0  0  0  0  0  0
  1  2  1  0  0  0  0
  1 18  1  0  0  0  0
  1 19  1  0  0  0  0
  1 20  1  0  0  0  0
  2 17  1  0  0  0  0
  2  3  2  0  0  0  0
  3  4  1  0  0  0  0
  3 21  1  0  0  0  0
  4  5  1  0  0  0  0
  4 16  2  0  0  0  0
  5  6  1  0  0  0  0
  5 22  1  0  0  0  0
  6  7  2  0  0  0  0
  6  8  1  0  0  0  0
  8  9  1  0  0  0  0
  8 23  1  0  0  0  0
  9 15  1  0  0  0  0
  9 10  1  0  0  0  0
  9 24  1  0  0  0  0
 10 15  1  0  0  0  0
 10 11  1  0  0  0  0
 10 25  1  0  0  0  0
 11 12  1  0  0  0  0
 11 26  1  0  0  0  0
 11 27  1  0  0  0  0
 12 13  1  0  0  0  0
 12 28  1  0  0  0  0
 12 29  1  0  0  0  0
 13 14  1  0  0  0  0
 13 30  1  0  0  0  0
 13 31  1  0  0  0  0
 14 15  1  0  0  0  0
 14 32  1  0  0  0  0
 14 33  1  0  0  0  0
 15 34  1  0  0  0  0
 16 17  1  0  0  0  0
M  END
> <s_m_source_file>
AV-unprocessed.smi

> <i_m_source_file_index>
732

> <i_lp_mmshare_version>
43012

> <i_f3d_flags>
0

> <s_epik_input>
W0NIM11jMVtjSF1jKG5vMSlbTkhdQyg9TylbTkhdW0NASF0yW0NAQEhdKFtDQEBIXTIzKVtDSDJdW0NIMl1bQ0gyXVtDSDJdMw==

> <s_epik_cmdline>
J2VwaWtfcHl0aG9uJywgJy1waCcsICc3LjAnLCAnLXRuJywgJzgnLCAnLW1hJywgJzIwMCcsICctbWV0YWxfYmluZGluZycsICctaW1hZScsICc8aW5maWxlLm1hZT4nLCAnLW9tYWUnLCAnPG91dGZpbGUubWFlPic=

> <r_lp_tautomer_probability>
1

> <r_epik_Ionization_Penalty>
2.39506e-05

> <r_epik_Ionization_Penalty_Charging>
0

> <r_epik_Ionization_Penalty_Neutral>
2.39506e-05

> <r_epik_State_Penalty>
-0

> <r_epik_Charging_Adjusted_Penalty>
0

> <i_epik_Tot_Q>
0

> <i_epik_Tot_abs_Q>
0

> <r_epik_Metal_State_Penalty>
-0

> <b_epik_Metal_Only>
0

> <s_lp_Force_Field>
OPLS_2005

> <r_lp_Energy>
36.3442

> <b_lp_Chiralities_Consistent>
1

> <s_lp_Variant>
AV-unprocessed.smi:732-2

> <Gold.Version>
5.8.1

> <Gold.Id.Protein>
6NUR|6NUR_protein|mol2

> <Gold.PLP.Fitness>
32.4035

> <Gold.PLP.PLP>
-24.9615

> <Gold.PLP.part.hbond>
-4.2405

> <Gold.PLP.part.metal>
0.0000

> <Gold.PLP.part.buried>
-1.5464

> <Gold.PLP.part.nonpolar>
-19.2720

> <Gold.PLP.part.repulsive>
0.4323

> <Gold.PLP.ligand.clash>
0.0000

> <Gold.PLP.ligand.torsion>
0.0746

> <Gold.PLP.Chemscore.Hbond>
2.5160

> <Gold.PLP.Chemscore.CHOScore>
0.0000

> <Gold.PLP.Chemscore.Metal>
0.0000

> <Gold.Chemscore.Hbonds>
donor molecule, donor type, donor heavy atom, donor atom, acceptor molecule, acceptor atom, score
      L1  H     5    22       P1  7948  1.00
      L1  H     8    23       P1  7948  0.96
      P1  H  7989  7998       L1    17  0.06

> <Gold.PLP.Chemscore.Internal.Correction>
0.0432

> <Gold.Rescore>
     Score         DG    S(hbond)    S(metal)    S(lipo)     H(rot)  DE(clash)    DE(int)     intcor
     14.21     -15.69       1.94        0.00      53.59       1.00       0.01       1.46       ----

> <Gold.Chemscore.Fitness>
14.2124

> <Gold.Chemscore.DG>
-15.6850

> <Gold.Chemscore.ZeroCoef>
-5.4800

> <Gold.Chemscore.Hbond>
1.9445

> <Gold.Chemscore.Metal>
0.0000

> <Gold.Chemscore.Lipo>
53.5918

> <Gold.Chemscore.Internal_Hbond>
0.0000

> <Gold.Chemscore.DEClash>
0.0119

> <Gold.Chemscore.DEInternal>
1.4607

> <Gold.Chemscore.Rot>
1.0000

> <Gold.Chemscore.Internal.Correction>
   9.000000E+99

> <Gold.Chemscore.Hbonds>
donor molecule, donor type, donor heavy atom, donor atom, acceptor molecule, acceptor atom, score
      L1  H     5    22       P1  7948  1.00
      L1  H     8    23       P1  7948  0.87

> <Gold.Chemscore.Hbond.Weighted>
-6.4948

> <Gold.Chemscore.Metal.Weighted>
-0.0000

> <Gold.Chemscore.Lipo.Weighted>
-6.2702

> <Gold.Chemscore.Internal_Hbond.Weighted>
0.0000

> <Gold.Chemscore.DEClash.Weighted>
0.0119

> <Gold.Chemscore.DEInternal.Weighted>
1.4607

> <Gold.Chemscore.Rot.Weighted>
2.5600

> <Gold.Chemscore.Internal.Correction.Weighted>
   9.000000E+99

> <Gold.Protein.RotatedTorsions>
[ 6907 6896 6895 6894 ] final -120.27 input  -60.11 | X-H torsion
[ 7974 7965 7964 7962 ] final -175.74 input  175.53 | X-H torsion
[ 8008 7997 7996 7995 ] final -153.90 input   59.86 | X-H torsion
[ 10167 10162 10161 10158 ] final -160.61 input  -65.29 | X-H torsion
[ 10718 10713 10712 10709 ] final -166.84 input   66.30 | X-H torsion
[ 10763 10752 10751 10750 ] final  -22.24 input  -60.55 | X-H torsion
[ 11005 11000 10999 10996 ] final   46.74 input  -57.11 | X-H torsion

> <Gold.Protein.ActiveResidues>
 VAL166  LYS551  ARG553  GLY616  TRP617  ASP618  TYR619  PRO620  LYS621  CYS622 
 ASP623  PHE694  ASN695  SER759  ASP760  ASP761  ALA762  ILE779  LEU786  VAL792 
 PHE793  MET794  SER795  GLU796  ALA797  LYS798  CYS799  TRP800  GLU811  SER814 

> <Gold.Protein.RotatedAtoms>
  150.8378  133.7985  159.3072 H   0  0  0  0  0  0  0  0  0  0  0  0  # atno 6907 bound_to 6896
  151.5695  135.1061  160.0001 H   0  0  0  0  0  0  0  0  0  0  0  0  # atno 6908 bound_to 6896
  152.4447  133.7472  159.6730 H   0  0  0  0  0  0  0  0  0  0  0  0  # atno 6909 bound_to 6896
  144.7127  140.1275  143.6401 H   0  0  0  0  0  0  0  0  0  0  0  0  # atno 7974 bound_to 7965
  155.6781  140.0741  157.2495 H   0  0  0  0  0  0  0  0  0  0  0  0  # atno 8008 bound_to 7997
  154.4110  140.1687  156.2004 H   0  0  0  0  0  0  0  0  0  0  0  0  # atno 8009 bound_to 7997
  155.9559  140.3373  155.6451 H   0  0  0  0  0  0  0  0  0  0  0  0  # atno 8010 bound_to 7997
  139.6527  144.0055  152.2172 H   0  0  0  0  0  0  0  0  0  0  0  0  # atno 10167 bound_to 10162
  156.6737  130.9094  151.3047 H   0  0  0  0  0  0  0  0  0  0  0  0  # atno 10718 bound_to 10713
  153.6489  135.6982  153.5216 H   0  0  0  0  0  0  0  0  0  0  0  0  # atno 10763 bound_to 10752
  153.2723  135.4211  155.0998 H   0  0  0  0  0  0  0  0  0  0  0  0  # atno 10764 bound_to 10752
  154.8481  135.3581  154.6033 H   0  0  0  0  0  0  0  0  0  0  0  0  # atno 10765 bound_to 10752
  140.1342  134.4667  155.8498 H   0  0  0  0  0  0  0  0  0  0  0  0  # atno 11005 bound_to 11000
  145.9316  139.2610  143.1322 LP  0  0  0  0  0  0  0  0  0  0  0  0  # atno 17320 bound_to 7965
  145.9517  140.8903  143.0256 LP  0  0  0  0  0  0  0  0  0  0  0  0  # atno 17321 bound_to 7965
  139.9774  144.6452  150.7933 LP  0  0  0  0  0  0  0  0  0  0  0  0  # atno 17342 bound_to 10162
  140.7545  143.3028  151.3037 LP  0  0  0  0  0  0  0  0  0  0  0  0  # atno 17343 bound_to 10162
  157.7068  130.9394  150.0957 LP  0  0  0  0  0  0  0  0  0  0  0  0  # atno 17370 bound_to 10713
  156.1919  130.3655  149.8899 LP  0  0  0  0  0  0  0  0  0  0  0  0  # atno 17371 bound_to 10713
  141.2175  133.6807  156.7125 LP  0  0  0  0  0  0  0  0  0  0  0  0  # atno 17394 bound_to 11000
  140.2804  134.8321  157.3928 LP  0  0  0  0  0  0  0  0  0  0  0  0  # atno 17395 bound_to 11000

$$$$
