AV-unprocessed.smi:109|AV-procd|sdf|1042|dock3
  -GOLD-   2262018 73D 1   1.00000     0.00000
 Structure written by MMmdl.
 58 61  0  0  0  0  0  0  0  0  1 V2000
  145.6615  135.9581  156.1482 O   0  0  0  0  0  0  0  0  0  0  0  0
  146.9183  136.5805  156.3059 C   0  0  0  0  0  0  0  0  0  0  0  0
  147.2929  136.6261  157.7957 C   0  0  0  0  0  0  0  0  0  0  0  0
  147.0799  135.2751  158.5145 C   0  0  1  0  0  0  0  0  0  0  0  0
  148.2036  134.3821  158.2317 N   0  0  0  0  0  0  0  0  0  0  0  0
  148.5369  134.0434  156.9664 C   0  0  0  0  0  0  0  0  0  0  0  0
  149.8094  134.1776  156.5104 N   0  0  0  0  0  0  0  0  0  0  0  0
  150.1079  133.8353  155.2542 C   0  0  0  0  0  0  0  0  0  0  0  0
  149.3014  133.3480  154.3093 N   0  0  0  0  0  0  0  0  0  0  0  0
  148.0210  133.2093  154.7600 C   0  0  0  0  0  0  0  0  0  0  0  0
  147.5648  133.5308  156.0693 C   0  0  0  0  0  0  0  0  0  0  0  0
  146.2076  133.2589  156.1762 N   0  0  0  0  0  0  0  0  0  0  0  0
  145.8837  132.8053  154.9956 C   0  0  0  0  0  0  0  0  0  0  0  0
  146.9118  132.7400  154.0813 N   0  0  0  0  0  0  0  0  0  0  0  0
  146.8258  132.2620  152.6616 C   0  0  1  0  0  0  0  0  0  0  0  0
  145.5221  131.8442  152.3833 O   0  0  0  0  0  0  0  0  0  0  0  0
  144.9568  132.6271  151.3327 C   0  0  2  0  0  0  0  0  0  0  0  0
  143.9250  131.8150  150.5305 C   0  0  0  0  0  0  0  0  0  0  0  0
  143.4212  132.5886  149.4627 O   0  0  0  0  0  0  0  0  0  0  0  0
  146.1759  133.1187  150.5396 C   0  0  2  0  0  0  0  0  0  0  0  0
  146.6259  132.1369  149.6227 O   0  0  0  0  0  0  0  0  0  0  0  0
  147.2120  133.3411  151.6298 C   0  0  1  0  0  0  0  0  0  0  0  0
  147.1366  134.6660  152.1267 O   0  0  0  0  0  0  0  0  0  0  0  0
  146.8492  135.4037  160.0464 C   0  0  0  0  0  0  0  0  0  0  0  0
  147.8989  136.3003  160.7383 C   0  0  0  0  0  0  0  0  0  0  0  0
  147.5760  136.4928  162.2293 C   0  0  0  0  0  0  0  0  0  0  0  0
  147.4568  135.1416  162.9517 C   0  0  0  0  0  0  0  0  0  0  0  0
  146.4190  134.2369  162.2691 C   0  0  0  0  0  0  0  0  0  0  0  0
  146.7396  134.0462  160.7775 C   0  0  0  0  0  0  0  0  0  0  0  0
  147.4837  131.3928  152.6253 H   0  0  0  0  0  0  0  0  0  0  0  0
  144.4753  133.5035  151.7686 H   0  0  0  0  0  0  0  0  0  0  0  0
  145.9570  134.0283  149.9783 H   0  0  0  0  0  0  0  0  0  0  0  0
  148.2313  133.1684  151.2815 H   0  0  0  0  0  0  0  0  0  0  0  0
  145.0700  136.5729  155.7418 H   0  0  0  0  0  0  0  0  0  0  0  0
  147.6642  136.0227  155.7387 H   0  0  0  0  0  0  0  0  0  0  0  0
  146.8687  137.5839  155.8825 H   0  0  0  0  0  0  0  0  0  0  0  0
  148.3305  136.9464  157.8988 H   0  0  0  0  0  0  0  0  0  0  0  0
  146.6881  137.3987  158.2688 H   0  0  0  0  0  0  0  0  0  0  0  0
  146.1795  134.8358  158.0835 H   0  0  0  0  0  0  0  0  0  0  0  0
  148.6200  133.9402  159.0387 H   0  0  0  0  0  0  0  0  0  0  0  0
  151.1391  133.9717  154.9640 H   0  0  0  0  0  0  0  0  0  0  0  0
  144.8747  132.5012  154.7570 H   0  0  0  0  0  0  0  0  0  0  0  0
  144.3967  130.9326  150.0969 H   0  0  0  0  0  0  0  0  0  0  0  0
  143.1084  131.4706  151.1656 H   0  0  0  0  0  0  0  0  0  0  0  0
  142.5853  132.9471  149.7184 H   0  0  0  0  0  0  0  0  0  0  0  0
  147.5547  132.0139  149.7466 H   0  0  0  0  0  0  0  0  0  0  0  0
  147.7771  135.1920  151.6727 H   0  0  0  0  0  0  0  0  0  0  0  0
  145.8930  135.9111  160.1823 H   0  0  0  0  0  0  0  0  0  0  0  0
  148.8942  135.8660  160.6484 H   0  0  0  0  0  0  0  0  0  0  0  0
  147.9400  137.2730  160.2472 H   0  0  0  0  0  0  0  0  0  0  0  0
  148.3491  137.0995  162.7013 H   0  0  0  0  0  0  0  0  0  0  0  0
  146.6420  137.0468  162.3326 H   0  0  0  0  0  0  0  0  0  0  0  0
  148.4272  134.6439  162.9580 H   0  0  0  0  0  0  0  0  0  0  0  0
  147.1832  135.3001  163.9949 H   0  0  0  0  0  0  0  0  0  0  0  0
  146.3850  133.2683  162.7685 H   0  0  0  0  0  0  0  0  0  0  0  0
  145.4257  134.6747  162.3760 H   0  0  0  0  0  0  0  0  0  0  0  0
  145.9651  133.4305  160.3191 H   0  0  0  0  0  0  0  0  0  0  0  0
  147.6732  133.4907  160.6845 H   0  0  0  0  0  0  0  0  0  0  0  0
  1  2  1  0  0  0  0
  1 34  1  0  0  0  0
  2  3  1  0  0  0  0
  2 35  1  0  0  0  0
  2 36  1  0  0  0  0
  3  4  1  0  0  0  0
  3 37  1  0  0  0  0
  3 38  1  0  0  0  0
  4  5  1  0  0  0  0
  4 24  1  0  0  0  0
  4 39  1  0  0  0  0
  5  6  1  0  0  0  0
  5 40  1  0  0  0  0
  6 11  1  0  0  0  0
  6  7  2  0  0  0  0
  7  8  1  0  0  0  0
  8  9  2  0  0  0  0
  8 41  1  0  0  0  0
  9 10  1  0  0  0  0
 10 14  1  0  0  0  0
 10 11  2  0  0  0  0
 11 12  1  0  0  0  0
 12 13  2  0  0  0  0
 13 14  1  0  0  0  0
 13 42  1  0  0  0  0
 14 15  1  0  0  0  0
 15 30  1  0  0  0  0
 15 22  1  0  0  0  0
 15 16  1  0  0  0  0
 16 17  1  0  0  0  0
 17 31  1  0  0  0  0
 17 18  1  0  0  0  0
 17 20  1  0  0  0  0
 18 19  1  0  0  0  0
 18 43  1  0  0  0  0
 18 44  1  0  0  0  0
 19 45  1  0  0  0  0
 20 32  1  0  0  0  0
 20 21  1  0  0  0  0
 20 22  1  0  0  0  0
 21 46  1  0  0  0  0
 22 33  1  0  0  0  0
 22 23  1  0  0  0  0
 23 47  1  0  0  0  0
 24 29  1  0  0  0  0
 24 25  1  0  0  0  0
 24 48  1  0  0  0  0
 25 26  1  0  0  0  0
 25 49  1  0  0  0  0
 25 50  1  0  0  0  0
 26 27  1  0  0  0  0
 26 51  1  0  0  0  0
 26 52  1  0  0  0  0
 27 28  1  0  0  0  0
 27 53  1  0  0  0  0
 27 54  1  0  0  0  0
 28 29  1  0  0  0  0
 28 55  1  0  0  0  0
 28 56  1  0  0  0  0
 29 57  1  0  0  0  0
 29 58  1  0  0  0  0
M  END
> <s_m_source_file>
AV-unprocessed.smi

> <i_m_source_file_index>
109

> <i_lp_mmshare_version>
43012

> <i_f3d_flags>
0

> <s_epik_input>
W0NIMl0xW0NIMl1bQ0gyXVtDSDJdW0NIMl1bQ0hdMVtDQEhdKFtDSDJdW0NIMl1bT0hdKVtOSF1jKG5bY0hdbjIpYyhjMjMpbltjSF1uM1tDQEBIXTRPW0NASF0oW0NIMl1bT0hdKVtDQEBIXShbT0hdKVtDQEhdNFtPSF0=

> <s_epik_cmdline>
J2VwaWtfcHl0aG9uJywgJy1waCcsICc3LjAnLCAnLXRuJywgJzgnLCAnLW1hJywgJzIwMCcsICctbWV0YWxfYmluZGluZycsICctaW1hZScsICc8aW5maWxlLm1hZT4nLCAnLW9tYWUnLCAnPG91dGZpbGUubWFlPic=

> <r_lp_tautomer_probability>
1

> <r_epik_Ionization_Penalty>
0.000793976

> <r_epik_Ionization_Penalty_Charging>
0

> <r_epik_Ionization_Penalty_Neutral>
0.000793976

> <r_epik_State_Penalty>
-0

> <r_epik_Charging_Adjusted_Penalty>
0

> <i_epik_Tot_Q>
0

> <i_epik_Tot_abs_Q>
0

> <r_epik_Metal_State_Penalty>
-0

> <b_epik_Metal_Only>
0

> <s_epik_Chemistry_Notes>
This compound contains an acetal/aminal-like group ( X-CH(R)-Y where X, Y are N, S, or O) that may be acid/base labile, releasing an aldehyde.

> <s_lp_Force_Field>
OPLS_2005

> <r_lp_Energy>
56.1563

> <b_lp_Chiralities_Consistent>
1

> <s_lp_Variant>
AV-unprocessed.smi:109-12

> <Gold.Version>
5.8.1

> <Gold.Id.Protein>
6NUR|6NUR_protein|mol2

> <Gold.PLP.Fitness>
48.7563

> <Gold.PLP.PLP>
-38.2045

> <Gold.PLP.part.hbond>
-2.6905

> <Gold.PLP.part.metal>
0.0000

> <Gold.PLP.part.buried>
-7.2169

> <Gold.PLP.part.nonpolar>
-29.1037

> <Gold.PLP.part.repulsive>
0.3942

> <Gold.PLP.ligand.clash>
0.0000

> <Gold.PLP.ligand.torsion>
0.8602

> <Gold.PLP.Chemscore.Hbond>
2.9833

> <Gold.PLP.Chemscore.CHOScore>
1.0000

> <Gold.PLP.Chemscore.Metal>
0.0000

> <Gold.Chemscore.Hbonds>
donor molecule, donor type, donor heavy atom, donor atom, acceptor molecule, acceptor atom, score
      L1  H    19    45       P1 10186  0.67
      L1  H    21    46       P1 10747  0.98
      L1  H    23    47       P1  7948  0.92
      L1  C    13    42       P1 10957  1.00

> <Gold.PLP.Chemscore.Internal.Correction>
0.3225

> <Gold.Rescore>
     Score         DG    S(hbond)    S(metal)    S(lipo)     H(rot)  DE(clash)    DE(int)     intcor
      9.19     -10.17       2.82        0.00      79.23       5.47       0.01       0.97       ----

> <Gold.Chemscore.Fitness>
9.1918

> <Gold.Chemscore.DG>
-10.1690

> <Gold.Chemscore.ZeroCoef>
-5.4800

> <Gold.Chemscore.Hbond>
2.8183

> <Gold.Chemscore.Metal>
0.0000

> <Gold.Chemscore.Lipo>
79.2264

> <Gold.Chemscore.Internal_Hbond>
0.0000

> <Gold.Chemscore.DEClash>
0.0069

> <Gold.Chemscore.DEInternal>
0.9703

> <Gold.Chemscore.Rot>
5.4662

> <Gold.Chemscore.Internal.Correction>
   9.000000E+99

> <Gold.Chemscore.Hbonds>
donor molecule, donor type, donor heavy atom, donor atom, acceptor molecule, acceptor atom, score
      L1  H    19    45       P1 10186  0.64
      L1  H    21    46       P1 10747  0.93
      L1  H    23    47       P1  7948  0.54

> <Gold.Chemscore.Hbond.Weighted>
-9.4130

> <Gold.Chemscore.Metal.Weighted>
-0.0000

> <Gold.Chemscore.Lipo.Weighted>
-9.2695

> <Gold.Chemscore.Internal_Hbond.Weighted>
0.0000

> <Gold.Chemscore.DEClash.Weighted>
0.0069

> <Gold.Chemscore.DEInternal.Weighted>
0.9703

> <Gold.Chemscore.Rot.Weighted>
13.9935

> <Gold.Chemscore.Internal.Correction.Weighted>
   9.000000E+99

> <Gold.Protein.RotatedTorsions>
[ 6907 6896 6895 6894 ] final  -54.13 input  -60.11 | X-H torsion
[ 7974 7965 7964 7962 ] final  177.07 input  175.53 | X-H torsion
[ 8008 7997 7996 7995 ] final  134.09 input   59.86 | X-H torsion
[ 10167 10162 10161 10158 ] final  -20.62 input  -65.29 | X-H torsion
[ 10718 10713 10712 10709 ] final -168.93 input   66.30 | X-H torsion
[ 10763 10752 10751 10750 ] final  -19.88 input  -60.55 | X-H torsion
[ 11005 11000 10999 10996 ] final   31.97 input  -57.11 | X-H torsion

> <Gold.Protein.ActiveResidues>
 VAL166  LYS551  ARG553  GLY616  TRP617  ASP618  TYR619  PRO620  LYS621  CYS622 
 ASP623  PHE694  ASN695  SER759  ASP760  ASP761  ALA762  ILE779  LEU786  VAL792 
 PHE793  MET794  SER795  GLU796  ALA797  LYS798  CYS799  TRP800  GLU811  SER814 

> <Gold.Protein.RotatedAtoms>
  150.8365  134.7640  159.6896 H   0  0  0  0  0  0  0  0  0  0  0  0  # atno 6907 bound_to 6896
  152.4461  134.5489  159.9870 H   0  0  0  0  0  0  0  0  0  0  0  0  # atno 6908 bound_to 6896
  151.5638  133.3362  159.3012 H   0  0  0  0  0  0  0  0  0  0  0  0  # atno 6909 bound_to 6896
  144.7174  140.0191  143.6440 H   0  0  0  0  0  0  0  0  0  0  0  0  # atno 7974 bound_to 7965
  156.2997  140.2505  156.3361 H   0  0  0  0  0  0  0  0  0  0  0  0  # atno 8008 bound_to 7997
  154.9099  140.0403  157.1960 H   0  0  0  0  0  0  0  0  0  0  0  0  # atno 8009 bound_to 7997
  154.8415  140.2891  155.5660 H   0  0  0  0  0  0  0  0  0  0  0  0  # atno 8010 bound_to 7997
  140.7277  143.4705  151.0253 H   0  0  0  0  0  0  0  0  0  0  0  0  # atno 10167 bound_to 10162
  156.7041  130.9208  151.3083 H   0  0  0  0  0  0  0  0  0  0  0  0  # atno 10718 bound_to 10713
  153.6117  135.6996  153.5344 H   0  0  0  0  0  0  0  0  0  0  0  0  # atno 10763 bound_to 10752
  153.3011  135.4128  155.1253 H   0  0  0  0  0  0  0  0  0  0  0  0  # atno 10764 bound_to 10752
  154.8562  135.3649  154.5655 H   0  0  0  0  0  0  0  0  0  0  0  0  # atno 10765 bound_to 10752
  140.2783  134.3002  155.7808 H   0  0  0  0  0  0  0  0  0  0  0  0  # atno 11005 bound_to 11000
  146.0195  139.3239  143.0821 LP  0  0  0  0  0  0  0  0  0  0  0  0  # atno 17320 bound_to 7965
  145.8585  140.9489  143.0712 LP  0  0  0  0  0  0  0  0  0  0  0  0  # atno 17321 bound_to 7965
  139.8397  143.7581  152.3180 LP  0  0  0  0  0  0  0  0  0  0  0  0  # atno 17342 bound_to 10162
  139.7725  144.7472  151.0204 LP  0  0  0  0  0  0  0  0  0  0  0  0  # atno 17343 bound_to 10162
  157.6962  130.9284  150.0651 LP  0  0  0  0  0  0  0  0  0  0  0  0  # atno 17370 bound_to 10713
  156.1708  130.3646  149.9168 LP  0  0  0  0  0  0  0  0  0  0  0  0  # atno 17371 bound_to 10713
  141.2167  133.7509  156.9441 LP  0  0  0  0  0  0  0  0  0  0  0  0  # atno 17394 bound_to 11000
  140.1308  134.9357  157.2334 LP  0  0  0  0  0  0  0  0  0  0  0  0  # atno 17395 bound_to 11000

$$$$
