AV-unprocessed.smi:1184|AV-procd|sdf|4972|dock4
  -GOLD-   22720 3563D 1   1.00000     0.00000
 Structure written by MMmdl.
 43 44  0  0  0  0  0  0  0  0  2 V2000
  143.9889  132.2129  151.6626 C   0  0  0  0  0  0  0  0  0  0  0  0
  142.6504  132.9068  151.3707 C   0  0  0  0  0  0  0  0  0  0  0  0
  142.8112  134.3625  151.1467 N   0  3  2  0  0  0  0  0  0  0  0  0
  143.9641  134.7321  150.2912 C   0  0  0  0  0  0  0  0  0  0  0  0
  144.6342  135.9503  150.9446 C   0  0  0  0  0  0  0  0  0  0  0  0
  143.6052  136.4638  151.9504 C   0  0  2  0  0  0  0  0  0  0  0  0
  144.2009  137.2953  153.1039 C   0  0  0  0  0  0  0  0  0  0  0  0
  145.1375  138.2883  152.5896 N   0  0  0  0  0  0  0  0  0  0  0  0
  146.3732  138.5033  153.0677 C   0  0  0  0  0  0  0  0  0  0  0  0
  146.9316  137.7614  153.8754 O   0  0  0  0  0  0  0  0  0  0  0  0
  147.0481  139.8012  152.6310 C   0  0  0  0  0  0  0  0  0  0  0  0
  147.8940  140.3006  153.7759 C   0  0  0  0  0  0  0  0  0  0  0  0
  147.7679  141.5262  154.4910 C   0  0  0  0  0  0  0  0  0  0  0  0
  146.7817  142.6380  154.2742 C   0  0  0  0  0  0  0  0  0  0  0  0
  148.6557  141.6224  155.4663 N   0  0  0  0  0  0  0  0  0  0  0  0
  149.4072  140.4445  155.4191 O   0  0  0  0  0  0  0  0  0  0  0  0
  148.9363  139.6755  154.4050 C   0  0  0  0  0  0  0  0  0  0  0  0
  149.6004  138.3554  154.2056 C   0  0  0  0  0  0  0  0  0  0  0  0
  142.9006  135.1745  152.3757 C   0  0  0  0  0  0  0  0  0  0  0  0
  143.8332  131.1590  151.8946 H   0  0  0  0  0  0  0  0  0  0  0  0
  144.4928  132.6685  152.5158 H   0  0  0  0  0  0  0  0  0  0  0  0
  144.6644  132.2619  150.8081 H   0  0  0  0  0  0  0  0  0  0  0  0
  142.1667  132.4482  150.5070 H   0  0  0  0  0  0  0  0  0  0  0  0
  141.9839  132.7574  152.2210 H   0  0  0  0  0  0  0  0  0  0  0  0
  144.6782  133.9132  150.1906 H   0  0  0  0  0  0  0  0  0  0  0  0
  143.5961  134.9738  149.2937 H   0  0  0  0  0  0  0  0  0  0  0  0
  145.5383  135.6303  151.4645 H   0  0  0  0  0  0  0  0  0  0  0  0
  144.9229  136.7104  150.2179 H   0  0  0  0  0  0  0  0  0  0  0  0
  142.8822  137.0794  151.4121 H   0  0  0  0  0  0  0  0  0  0  0  0
  143.4094  137.7676  153.6883 H   0  0  0  0  0  0  0  0  0  0  0  0
  144.7390  136.6410  153.7902 H   0  0  0  0  0  0  0  0  0  0  0  0
  144.7754  138.9442  151.9124 H   0  0  0  0  0  0  0  0  0  0  0  0
  147.6496  139.6130  151.7410 H   0  0  0  0  0  0  0  0  0  0  0  0
  146.2889  140.5280  152.3400 H   0  0  0  0  0  0  0  0  0  0  0  0
  145.7782  142.2451  154.1109 H   0  0  0  0  0  0  0  0  0  0  0  0
  147.0521  143.2322  153.4014 H   0  0  0  0  0  0  0  0  0  0  0  0
  146.7352  143.3097  155.1321 H   0  0  0  0  0  0  0  0  0  0  0  0
  149.5322  138.0378  153.1650 H   0  0  0  0  0  0  0  0  0  0  0  0
  149.1280  137.5913  154.8229 H   0  0  0  0  0  0  0  0  0  0  0  0
  150.6559  138.4042  154.4740 H   0  0  0  0  0  0  0  0  0  0  0  0
  141.9128  135.3590  152.7985 H   0  0  0  0  0  0  0  0  0  0  0  0
  143.4986  134.6504  153.1235 H   0  0  0  0  0  0  0  0  0  0  0  0
  141.9892  134.6826  150.6544 H   0  0  0  0  0  0  0  0  0  0  0  0
  1  2  1  0  0  0  0
  1 20  1  0  0  0  0
  1 21  1  0  0  0  0
  1 22  1  0  0  0  0
  2  3  1  0  0  0  0
  2 23  1  0  0  0  0
  2 24  1  0  0  0  0
  3 19  1  0  0  0  0
  3  4  1  0  0  0  0
  3 43  1  0  0  0  0
  4  5  1  0  0  0  0
  4 25  1  0  0  0  0
  4 26  1  0  0  0  0
  5  6  1  0  0  0  0
  5 27  1  0  0  0  0
  5 28  1  0  0  0  0
  6  7  1  0  0  0  0
  6 19  1  0  0  0  0
  6 29  1  0  0  0  0
  7  8  1  0  0  0  0
  7 30  1  0  0  0  0
  7 31  1  0  0  0  0
  8  9  1  0  0  0  0
  8 32  1  0  0  0  0
  9 10  2  0  0  0  0
  9 11  1  0  0  0  0
 11 12  1  0  0  0  0
 11 33  1  0  0  0  0
 11 34  1  0  0  0  0
 12 17  2  0  0  0  0
 12 13  1  0  0  0  0
 13 14  1  0  0  0  0
 13 15  2  0  0  0  0
 14 35  1  0  0  0  0
 14 36  1  0  0  0  0
 14 37  1  0  0  0  0
 15 16  1  0  0  0  0
 16 17  1  0  0  0  0
 17 18  1  0  0  0  0
 18 38  1  0  0  0  0
 18 39  1  0  0  0  0
 18 40  1  0  0  0  0
 19 41  1  0  0  0  0
 19 42  1  0  0  0  0
M  CHG  1   3   1
M  END
> <s_m_source_file>
AV-unprocessed.smi

> <i_m_source_file_index>
1184

> <i_lp_mmshare_version>
43012

> <i_f3d_flags>
0

> <s_epik_input>
W0NIM11bQ0gyXU4xW0NIMl1bQ0gyXVtDQEhdKFtDSDJdMSlbQ0gyXVtOSF1DKD1PKVtDSDJdYzJjKFtDSDNdKW5vYzJbQ0gzXQ==

> <s_epik_cmdline>
J2VwaWtfcHl0aG9uJywgJy1waCcsICc3LjAnLCAnLXRuJywgJzgnLCAnLW1hJywgJzIwMCcsICctbWV0YWxfYmluZGluZycsICctaW1hZScsICc8aW5maWxlLm1hZT4nLCAnLW9tYWUnLCAnPG91dGZpbGUubWFlPic=

> <r_epik_Ionization_Penalty>
0.000590726

> <r_epik_Ionization_Penalty_Charging>
0.000590692

> <r_epik_Ionization_Penalty_Neutral>
3.44741e-08

> <r_epik_State_Penalty>
0.000371644

> <r_epik_Charging_Adjusted_Penalty>
0.000962336

> <i_epik_Tot_Q>
1

> <i_epik_Tot_abs_Q>
1

> <r_epik_Metal_State_Penalty>
-0

> <b_epik_Metal_Only>
0

> <s_lp_Force_Field>
OPLS_2005

> <r_lp_Energy>
20.136

> <b_lp_Chiralities_Consistent>
1

> <s_lp_Variant>
AV-unprocessed.smi:1184-4

> <Gold.Version>
5.8.1

> <Gold.Id.Protein>
6NUR|6NUR_protein|mol2

> <Gold.PLP.Fitness>
40.5694

> <Gold.PLP.PLP>
-34.3288

> <Gold.PLP.part.hbond>
-2.5784

> <Gold.PLP.part.metal>
0.0000

> <Gold.PLP.part.buried>
-1.0345

> <Gold.PLP.part.nonpolar>
-32.1735

> <Gold.PLP.part.repulsive>
1.7661

> <Gold.PLP.ligand.clash>
0.0000

> <Gold.PLP.ligand.torsion>
0.6952

> <Gold.PLP.Chemscore.Hbond>
2.5278

> <Gold.PLP.Chemscore.CHOScore>
0.0000

> <Gold.PLP.Chemscore.Metal>
0.0000

> <Gold.Chemscore.Hbonds>
donor molecule, donor type, donor heavy atom, donor atom, acceptor molecule, acceptor atom, score
      L1  H     3    43       P1 10186  0.50
      L1  H     8    32       P1 10175  0.45

> <Gold.PLP.Chemscore.Internal.Correction>
0.0476

> <Gold.Rescore>
     Score         DG    S(hbond)    S(metal)    S(lipo)     H(rot)  DE(clash)    DE(int)     intcor
     11.96     -13.97       1.24        0.00      73.71       1.67       0.35       1.67       ----

> <Gold.Chemscore.Fitness>
11.9557

> <Gold.Chemscore.DG>
-13.9704

> <Gold.Chemscore.ZeroCoef>
-5.4800

> <Gold.Chemscore.Hbond>
1.2387

> <Gold.Chemscore.Metal>
0.0000

> <Gold.Chemscore.Lipo>
73.7133

> <Gold.Chemscore.Internal_Hbond>
0.0000

> <Gold.Chemscore.DEClash>
0.3489

> <Gold.Chemscore.DEInternal>
1.6658

> <Gold.Chemscore.Rot>
1.6684

> <Gold.Chemscore.Internal.Correction>
   9.000000E+99

> <Gold.Chemscore.Hbonds>
donor molecule, donor type, donor heavy atom, donor atom, acceptor molecule, acceptor atom, score
      L1  H     8    32       P1 10175  0.44

> <Gold.Chemscore.Hbond.Weighted>
-4.1371

> <Gold.Chemscore.Metal.Weighted>
-0.0000

> <Gold.Chemscore.Lipo.Weighted>
-8.6245

> <Gold.Chemscore.Internal_Hbond.Weighted>
0.0000

> <Gold.Chemscore.DEClash.Weighted>
0.3489

> <Gold.Chemscore.DEInternal.Weighted>
1.6658

> <Gold.Chemscore.Rot.Weighted>
4.2712

> <Gold.Chemscore.Internal.Correction.Weighted>
   9.000000E+99

> <Gold.Protein.RotatedTorsions>
[ 6907 6896 6895 6894 ] final  -98.69 input  -60.11 | X-H torsion
[ 7974 7965 7964 7962 ] final   11.51 input  175.53 | X-H torsion
[ 8008 7997 7996 7995 ] final -149.38 input   59.86 | X-H torsion
[ 10167 10162 10161 10158 ] final  -15.43 input  -65.29 | X-H torsion
[ 10718 10713 10712 10709 ] final -100.44 input   66.30 | X-H torsion
[ 10763 10752 10751 10750 ] final    1.42 input  -60.55 | X-H torsion
[ 11005 11000 10999 10996 ] final   88.03 input  -57.11 | X-H torsion

> <Gold.Protein.ActiveResidues>
 VAL166  LYS551  ARG553  GLY616  TRP617  ASP618  TYR619  PRO620  LYS621  CYS622 
 ASP623  PHE694  ASN695  SER759  ASP760  ASP761  ALA762  ILE779  LEU786  VAL792 
 PHE793  MET794  SER795  GLU796  ALA797  LYS798  CYS799  TRP800  GLU811  SER814 

> <Gold.Protein.RotatedAtoms>
  150.7055  134.1156  159.4015 H   0  0  0  0  0  0  0  0  0  0  0  0  # atno 6907 bound_to 6896
  151.9142  135.0323  160.0526 H   0  0  0  0  0  0  0  0  0  0  0  0  # atno 6908 bound_to 6896
  152.2310  133.5023  159.5252 H   0  0  0  0  0  0  0  0  0  0  0  0  # atno 6909 bound_to 6896
  146.2369  139.9475  142.8475 H   0  0  0  0  0  0  0  0  0  0  0  0  # atno 7974 bound_to 7965
  155.6068  140.0667  157.2717 H   0  0  0  0  0  0  0  0  0  0  0  0  # atno 8008 bound_to 7997
  154.4264  140.1808  156.1278 H   0  0  0  0  0  0  0  0  0  0  0  0  # atno 8009 bound_to 7997
  156.0116  140.3326  155.6950 H   0  0  0  0  0  0  0  0  0  0  0  0  # atno 8010 bound_to 7997
  140.7218  143.5219  150.9623 H   0  0  0  0  0  0  0  0  0  0  0  0  # atno 10167 bound_to 10162
  156.0163  130.5328  150.6817 H   0  0  0  0  0  0  0  0  0  0  0  0  # atno 10718 bound_to 10713
  153.3083  135.6961  153.7139 H   0  0  0  0  0  0  0  0  0  0  0  0  # atno 10763 bound_to 10752
  153.6026  135.3459  155.2951 H   0  0  0  0  0  0  0  0  0  0  0  0  # atno 10764 bound_to 10752
  154.8568  135.4344  154.2214 H   0  0  0  0  0  0  0  0  0  0  0  0  # atno 10765 bound_to 10752
  139.8905  134.8461  156.2944 H   0  0  0  0  0  0  0  0  0  0  0  0  # atno 11005 bound_to 11000
  145.1893  140.9804  143.4220 LP  0  0  0  0  0  0  0  0  0  0  0  0  # atno 17320 bound_to 7965
  144.9871  139.3725  143.6233 LP  0  0  0  0  0  0  0  0  0  0  0  0  # atno 17321 bound_to 7965
  139.8936  143.6922  152.3142 LP  0  0  0  0  0  0  0  0  0  0  0  0  # atno 17342 bound_to 10162
  139.7247  144.7595  151.0898 LP  0  0  0  0  0  0  0  0  0  0  0  0  # atno 17343 bound_to 10162
  157.4518  131.0873  151.0838 LP  0  0  0  0  0  0  0  0  0  0  0  0  # atno 17370 bound_to 10713
  157.1351  130.6119  149.5540 LP  0  0  0  0  0  0  0  0  0  0  0  0  # atno 17371 bound_to 10713
  140.9955  133.7183  156.0879 LP  0  0  0  0  0  0  0  0  0  0  0  0  # atno 17394 bound_to 11000
  140.7568  134.3984  157.5532 LP  0  0  0  0  0  0  0  0  0  0  0  0  # atno 17395 bound_to 11000

$$$$
