#       Name:                AV-unprocessed.smi:3101
#       Creating user name   scv26
#       Creation time:       Fri Mar 27 17:18:15 2020


#       File generated by GOLD software.
#

@<TRIPOS>MOLECULE
AV-unprocessed.smi:3101
    34    35     1
SMALL
NO_CHARGES


@<TRIPOS>ATOM
      1 ****        -2.0671  -2.3900   1.2991 C.3            1 S1                 0.0000
      2 ****        -1.9128  -0.8629   1.3807 C.3            1 S1                 0.0000
      3 ****        -3.2348  -0.1220   1.4236 C.3            1 S1                 0.0000
      4 ****        -2.8480   1.2876   0.9787 C.3            1 S1                 0.0000
      5 ****        -1.6382   1.1580   0.2360 O.3            1 S1                 0.0000
      6 ****        -1.2584  -0.2129   0.1533 C.3            1 S1                 0.0000
      7 ****         0.2715  -0.3177   0.0726 C.2            1 S1                 0.0000
      8 ****         0.8825  -1.0933   0.8086 O.2            1 S1                 0.0000
      9 ****         0.8549   0.4742  -0.8464 N.am           1 S1                 0.0000
     10 ****         2.2352   0.5881  -1.1580 C.ar           1 S1                 0.0000
     11 ****         2.5604   1.5140  -2.1772 C.ar           1 S1                 0.0000
     12 ****         3.8299   1.7319  -2.5870 N.ar           1 S1                 0.0000
     13 ****         4.7945   1.0161  -1.9709 C.ar           1 S1                 0.0000
     14 ****         4.4897   0.0901  -0.9532 C.ar           1 S1                 0.0000
     15 ****         3.2185  -0.1233  -0.5494 N.ar           1 S1                 0.0000
     16 ****        -2.6318  -2.6859   0.4146 H              1 S1                 0.0000
     17 ****        -2.5930  -2.7740   2.1734 H              1 S1                 0.0000
     18 ****        -1.0979  -2.8863   1.2550 H              1 S1                 0.0000
     19 ****        -1.3445  -0.6075   2.2770 H              1 S1                 0.0000
     20 ****        -3.9344  -0.5548   0.7068 H              1 S1                 0.0000
     21 ****        -3.7040  -0.1416   2.4077 H              1 S1                 0.0000
     22 ****        -3.6300   1.7535   0.3787 H              1 S1                 0.0000
     23 ****        -2.6576   1.9266   1.8414 H              1 S1                 0.0000
     24 ****        -1.6902  -0.6271  -0.7595 H              1 S1                 0.0000
     25 ****         0.2356   1.0664  -1.3805 H              1 S1                 0.0000
     26 ****         1.7922   2.0895  -2.6731 H              1 S1                 0.0000
     27 ****         5.8127   1.1819  -2.2903 H              1 S1                 0.0000
     28 ****         5.2654  -0.4794  -0.4630 H              1 S1                 0.0000
     29 ****        -0.9135   1.6750   0.6916 LP             1 S1                 0.0000
     30 ****        -1.7761   1.5192  -0.6862 LP             1 S1                 0.0000
     31 ****         0.3823  -1.6595   1.4638 LP             1 S1                 0.0000
     32 ****         1.8788  -1.1568   0.7512 LP             1 S1                 0.0000
     33 ****         4.0436   2.3896  -3.3094 LP             1 S1                 0.0000
     34 ****         3.0089  -0.7824   0.1729 LP             1 S1                 0.0000
@<TRIPOS>BOND
    1    1    2 1     
    2    1   16 1     
    3    1   17 1     
    4    1   18 1     
    5    2    6 1     
    6    2    3 1     
    7    2   19 1     
    8    3    4 1     
    9    3   20 1     
   10    3   21 1     
   11    4    5 1     
   12    4   22 1     
   13    4   23 1     
   14    5    6 1     
   15    6    7 1     
   16    6   24 1     
   17    7    8 2     
   18    7    9 am    
   19    9   10 1     
   20    9   25 1     
   21   10   15 ar    
   22   10   11 ar    
   23   11   12 ar    
   24   11   26 1     
   25   12   13 ar    
   26   13   14 ar    
   27   13   27 1     
   28   14   15 ar    
   29   14   28 1     
   30    5   29 1     
   31    5   30 1     
   32    8   31 1     
   33    8   32 1     
   34   12   33 1     
   35   15   34 1     
@<TRIPOS>SUBSTRUCTURE
      1 S1             1
@<TRIPOS>SET
LONE_PAIRS      STATIC     ATOMS    <user>   **** ""
6 29 30 31 32 33 34
DONOR_HYDROGENS      STATIC     ATOMS    <user>   **** ""
1 25
ATOM$BLUE        STATIC     ATOMS    COLORGROUP SYSTEM
6 29 30 31 32 33 34
ATOM$RED        STATIC     ATOMS    COLORGROUP SYSTEM
1 25
