AV-unprocessed.smi:1484|AV-procd|sdf|5999|dock5
  -GOLD-   22720 6 93D 1   1.00000     0.00000
 Structure written by MMmdl.
 38 39  0  0  0  0  0  0  0  0  1 V2000
  153.5541  141.7245  161.4722 C   0  0  0  0  0  0  0  0  0  0  0  0
  153.1240  142.8967  160.5789 C   0  0  2  0  0  0  0  0  0  0  0  0
  152.1054  143.8055  161.2932 C   0  0  0  0  0  0  0  0  0  0  0  0
  151.6744  144.9785  160.3991 C   0  0  0  0  0  0  0  0  0  0  0  0
  151.1125  144.4816  159.0583 C   0  0  0  0  0  0  0  0  0  0  0  0
  152.1222  143.5715  158.3304 C   0  0  2  0  0  0  0  0  0  0  0  0
  151.5469  143.0477  157.0952 N   0  0  0  0  0  0  0  0  0  0  0  0
  150.5988  142.1013  157.0206 C   0  0  0  0  0  0  0  0  0  0  0  0
  150.1150  141.5510  158.0111 O   0  0  0  0  0  0  0  0  0  0  0  0
  150.1519  141.7097  155.6043 C   0  0  0  0  0  0  0  0  0  0  0  0
  150.4131  140.3005  155.2773 N   0  0  0  0  0  0  0  0  0  0  0  0
  149.3408  139.6467  154.6895 N   0  0  0  0  0  0  0  0  0  0  0  0
  149.4515  138.4089  154.3430 C   0  0  0  0  0  0  0  0  0  0  0  0
  148.3662  137.8007  153.7612 O   0  0  0  0  0  0  0  0  0  0  0  0
  150.6808  137.6781  154.5596 C   0  0  0  0  0  0  0  0  0  0  0  0
  151.7181  138.3220  155.1379 C   0  0  0  0  0  0  0  0  0  0  0  0
  151.6263  139.7257  155.5433 C   0  0  0  0  0  0  0  0  0  0  0  0
  152.5543  140.3357  156.0740 O   0  0  0  0  0  0  0  0  0  0  0  0
  152.5544  142.4017  159.2349 C   0  0  0  0  0  0  0  0  0  0  0  0
  148.7186  137.2708  153.0630 H   0  0  0  0  0  0  0  0  0  0  0  0
  152.7073  141.0843  161.7221 H   0  0  0  0  0  0  0  0  0  0  0  0
  153.9886  142.0817  162.4062 H   0  0  0  0  0  0  0  0  0  0  0  0
  154.3033  141.1071  160.9760 H   0  0  0  0  0  0  0  0  0  0  0  0
  154.0142  143.4909  160.3675 H   0  0  0  0  0  0  0  0  0  0  0  0
  151.2272  143.2242  161.5781 H   0  0  0  0  0  0  0  0  0  0  0  0
  152.5335  144.1912  162.2190 H   0  0  0  0  0  0  0  0  0  0  0  0
  150.9269  145.5830  160.9136 H   0  0  0  0  0  0  0  0  0  0  0  0
  152.5282  145.6323  160.2170 H   0  0  0  0  0  0  0  0  0  0  0  0
  150.1835  143.9375  159.2346 H   0  0  0  0  0  0  0  0  0  0  0  0
  150.8552  145.3371  158.4325 H   0  0  0  0  0  0  0  0  0  0  0  0
  153.0119  144.1556  158.0863 H   0  0  0  0  0  0  0  0  0  0  0  0
  151.8918  143.4401  156.2311 H   0  0  0  0  0  0  0  0  0  0  0  0
  149.0887  141.9277  155.4840 H   0  0  0  0  0  0  0  0  0  0  0  0
  150.6656  142.3625  154.8963 H   0  0  0  0  0  0  0  0  0  0  0  0
  150.7590  136.6423  154.2634 H   0  0  0  0  0  0  0  0  0  0  0  0
  152.6421  137.7885  155.3055 H   0  0  0  0  0  0  0  0  0  0  0  0
  153.3015  141.7965  158.7195 H   0  0  0  0  0  0  0  0  0  0  0  0
  151.7018  141.7461  159.4205 H   0  0  0  0  0  0  0  0  0  0  0  0
  1  2  1  0  0  0  0
  1 21  1  0  0  0  0
  1 22  1  0  0  0  0
  1 23  1  0  0  0  0
  2 19  1  0  0  0  0
  2  3  1  0  0  0  0
  2 24  1  0  0  0  0
  3  4  1  0  0  0  0
  3 25  1  0  0  0  0
  3 26  1  0  0  0  0
  4  5  1  0  0  0  0
  4 27  1  0  0  0  0
  4 28  1  0  0  0  0
  5  6  1  0  0  0  0
  5 29  1  0  0  0  0
  5 30  1  0  0  0  0
  6  7  1  0  0  0  0
  6 19  1  0  0  0  0
  6 31  1  0  0  0  0
  7  8  1  0  0  0  0
  7 32  1  0  0  0  0
  8  9  2  0  0  0  0
  8 10  1  0  0  0  0
 10 33  1  0  0  0  0
 10 34  1  0  0  0  0
 10 11  1  0  0  0  0
 11 12  1  0  0  0  0
 11 17  1  0  0  0  0
 12 13  2  0  0  0  0
 13 14  1  0  0  0  0
 13 15  1  0  0  0  0
 14 20  1  0  0  0  0
 15 35  1  0  0  0  0
 15 16  2  0  0  0  0
 16 36  1  0  0  0  0
 16 17  1  0  0  0  0
 17 18  2  0  0  0  0
 19 37  1  0  0  0  0
 19 38  1  0  0  0  0
M  END
> <s_m_source_file>
AV-unprocessed.smi

> <i_m_source_file_index>
1484

> <i_lp_mmshare_version>
43012

> <i_f3d_flags>
0

> <s_epik_input>
W0NIM11bQ0BASF0xW0NIMl1bQ0gyXVtDSDJdW0NASF0oW0NIMl0xKVtOSF1DKD1PKVtDSDJdbjJbbkhdYyg9TylbY0hdW2NIXWMyPU8=

> <s_epik_cmdline>
J2VwaWtfcHl0aG9uJywgJy1waCcsICc3LjAnLCAnLXRuJywgJzgnLCAnLW1hJywgJzIwMCcsICctbWV0YWxfYmluZGluZycsICctaW1hZScsICc8aW5maWxlLm1hZT4nLCAnLW9tYWUnLCAnPG91dGZpbGUubWFlPic=

> <r_lp_tautomer_probability>
0.9996

> <r_epik_Ionization_Penalty>
2.10343

> <r_epik_Ionization_Penalty_Charging>
3.97871e-08

> <r_epik_Ionization_Penalty_Neutral>
2.10343

> <r_epik_State_Penalty>
1.67966

> <r_epik_Charging_Adjusted_Penalty>
1.67966

> <i_epik_Tot_Q>
0

> <i_epik_Tot_abs_Q>
0

> <r_epik_Metal_State_Penalty>
1.67966

> <b_epik_Metal_Only>
0

> <s_lp_Force_Field>
OPLS_2005

> <r_lp_Energy>
18.4171

> <b_lp_Chiralities_Consistent>
1

> <s_lp_Variant>
AV-unprocessed.smi:1484-7

> <Gold.Version>
5.8.1

> <Gold.Id.Protein>
6NUR|6NUR_protein|mol2

> <Gold.PLP.Fitness>
48.5879

> <Gold.PLP.PLP>
-43.1313

> <Gold.PLP.part.hbond>
-2.0000

> <Gold.PLP.part.metal>
0.0000

> <Gold.PLP.part.buried>
-0.9628

> <Gold.PLP.part.nonpolar>
-40.2786

> <Gold.PLP.part.repulsive>
0.1910

> <Gold.PLP.ligand.clash>
0.0000

> <Gold.PLP.ligand.torsion>
0.2745

> <Gold.PLP.Chemscore.Hbond>
2.0000

> <Gold.PLP.Chemscore.CHOScore>
0.0000

> <Gold.PLP.Chemscore.Metal>
0.0000

> <Gold.Chemscore.Hbonds>
donor molecule, donor type, donor heavy atom, donor atom, acceptor molecule, acceptor atom, score
      L1  H    14    20       P1  7948  1.00
      P1  H  7997  8009       L1    18  1.00

> <Gold.PLP.Chemscore.Internal.Correction>
0.0056

> <Gold.Rescore>
     Score         DG    S(hbond)    S(metal)    S(lipo)     H(rot)  DE(clash)    DE(int)     intcor
     14.93     -17.87       1.98        0.00      98.29       2.24       0.17       2.77       ----

> <Gold.Chemscore.Fitness>
14.9325

> <Gold.Chemscore.DG>
-17.8673

> <Gold.Chemscore.ZeroCoef>
-5.4800

> <Gold.Chemscore.Hbond>
1.9841

> <Gold.Chemscore.Metal>
0.0000

> <Gold.Chemscore.Lipo>
98.2930

> <Gold.Chemscore.Internal_Hbond>
0.0000

> <Gold.Chemscore.DEClash>
0.1685

> <Gold.Chemscore.DEInternal>
2.7663

> <Gold.Chemscore.Rot>
2.2421

> <Gold.Chemscore.Internal.Correction>
   9.000000E+99

> <Gold.Chemscore.Hbonds>
donor molecule, donor type, donor heavy atom, donor atom, acceptor molecule, acceptor atom, score
      L1  H    14    20       P1  7948  0.98
      P1  H  7997  8009       L1    18  0.97

> <Gold.Chemscore.Hbond.Weighted>
-6.6268

> <Gold.Chemscore.Metal.Weighted>
-0.0000

> <Gold.Chemscore.Lipo.Weighted>
-11.5003

> <Gold.Chemscore.Internal_Hbond.Weighted>
0.0000

> <Gold.Chemscore.DEClash.Weighted>
0.1685

> <Gold.Chemscore.DEInternal.Weighted>
2.7663

> <Gold.Chemscore.Rot.Weighted>
5.7398

> <Gold.Chemscore.Internal.Correction.Weighted>
   9.000000E+99

> <Gold.Protein.RotatedTorsions>
[ 6907 6896 6895 6894 ] final  149.16 input  -60.11 | X-H torsion
[ 7974 7965 7964 7962 ] final  -99.20 input  175.53 | X-H torsion
[ 8008 7997 7996 7995 ] final -160.11 input   59.86 | X-H torsion
[ 10167 10162 10161 10158 ] final  140.18 input  -65.29 | X-H torsion
[ 10718 10713 10712 10709 ] final  134.72 input   66.30 | X-H torsion
[ 10763 10752 10751 10750 ] final  142.77 input  -60.55 | X-H torsion
[ 11005 11000 10999 10996 ] final   22.11 input  -57.11 | X-H torsion

> <Gold.Protein.ActiveResidues>
 VAL166  LYS551  ARG553  GLY616  TRP617  ASP618  TYR619  PRO620  LYS621  CYS622 
 ASP623  PHE694  ASN695  SER759  ASP760  ASP761  ALA762  ILE779  LEU786  VAL792 
 PHE793  MET794  SER795  GLU796  ALA797  LYS798  CYS799  TRP800  GLU811  SER814 

> <Gold.Protein.RotatedAtoms>
  152.1318  133.4412  159.4724 H   0  0  0  0  0  0  0  0  0  0  0  0  # atno 6907 bound_to 6896
  150.6879  134.2411  159.4482 H   0  0  0  0  0  0  0  0  0  0  0  0  # atno 6908 bound_to 6896
  152.0296  134.9775  160.0623 H   0  0  0  0  0  0  0  0  0  0  0  0  # atno 6909 bound_to 6896
  145.3107  140.9399  143.2771 H   0  0  0  0  0  0  0  0  0  0  0  0  # atno 7974 bound_to 7965
  155.7726  140.0854  157.2100 H   0  0  0  0  0  0  0  0  0  0  0  0  # atno 8008 bound_to 7997
  154.3995  140.1522  156.3017 H   0  0  0  0  0  0  0  0  0  0  0  0  # atno 8009 bound_to 7997
  155.8732  140.3424  155.5838 H   0  0  0  0  0  0  0  0  0  0  0  0  # atno 8010 bound_to 7997
  139.5056  144.6250  151.5959 H   0  0  0  0  0  0  0  0  0  0  0  0  # atno 10167 bound_to 10162
  157.4644  131.1076  150.9880 H   0  0  0  0  0  0  0  0  0  0  0  0  # atno 10718 bound_to 10713
  153.9613  135.2960  155.3433 H   0  0  0  0  0  0  0  0  0  0  0  0  # atno 10763 bound_to 10752
  154.7373  135.5041  153.9066 H   0  0  0  0  0  0  0  0  0  0  0  0  # atno 10764 bound_to 10752
  153.0945  135.6717  153.9900 H   0  0  0  0  0  0  0  0  0  0  0  0  # atno 10765 bound_to 10752
  140.3842  134.1888  155.7663 H   0  0  0  0  0  0  0  0  0  0  0  0  # atno 11005 bound_to 11000
  144.9018  139.4639  143.6629 LP  0  0  0  0  0  0  0  0  0  0  0  0  # atno 17320 bound_to 7965
  146.3119  139.7777  142.9013 LP  0  0  0  0  0  0  0  0  0  0  0  0  # atno 17321 bound_to 7965
  140.5964  143.9688  150.6357 LP  0  0  0  0  0  0  0  0  0  0  0  0  # atno 17342 bound_to 10162
  140.2886  143.3340  152.1084 LP  0  0  0  0  0  0  0  0  0  0  0  0  # atno 17343 bound_to 10162
  157.0666  130.5847  149.5395 LP  0  0  0  0  0  0  0  0  0  0  0  0  # atno 17370 bound_to 10713
  156.0043  130.5128  150.7776 LP  0  0  0  0  0  0  0  0  0  0  0  0  # atno 17371 bound_to 10713
  141.1913  133.8198  157.0884 LP  0  0  0  0  0  0  0  0  0  0  0  0  # atno 17394 bound_to 11000
  140.0456  134.9832  157.1042 LP  0  0  0  0  0  0  0  0  0  0  0  0  # atno 17395 bound_to 11000

$$$$
