AV-unprocessed.smi:2226|AV-procd|sdf|9020|dock2
  -GOLD-   2272012223D 1   1.00000     0.00000
 Structure written by MMmdl.
 39 41  0  0  0  0  0  0  0  0  3 V2000
  146.8880  139.0682  152.6211 C   0  0  0  0  0  0  0  0  0  0  0  0
  146.3866  140.0885  153.5724 N   0  3  2  0  0  0  0  0  0  0  0  0
  147.1980  141.3268  153.6421 C   0  0  1  0  0  0  0  0  0  0  0  0
  146.3602  142.4426  154.3080 C   0  0  0  0  0  0  0  0  0  0  0  0
  145.7561  142.0453  155.6687 C   0  0  0  0  0  0  0  0  0  0  0  0
  145.2123  140.6031  155.6798 C   0  0  0  0  0  0  0  0  0  0  0  0
  146.1097  139.5847  154.9386 C   0  0  2  0  0  0  0  0  0  0  0  0
  147.4163  139.1940  155.6747 C   0  0  0  0  0  0  0  0  0  0  0  0
  148.5700  140.2236  155.5945 C   0  0  2  0  0  0  0  0  0  0  0  0
  148.6365  141.0423  156.8026 N   0  0  0  0  0  0  0  0  0  0  0  0
  149.7397  141.3683  157.4919 C   0  0  0  0  0  0  0  0  0  0  0  0
  150.8408  140.9509  157.1263 O   0  0  0  0  0  0  0  0  0  0  0  0
  149.4950  142.1653  158.5555 N   0  5  0  0  0  0  0  0  0  0  0  0
  150.4981  142.8650  159.1097 C   0  0  0  0  0  0  0  0  0  0  0  0
  150.5582  143.2984  160.3700 N   0  0  0  0  0  0  0  0  0  0  0  0
  151.7661  143.9698  160.4820 C   0  0  0  0  0  0  0  0  0  0  0  0
  152.3893  143.9189  159.2651 C   0  0  0  0  0  0  0  0  0  0  0  0
  151.5978  143.2275  158.3903 O   0  0  0  0  0  0  0  0  0  0  0  0
  148.5806  141.0641  154.2892 C   0  0  0  0  0  0  0  0  0  0  0  0
  147.8632  138.6770  152.9104 H   0  0  0  0  0  0  0  0  0  0  0  0
  146.9781  139.4933  151.6211 H   0  0  0  0  0  0  0  0  0  0  0  0
  146.1926  138.2307  152.5611 H   0  0  0  0  0  0  0  0  0  0  0  0
  147.3828  141.6583  152.6193 H   0  0  0  0  0  0  0  0  0  0  0  0
  146.9523  143.3523  154.4138 H   0  0  0  0  0  0  0  0  0  0  0  0
  145.5402  142.6981  153.6355 H   0  0  0  0  0  0  0  0  0  0  0  0
  146.4863  142.1816  156.4590 H   0  0  0  0  0  0  0  0  0  0  0  0
  144.9531  142.7371  155.9243 H   0  0  0  0  0  0  0  0  0  0  0  0
  145.0337  140.2789  156.7056 H   0  0  0  0  0  0  0  0  0  0  0  0
  144.2348  140.6079  155.1957 H   0  0  0  0  0  0  0  0  0  0  0  0
  145.5155  138.6751  154.8404 H   0  0  0  0  0  0  0  0  0  0  0  0
  147.2018  138.9348  156.7125 H   0  0  0  0  0  0  0  0  0  0  0  0
  147.7772  138.2658  155.2307 H   0  0  0  0  0  0  0  0  0  0  0  0
  149.4932  139.6406  155.6050 H   0  0  0  0  0  0  0  0  0  0  0  0
  147.7613  141.4058  157.1503 H   0  0  0  0  0  0  0  0  0  0  0  0
  152.0824  144.4259  161.4084 H   0  0  0  0  0  0  0  0  0  0  0  0
  153.3266  144.2940  158.8825 H   0  0  0  0  0  0  0  0  0  0  0  0
  149.1849  140.5219  153.5612 H   0  0  0  0  0  0  0  0  0  0  0  0
  149.1093  142.0071  154.4306 H   0  0  0  0  0  0  0  0  0  0  0  0
  145.4916  140.3711  153.1995 H   0  0  0  0  0  0  0  0  0  0  0  0
  1  2  1  0  0  0  0
  1 20  1  0  0  0  0
  1 21  1  0  0  0  0
  1 22  1  0  0  0  0
  2  7  1  0  0  0  0
  2  3  1  0  0  0  0
  2 39  1  0  0  0  0
  3 19  1  0  0  0  0
  3  4  1  0  0  0  0
  3 23  1  0  0  0  0
  4  5  1  0  0  0  0
  4 24  1  0  0  0  0
  4 25  1  0  0  0  0
  5  6  1  0  0  0  0
  5 26  1  0  0  0  0
  5 27  1  0  0  0  0
  6  7  1  0  0  0  0
  6 28  1  0  0  0  0
  6 29  1  0  0  0  0
  7  8  1  0  0  0  0
  7 30  1  0  0  0  0
  8  9  1  0  0  0  0
  8 31  1  0  0  0  0
  8 32  1  0  0  0  0
  9 10  1  0  0  0  0
  9 19  1  0  0  0  0
  9 33  1  0  0  0  0
 10 34  1  0  0  0  0
 10 11  1  0  0  0  0
 11 13  1  0  0  0  0
 11 12  2  0  0  0  0
 13 14  1  0  0  0  0
 14 18  1  0  0  0  0
 14 15  2  0  0  0  0
 15 16  1  0  0  0  0
 16 35  1  0  0  0  0
 16 17  2  0  0  0  0
 17 36  1  0  0  0  0
 17 18  1  0  0  0  0
 19 37  1  0  0  0  0
 19 38  1  0  0  0  0
M  CHG  1   2   1
M  CHG  1  13  -1
M  END
> <s_m_source_file>
AV-unprocessed.smi

> <i_m_source_file_index>
2226

> <i_lp_mmshare_version>
43012

> <i_f3d_flags>
0

> <s_epik_input>
W0NIMl0xW0NIMl1bQ0gyXVtDQEhdKE4oW0NIM10pW0NIXTEyKVtDSDJdW0NASF0oW0NIMl0yKVtOSF1DKD1PKVtOSF1jM25bY0hdW2NIXW8z

> <s_epik_cmdline>
J2VwaWtfcHl0aG9uJywgJy1waCcsICc3LjAnLCAnLXRuJywgJzgnLCAnLW1hJywgJzIwMCcsICctbWV0YWxfYmluZGluZycsICctaW1hZScsICc8aW5maWxlLm1hZT4nLCAnLW9tYWUnLCAnPG91dGZpbGUubWFlPic=

> <r_lp_tautomer_probability>
0.107061

> <r_epik_Ionization_Penalty>
10.5612

> <r_epik_Ionization_Penalty_Charging>
7.48913

> <r_epik_Ionization_Penalty_Neutral>
3.07202

> <r_epik_State_Penalty>
5.6431

> <r_epik_Charging_Adjusted_Penalty>
13.1322

> <i_epik_Tot_Q>
0

> <i_epik_Tot_abs_Q>
2

> <r_epik_Metal_State_Penalty>
1.58163

> <b_epik_Metal_Only>
1

> <s_lp_Force_Field>
OPLS_2005

> <r_lp_Energy>
26.6809

> <b_lp_Chiralities_Consistent>
1

> <s_lp_Variant>
AV-unprocessed.smi:2226-20

> <Gold.Version>
5.8.1

> <Gold.Id.Protein>
6NUR|6NUR_protein|mol2

> <Gold.PLP.Fitness>
37.7434

> <Gold.PLP.PLP>
-32.6583

> <Gold.PLP.part.hbond>
-1.1793

> <Gold.PLP.part.metal>
0.0000

> <Gold.PLP.part.buried>
-6.4035

> <Gold.PLP.part.nonpolar>
-25.8612

> <Gold.PLP.part.repulsive>
0.5003

> <Gold.PLP.ligand.clash>
0.0000

> <Gold.PLP.ligand.torsion>
0.4836

> <Gold.PLP.Chemscore.Hbond>
2.0000

> <Gold.PLP.Chemscore.CHOScore>
0.0000

> <Gold.PLP.Chemscore.Metal>
0.0000

> <Gold.Chemscore.Hbonds>
donor molecule, donor type, donor heavy atom, donor atom, acceptor molecule, acceptor atom, score
      L1  H     2    39       P1 10175  2.00

> <Gold.PLP.Chemscore.Internal.Correction>
0.0524

> <Gold.Rescore>
     Score         DG    S(hbond)    S(metal)    S(lipo)     H(rot)  DE(clash)    DE(int)     intcor
     12.28     -14.13       1.00        0.00      67.41       1.00       0.01       1.83       ----

> <Gold.Chemscore.Fitness>
12.2824

> <Gold.Chemscore.DG>
-14.1304

> <Gold.Chemscore.ZeroCoef>
-5.4800

> <Gold.Chemscore.Hbond>
0.9951

> <Gold.Chemscore.Metal>
0.0000

> <Gold.Chemscore.Lipo>
67.4072

> <Gold.Chemscore.Internal_Hbond>
0.0000

> <Gold.Chemscore.DEClash>
0.0149

> <Gold.Chemscore.DEInternal>
1.8331

> <Gold.Chemscore.Rot>
1.0000

> <Gold.Chemscore.Internal.Correction>
   9.000000E+99

> <Gold.Chemscore.Hbonds>
donor molecule, donor type, donor heavy atom, donor atom, acceptor molecule, acceptor atom, score
      L1  H     2    39       P1 10175  0.96

> <Gold.Chemscore.Hbond.Weighted>
-3.3237

> <Gold.Chemscore.Metal.Weighted>
-0.0000

> <Gold.Chemscore.Lipo.Weighted>
-7.8866

> <Gold.Chemscore.Internal_Hbond.Weighted>
0.0000

> <Gold.Chemscore.DEClash.Weighted>
0.0149

> <Gold.Chemscore.DEInternal.Weighted>
1.8331

> <Gold.Chemscore.Rot.Weighted>
2.5600

> <Gold.Chemscore.Internal.Correction.Weighted>
   9.000000E+99

> <Gold.Protein.RotatedTorsions>
[ 6907 6896 6895 6894 ] final  -17.05 input  -60.11 | X-H torsion
[ 7974 7965 7964 7962 ] final   30.17 input  175.53 | X-H torsion
[ 8008 7997 7996 7995 ] final   59.54 input   59.86 | X-H torsion
[ 10167 10162 10161 10158 ] final  -46.75 input  -65.29 | X-H torsion
[ 10718 10713 10712 10709 ] final   -3.08 input   66.30 | X-H torsion
[ 10763 10752 10751 10750 ] final  171.32 input  -60.55 | X-H torsion
[ 11005 11000 10999 10996 ] final  -21.37 input  -57.11 | X-H torsion

> <Gold.Protein.ActiveResidues>
 VAL166  LYS551  ARG553  GLY616  TRP617  ASP618  TYR619  PRO620  LYS621  CYS622 
 ASP623  PHE694  ASN695  SER759  ASP760  ASP761  ALA762  ILE779  LEU786  VAL792 
 PHE793  MET794  SER795  GLU796  ALA797  LYS798  CYS799  TRP800  GLU811  SER814 

> <Gold.Protein.RotatedAtoms>
  151.2993  135.0764  159.9232 H   0  0  0  0  0  0  0  0  0  0  0  0  # atno 6907 bound_to 6896
  152.5301  133.9850  159.7834 H   0  0  0  0  0  0  0  0  0  0  0  0  # atno 6908 bound_to 6896
  151.0134  133.5893  159.2710 H   0  0  0  0  0  0  0  0  0  0  0  0  # atno 6909 bound_to 6896
  146.1628  139.6824  142.9022 H   0  0  0  0  0  0  0  0  0  0  0  0  # atno 7974 bound_to 7965
  155.5678  140.3489  155.4507 H   0  0  0  0  0  0  0  0  0  0  0  0  # atno 8008 bound_to 7997
  156.0467  140.1308  157.0121 H   0  0  0  0  0  0  0  0  0  0  0  0  # atno 8009 bound_to 7997
  154.4416  140.1013  156.6301 H   0  0  0  0  0  0  0  0  0  0  0  0  # atno 8010 bound_to 7997
  140.6804  143.2816  151.3827 H   0  0  0  0  0  0  0  0  0  0  0  0  # atno 10167 bound_to 10162
  156.7813  130.5331  149.5750 H   0  0  0  0  0  0  0  0  0  0  0  0  # atno 10718 bound_to 10713
  154.4102  135.2756  155.2041 H   0  0  0  0  0  0  0  0  0  0  0  0  # atno 10763 bound_to 10752
  154.4030  135.6040  153.5912 H   0  0  0  0  0  0  0  0  0  0  0  0  # atno 10764 bound_to 10752
  152.9831  135.5931  154.4383 H   0  0  0  0  0  0  0  0  0  0  0  0  # atno 10765 bound_to 10752
  140.8554  133.7826  156.0014 H   0  0  0  0  0  0  0  0  0  0  0  0  # atno 11005 bound_to 11000
  145.4545  141.0430  143.2786 LP  0  0  0  0  0  0  0  0  0  0  0  0  # atno 17320 bound_to 7965
  144.8050  139.6068  143.7055 LP  0  0  0  0  0  0  0  0  0  0  0  0  # atno 17321 bound_to 7965
  139.6123  144.1073  152.2311 LP  0  0  0  0  0  0  0  0  0  0  0  0  # atno 17342 bound_to 10162
  140.0491  144.5947  150.7350 LP  0  0  0  0  0  0  0  0  0  0  0  0  # atno 17343 bound_to 10162
  156.1216  130.6114  151.0202 LP  0  0  0  0  0  0  0  0  0  0  0  0  # atno 17370 bound_to 10713
  157.6645  131.0874  150.7761 LP  0  0  0  0  0  0  0  0  0  0  0  0  # atno 17371 bound_to 10713
  140.8743  134.2689  157.5175 LP  0  0  0  0  0  0  0  0  0  0  0  0  # atno 17394 bound_to 11000
  139.8705  134.9583  156.4296 LP  0  0  0  0  0  0  0  0  0  0  0  0  # atno 17395 bound_to 11000

$$$$
