#       Name:                AV-unprocessed.smi:45
#       Creating user name   scv26
#       Creation time:       Thu Mar 26 16:27:55 2020


#       File generated by GOLD software.
#

@<TRIPOS>MOLECULE
AV-unprocessed.smi:45
    72    75     1
SMALL
NO_CHARGES


@<TRIPOS>ATOM
      1 ****        -0.9247   3.1488   4.1548 C.3            1 S1                 0.0000
      2 ****        -0.9791   1.7746   3.8021 O.3            1 S1                 0.0000
      3 ****        -1.3409   1.4469   2.5119 C.ar           1 S1                 0.0000
      4 ****        -1.7302   2.3995   1.5369 C.ar           1 S1                 0.0000
      5 ****        -2.0637   1.9917   0.2316 C.ar           1 S1                 0.0000
      6 ****        -2.0174   0.6298  -0.1238 C.ar           1 S1                 0.0000
      7 ****        -2.3434   0.2167  -1.5535 C.3            1 S1                 0.0000
      8 ****        -1.5144  -0.8463  -2.1126 N.3            1 S1                 0.0000
      9 ****        -0.1161  -0.7346  -2.0141 C.ar           1 S1                 0.0000
     10 ****         0.4293   0.4981  -2.1503 N.ar           1 S1                 0.0000
     11 ****         1.7487   0.6118  -1.9892 C.ar           1 S1                 0.0000
     12 ****         2.2528   1.8997  -2.0448 N.3            1 S1                 0.0000
     13 ****         3.2233   2.2251  -3.0839 C.3            1 S1                 0.0000
     14 ****         4.1242   3.3327  -2.5210 C.3            1 S1                 0.0000
     15 ****         3.4024   3.7986  -1.2595 C.3            1 S1                 0.0000
     16 ****         2.6913   2.5251  -0.8036 C.3            1 S1                 0.0000
     17 ****         1.5371   2.7618   0.1887 C.3            1 S1                 0.0000
     18 ****         2.0300   3.2923   1.4000 O.3            1 S1                 0.0000
     19 ****         2.6055  -0.3785  -1.7239 N.ar           1 S1                 0.0000
     20 ****         2.0814  -1.6161  -1.5932 C.ar           1 S1                 0.0000
     21 ****         0.6949  -1.8633  -1.7207 C.ar           1 S1                 0.0000
     22 ****         0.1302  -3.2456  -1.5421 C.2            1 S1                 0.0000
     23 ****        -0.6104  -3.6955  -2.4234 O.2            1 S1                 0.0000
     24 ****         0.5059  -3.7898  -0.3516 N.pl3          1 S1                -1.0000
     25 ****        -0.0569  -5.0266   0.1919 C.3            1 S1                 0.0000
     26 ****        -1.4299  -4.8058   0.8188 C.ar           1 S1                 0.0000
     27 ****        -1.4545  -4.3820   2.0883 N.ar           1 S1                 0.0000
     28 ****        -2.6672  -4.1494   2.6351 C.ar           1 S1                 0.0000
     29 ****        -3.8587  -4.3446   1.9086 C.ar           1 S1                 0.0000
     30 ****        -3.7116  -4.7985   0.5828 C.ar           1 S1                 0.0000
     31 ****        -2.4966  -5.0306   0.0410 N.ar           1 S1                 0.0000
     32 ****        -1.6587  -0.3266   0.8501 C.ar           1 S1                 0.0000
     33 ****        -1.3148   0.0808   2.1535 C.ar           1 S1                 0.0000
     34 ****        -0.8444  -1.1105   3.3115 Cl             1 S1                 0.0000
     35 ****         3.4238   1.8618  -0.3400 H              1 S1                 0.0000
     36 ****        -0.5888   3.2413   5.1874 H              1 S1                 0.0000
     37 ****        -1.9071   3.6175   4.0845 H              1 S1                 0.0000
     38 ****        -0.2171   3.6937   3.5283 H              1 S1                 0.0000
     39 ****        -1.7690   3.4544   1.7610 H              1 S1                 0.0000
     40 ****        -2.3413   2.7334  -0.5029 H              1 S1                 0.0000
     41 ****        -3.3811  -0.1154  -1.5816 H              1 S1                 0.0000
     42 ****        -2.2807   1.0864  -2.2088 H              1 S1                 0.0000
     43 ****        -1.8768  -1.7830  -2.0001 H              1 S1                 0.0000
     44 ****         3.8085   1.3565  -3.3884 H              1 S1                 0.0000
     45 ****         2.6820   2.5831  -3.9599 H              1 S1                 0.0000
     46 ****         5.0948   2.9126  -2.2542 H              1 S1                 0.0000
     47 ****         4.2932   4.1415  -3.2323 H              1 S1                 0.0000
     48 ****         4.0807   4.2007  -0.5065 H              1 S1                 0.0000
     49 ****         2.6750   4.5721  -1.5109 H              1 S1                 0.0000
     50 ****         0.7942   3.4415  -0.2295 H              1 S1                 0.0000
     51 ****         1.0271   1.8259   0.4183 H              1 S1                 0.0000
     52 ****         2.6320   2.6683   1.7761 H              1 S1                 0.0000
     53 ****         2.7791  -2.4119  -1.3759 H              1 S1                 0.0000
     54 ****        -0.1366  -5.8079  -0.5664 H              1 S1                 0.0000
     55 ****         0.5991  -5.4495   0.9539 H              1 S1                 0.0000
     56 ****        -2.6869  -3.8026   3.6576 H              1 S1                 0.0000
     57 ****        -4.8291  -4.1576   2.3430 H              1 S1                 0.0000
     58 ****        -4.5717  -4.9760  -0.0455 H              1 S1                 0.0000
     59 ****        -1.6243  -1.3767   0.5964 H              1 S1                 0.0000
     60 ****        -1.6372   1.3370   4.4149 LP             1 S1                 0.0000
     61 ****        -0.0694   1.3913   3.9614 LP             1 S1                 0.0000
     62 ****        -1.6311  -0.6414  -3.0844 LP             1 S1                 0.0000
     63 ****        -0.1369   1.2942  -2.3639 LP             1 S1                 0.0000
     64 ****         1.3765   2.3047  -2.3059 LP             1 S1                 0.0000
     65 ****         1.2716   3.4529   2.0317 LP             1 S1                 0.0000
     66 ****         2.5044   4.1546   1.2227 LP             1 S1                 0.0000
     67 ****         3.5866  -0.2114  -1.6269 LP             1 S1                 0.0000
     68 ****        -0.8206  -3.1431  -3.2300 LP             1 S1                 0.0000
     69 ****        -0.9995  -4.6119  -2.3298 LP             1 S1                 0.0000
     70 ****         1.2069  -3.3169   0.1821 LP             1 S1                 0.0000
     71 ****        -0.6120  -4.2437   2.6089 LP             1 S1                 0.0000
     72 ****        -2.3978  -5.3559  -0.8994 LP             1 S1                 0.0000
@<TRIPOS>BOND
    1    1    2 1     
    2    1   36 1     
    3    1   37 1     
    4    1   38 1     
    5    2    3 1     
    6    3   33 ar    
    7    3    4 ar    
    8    4    5 ar    
    9    4   39 1     
   10    5    6 ar    
   11    5   40 1     
   12    6    7 1     
   13    6   32 ar    
   14    7    8 1     
   15    7   41 1     
   16    7   42 1     
   17    8    9 1     
   18    8   43 1     
   19    9   21 ar    
   20    9   10 ar    
   21   10   11 ar    
   22   11   12 1     
   23   11   19 ar    
   24   12   16 1     
   25   12   13 1     
   26   13   14 1     
   27   13   44 1     
   28   13   45 1     
   29   14   15 1     
   30   14   46 1     
   31   14   47 1     
   32   15   16 1     
   33   15   48 1     
   34   15   49 1     
   35   16   35 1     
   36   16   17 1     
   37   17   18 1     
   38   17   50 1     
   39   17   51 1     
   40   18   52 1     
   41   19   20 ar    
   42   20   21 ar    
   43   20   53 1     
   44   21   22 1     
   45   22   23 2     
   46   22   24 1     
   47   24   25 1     
   48   25   26 1     
   49   25   54 1     
   50   25   55 1     
   51   26   31 ar    
   52   26   27 ar    
   53   27   28 ar    
   54   28   29 ar    
   55   28   56 1     
   56   29   30 ar    
   57   29   57 1     
   58   30   31 ar    
   59   30   58 1     
   60   32   33 ar    
   61   32   59 1     
   62   33   34 1     
   63    2   60 1     
   64    2   61 1     
   65    8   62 1     
   66   10   63 1     
   67   12   64 1     
   68   18   65 1     
   69   18   66 1     
   70   19   67 1     
   71   23   68 1     
   72   23   69 1     
   73   24   70 1     
   74   27   71 1     
   75   31   72 1     
@<TRIPOS>SUBSTRUCTURE
      1 S1             1
@<TRIPOS>SET
LONE_PAIRS      STATIC     ATOMS    <user>   **** ""
13 60 61 62 63 64 65 66 67 68 69 70 71 72
DONOR_HYDROGENS      STATIC     ATOMS    <user>   **** ""
2 43 52
ATOM$BLUE        STATIC     ATOMS    COLORGROUP SYSTEM
13 60 61 62 63 64 65 66 67 68 69 70 71 72
ATOM$RED        STATIC     ATOMS    COLORGROUP SYSTEM
2 43 52
