AV-unprocessed.smi:1527|AV-procd|sdf|6148|dock9
  -GOLD-   22720 6293D 1   1.00000     0.00000
 Structure written by MMmdl.
 30 30  0  0  0  0  0  0  0  0  2 V2000
  151.4602  144.8056  159.0627 C   0  0  0  0  0  0  0  0  0  0  0  0
  152.7454  144.1071  158.5953 C   0  0  0  0  0  0  0  0  0  0  0  0
  152.8453  142.6340  159.0353 C   0  0  1  0  0  0  0  0  0  0  0  0
  153.1014  142.5070  160.5436 C   0  0  0  0  0  0  0  0  0  0  0  0
  151.6196  141.9155  158.6913 N   0  0  0  0  0  0  0  0  0  0  0  0
  151.5365  140.8099  157.9344 C   0  0  0  0  0  0  0  0  0  0  0  0
  152.5168  140.2605  157.4291 O   0  0  0  0  0  0  0  0  0  0  0  0
  150.1159  140.2602  157.7275 C   0  0  0  0  0  0  0  0  0  0  0  0
  149.4634  140.7189  156.4924 N   0  0  0  0  0  0  0  0  0  0  0  0
  148.1101  141.2285  156.6962 N   0  5  0  0  0  0  0  0  0  0  0  0
  147.4134  141.7031  155.6297 C   0  0  0  0  0  0  0  0  0  0  0  0
  146.2777  142.1621  155.7267 O   0  0  0  0  0  0  0  0  0  0  0  0
  148.0475  141.6570  154.3225 C   0  0  0  0  0  0  0  0  0  0  0  0
  149.2890  141.1585  154.1600 C   0  0  0  0  0  0  0  0  0  0  0  0
  150.0738  140.6424  155.2751 C   0  0  0  0  0  0  0  0  0  0  0  0
  151.2045  140.1761  155.1328 O   0  0  0  0  0  0  0  0  0  0  0  0
  151.4146  145.8264  158.6832 H   0  0  0  0  0  0  0  0  0  0  0  0
  151.4037  144.8568  160.1504 H   0  0  0  0  0  0  0  0  0  0  0  0
  150.5749  144.2785  158.7062 H   0  0  0  0  0  0  0  0  0  0  0  0
  152.7905  144.1577  157.5069 H   0  0  0  0  0  0  0  0  0  0  0  0
  153.6105  144.6621  158.9605 H   0  0  0  0  0  0  0  0  0  0  0  0
  153.6995  142.1919  158.5197 H   0  0  0  0  0  0  0  0  0  0  0  0
  154.0239  143.0136  160.8286 H   0  0  0  0  0  0  0  0  0  0  0  0
  153.1963  141.4614  160.8385 H   0  0  0  0  0  0  0  0  0  0  0  0
  152.2882  142.9449  161.1237 H   0  0  0  0  0  0  0  0  0  0  0  0
  150.7578  142.2946  159.0554 H   0  0  0  0  0  0  0  0  0  0  0  0
  150.1567  139.1697  157.7389 H   0  0  0  0  0  0  0  0  0  0  0  0
  149.5142  140.5377  158.5951 H   0  0  0  0  0  0  0  0  0  0  0  0
  147.5099  142.0286  153.4625 H   0  0  0  0  0  0  0  0  0  0  0  0
  149.7204  141.1429  153.1704 H   0  0  0  0  0  0  0  0  0  0  0  0
  1  2  1  0  0  0  0
  1 17  1  0  0  0  0
  1 18  1  0  0  0  0
  1 19  1  0  0  0  0
  2  3  1  0  0  0  0
  2 20  1  0  0  0  0
  2 21  1  0  0  0  0
  3  4  1  0  0  0  0
  3  5  1  0  0  0  0
  3 22  1  0  0  0  0
  4 23  1  0  0  0  0
  4 24  1  0  0  0  0
  4 25  1  0  0  0  0
  5  6  1  0  0  0  0
  5 26  1  0  0  0  0
  6  7  2  0  0  0  0
  6  8  1  0  0  0  0
  8 27  1  0  0  0  0
  8 28  1  0  0  0  0
  8  9  1  0  0  0  0
  9 10  1  0  0  0  0
  9 15  1  0  0  0  0
 10 11  1  0  0  0  0
 11 12  2  0  0  0  0
 11 13  1  0  0  0  0
 13 29  1  0  0  0  0
 13 14  2  0  0  0  0
 14 30  1  0  0  0  0
 14 15  1  0  0  0  0
 15 16  2  0  0  0  0
M  CHG  1  10  -1
M  END
> <s_m_source_file>
AV-unprocessed.smi

> <i_m_source_file_index>
1527

> <i_lp_mmshare_version>
43012

> <i_f3d_flags>
0

> <s_epik_input>
W0NIM11bQ0gyXVtDQEhdKFtDSDNdKVtOSF1DKD1PKVtDSDJdbjFbbkhdYyg9TylbY0hdW2NIXWMxPU8=

> <s_epik_cmdline>
J2VwaWtfcHl0aG9uJywgJy1waCcsICc3LjAnLCAnLXRuJywgJzgnLCAnLW1hJywgJzIwMCcsICctbWV0YWxfYmluZGluZycsICctaW1hZScsICc8aW5maWxlLm1hZT4nLCAnLW9tYWUnLCAnPG91dGZpbGUubWFlPic=

> <r_lp_tautomer_probability>
1

> <r_epik_Ionization_Penalty>
0.0984334

> <r_epik_Ionization_Penalty_Charging>
0.0984334

> <r_epik_Ionization_Penalty_Neutral>
1.93017e-08

> <r_epik_State_Penalty>
0.0346952

> <r_epik_Charging_Adjusted_Penalty>
0.133129

> <i_epik_Tot_Q>
-1

> <i_epik_Tot_abs_Q>
1

> <r_epik_Metal_State_Penalty>
0.0346952

> <b_epik_Metal_Only>
0

> <s_lp_Force_Field>
OPLS_2005

> <r_lp_Energy>
18.954

> <b_lp_Chiralities_Consistent>
1

> <s_lp_Variant>
AV-unprocessed.smi:1527-2

> <Gold.Version>
5.8.1

> <Gold.Id.Protein>
6NUR|6NUR_protein|mol2

> <Gold.PLP.Fitness>
37.7163

> <Gold.PLP.PLP>
-32.8043

> <Gold.PLP.part.hbond>
-2.0000

> <Gold.PLP.part.metal>
0.0000

> <Gold.PLP.part.buried>
-2.0459

> <Gold.PLP.part.nonpolar>
-28.1911

> <Gold.PLP.part.repulsive>
0.3325

> <Gold.PLP.ligand.clash>
0.0000

> <Gold.PLP.ligand.torsion>
0.5373

> <Gold.PLP.Chemscore.Hbond>
1.9920

> <Gold.PLP.Chemscore.CHOScore>
0.0000

> <Gold.PLP.Chemscore.Metal>
0.0000

> <Gold.Chemscore.Hbonds>
donor molecule, donor type, donor heavy atom, donor atom, acceptor molecule, acceptor atom, score
      P1  H  7989  7998       L1    16  1.00
      P1  H  7997  8009       L1     7  1.00

> <Gold.PLP.Chemscore.Internal.Correction>
0.0106

> <Gold.Rescore>
     Score         DG    S(hbond)    S(metal)    S(lipo)     H(rot)  DE(clash)    DE(int)     intcor
     12.00     -14.69       1.88        0.00      67.53       1.94       0.03       2.66       ----

> <Gold.Chemscore.Fitness>
11.9960

> <Gold.Chemscore.DG>
-14.6908

> <Gold.Chemscore.ZeroCoef>
-5.4800

> <Gold.Chemscore.Hbond>
1.8831

> <Gold.Chemscore.Metal>
0.0000

> <Gold.Chemscore.Lipo>
67.5254

> <Gold.Chemscore.Internal_Hbond>
0.0000

> <Gold.Chemscore.DEClash>
0.0343

> <Gold.Chemscore.DEInternal>
2.6605

> <Gold.Chemscore.Rot>
1.9449

> <Gold.Chemscore.Internal.Correction>
   9.000000E+99

> <Gold.Chemscore.Hbonds>
donor molecule, donor type, donor heavy atom, donor atom, acceptor molecule, acceptor atom, score
      P1  H  7989  7998       L1    16  0.25
      P1  H  7997  8009       L1     7  0.89

> <Gold.Chemscore.Hbond.Weighted>
-6.2894

> <Gold.Chemscore.Metal.Weighted>
-0.0000

> <Gold.Chemscore.Lipo.Weighted>
-7.9005

> <Gold.Chemscore.Internal_Hbond.Weighted>
0.0000

> <Gold.Chemscore.DEClash.Weighted>
0.0343

> <Gold.Chemscore.DEInternal.Weighted>
2.6605

> <Gold.Chemscore.Rot.Weighted>
4.9791

> <Gold.Chemscore.Internal.Correction.Weighted>
   9.000000E+99

> <Gold.Protein.RotatedTorsions>
[ 6907 6896 6895 6894 ] final  -50.64 input  -60.11 | X-H torsion
[ 7974 7965 7964 7962 ] final  -37.90 input  175.53 | X-H torsion
[ 8008 7997 7996 7995 ] final  176.65 input   59.86 | X-H torsion
[ 10167 10162 10161 10158 ] final   12.10 input  -65.29 | X-H torsion
[ 10718 10713 10712 10709 ] final  -21.92 input   66.30 | X-H torsion
[ 10763 10752 10751 10750 ] final  154.84 input  -60.55 | X-H torsion
[ 11005 11000 10999 10996 ] final   83.61 input  -57.11 | X-H torsion

> <Gold.Protein.ActiveResidues>
 VAL166  LYS551  ARG553  GLY616  TRP617  ASP618  TYR619  PRO620  LYS621  CYS622 
 ASP623  PHE694  ASN695  SER759  ASP760  ASP761  ALA762  ILE779  LEU786  VAL792 
 PHE793  MET794  SER795  GLU796  ALA797  LYS798  CYS799  TRP800  GLU811  SER814 

> <Gold.Protein.RotatedAtoms>
  150.8688  134.8057  159.7138 H   0  0  0  0  0  0  0  0  0  0  0  0  # atno 6907 bound_to 6896
  152.4700  134.4981  159.9726 H   0  0  0  0  0  0  0  0  0  0  0  0  # atno 6908 bound_to 6896
  151.5072  133.3453  159.2914 H   0  0  0  0  0  0  0  0  0  0  0  0  # atno 6909 bound_to 6896
  146.0534  140.6450  142.9031 H   0  0  0  0  0  0  0  0  0  0  0  0  # atno 7974 bound_to 7965
  156.0742  140.1378  156.9792 H   0  0  0  0  0  0  0  0  0  0  0  0  # atno 8008 bound_to 7997
  154.4548  140.0965  156.6776 H   0  0  0  0  0  0  0  0  0  0  0  0  # atno 8009 bound_to 7997
  155.5180  140.3455  155.4403 H   0  0  0  0  0  0  0  0  0  0  0  0  # atno 8010 bound_to 7997
  140.6089  143.8449  150.7044 H   0  0  0  0  0  0  0  0  0  0  0  0  # atno 10167 bound_to 10162
  156.5116  130.4611  149.6645 H   0  0  0  0  0  0  0  0  0  0  0  0  # atno 10718 bound_to 10713
  154.1588  135.2811  155.3114 H   0  0  0  0  0  0  0  0  0  0  0  0  # atno 10763 bound_to 10752
  154.6162  135.5482  153.7529 H   0  0  0  0  0  0  0  0  0  0  0  0  # atno 10764 bound_to 10752
  153.0198  135.6427  154.1731 H   0  0  0  0  0  0  0  0  0  0  0  0  # atno 10765 bound_to 10752
  139.9026  134.8157  156.2332 H   0  0  0  0  0  0  0  0  0  0  0  0  # atno 11005 bound_to 11000
  144.7135  140.4124  143.7062 LP  0  0  0  0  0  0  0  0  0  0  0  0  # atno 17320 bound_to 7965
  145.6685  139.1595  143.2768 LP  0  0  0  0  0  0  0  0  0  0  0  0  # atno 17321 bound_to 7965
  140.2013  143.3957  152.1790 LP  0  0  0  0  0  0  0  0  0  0  0  0  # atno 17342 bound_to 10162
  139.5346  144.7196  151.4937 LP  0  0  0  0  0  0  0  0  0  0  0  0  # atno 17343 bound_to 10162
  156.3235  130.7293  151.2209 LP  0  0  0  0  0  0  0  0  0  0  0  0  # atno 17370 bound_to 10713
  157.7449  131.0449  150.4817 LP  0  0  0  0  0  0  0  0  0  0  0  0  # atno 17371 bound_to 10713
  141.0332  133.6977  156.1467 LP  0  0  0  0  0  0  0  0  0  0  0  0  # atno 17394 bound_to 11000
  140.7065  134.4507  157.5584 LP  0  0  0  0  0  0  0  0  0  0  0  0  # atno 17395 bound_to 11000

$$$$
