AV-unprocessed.smi:290|AV-procd|sdf|2216|dock6
  -GOLD-   2262022 53D 1   1.00000     0.00000
 Structure written by MMmdl.
 59 62  0  0  0  0  0  0  0  0  2 V2000
  149.6814  138.4336  154.5494 C   0  0  0  0  0  0  0  0  0  0  0  0
  149.2455  139.1842  155.8183 C   0  0  1  0  0  0  0  0  0  0  0  0
  150.3599  139.4267  156.6647 O   0  0  0  0  0  0  0  0  0  0  0  0
  149.9707  140.4311  157.5838 C   0  0  0  0  0  0  0  0  0  0  0  0
  149.2483  141.4368  156.6955 C   0  0  0  0  0  0  0  0  0  0  0  0
  148.5760  140.5710  155.6253 C   0  0  1  0  0  0  0  0  0  0  0  0
  148.8761  141.1287  154.3560 O   0  0  0  0  0  0  0  0  0  0  0  0
  147.0362  140.5342  155.7881 C   0  0  0  0  0  0  0  0  0  0  0  0
  146.3834  139.5637  154.9218 N   0  0  0  0  0  0  0  0  0  0  0  0
  146.4987  139.4730  153.5524 C   0  0  0  0  0  0  0  0  0  0  0  0
  145.8184  138.5074  152.9976 N   0  0  0  0  0  0  0  0  0  0  0  0
  145.1776  137.8906  154.0650 C   0  0  0  0  0  0  0  0  0  0  0  0
  144.2915  136.7839  154.1875 C   0  0  0  0  0  0  0  0  0  0  0  0
  143.8526  136.0316  153.1562 N   0  0  0  0  0  0  0  0  0  0  0  0
  142.7109  135.1714  153.4620 C   0  0  0  0  0  0  0  0  0  0  0  0
  142.8760  133.9187  152.5986 C   0  0  0  0  0  0  0  0  0  0  0  0
  144.4008  133.8106  152.5259 C   0  0  1  0  0  0  0  0  0  0  0  0
  144.9907  132.8522  151.5398 N   0  3  1  0  0  0  0  0  0  0  0  0
  144.2481  132.8680  150.2548 C   0  0  0  0  0  0  0  0  0  0  0  0
  146.4646  132.9554  151.3444 C   0  0  0  0  0  0  0  0  0  0  0  0
  147.2646  132.6280  152.6182 C   0  0  0  0  0  0  0  0  0  0  0  0
  148.6325  132.9166  152.4229 O   0  0  0  0  0  0  0  0  0  0  0  0
  144.8716  135.2758  152.4283 C   0  0  1  0  0  0  0  0  0  0  0  0
  145.0221  135.8568  151.0129 C   0  0  0  0  0  0  0  0  0  0  0  0
  143.8529  136.4511  155.4251 N   0  0  0  0  0  0  0  0  0  0  0  0
  144.2495  137.1613  156.4859 C   0  0  0  0  0  0  0  0  0  0  0  0
  145.0666  138.2164  156.5264 N   0  0  0  0  0  0  0  0  0  0  0  0
  145.5153  138.5471  155.2815 C   0  0  0  0  0  0  0  0  0  0  0  0
  144.7223  133.4847  153.5167 H   0  0  0  0  0  0  0  0  0  0  0  0
  145.8437  135.3610  152.9167 H   0  0  0  0  0  0  0  0  0  0  0  0
  148.8353  138.2609  153.8838 H   0  0  0  0  0  0  0  0  0  0  0  0
  150.1047  137.4619  154.8036 H   0  0  0  0  0  0  0  0  0  0  0  0
  150.4406  138.9870  153.9962 H   0  0  0  0  0  0  0  0  0  0  0  0
  148.5768  138.5382  156.3878 H   0  0  0  0  0  0  0  0  0  0  0  0
  149.2948  140.0092  158.3295 H   0  0  0  0  0  0  0  0  0  0  0  0
  150.8290  140.8627  158.0988 H   0  0  0  0  0  0  0  0  0  0  0  0
  148.5488  142.0561  157.2580 H   0  0  0  0  0  0  0  0  0  0  0  0
  149.9883  142.1052  156.2517 H   0  0  0  0  0  0  0  0  0  0  0  0
  148.3949  140.6519  153.6973 H   0  0  0  0  0  0  0  0  0  0  0  0
  146.7748  140.3015  156.8213 H   0  0  0  0  0  0  0  0  0  0  0  0
  146.6086  141.5162  155.5811 H   0  0  0  0  0  0  0  0  0  0  0  0
  147.1149  140.1463  152.9745 H   0  0  0  0  0  0  0  0  0  0  0  0
  142.7045  134.9000  154.5189 H   0  0  0  0  0  0  0  0  0  0  0  0
  141.7721  135.6822  153.2461 H   0  0  0  0  0  0  0  0  0  0  0  0
  142.4034  133.0391  153.0365 H   0  0  0  0  0  0  0  0  0  0  0  0
  142.4249  134.1000  151.6236 H   0  0  0  0  0  0  0  0  0  0  0  0
  144.3469  133.8360  149.7621 H   0  0  0  0  0  0  0  0  0  0  0  0
  143.1867  132.6759  150.4167 H   0  0  0  0  0  0  0  0  0  0  0  0
  144.6010  132.0994  149.5695 H   0  0  0  0  0  0  0  0  0  0  0  0
  146.7686  132.2923  150.5331 H   0  0  0  0  0  0  0  0  0  0  0  0
  146.7441  133.9601  151.0341 H   0  0  0  0  0  0  0  0  0  0  0  0
  146.8970  133.1634  153.4921 H   0  0  0  0  0  0  0  0  0  0  0  0
  147.1721  131.5657  152.8448 H   0  0  0  0  0  0  0  0  0  0  0  0
  148.9899  132.2896  151.8121 H   0  0  0  0  0  0  0  0  0  0  0  0
  145.7647  135.3109  150.4325 H   0  0  0  0  0  0  0  0  0  0  0  0
  145.3533  136.8945  151.0594 H   0  0  0  0  0  0  0  0  0  0  0  0
  144.0787  135.8452  150.4668 H   0  0  0  0  0  0  0  0  0  0  0  0
  143.8563  136.8379  157.4382 H   0  0  0  0  0  0  0  0  0  0  0  0
  144.8293  131.9362  151.9347 H   0  0  0  0  0  0  0  0  0  0  0  0
  1  2  1  0  0  0  0
  1 31  1  0  0  0  0
  1 32  1  0  0  0  0
  1 33  1  0  0  0  0
  2  6  1  0  0  0  0
  2  3  1  0  0  0  0
  2 34  1  0  0  0  0
  3  4  1  0  0  0  0
  4  5  1  0  0  0  0
  4 35  1  0  0  0  0
  4 36  1  0  0  0  0
  5  6  1  0  0  0  0
  5 37  1  0  0  0  0
  5 38  1  0  0  0  0
  6  7  1  0  0  0  0
  6  8  1  0  0  0  0
  7 39  1  0  0  0  0
  8  9  1  0  0  0  0
  8 40  1  0  0  0  0
  8 41  1  0  0  0  0
  9 28  1  0  0  0  0
  9 10  1  0  0  0  0
 10 11  2  0  0  0  0
 10 42  1  0  0  0  0
 11 12  1  0  0  0  0
 12 28  2  0  0  0  0
 12 13  1  0  0  0  0
 13 14  1  0  0  0  0
 13 25  2  0  0  0  0
 14 23  1  0  0  0  0
 14 15  1  0  0  0  0
 15 16  1  0  0  0  0
 15 43  1  0  0  0  0
 15 44  1  0  0  0  0
 16 17  1  0  0  0  0
 16 45  1  0  0  0  0
 16 46  1  0  0  0  0
 17 29  1  0  0  0  0
 17 18  1  0  0  0  0
 17 23  1  0  0  0  0
 18 19  1  0  0  0  0
 18 20  1  0  0  0  0
 18 59  1  0  0  0  0
 19 47  1  0  0  0  0
 19 48  1  0  0  0  0
 19 49  1  0  0  0  0
 20 21  1  0  0  0  0
 20 50  1  0  0  0  0
 20 51  1  0  0  0  0
 21 22  1  0  0  0  0
 21 52  1  0  0  0  0
 21 53  1  0  0  0  0
 22 54  1  0  0  0  0
 23 30  1  0  0  0  0
 23 24  1  0  0  0  0
 24 55  1  0  0  0  0
 24 56  1  0  0  0  0
 24 57  1  0  0  0  0
 25 26  1  0  0  0  0
 26 27  2  0  0  0  0
 26 58  1  0  0  0  0
 27 28  1  0  0  0  0
M  CHG  1  18   1
M  END
> <s_m_source_file>
AV-unprocessed.smi

> <i_m_source_file_index>
290

> <i_lp_mmshare_version>
43012

> <i_f3d_flags>
0

> <s_epik_input>
W0NIMl0xW0NIMl1PW0NAQEhdKFtDSDNdKVtDQEBdMShbT0hdKVtDSDJdbihbY0hdbjIpYyhjMjMpbltjSF1uYzNONFtDSDJdW0NIMl1bQ0BIXShbQ0BIXTRbQ0gzXSlOKFtDSDNdKVtDSDJdW0NIMl1bT0hd

> <s_epik_cmdline>
J2VwaWtfcHl0aG9uJywgJy1waCcsICc3LjAnLCAnLXRuJywgJzgnLCAnLW1hJywgJzIwMCcsICctbWV0YWxfYmluZGluZycsICctaW1hZScsICc8aW5maWxlLm1hZT4nLCAnLW9tYWUnLCAnPG91dGZpbGUubWFlPic=

> <r_lp_tautomer_probability>
1

> <r_epik_Ionization_Penalty>
0.0036983

> <r_epik_Ionization_Penalty_Charging>
0.0032725

> <r_epik_Ionization_Penalty_Neutral>
0.000425798

> <r_epik_State_Penalty>
-0

> <r_epik_Charging_Adjusted_Penalty>
0.0032725

> <i_epik_Tot_Q>
1

> <i_epik_Tot_abs_Q>
1

> <r_epik_Metal_State_Penalty>
-0

> <b_epik_Metal_Only>
0

> <s_lp_Force_Field>
OPLS_2005

> <r_lp_Energy>
65.8888

> <b_lp_Chiralities_Consistent>
1

> <s_lp_Variant>
AV-unprocessed.smi:290-2

> <Gold.Version>
5.8.1

> <Gold.Id.Protein>
6NUR|6NUR_protein|mol2

> <Gold.PLP.Fitness>
48.8388

> <Gold.PLP.PLP>
-39.1119

> <Gold.PLP.part.hbond>
-3.3201

> <Gold.PLP.part.metal>
0.0000

> <Gold.PLP.part.buried>
-1.5001

> <Gold.PLP.part.nonpolar>
-34.5093

> <Gold.PLP.part.repulsive>
0.5573

> <Gold.PLP.ligand.clash>
0.0000

> <Gold.PLP.ligand.torsion>
0.6440

> <Gold.PLP.Chemscore.Hbond>
2.5780

> <Gold.PLP.Chemscore.CHOScore>
1.0000

> <Gold.PLP.Chemscore.Metal>
0.0000

> <Gold.Chemscore.Hbonds>
donor molecule, donor type, donor heavy atom, donor atom, acceptor molecule, acceptor atom, score
      L1  H    22    54       P1 10747  0.89

> <Gold.PLP.Chemscore.Internal.Correction>
0.2809

> <Gold.Rescore>
     Score         DG    S(hbond)    S(metal)    S(lipo)     H(rot)  DE(clash)    DE(int)     intcor
     11.05     -13.27       2.20        0.00      84.04       3.67       1.22       1.00       ----

> <Gold.Chemscore.Fitness>
11.0538

> <Gold.Chemscore.DG>
-13.2693

> <Gold.Chemscore.ZeroCoef>
-5.4800

> <Gold.Chemscore.Hbond>
2.1979

> <Gold.Chemscore.Metal>
0.0000

> <Gold.Chemscore.Lipo>
84.0400

> <Gold.Chemscore.Internal_Hbond>
0.0000

> <Gold.Chemscore.DEClash>
1.2156

> <Gold.Chemscore.DEInternal>
0.9998

> <Gold.Chemscore.Rot>
3.6658

> <Gold.Chemscore.Internal.Correction>
   9.000000E+99

> <Gold.Chemscore.Hbonds>
donor molecule, donor type, donor heavy atom, donor atom, acceptor molecule, acceptor atom, score
      L1  H    22    54       P1 10747  0.77

> <Gold.Chemscore.Hbond.Weighted>
-7.3410

> <Gold.Chemscore.Metal.Weighted>
-0.0000

> <Gold.Chemscore.Lipo.Weighted>
-9.8327

> <Gold.Chemscore.Internal_Hbond.Weighted>
0.0000

> <Gold.Chemscore.DEClash.Weighted>
1.2156

> <Gold.Chemscore.DEInternal.Weighted>
0.9998

> <Gold.Chemscore.Rot.Weighted>
9.3844

> <Gold.Chemscore.Internal.Correction.Weighted>
   9.000000E+99

> <Gold.Protein.RotatedTorsions>
[ 6907 6896 6895 6894 ] final  167.02 input  -60.11 | X-H torsion
[ 7974 7965 7964 7962 ] final  -42.60 input  175.53 | X-H torsion
[ 8008 7997 7996 7995 ] final   -2.68 input   59.86 | X-H torsion
[ 10167 10162 10161 10158 ] final -131.00 input  -65.29 | X-H torsion
[ 10718 10713 10712 10709 ] final  -31.65 input   66.30 | X-H torsion
[ 10763 10752 10751 10750 ] final   69.31 input  -60.55 | X-H torsion
[ 11005 11000 10999 10996 ] final   -9.01 input  -57.11 | X-H torsion

> <Gold.Protein.ActiveResidues>
 VAL166  LYS551  ARG553  GLY616  TRP617  ASP618  TYR619  PRO620  LYS621  CYS622 
 ASP623  PHE694  ASN695  SER759  ASP760  ASP761  ALA762  ILE779  LEU786  VAL792 
 PHE793  MET794  SER795  GLU796  ALA797  LYS798  CYS799  TRP800  GLU811  SER814 

> <Gold.Protein.RotatedAtoms>
  151.8698  133.3473  159.3730 H   0  0  0  0  0  0  0  0  0  0  0  0  # atno 6907 bound_to 6896
  150.7156  134.5124  159.5623 H   0  0  0  0  0  0  0  0  0  0  0  0  # atno 6908 bound_to 6896
  152.2654  134.7990  160.0474 H   0  0  0  0  0  0  0  0  0  0  0  0  # atno 6909 bound_to 6896
  146.0100  140.6975  142.9229 H   0  0  0  0  0  0  0  0  0  0  0  0  # atno 7974 bound_to 7965
  154.6331  140.2528  155.7410 H   0  0  0  0  0  0  0  0  0  0  0  0  # atno 8008 bound_to 7997
  156.2490  140.2903  156.0612 H   0  0  0  0  0  0  0  0  0  0  0  0  # atno 8009 bound_to 7997
  155.1713  140.0386  157.2854 H   0  0  0  0  0  0  0  0  0  0  0  0  # atno 8010 bound_to 7997
  139.9234  143.6355  152.2548 H   0  0  0  0  0  0  0  0  0  0  0  0  # atno 10167 bound_to 10162
  156.3846  130.4362  149.7442 H   0  0  0  0  0  0  0  0  0  0  0  0  # atno 10718 bound_to 10713
  153.0280  135.5215  154.7268 H   0  0  0  0  0  0  0  0  0  0  0  0  # atno 10763 bound_to 10752
  154.6308  135.2900  155.0221 H   0  0  0  0  0  0  0  0  0  0  0  0  # atno 10764 bound_to 10752
  154.1174  135.6613  153.4949 H   0  0  0  0  0  0  0  0  0  0  0  0  # atno 10765 bound_to 10752
  140.7296  133.8760  155.8883 H   0  0  0  0  0  0  0  0  0  0  0  0  # atno 11005 bound_to 11000
  144.6950  140.3383  143.7204 LP  0  0  0  0  0  0  0  0  0  0  0  0  # atno 17320 bound_to 7965
  145.7356  139.1749  143.2405 LP  0  0  0  0  0  0  0  0  0  0  0  0  # atno 17321 bound_to 7965
  139.6842  144.7653  151.1553 LP  0  0  0  0  0  0  0  0  0  0  0  0  # atno 17342 bound_to 10162
  140.7656  143.5681  150.9026 LP  0  0  0  0  0  0  0  0  0  0  0  0  # atno 17343 bound_to 10162
  156.4519  130.7910  151.2932 LP  0  0  0  0  0  0  0  0  0  0  0  0  # atno 17370 bound_to 10713
  157.7495  131.0093  150.3261 LP  0  0  0  0  0  0  0  0  0  0  0  0  # atno 17371 bound_to 10713
  140.9932  134.1250  157.4388 LP  0  0  0  0  0  0  0  0  0  0  0  0  # atno 17394 bound_to 11000
  139.8829  135.0047  156.6264 LP  0  0  0  0  0  0  0  0  0  0  0  0  # atno 17395 bound_to 11000

$$$$
