AV-unprocessed.smi:2343|AV-procd|sdf|9356|dock9
  -GOLD-   2272012583D 1   1.00000     0.00000
 Structure written by MMmdl.
 34 35  0  0  0  0  0  0  0  0  1 V2000
  151.3250  141.2691  156.5426 O   0  0  0  0  0  0  0  0  0  0  0  0
  150.6208  142.2375  156.2574 C   0  0  0  0  0  0  0  0  0  0  0  0
  150.8462  143.4752  156.7210 N   0  0  0  0  0  0  0  0  0  0  0  0
  151.9267  143.8472  157.6267 C   0  0  0  0  0  0  0  0  0  0  0  0
  151.3899  144.5239  158.8988 C   0  0  0  0  0  0  0  0  0  0  0  0
  151.9338  143.8913  160.1647 C   0  0  0  0  0  0  0  0  0  0  0  0
  151.7593  144.3310  161.4102 C   0  0  0  0  0  0  0  0  0  0  0  0
  152.4464  143.4676  162.4319 C   0  0  0  0  0  0  0  0  0  0  0  0
  153.1409  142.3733  161.5905 C   0  0  0  0  0  0  0  0  0  0  0  0
  152.7830  142.6474  160.1124 C   0  0  0  0  0  0  0  0  0  0  0  0
  149.5515  142.2137  155.4430 N   0  0  0  0  0  0  0  0  0  0  0  0
  148.9574  141.1087  154.7727 C   0  0  0  0  0  0  0  0  0  0  0  0
  149.4884  139.7958  154.7694 C   0  0  0  0  0  0  0  0  0  0  0  0
  148.7877  138.7861  154.0793 C   0  0  0  0  0  0  0  0  0  0  0  0
  147.6277  138.9999  153.4231 N   0  0  0  0  0  0  0  0  0  0  0  0
  147.1183  140.2497  153.4383 C   0  0  0  0  0  0  0  0  0  0  0  0
  147.7383  141.3302  154.0974 C   0  0  0  0  0  0  0  0  0  0  0  0
  147.1689  142.5598  154.0776 F   0  0  0  0  0  0  0  0  0  0  0  0
  150.2227  144.2142  156.4304 H   0  0  0  0  0  0  0  0  0  0  0  0
  152.4689  142.9393  157.8919 H   0  0  0  0  0  0  0  0  0  0  0  0
  152.6385  144.4946  157.1120 H   0  0  0  0  0  0  0  0  0  0  0  0
  151.6455  145.5843  158.9048 H   0  0  0  0  0  0  0  0  0  0  0  0
  150.3008  144.4643  158.9162 H   0  0  0  0  0  0  0  0  0  0  0  0
  151.1913  145.2065  161.6887 H   0  0  0  0  0  0  0  0  0  0  0  0
  153.1644  144.0556  163.0041 H   0  0  0  0  0  0  0  0  0  0  0  0
  151.7136  143.0449  163.1197 H   0  0  0  0  0  0  0  0  0  0  0  0
  154.2214  142.4077  161.7351 H   0  0  0  0  0  0  0  0  0  0  0  0
  152.8061  141.3805  161.8931 H   0  0  0  0  0  0  0  0  0  0  0  0
  152.2233  141.8186  159.6781 H   0  0  0  0  0  0  0  0  0  0  0  0
  153.6734  142.8202  159.5072 H   0  0  0  0  0  0  0  0  0  0  0  0
  149.1269  143.1084  155.2473 H   0  0  0  0  0  0  0  0  0  0  0  0
  150.4007  139.5384  155.2840 H   0  0  0  0  0  0  0  0  0  0  0  0
  149.1677  137.7753  154.0601 H   0  0  0  0  0  0  0  0  0  0  0  0
  146.1867  140.3931  152.9111 H   0  0  0  0  0  0  0  0  0  0  0  0
  1  2  2  0  0  0  0
  2  3  1  0  0  0  0
  2 11  1  0  0  0  0
  3  4  1  0  0  0  0
  3 19  1  0  0  0  0
  4  5  1  0  0  0  0
  4 20  1  0  0  0  0
  4 21  1  0  0  0  0
  5  6  1  0  0  0  0
  5 22  1  0  0  0  0
  5 23  1  0  0  0  0
  6 10  1  0  0  0  0
  6  7  2  0  0  0  0
  7  8  1  0  0  0  0
  7 24  1  0  0  0  0
  8  9  1  0  0  0  0
  8 25  1  0  0  0  0
  8 26  1  0  0  0  0
  9 10  1  0  0  0  0
  9 27  1  0  0  0  0
  9 28  1  0  0  0  0
 10 29  1  0  0  0  0
 10 30  1  0  0  0  0
 11 12  1  0  0  0  0
 11 31  1  0  0  0  0
 12 17  1  0  0  0  0
 12 13  2  0  0  0  0
 13 14  1  0  0  0  0
 13 32  1  0  0  0  0
 14 15  2  0  0  0  0
 14 33  1  0  0  0  0
 15 16  1  0  0  0  0
 16 17  2  0  0  0  0
 16 34  1  0  0  0  0
 17 18  1  0  0  0  0
M  END
> <s_m_source_file>
AV-unprocessed.smi

> <i_m_source_file_index>
2343

> <i_lp_mmshare_version>
43012

> <i_f3d_flags>
0

> <s_epik_input>
RmMxW2NIXW5bY0hdW2NIXWMxW05IXUMoPU8pW05IXVtDSDJdW0NIMl1DMj1bQ0hdW0NIMl1bQ0gyXVtDSDJdMg==

> <s_epik_cmdline>
J2VwaWtfcHl0aG9uJywgJy1waCcsICc3LjAnLCAnLXRuJywgJzgnLCAnLW1hJywgJzIwMCcsICctbWV0YWxfYmluZGluZycsICctaW1hZScsICc8aW5maWxlLm1hZT4nLCAnLW9tYWUnLCAnPG91dGZpbGUubWFlPic=

> <r_epik_Ionization_Penalty>
0.0031801

> <r_epik_Ionization_Penalty_Charging>
0

> <r_epik_Ionization_Penalty_Neutral>
0.0031801

> <r_epik_State_Penalty>
0.0022135

> <r_epik_Charging_Adjusted_Penalty>
0.0022135

> <i_epik_Tot_Q>
0

> <i_epik_Tot_abs_Q>
0

> <r_epik_Metal_State_Penalty>
-0

> <b_epik_Metal_Only>
0

> <s_lp_Force_Field>
OPLS_2005

> <r_lp_Energy>
22.6316

> <b_lp_Chiralities_Consistent>
1

> <s_lp_Variant>
AV-unprocessed.smi:2343-1

> <Gold.Version>
5.8.1

> <Gold.Id.Protein>
6NUR|6NUR_protein|mol2

> <Gold.PLP.Fitness>
57.3682

> <Gold.PLP.PLP>
-46.3220

> <Gold.PLP.part.hbond>
-2.0000

> <Gold.PLP.part.metal>
0.0000

> <Gold.PLP.part.buried>
-3.6858

> <Gold.PLP.part.nonpolar>
-40.2236

> <Gold.PLP.part.repulsive>
0.4960

> <Gold.PLP.ligand.clash>
0.0000

> <Gold.PLP.ligand.torsion>
0.4153

> <Gold.PLP.Chemscore.Hbond>
2.0000

> <Gold.PLP.Chemscore.CHOScore>
1.9582

> <Gold.PLP.Chemscore.Metal>
0.0000

> <Gold.Chemscore.Hbonds>
donor molecule, donor type, donor heavy atom, donor atom, acceptor molecule, acceptor atom, score
      L1  H     3    19       P1  8028  1.00
      L1  H    11    31       P1  8028  1.00
      L1  C    14    33       P1  7948  0.53
      L1  C    16    34       P1 10175  0.98

> <Gold.PLP.Chemscore.Internal.Correction>
0.0021

> <Gold.Rescore>
     Score         DG    S(hbond)    S(metal)    S(lipo)     H(rot)  DE(clash)    DE(int)     intcor
     19.58     -21.32       1.87        0.00     113.37       1.43       0.05       1.69       ----

> <Gold.Chemscore.Fitness>
19.5830

> <Gold.Chemscore.DG>
-21.3240

> <Gold.Chemscore.ZeroCoef>
-5.4800

> <Gold.Chemscore.Hbond>
1.8669

> <Gold.Chemscore.Metal>
0.0000

> <Gold.Chemscore.Lipo>
113.3745

> <Gold.Chemscore.Internal_Hbond>
0.0000

> <Gold.Chemscore.DEClash>
0.0471

> <Gold.Chemscore.DEInternal>
1.6938

> <Gold.Chemscore.Rot>
1.4282

> <Gold.Chemscore.Internal.Correction>
   9.000000E+99

> <Gold.Chemscore.Hbonds>
donor molecule, donor type, donor heavy atom, donor atom, acceptor molecule, acceptor atom, score
      L1  H     3    19       P1  8028  0.96
      L1  H    11    31       P1  8028  0.95

> <Gold.Chemscore.Hbond.Weighted>
-6.2354

> <Gold.Chemscore.Metal.Weighted>
-0.0000

> <Gold.Chemscore.Lipo.Weighted>
-13.2648

> <Gold.Chemscore.Internal_Hbond.Weighted>
0.0000

> <Gold.Chemscore.DEClash.Weighted>
0.0471

> <Gold.Chemscore.DEInternal.Weighted>
1.6938

> <Gold.Chemscore.Rot.Weighted>
3.6563

> <Gold.Chemscore.Internal.Correction.Weighted>
   9.000000E+99

> <Gold.Protein.RotatedTorsions>
[ 6907 6896 6895 6894 ] final   50.28 input  -60.11 | X-H torsion
[ 7974 7965 7964 7962 ] final   16.81 input  175.53 | X-H torsion
[ 8008 7997 7996 7995 ] final  -12.06 input   59.86 | X-H torsion
[ 10167 10162 10161 10158 ] final   11.05 input  -65.29 | X-H torsion
[ 10718 10713 10712 10709 ] final  109.79 input   66.30 | X-H torsion
[ 10763 10752 10751 10750 ] final   -9.37 input  -60.55 | X-H torsion
[ 11005 11000 10999 10996 ] final  168.84 input  -57.11 | X-H torsion

> <Gold.Protein.ActiveResidues>
 VAL166  LYS551  ARG553  GLY616  TRP617  ASP618  TYR619  PRO620  LYS621  CYS622 
 ASP623  PHE694  ASN695  SER759  ASP760  ASP761  ALA762  ILE779  LEU786  VAL792 
 PHE793  MET794  SER795  GLU796  ALA797  LYS798  CYS799  TRP800  GLU811  SER814 

> <Gold.Protein.RotatedAtoms>
  152.3000  134.7622  160.0359 H   0  0  0  0  0  0  0  0  0  0  0  0  # atno 6907 bound_to 6896
  151.8138  133.3380  159.3571 H   0  0  0  0  0  0  0  0  0  0  0  0  # atno 6908 bound_to 6896
  150.7269  134.5568  159.5866 H   0  0  0  0  0  0  0  0  0  0  0  0  # atno 6909 bound_to 6896
  146.2238  139.8694  142.8590 H   0  0  0  0  0  0  0  0  0  0  0  0  # atno 7974 bound_to 7965
  154.5410  140.2286  155.8641 H   0  0  0  0  0  0  0  0  0  0  0  0  # atno 8008 bound_to 7997
  156.1858  140.3089  155.9198 H   0  0  0  0  0  0  0  0  0  0  0  0  # atno 8009 bound_to 7997
  155.3258  140.0443  157.3031 H   0  0  0  0  0  0  0  0  0  0  0  0  # atno 8010 bound_to 7997
  140.6156  143.8315  150.7115 H   0  0  0  0  0  0  0  0  0  0  0  0  # atno 10167 bound_to 10162
  157.6525  131.0920  150.6506 H   0  0  0  0  0  0  0  0  0  0  0  0  # atno 10718 bound_to 10713
  153.4538  135.7015  153.6092 H   0  0  0  0  0  0  0  0  0  0  0  0  # atno 10763 bound_to 10752
  153.4416  135.3779  155.2231 H   0  0  0  0  0  0  0  0  0  0  0  0  # atno 10764 bound_to 10752
  154.8728  135.3975  154.3954 H   0  0  0  0  0  0  0  0  0  0  0  0  # atno 10765 bound_to 10752
  140.2914  134.7670  157.3841 H   0  0  0  0  0  0  0  0  0  0  0  0  # atno 11005 bound_to 11000
  145.2623  141.0081  143.3819 LP  0  0  0  0  0  0  0  0  0  0  0  0  # atno 17320 bound_to 7965
  144.9288  139.4323  143.6505 LP  0  0  0  0  0  0  0  0  0  0  0  0  # atno 17321 bound_to 7965
  140.1893  143.4050  152.1875 LP  0  0  0  0  0  0  0  0  0  0  0  0  # atno 17342 bound_to 10162
  139.5396  144.7243  151.4778 LP  0  0  0  0  0  0  0  0  0  0  0  0  # atno 17343 bound_to 10162
  156.6815  130.4568  149.5626 LP  0  0  0  0  0  0  0  0  0  0  0  0  # atno 17370 bound_to 10713
  156.1925  130.6569  151.1078 LP  0  0  0  0  0  0  0  0  0  0  0  0  # atno 17371 bound_to 10713
  140.1192  134.5242  155.8198 LP  0  0  0  0  0  0  0  0  0  0  0  0  # atno 17394 bound_to 11000
  141.2145  133.6750  156.6833 LP  0  0  0  0  0  0  0  0  0  0  0  0  # atno 17395 bound_to 11000

$$$$
