AV-unprocessed.smi:3329|AV-procd|sdf|12798|dock5
  -GOLD-   2272019153D 1   1.00000     0.00000
 Structure written by MMmdl.
 41 42  0  0  0  0  0  0  0  0  1 V2000
  145.4985  132.0339  149.9484 C   0  0  0  0  0  0  0  0  0  0  0  0
  145.1157  133.4064  150.4224 C   0  0  0  0  0  0  0  0  0  0  0  0
  143.8233  134.0049  150.4193 C   0  0  0  0  0  0  0  0  0  0  0  0
  143.8239  135.2335  150.9100 N   0  0  0  0  0  0  0  0  0  0  0  0
  145.1120  135.4630  151.2417 N   0  0  0  0  0  0  0  0  0  0  0  0
  145.4918  136.7357  151.8288 C   0  0  0  0  0  0  0  0  0  0  0  0
  145.9401  137.7616  150.7736 C   0  0  0  0  0  0  0  0  0  0  0  0
  147.1547  138.4343  151.2116 N   0  0  0  0  0  0  0  0  0  0  0  0
  146.8770  139.3299  152.3386 C   0  0  0  0  0  0  0  0  0  0  0  0
  147.4867  138.8038  153.6369 C   0  0  0  0  0  0  0  0  0  0  0  0
  146.7649  138.2727  154.4793 O   0  0  0  0  0  0  0  0  0  0  0  0
  148.8141  138.9637  153.7797 N   0  0  0  0  0  0  0  0  0  0  0  0
  149.6631  138.5323  154.8929 C   0  0  2  0  0  0  0  0  0  0  0  0
  149.5860  136.9998  155.0431 C   0  0  0  0  0  0  0  0  0  0  0  0
  149.1057  139.1264  156.1224 C   0  0  0  0  0  0  0  0  0  0  0  0
  148.6705  139.5943  157.0876 N   0  0  0  0  0  0  0  0  0  0  0  0
  151.1261  138.9622  154.7375 C   0  0  0  0  0  0  0  0  0  0  0  0
  152.2411  137.9735  154.4771 C   0  0  0  0  0  0  0  0  0  0  0  0
  152.1694  138.7031  155.8010 C   0  0  0  0  0  0  0  0  0  0  0  0
  145.9140  134.3785  150.9553 C   0  0  0  0  0  0  0  0  0  0  0  0
  144.6330  131.3751  149.8732 H   0  0  0  0  0  0  0  0  0  0  0  0
  146.2066  131.5564  150.6259 H   0  0  0  0  0  0  0  0  0  0  0  0
  145.9654  132.0654  148.9638 H   0  0  0  0  0  0  0  0  0  0  0  0
  142.8893  133.5842  150.0770 H   0  0  0  0  0  0  0  0  0  0  0  0
  144.6507  137.1224  152.4062 H   0  0  0  0  0  0  0  0  0  0  0  0
  146.3002  136.5574  152.5391 H   0  0  0  0  0  0  0  0  0  0  0  0
  146.1264  137.2518  149.8276 H   0  0  0  0  0  0  0  0  0  0  0  0
  145.1488  138.4920  150.5971 H   0  0  0  0  0  0  0  0  0  0  0  0
  147.8384  137.7343  151.4631 H   0  0  0  0  0  0  0  0  0  0  0  0
  147.2843  140.3216  152.1361 H   0  0  0  0  0  0  0  0  0  0  0  0
  145.7987  139.4407  152.4646 H   0  0  0  0  0  0  0  0  0  0  0  0
  149.2956  139.4178  153.0169 H   0  0  0  0  0  0  0  0  0  0  0  0
  150.1322  136.6676  155.9268 H   0  0  0  0  0  0  0  0  0  0  0  0
  150.0157  136.4800  154.1867 H   0  0  0  0  0  0  0  0  0  0  0  0
  148.5541  136.6635  155.1521 H   0  0  0  0  0  0  0  0  0  0  0  0
  151.2392  139.9033  154.2035 H   0  0  0  0  0  0  0  0  0  0  0  0
  152.0029  136.9121  154.4737 H   0  0  0  0  0  0  0  0  0  0  0  0
  153.0213  138.2737  153.7806 H   0  0  0  0  0  0  0  0  0  0  0  0
  152.9009  139.4877  155.9833 H   0  0  0  0  0  0  0  0  0  0  0  0
  151.8812  138.1275  156.6780 H   0  0  0  0  0  0  0  0  0  0  0  0
  146.9751  134.3874  151.1571 H   0  0  0  0  0  0  0  0  0  0  0  0
  1  2  1  0  0  0  0
  1 21  1  0  0  0  0
  1 22  1  0  0  0  0
  1 23  1  0  0  0  0
  2 20  2  0  0  0  0
  2  3  1  0  0  0  0
  3  4  2  0  0  0  0
  3 24  1  0  0  0  0
  4  5  1  0  0  0  0
  5  6  1  0  0  0  0
  5 20  1  0  0  0  0
  6  7  1  0  0  0  0
  6 25  1  0  0  0  0
  6 26  1  0  0  0  0
  7  8  1  0  0  0  0
  7 27  1  0  0  0  0
  7 28  1  0  0  0  0
  8  9  1  0  0  0  0
  8 29  1  0  0  0  0
  9 10  1  0  0  0  0
  9 30  1  0  0  0  0
  9 31  1  0  0  0  0
 10 11  2  0  0  0  0
 10 12  1  0  0  0  0
 12 13  1  0  0  0  0
 12 32  1  0  0  0  0
 13 14  1  0  0  0  0
 13 15  1  0  0  0  0
 13 17  1  0  0  0  0
 14 33  1  0  0  0  0
 14 34  1  0  0  0  0
 14 35  1  0  0  0  0
 15 16  3  0  0  0  0
 17 19  1  0  0  0  0
 17 18  1  0  0  0  0
 17 36  1  0  0  0  0
 18 19  1  0  0  0  0
 18 37  1  0  0  0  0
 18 38  1  0  0  0  0
 19 39  1  0  0  0  0
 19 40  1  0  0  0  0
 20 41  1  0  0  0  0
M  END
> <s_m_source_file>
AV-unprocessed.smi

> <i_m_source_file_index>
3329

> <i_lp_mmshare_version>
43012

> <i_f3d_flags>
0

> <s_epik_input>
W0NIM11jMVtjSF1ubihbY0hdMSlbQ0gyXVtDSDJdW05IXVtDSDJdQyg9TylbTkhdW0NAQF0oW0NIM10pKEMjTilbQ0hdMltDSDJdW0NIMl0y

> <s_epik_cmdline>
J2VwaWtfcHl0aG9uJywgJy1waCcsICc3LjAnLCAnLXRuJywgJzgnLCAnLW1hJywgJzIwMCcsICctbWV0YWxfYmluZGluZycsICctaW1hZScsICc8aW5maWxlLm1hZT4nLCAnLW9tYWUnLCAnPG91dGZpbGUubWFlPic=

> <r_lp_tautomer_probability>
1

> <r_epik_Ionization_Penalty>
0.481866

> <r_epik_Ionization_Penalty_Charging>
0

> <r_epik_Ionization_Penalty_Neutral>
0.481866

> <r_epik_State_Penalty>
0.48398

> <r_epik_Charging_Adjusted_Penalty>
0.48398

> <i_epik_Tot_Q>
0

> <i_epik_Tot_abs_Q>
0

> <r_epik_Metal_State_Penalty>
0.5042

> <b_epik_Metal_Only>
0

> <s_lp_Force_Field>
OPLS_2005

> <r_lp_Energy>
14.7625

> <b_lp_Chiralities_Consistent>
1

> <s_lp_Variant>
AV-unprocessed.smi:3329-4

> <Gold.Version>
5.8.1

> <Gold.Id.Protein>
6NUR|6NUR_protein|mol2

> <Gold.PLP.Fitness>
44.8885

> <Gold.PLP.PLP>
-36.3457

> <Gold.PLP.part.hbond>
-4.0000

> <Gold.PLP.part.metal>
0.0000

> <Gold.PLP.part.buried>
1.1796

> <Gold.PLP.part.nonpolar>
-34.3706

> <Gold.PLP.part.repulsive>
0.3886

> <Gold.PLP.ligand.clash>
0.0000

> <Gold.PLP.ligand.torsion>
2.3469

> <Gold.PLP.Chemscore.Hbond>
2.0000

> <Gold.PLP.Chemscore.CHOScore>
1.8725

> <Gold.PLP.Chemscore.Metal>
0.0000

> <Gold.Chemscore.Hbonds>
donor molecule, donor type, donor heavy atom, donor atom, acceptor molecule, acceptor atom, score
      L1  H     8    29       P1  7948  1.00
      L1  H    12    32       P1  7957  1.00
      L1  C     3    24       P1 10186  1.00
      L1  C    20    41       P1  7948  0.49

> <Gold.PLP.Chemscore.Internal.Correction>
1.6191

> <Gold.Rescore>
     Score         DG    S(hbond)    S(metal)    S(lipo)     H(rot)  DE(clash)    DE(int)     intcor
     12.45     -17.47       1.99        0.00      96.14       2.31       1.76       3.26       ----

> <Gold.Chemscore.Fitness>
12.4456

> <Gold.Chemscore.DG>
-17.4695

> <Gold.Chemscore.ZeroCoef>
-5.4800

> <Gold.Chemscore.Hbond>
1.9948

> <Gold.Chemscore.Metal>
0.0000

> <Gold.Chemscore.Lipo>
96.1357

> <Gold.Chemscore.Internal_Hbond>
0.0000

> <Gold.Chemscore.DEClash>
1.7602

> <Gold.Chemscore.DEInternal>
3.2637

> <Gold.Chemscore.Rot>
2.3129

> <Gold.Chemscore.Internal.Correction>
   9.000000E+99

> <Gold.Chemscore.Hbonds>
donor molecule, donor type, donor heavy atom, donor atom, acceptor molecule, acceptor atom, score
      L1  H     8    29       P1  7948  1.00
      L1  H    12    32       P1  7957  0.97

> <Gold.Chemscore.Hbond.Weighted>
-6.6628

> <Gold.Chemscore.Metal.Weighted>
-0.0000

> <Gold.Chemscore.Lipo.Weighted>
-11.2479

> <Gold.Chemscore.Internal_Hbond.Weighted>
0.0000

> <Gold.Chemscore.DEClash.Weighted>
1.7602

> <Gold.Chemscore.DEInternal.Weighted>
3.2637

> <Gold.Chemscore.Rot.Weighted>
5.9211

> <Gold.Chemscore.Internal.Correction.Weighted>
   9.000000E+99

> <Gold.Protein.RotatedTorsions>
[ 6907 6896 6895 6894 ] final -174.71 input  -60.11 | X-H torsion
[ 7974 7965 7964 7962 ] final    3.62 input  175.53 | X-H torsion
[ 8008 7997 7996 7995 ] final   -2.64 input   59.86 | X-H torsion
[ 10167 10162 10161 10158 ] final   99.62 input  -65.29 | X-H torsion
[ 10718 10713 10712 10709 ] final  -50.34 input   66.30 | X-H torsion
[ 10763 10752 10751 10750 ] final   78.45 input  -60.55 | X-H torsion
[ 11005 11000 10999 10996 ] final  136.79 input  -57.11 | X-H torsion

> <Gold.Protein.ActiveResidues>
 VAL166  LYS551  ARG553  GLY616  TRP617  ASP618  TYR619  PRO620  LYS621  CYS622 
 ASP623  PHE694  ASN695  SER759  ASP760  ASP761  ALA762  ILE779  LEU786  VAL792 
 PHE793  MET794  SER795  GLU796  ALA797  LYS798  CYS799  TRP800  GLU811  SER814 

> <Gold.Protein.RotatedAtoms>
  151.5768  133.3382  159.3000 H   0  0  0  0  0  0  0  0  0  0  0  0  # atno 6907 bound_to 6896
  150.8336  134.7602  159.6885 H   0  0  0  0  0  0  0  0  0  0  0  0  # atno 6908 bound_to 6896
  152.4416  134.5587  159.9939 H   0  0  0  0  0  0  0  0  0  0  0  0  # atno 6909 bound_to 6896
  146.2445  140.0658  142.8365 H   0  0  0  0  0  0  0  0  0  0  0  0  # atno 7974 bound_to 7965
  154.6336  140.2529  155.7405 H   0  0  0  0  0  0  0  0  0  0  0  0  # atno 8008 bound_to 7997
  156.2492  140.2902  156.0618 H   0  0  0  0  0  0  0  0  0  0  0  0  # atno 8009 bound_to 7997
  155.1706  140.0386  157.2852 H   0  0  0  0  0  0  0  0  0  0  0  0  # atno 8010 bound_to 7997
  139.7601  144.6957  151.0305 H   0  0  0  0  0  0  0  0  0  0  0  0  # atno 10167 bound_to 10162
  156.1809  130.4150  149.9508 H   0  0  0  0  0  0  0  0  0  0  0  0  # atno 10718 bound_to 10713
  153.0875  135.4877  154.8625 H   0  0  0  0  0  0  0  0  0  0  0  0  # atno 10763 bound_to 10752
  154.7228  135.3043  154.9021 H   0  0  0  0  0  0  0  0  0  0  0  0  # atno 10764 bound_to 10752
  153.9680  135.6804  153.4799 H   0  0  0  0  0  0  0  0  0  0  0  0  # atno 10765 bound_to 10752
  140.0070  134.9455  157.0196 H   0  0  0  0  0  0  0  0  0  0  0  0  # atno 11005 bound_to 11000
  145.0859  140.9252  143.4797 LP  0  0  0  0  0  0  0  0  0  0  0  0  # atno 17320 bound_to 7965
  145.0821  139.2952  143.5778 LP  0  0  0  0  0  0  0  0  0  0  0  0  # atno 17321 bound_to 7965
  140.7806  143.4707  151.0150 LP  0  0  0  0  0  0  0  0  0  0  0  0  # atno 17342 bound_to 10162
  139.8394  143.7585  152.3180 LP  0  0  0  0  0  0  0  0  0  0  0  0  # atno 17343 bound_to 10162
  156.7279  130.9032  151.3623 LP  0  0  0  0  0  0  0  0  0  0  0  0  # atno 17370 bound_to 10713
  157.6867  130.9193  150.0406 LP  0  0  0  0  0  0  0  0  0  0  0  0  # atno 17371 bound_to 10713
  140.4623  134.1471  155.7193 LP  0  0  0  0  0  0  0  0  0  0  0  0  # atno 17394 bound_to 11000
  141.1684  133.8658  157.1646 LP  0  0  0  0  0  0  0  0  0  0  0  0  # atno 17395 bound_to 11000

$$$$
