AV-unprocessed.smi:1494|AV-procd|sdf|6052|dock4
  -GOLD-   22720 6163D 1   1.00000     0.00000
 Structure written by MMmdl.
 30 31  0  0  0  0  0  0  0  0  1 V2000
  151.6282  141.6714  157.7828 O   0  0  0  0  0  0  0  0  0  0  0  0
  151.0224  142.5562  157.1789 C   0  0  0  0  0  0  0  0  0  0  0  0
  151.0877  143.8535  157.5096 N   0  0  0  0  0  0  0  0  0  0  0  0
  151.8600  144.3986  158.6197 C   0  0  0  0  0  0  0  0  0  0  0  0
  151.7063  143.5440  159.8749 C   0  0  0  0  0  0  0  0  0  0  0  0
  151.9787  144.1581  161.2568 C   0  0  0  0  0  0  0  0  0  0  0  0
  152.5381  142.8028  161.6967 C   0  0  0  0  0  0  0  0  0  0  0  0
  152.7759  142.4958  160.2155 C   0  0  0  0  0  0  0  0  0  0  0  0
  150.2288  142.3702  156.1102 N   0  0  0  0  0  0  0  0  0  0  0  0
  149.9151  141.1616  155.4307 C   0  0  0  0  0  0  0  0  0  0  0  0
  148.7832  140.9779  154.5993 C   0  0  0  0  0  0  0  0  0  0  0  0
  148.5944  139.7299  153.9749 C   0  0  0  0  0  0  0  0  0  0  0  0
  149.5448  138.7147  154.1973 C   0  0  0  0  0  0  0  0  0  0  0  0
  150.6352  138.8801  154.9752 N   0  0  0  0  0  0  0  0  0  0  0  0
  150.8096  140.0793  155.5703 C   0  0  0  0  0  0  0  0  0  0  0  0
  150.5597  144.5128  156.9567 H   0  0  0  0  0  0  0  0  0  0  0  0
  152.9108  144.4868  158.3398 H   0  0  0  0  0  0  0  0  0  0  0  0
  151.5089  145.4139  158.8059 H   0  0  0  0  0  0  0  0  0  0  0  0
  150.7290  143.0567  159.8954 H   0  0  0  0  0  0  0  0  0  0  0  0
  152.7397  144.9399  161.2312 H   0  0  0  0  0  0  0  0  0  0  0  0
  151.0871  144.4825  161.7943 H   0  0  0  0  0  0  0  0  0  0  0  0
  153.4417  142.8561  162.3049 H   0  0  0  0  0  0  0  0  0  0  0  0
  151.7811  142.1583  162.1466 H   0  0  0  0  0  0  0  0  0  0  0  0
  152.5298  141.4772  159.9141 H   0  0  0  0  0  0  0  0  0  0  0  0
  153.7746  142.7833  159.8821 H   0  0  0  0  0  0  0  0  0  0  0  0
  149.8499  143.2076  155.6927 H   0  0  0  0  0  0  0  0  0  0  0  0
  148.0664  141.7629  154.4169 H   0  0  0  0  0  0  0  0  0  0  0  0
  147.7407  139.5563  153.3367 H   0  0  0  0  0  0  0  0  0  0  0  0
  149.4289  137.7461  153.7340 H   0  0  0  0  0  0  0  0  0  0  0  0
  151.6938  140.1758  156.1840 H   0  0  0  0  0  0  0  0  0  0  0  0
  1  2  2  0  0  0  0
  2  3  1  0  0  0  0
  2  9  1  0  0  0  0
  3  4  1  0  0  0  0
  3 16  1  0  0  0  0
  4  5  1  0  0  0  0
  4 17  1  0  0  0  0
  4 18  1  0  0  0  0
  5  8  1  0  0  0  0
  5  6  1  0  0  0  0
  5 19  1  0  0  0  0
  6  7  1  0  0  0  0
  6 20  1  0  0  0  0
  6 21  1  0  0  0  0
  7  8  1  0  0  0  0
  7 22  1  0  0  0  0
  7 23  1  0  0  0  0
  8 24  1  0  0  0  0
  8 25  1  0  0  0  0
  9 10  1  0  0  0  0
  9 26  1  0  0  0  0
 10 15  1  0  0  0  0
 10 11  2  0  0  0  0
 11 12  1  0  0  0  0
 11 27  1  0  0  0  0
 12 13  2  0  0  0  0
 12 28  1  0  0  0  0
 13 14  1  0  0  0  0
 13 29  1  0  0  0  0
 14 15  2  0  0  0  0
 15 30  1  0  0  0  0
M  END
> <s_m_source_file>
AV-unprocessed.smi

> <i_m_source_file_index>
1494

> <i_lp_mmshare_version>
43012

> <i_f3d_flags>
0

> <s_epik_input>
W0NIMl0xW0NIMl1bQ0gyXVtDSF0xW0NIMl1bTkhdQyg9TylbTkhdYzJbY0hdW2NIXVtjSF1uW2NIXTI=

> <s_epik_cmdline>
J2VwaWtfcHl0aG9uJywgJy1waCcsICc3LjAnLCAnLXRuJywgJzgnLCAnLW1hJywgJzIwMCcsICctbWV0YWxfYmluZGluZycsICctaW1hZScsICc8aW5maWxlLm1hZT4nLCAnLW9tYWUnLCAnPG91dGZpbGUubWFlPic=

> <r_epik_Ionization_Penalty>
0.00485471

> <r_epik_Ionization_Penalty_Charging>
0

> <r_epik_Ionization_Penalty_Neutral>
0.00485471

> <r_epik_State_Penalty>
0.00349083

> <r_epik_Charging_Adjusted_Penalty>
0.00349083

> <i_epik_Tot_Q>
0

> <i_epik_Tot_abs_Q>
0

> <r_epik_Metal_State_Penalty>
-0

> <b_epik_Metal_Only>
0

> <s_lp_Force_Field>
OPLS_2005

> <r_lp_Energy>
15.2707

> <b_lp_Chiralities_Consistent>
1

> <s_lp_Variant>
AV-unprocessed.smi:1494-1

> <Gold.Version>
5.8.1

> <Gold.Id.Protein>
6NUR|6NUR_protein|mol2

> <Gold.PLP.Fitness>
46.0003

> <Gold.PLP.PLP>
-38.2652

> <Gold.PLP.part.hbond>
-2.0000

> <Gold.PLP.part.metal>
0.0000

> <Gold.PLP.part.buried>
-3.0020

> <Gold.PLP.part.nonpolar>
-33.7135

> <Gold.PLP.part.repulsive>
0.2558

> <Gold.PLP.ligand.clash>
0.0000

> <Gold.PLP.ligand.torsion>
0.5771

> <Gold.PLP.Chemscore.Hbond>
1.9440

> <Gold.PLP.Chemscore.CHOScore>
1.0000

> <Gold.PLP.Chemscore.Metal>
0.0000

> <Gold.Chemscore.Hbonds>
donor molecule, donor type, donor heavy atom, donor atom, acceptor molecule, acceptor atom, score
      L1  H     3    16       P1  8028  0.77
      L1  H     9    26       P1  8028  1.00
      L1  C    13    29       P1  7948  1.00

> <Gold.PLP.Chemscore.Internal.Correction>
0.0574

> <Gold.Rescore>
     Score         DG    S(hbond)    S(metal)    S(lipo)     H(rot)  DE(clash)    DE(int)     intcor
     16.16     -19.51       1.95        0.00      90.47       1.20       0.15       3.21       ----

> <Gold.Chemscore.Fitness>
16.1577

> <Gold.Chemscore.DG>
-19.5143

> <Gold.Chemscore.ZeroCoef>
-5.4800

> <Gold.Chemscore.Hbond>
1.9535

> <Gold.Chemscore.Metal>
0.0000

> <Gold.Chemscore.Lipo>
90.4744

> <Gold.Chemscore.Internal_Hbond>
0.0000

> <Gold.Chemscore.DEClash>
0.1495

> <Gold.Chemscore.DEInternal>
3.2070

> <Gold.Chemscore.Rot>
1.2015

> <Gold.Chemscore.Internal.Correction>
   9.000000E+99

> <Gold.Chemscore.Hbonds>
donor molecule, donor type, donor heavy atom, donor atom, acceptor molecule, acceptor atom, score
      L1  H     3    16       P1  8028  0.65
      L1  H     9    26       P1  8028  0.99

> <Gold.Chemscore.Hbond.Weighted>
-6.5246

> <Gold.Chemscore.Metal.Weighted>
-0.0000

> <Gold.Chemscore.Lipo.Weighted>
-10.5855

> <Gold.Chemscore.Internal_Hbond.Weighted>
0.0000

> <Gold.Chemscore.DEClash.Weighted>
0.1495

> <Gold.Chemscore.DEInternal.Weighted>
3.2070

> <Gold.Chemscore.Rot.Weighted>
3.0758

> <Gold.Chemscore.Internal.Correction.Weighted>
   9.000000E+99

> <Gold.Protein.RotatedTorsions>
[ 6907 6896 6895 6894 ] final  104.07 input  -60.11 | X-H torsion
[ 7974 7965 7964 7962 ] final   12.58 input  175.53 | X-H torsion
[ 8008 7997 7996 7995 ] final  105.35 input   59.86 | X-H torsion
[ 10167 10162 10161 10158 ] final  -66.73 input  -65.29 | X-H torsion
[ 10718 10713 10712 10709 ] final  156.08 input   66.30 | X-H torsion
[ 10763 10752 10751 10750 ] final -167.70 input  -60.55 | X-H torsion
[ 11005 11000 10999 10996 ] final   57.63 input  -57.11 | X-H torsion

> <Gold.Protein.ActiveResidues>
 VAL166  LYS551  ARG553  GLY616  TRP617  ASP618  TYR619  PRO620  LYS621  CYS622 
 ASP623  PHE694  ASN695  SER759  ASP760  ASP761  ALA762  ILE779  LEU786  VAL792 
 PHE793  MET794  SER795  GLU796  ALA797  LYS798  CYS799  TRP800  GLU811  SER814 

> <Gold.Protein.RotatedAtoms>
  152.5276  133.9731  159.7770 H   0  0  0  0  0  0  0  0  0  0  0  0  # atno 6907 bound_to 6896
  150.9999  133.6058  159.2703 H   0  0  0  0  0  0  0  0  0  0  0  0  # atno 6908 bound_to 6896
  151.3171  135.0815  159.9346 H   0  0  0  0  0  0  0  0  0  0  0  0  # atno 6909 bound_to 6896
  146.2348  139.9316  142.8495 H   0  0  0  0  0  0  0  0  0  0  0  0  # atno 7974 bound_to 7965
  156.1651  140.3132  155.8875 H   0  0  0  0  0  0  0  0  0  0  0  0  # atno 8008 bound_to 7997
  155.3702  140.0481  157.3062 H   0  0  0  0  0  0  0  0  0  0  0  0  # atno 8009 bound_to 7997
  154.5185  140.2190  155.9032 H   0  0  0  0  0  0  0  0  0  0  0  0  # atno 8010 bound_to 7997
  140.5635  143.2313  151.6681 H   0  0  0  0  0  0  0  0  0  0  0  0  # atno 10167 bound_to 10162
  157.2098  131.0695  151.1976 H   0  0  0  0  0  0  0  0  0  0  0  0  # atno 10718 bound_to 10713
  154.6705  135.2938  154.9748 H   0  0  0  0  0  0  0  0  0  0  0  0  # atno 10763 bound_to 10752
  154.0777  135.6609  153.4837 H   0  0  0  0  0  0  0  0  0  0  0  0  # atno 10764 bound_to 10752
  153.0484  135.5190  154.7699 H   0  0  0  0  0  0  0  0  0  0  0  0  # atno 10765 bound_to 10752
  140.0438  134.5835  155.9348 H   0  0  0  0  0  0  0  0  0  0  0  0  # atno 11005 bound_to 11000
  145.2039  140.9866  143.4140 LP  0  0  0  0  0  0  0  0  0  0  0  0  # atno 17320 bound_to 7965
  144.9750  139.3841  143.6290 LP  0  0  0  0  0  0  0  0  0  0  0  0  # atno 17321 bound_to 7965
  139.5081  144.3621  152.0552 LP  0  0  0  0  0  0  0  0  0  0  0  0  # atno 17342 bound_to 10162
  140.2751  144.3922  150.6138 LP  0  0  0  0  0  0  0  0  0  0  0  0  # atno 17343 bound_to 10162
  157.3684  130.7168  149.6548 LP  0  0  0  0  0  0  0  0  0  0  0  0  # atno 17370 bound_to 10713
  155.9692  130.4206  150.4429 LP  0  0  0  0  0  0  0  0  0  0  0  0  # atno 17371 bound_to 10713
  141.1896  133.6566  156.5377 LP  0  0  0  0  0  0  0  0  0  0  0  0  # atno 17394 bound_to 11000
  140.4026  134.7343  157.4789 LP  0  0  0  0  0  0  0  0  0  0  0  0  # atno 17395 bound_to 11000

$$$$
