AV-unprocessed.smi:876|AV-procd|sdf|4024|dock6
  -GOLD-   22720 1513D 1   1.00000     0.00000
 Structure written by MMmdl.
 40 41  0  0  0  0  0  0  0  0  1 V2000
  151.2147  140.6020  158.3003 C   0  0  0  0  0  0  0  0  0  0  0  0
  150.7359  140.9838  156.9774 N   0  0  0  0  0  0  0  0  0  0  0  0
  150.9972  142.3266  156.4690 C   0  0  0  0  0  0  0  0  0  0  0  0
  149.9797  140.0734  156.2041 C   0  0  0  0  0  0  0  0  0  0  0  0
  148.9838  139.2532  156.7905 C   0  0  0  0  0  0  0  0  0  0  0  0
  148.2552  138.3624  155.9788 C   0  0  0  0  0  0  0  0  0  0  0  0
  148.5316  138.3140  154.5930 C   0  0  0  0  0  0  0  0  0  0  0  0
  147.8821  137.4494  153.6705 N   0  0  0  0  0  0  0  0  0  0  0  0
  146.6316  136.9584  153.7143 C   0  0  0  0  0  0  0  0  0  0  0  0
  145.7970  137.2042  154.5849 O   0  0  0  0  0  0  0  0  0  0  0  0
  146.3881  136.1625  152.6637 N   0  0  0  0  0  0  0  0  0  0  0  0
  145.1234  135.4818  152.4097 C   0  0  1  0  0  0  0  0  0  0  0  0
  144.5820  135.8577  151.0580 C   0  0  0  0  0  0  0  0  0  0  0  0
  144.3917  134.8029  150.2690 C   0  0  0  0  0  0  0  0  0  0  0  0
  144.7887  133.5031  150.9214 C   0  0  2  0  0  0  0  0  0  0  0  0
  143.6364  132.4848  150.9684 C   0  0  0  0  0  0  0  0  0  0  0  0
  143.1090  132.2689  149.6761 O   0  0  0  0  0  0  0  0  0  0  0  0
  145.2731  133.9394  152.3279 C   0  0  0  0  0  0  0  0  0  0  0  0
  149.5481  139.1567  154.1031 C   0  0  0  0  0  0  0  0  0  0  0  0
  150.2480  140.0117  154.8769 N   0  0  0  0  0  0  0  0  0  0  0  0
  144.3871  135.7612  153.1652 H   0  0  0  0  0  0  0  0  0  0  0  0
  145.6269  133.0843  150.3624 H   0  0  0  0  0  0  0  0  0  0  0  0
  151.9010  139.7576  158.2303 H   0  0  0  0  0  0  0  0  0  0  0  0
  150.3804  140.3233  158.9448 H   0  0  0  0  0  0  0  0  0  0  0  0
  151.7460  141.4227  158.7824 H   0  0  0  0  0  0  0  0  0  0  0  0
  150.0620  142.8662  156.3160 H   0  0  0  0  0  0  0  0  0  0  0  0
  151.5301  142.2802  155.5188 H   0  0  0  0  0  0  0  0  0  0  0  0
  151.6069  142.9041  157.1638 H   0  0  0  0  0  0  0  0  0  0  0  0
  148.7666  139.2843  157.8473 H   0  0  0  0  0  0  0  0  0  0  0  0
  147.5135  137.7297  156.4401 H   0  0  0  0  0  0  0  0  0  0  0  0
  148.4210  137.2130  152.8502 H   0  0  0  0  0  0  0  0  0  0  0  0
  147.1276  136.0167  151.9922 H   0  0  0  0  0  0  0  0  0  0  0  0
  144.3668  136.8812  150.7882 H   0  0  0  0  0  0  0  0  0  0  0  0
  144.0086  134.8449  149.2598 H   0  0  0  0  0  0  0  0  0  0  0  0
  143.9907  131.5307  151.3598 H   0  0  0  0  0  0  0  0  0  0  0  0
  142.8398  132.8295  151.6288 H   0  0  0  0  0  0  0  0  0  0  0  0
  142.4056  132.8836  149.5323 H   0  0  0  0  0  0  0  0  0  0  0  0
  146.3061  133.6241  152.4814 H   0  0  0  0  0  0  0  0  0  0  0  0
  144.6852  133.4668  153.1158 H   0  0  0  0  0  0  0  0  0  0  0  0
  149.8083  139.1500  153.0545 H   0  0  0  0  0  0  0  0  0  0  0  0
  1  2  1  0  0  0  0
  1 23  1  0  0  0  0
  1 24  1  0  0  0  0
  1 25  1  0  0  0  0
  2  3  1  0  0  0  0
  2  4  1  0  0  0  0
  3 26  1  0  0  0  0
  3 27  1  0  0  0  0
  3 28  1  0  0  0  0
  4 20  1  0  0  0  0
  4  5  2  0  0  0  0
  5  6  1  0  0  0  0
  5 29  1  0  0  0  0
  6  7  2  0  0  0  0
  6 30  1  0  0  0  0
  7  8  1  0  0  0  0
  7 19  1  0  0  0  0
  8  9  1  0  0  0  0
  8 31  1  0  0  0  0
  9 10  2  0  0  0  0
  9 11  1  0  0  0  0
 11 12  1  0  0  0  0
 11 32  1  0  0  0  0
 12 21  1  0  0  0  0
 12 18  1  0  0  0  0
 12 13  1  0  0  0  0
 13 14  2  0  0  0  0
 13 33  1  0  0  0  0
 14 15  1  0  0  0  0
 14 34  1  0  0  0  0
 15 22  1  0  0  0  0
 15 16  1  0  0  0  0
 15 18  1  0  0  0  0
 16 17  1  0  0  0  0
 16 35  1  0  0  0  0
 16 36  1  0  0  0  0
 17 37  1  0  0  0  0
 18 38  1  0  0  0  0
 18 39  1  0  0  0  0
 19 20  2  0  0  0  0
 19 40  1  0  0  0  0
M  END
> <s_m_source_file>
AV-unprocessed.smi

> <i_m_source_file_index>
876

> <i_lp_mmshare_version>
43012

> <i_f3d_flags>
0

> <s_epik_input>
W0NIM11OKFtDSDNdKWMxW2NIXVtjSF1jKFtjSF1uMSlbTkhdQyg9TylbTkhdW0NAQEhdMltDSF09W0NIXVtDQEBIXShbQ0gyXTIpW0NIMl1bT0hd

> <s_epik_cmdline>
J2VwaWtfcHl0aG9uJywgJy1waCcsICc3LjAnLCAnLXRuJywgJzgnLCAnLW1hJywgJzIwMCcsICctbWV0YWxfYmluZGluZycsICctaW1hZScsICc8aW5maWxlLm1hZT4nLCAnLW9tYWUnLCAnPG91dGZpbGUubWFlPic=

> <r_lp_tautomer_probability>
1

> <r_epik_Ionization_Penalty>
0.617998

> <r_epik_Ionization_Penalty_Charging>
0

> <r_epik_Ionization_Penalty_Neutral>
0.617998

> <r_epik_State_Penalty>
0.632637

> <r_epik_Charging_Adjusted_Penalty>
0.632637

> <i_epik_Tot_Q>
0

> <i_epik_Tot_abs_Q>
0

> <r_epik_Metal_State_Penalty>
0.305596

> <b_epik_Metal_Only>
0

> <s_lp_Force_Field>
OPLS_2005

> <r_lp_Energy>
20.6708

> <b_lp_Chiralities_Consistent>
1

> <s_lp_Variant>
AV-unprocessed.smi:876-6

> <Gold.Version>
5.8.1

> <Gold.Id.Protein>
6NUR|6NUR_protein|mol2

> <Gold.PLP.Fitness>
40.5665

> <Gold.PLP.PLP>
-28.2744

> <Gold.PLP.part.hbond>
-4.4778

> <Gold.PLP.part.metal>
0.0000

> <Gold.PLP.part.buried>
-1.7711

> <Gold.PLP.part.nonpolar>
-21.1301

> <Gold.PLP.part.repulsive>
0.1577

> <Gold.PLP.ligand.clash>
0.0000

> <Gold.PLP.ligand.torsion>
0.8751

> <Gold.PLP.Chemscore.Hbond>
3.6760

> <Gold.PLP.Chemscore.CHOScore>
1.0000

> <Gold.PLP.Chemscore.Metal>
0.0000

> <Gold.Chemscore.Hbonds>
donor molecule, donor type, donor heavy atom, donor atom, acceptor molecule, acceptor atom, score
      L1  H     8    31       P1  7948  0.88
      L1  H    11    32       P1  7948  0.82
      L1  H    17    37       P1 10186  0.89
      P1  H  7989  7998       L1    20  0.75
      P1  H 10785 10796       L1    17  0.26
      L1  C    19    40       P1  7957  1.00

> <Gold.PLP.Chemscore.Internal.Correction>
0.0144

> <Gold.Rescore>
     Score         DG    S(hbond)    S(metal)    S(lipo)     H(rot)  DE(clash)    DE(int)     intcor
     17.36     -18.25       3.11        0.00      59.60       1.80       0.10       0.79       ----

> <Gold.Chemscore.Fitness>
17.3618

> <Gold.Chemscore.DG>
-18.2481

> <Gold.Chemscore.ZeroCoef>
-5.4800

> <Gold.Chemscore.Hbond>
3.1132

> <Gold.Chemscore.Metal>
0.0000

> <Gold.Chemscore.Lipo>
59.5961

> <Gold.Chemscore.Internal_Hbond>
0.0000

> <Gold.Chemscore.DEClash>
0.0988

> <Gold.Chemscore.DEInternal>
0.7875

> <Gold.Chemscore.Rot>
1.7980

> <Gold.Chemscore.Internal.Correction>
   9.000000E+99

> <Gold.Chemscore.Hbonds>
donor molecule, donor type, donor heavy atom, donor atom, acceptor molecule, acceptor atom, score
      L1  H     8    31       P1  7948  0.83
      L1  H    11    32       P1  7948  0.81
      L1  H    17    37       P1 10186  0.87
      P1  H  7989  7998       L1    20  0.30
      P1  H 10785 10796       L1    17  0.26

> <Gold.Chemscore.Hbond.Weighted>
-10.3982

> <Gold.Chemscore.Metal.Weighted>
-0.0000

> <Gold.Chemscore.Lipo.Weighted>
-6.9727

> <Gold.Chemscore.Internal_Hbond.Weighted>
0.0000

> <Gold.Chemscore.DEClash.Weighted>
0.0988

> <Gold.Chemscore.DEInternal.Weighted>
0.7875

> <Gold.Chemscore.Rot.Weighted>
4.6029

> <Gold.Chemscore.Internal.Correction.Weighted>
   9.000000E+99

> <Gold.Protein.RotatedTorsions>
[ 6907 6896 6895 6894 ] final -131.28 input  -60.11 | X-H torsion
[ 7974 7965 7964 7962 ] final  -83.66 input  175.53 | X-H torsion
[ 8008 7997 7996 7995 ] final  -92.54 input   59.86 | X-H torsion
[ 10167 10162 10161 10158 ] final  -52.95 input  -65.29 | X-H torsion
[ 10718 10713 10712 10709 ] final    6.64 input   66.30 | X-H torsion
[ 10763 10752 10751 10750 ] final -171.03 input  -60.55 | X-H torsion
[ 11005 11000 10999 10996 ] final   88.41 input  -57.11 | X-H torsion

> <Gold.Protein.ActiveResidues>
 VAL166  LYS551  ARG553  GLY616  TRP617  ASP618  TYR619  PRO620  LYS621  CYS622 
 ASP623  PHE694  ASN695  SER759  ASP760  ASP761  ALA762  ILE779  LEU786  VAL792 
 PHE793  MET794  SER795  GLU796  ALA797  LYS798  CYS799  TRP800  GLU811  SER814 

> <Gold.Protein.RotatedAtoms>
  150.9492  133.6569  159.2775 H   0  0  0  0  0  0  0  0  0  0  0  0  # atno 6907 bound_to 6896
  151.3931  135.0958  159.9542 H   0  0  0  0  0  0  0  0  0  0  0  0  # atno 6908 bound_to 6896
  152.5102  133.9002  159.7492 H   0  0  0  0  0  0  0  0  0  0  0  0  # atno 6909 bound_to 6896
  145.5169  140.9535  143.1676 H   0  0  0  0  0  0  0  0  0  0  0  0  # atno 7974 bound_to 7965
  154.7244  140.0508  157.0669 H   0  0  0  0  0  0  0  0  0  0  0  0  # atno 8008 bound_to 7997
  155.0385  140.3166  155.4714 H   0  0  0  0  0  0  0  0  0  0  0  0  # atno 8009 bound_to 7997
  156.2825  140.2137  156.5508 H   0  0  0  0  0  0  0  0  0  0  0  0  # atno 8010 bound_to 7997
  140.6511  143.2566  151.4721 H   0  0  0  0  0  0  0  0  0  0  0  0  # atno 10167 bound_to 10162
  156.9252  130.5805  149.5648 H   0  0  0  0  0  0  0  0  0  0  0  0  # atno 10718 bound_to 10713
  154.6351  135.2891  155.0171 H   0  0  0  0  0  0  0  0  0  0  0  0  # atno 10763 bound_to 10752
  154.1318  135.6532  153.4927 H   0  0  0  0  0  0  0  0  0  0  0  0  # atno 10764 bound_to 10752
  153.0298  135.5312  154.7194 H   0  0  0  0  0  0  0  0  0  0  0  0  # atno 10765 bound_to 10752
  139.8897  134.8486  156.2997 H   0  0  0  0  0  0  0  0  0  0  0  0  # atno 11005 bound_to 11000
  144.7697  139.6764  143.7200 LP  0  0  0  0  0  0  0  0  0  0  0  0  # atno 17320 bound_to 7965
  146.2131  139.5500  142.9668 LP  0  0  0  0  0  0  0  0  0  0  0  0  # atno 17321 bound_to 7965
  139.5726  144.1893  152.1858 LP  0  0  0  0  0  0  0  0  0  0  0  0  # atno 17342 bound_to 10162
  140.1194  144.5387  150.6872 LP  0  0  0  0  0  0  0  0  0  0  0  0  # atno 17343 bound_to 10162
  156.0472  130.5547  150.8909 LP  0  0  0  0  0  0  0  0  0  0  0  0  # atno 17370 bound_to 10713
  157.5882  131.0945  150.9161 LP  0  0  0  0  0  0  0  0  0  0  0  0  # atno 17371 bound_to 10713
  140.9922  133.7202  156.0831 LP  0  0  0  0  0  0  0  0  0  0  0  0  # atno 17394 bound_to 11000
  140.7610  134.3939  157.5525 LP  0  0  0  0  0  0  0  0  0  0  0  0  # atno 17395 bound_to 11000

$$$$
