AV-unprocessed.smi:1815|AV-procd|sdf|7363|dock8
  -GOLD-   22720 9 23D 1   1.00000     0.00000
 Structure written by MMmdl.
 39 40  0  0  0  0  0  0  0  0  3 V2000
  148.3263  133.5974  153.2266 C   0  0  0  0  0  0  0  0  0  0  0  0
  146.8152  133.4048  153.0058 C   0  0  1  0  0  0  0  0  0  0  0  0
  145.9953  134.6967  153.1938 C   0  0  0  0  0  0  0  0  0  0  0  0
  146.1866  135.6240  152.0536 N   0  3  2  0  0  0  0  0  0  0  0  0
  145.4614  136.9052  152.2380 C   0  0  0  0  0  0  0  0  0  0  0  0
  146.3469  138.1239  151.9366 C   0  0  0  0  0  0  0  0  0  0  0  0
  147.4768  138.1691  152.8536 N   0  0  0  0  0  0  0  0  0  0  0  0
  147.6512  139.0854  153.8146 C   0  0  0  0  0  0  0  0  0  0  0  0
  146.8122  139.9754  153.9726 O   0  0  0  0  0  0  0  0  0  0  0  0
  148.7848  138.9125  154.5304 N   0  5  0  0  0  0  0  0  0  0  0  0
  149.1215  139.7999  155.4805 C   0  0  0  0  0  0  0  0  0  0  0  0
  150.3663  139.9221  155.9555 N   0  0  0  0  0  0  0  0  0  0  0  0
  150.4905  140.9016  156.9425 C   0  0  0  0  0  0  0  0  0  0  0  0
  149.3106  141.5341  157.2319 C   0  0  0  0  0  0  0  0  0  0  0  0
  148.0009  140.9149  156.2674 S   0  0  0  0  0  0  0  0  0  0  0  0
  145.8692  134.9399  150.7769 C   0  0  0  0  0  0  0  0  0  0  0  0
  146.7287  133.6729  150.6183 C   0  0  2  0  0  0  0  0  0  0  0  0
  146.3670  132.8883  149.3522 C   0  0  0  0  0  0  0  0  0  0  0  0
  146.5242  132.8156  151.7385 O   0  0  0  0  0  0  0  0  0  0  0  0
  148.5283  133.9214  154.2477 H   0  0  0  0  0  0  0  0  0  0  0  0
  148.7514  134.3472  152.5599 H   0  0  0  0  0  0  0  0  0  0  0  0
  148.8643  132.6629  153.0665 H   0  0  0  0  0  0  0  0  0  0  0  0
  146.4783  132.6875  153.7549 H   0  0  0  0  0  0  0  0  0  0  0  0
  144.9352  134.4503  153.2761 H   0  0  0  0  0  0  0  0  0  0  0  0
  146.2793  135.1831  154.1281 H   0  0  0  0  0  0  0  0  0  0  0  0
  144.5611  136.9155  151.6213 H   0  0  0  0  0  0  0  0  0  0  0  0
  145.1273  136.9794  153.2743 H   0  0  0  0  0  0  0  0  0  0  0  0
  146.7150  138.0745  150.9103 H   0  0  0  0  0  0  0  0  0  0  0  0
  145.7847  139.0526  152.0358 H   0  0  0  0  0  0  0  0  0  0  0  0
  148.1852  137.4563  152.7551 H   0  0  0  0  0  0  0  0  0  0  0  0
  151.4580  141.0810  157.3867 H   0  0  0  0  0  0  0  0  0  0  0  0
  149.1321  142.3206  157.9494 H   0  0  0  0  0  0  0  0  0  0  0  0
  144.8087  134.6834  150.7547 H   0  0  0  0  0  0  0  0  0  0  0  0
  146.0532  135.6043  149.9333 H   0  0  0  0  0  0  0  0  0  0  0  0
  147.7810  133.9504  150.5531 H   0  0  0  0  0  0  0  0  0  0  0  0
  146.5143  133.4953  148.4587 H   0  0  0  0  0  0  0  0  0  0  0  0
  145.3253  132.5662  149.3698 H   0  0  0  0  0  0  0  0  0  0  0  0
  146.9888  131.9983  149.2545 H   0  0  0  0  0  0  0  0  0  0  0  0
  147.1705  135.8523  152.0346 H   0  0  0  0  0  0  0  0  0  0  0  0
  1  2  1  0  0  0  0
  1 20  1  0  0  0  0
  1 21  1  0  0  0  0
  1 22  1  0  0  0  0
  2 19  1  0  0  0  0
  2  3  1  0  0  0  0
  2 23  1  0  0  0  0
  3  4  1  0  0  0  0
  3 24  1  0  0  0  0
  3 25  1  0  0  0  0
  4  5  1  0  0  0  0
  4 16  1  0  0  0  0
  4 39  1  0  0  0  0
  5  6  1  0  0  0  0
  5 26  1  0  0  0  0
  5 27  1  0  0  0  0
  6  7  1  0  0  0  0
  6 28  1  0  0  0  0
  6 29  1  0  0  0  0
  7  8  1  0  0  0  0
  7 30  1  0  0  0  0
  8  9  2  0  0  0  0
  8 10  1  0  0  0  0
 10 11  1  0  0  0  0
 11 15  1  0  0  0  0
 11 12  2  0  0  0  0
 12 13  1  0  0  0  0
 13 14  2  0  0  0  0
 13 31  1  0  0  0  0
 14 15  1  0  0  0  0
 14 32  1  0  0  0  0
 16 17  1  0  0  0  0
 16 33  1  0  0  0  0
 16 34  1  0  0  0  0
 17 18  1  0  0  0  0
 17 19  1  0  0  0  0
 17 35  1  0  0  0  0
 18 36  1  0  0  0  0
 18 37  1  0  0  0  0
 18 38  1  0  0  0  0
M  CHG  1   4   1
M  CHG  1  10  -1
M  END
> <s_m_source_file>
AV-unprocessed.smi

> <i_m_source_file_index>
1815

> <i_lp_mmshare_version>
43012

> <i_f3d_flags>
0

> <s_epik_input>
W0NIM11bQ0BASF0xW0NIMl1OKFtDSDJdW0NASF0oTzEpW0NIM10pW0NIMl1bQ0gyXVtOSF1DKD1PKVtOSF1jMm5bY0hdW2NIXXMy

> <s_epik_cmdline>
J2VwaWtfcHl0aG9uJywgJy1waCcsICc3LjAnLCAnLXRuJywgJzgnLCAnLW1hJywgJzIwMCcsICctbWV0YWxfYmluZGluZycsICctaW1hZScsICc8aW5maWxlLm1hZT4nLCAnLW9tYWUnLCAnPG91dGZpbGUubWFlPic=

> <r_lp_tautomer_probability>
0.999

> <r_epik_Ionization_Penalty>
6.71699

> <r_epik_Ionization_Penalty_Charging>
5.88592

> <r_epik_Ionization_Penalty_Neutral>
0.831074

> <r_epik_State_Penalty>
6.08365

> <r_epik_Charging_Adjusted_Penalty>
11.9696

> <i_epik_Tot_Q>
0

> <i_epik_Tot_abs_Q>
2

> <r_epik_Metal_State_Penalty>
2.0947

> <b_epik_Metal_Only>
1

> <s_lp_Force_Field>
OPLS_2005

> <r_lp_Energy>
8.63778

> <b_lp_Chiralities_Consistent>
1

> <s_lp_Variant>
AV-unprocessed.smi:1815-14

> <Gold.Version>
5.8.1

> <Gold.Id.Protein>
6NUR|6NUR_protein|mol2

> <Gold.PLP.Fitness>
40.9822

> <Gold.PLP.PLP>
-28.6863

> <Gold.PLP.part.hbond>
-3.8285

> <Gold.PLP.part.metal>
0.0000

> <Gold.PLP.part.buried>
0.6418

> <Gold.PLP.part.nonpolar>
-26.1043

> <Gold.PLP.part.repulsive>
0.9654

> <Gold.PLP.ligand.clash>
0.0029

> <Gold.PLP.ligand.torsion>
0.7598

> <Gold.PLP.Chemscore.Hbond>
4.0000

> <Gold.PLP.Chemscore.CHOScore>
0.5912

> <Gold.PLP.Chemscore.Metal>
0.0000

> <Gold.Chemscore.Hbonds>
donor molecule, donor type, donor heavy atom, donor atom, acceptor molecule, acceptor atom, score
      L1  H     4    39       P1  7948  2.00
      L1  H     7    30       P1  7948  1.00

> <Gold.PLP.Chemscore.Internal.Correction>
0.0446

> <Gold.Rescore>
     Score         DG    S(hbond)    S(metal)    S(lipo)     H(rot)  DE(clash)    DE(int)     intcor
     14.77     -17.21       2.76        0.00      56.52       1.61       0.10       2.34       ----

> <Gold.Chemscore.Fitness>
14.7731

> <Gold.Chemscore.DG>
-17.2104

> <Gold.Chemscore.ZeroCoef>
-5.4800

> <Gold.Chemscore.Hbond>
2.7630

> <Gold.Chemscore.Metal>
0.0000

> <Gold.Chemscore.Lipo>
56.5249

> <Gold.Chemscore.Internal_Hbond>
0.0000

> <Gold.Chemscore.DEClash>
0.0959

> <Gold.Chemscore.DEInternal>
2.3415

> <Gold.Chemscore.Rot>
1.6060

> <Gold.Chemscore.Internal.Correction>
   9.000000E+99

> <Gold.Chemscore.Hbonds>
donor molecule, donor type, donor heavy atom, donor atom, acceptor molecule, acceptor atom, score
      L1  H     4    39       P1  7948  1.00
      L1  H     7    30       P1  7948  0.95

> <Gold.Chemscore.Hbond.Weighted>
-9.2283

> <Gold.Chemscore.Metal.Weighted>
-0.0000

> <Gold.Chemscore.Lipo.Weighted>
-6.6134

> <Gold.Chemscore.Internal_Hbond.Weighted>
0.0000

> <Gold.Chemscore.DEClash.Weighted>
0.0959

> <Gold.Chemscore.DEInternal.Weighted>
2.3415

> <Gold.Chemscore.Rot.Weighted>
4.1112

> <Gold.Chemscore.Internal.Correction.Weighted>
   9.000000E+99

> <Gold.Protein.RotatedTorsions>
[ 6907 6896 6895 6894 ] final  167.88 input  -60.11 | X-H torsion
[ 7974 7965 7964 7962 ] final -157.23 input  175.53 | X-H torsion
[ 8008 7997 7996 7995 ] final    1.91 input   59.86 | X-H torsion
[ 10167 10162 10161 10158 ] final -175.40 input  -65.29 | X-H torsion
[ 10718 10713 10712 10709 ] final  -13.05 input   66.30 | X-H torsion
[ 10763 10752 10751 10750 ] final  -14.50 input  -60.55 | X-H torsion
[ 11005 11000 10999 10996 ] final   63.30 input  -57.11 | X-H torsion

> <Gold.Protein.ActiveResidues>
 VAL166  LYS551  ARG553  GLY616  TRP617  ASP618  TYR619  PRO620  LYS621  CYS622 
 ASP623  PHE694  ASN695  SER759  ASP760  ASP761  ALA762  ILE779  LEU786  VAL792 
 PHE793  MET794  SER795  GLU796  ALA797  LYS798  CYS799  TRP800  GLU811  SER814 

> <Gold.Protein.RotatedAtoms>
  151.8563  133.3449  159.3689 H   0  0  0  0  0  0  0  0  0  0  0  0  # atno 6907 bound_to 6896
  150.7192  134.5249  159.5681 H   0  0  0  0  0  0  0  0  0  0  0  0  # atno 6908 bound_to 6896
  152.2754  134.7888  160.0457 H   0  0  0  0  0  0  0  0  0  0  0  0  # atno 6909 bound_to 6896
  144.7557  140.3998  143.6014 H   0  0  0  0  0  0  0  0  0  0  0  0  # atno 7974 bound_to 7965
  154.6853  140.2641  155.6867 H   0  0  0  0  0  0  0  0  0  0  0  0  # atno 8008 bound_to 7997
  156.2712  140.2802  156.1335 H   0  0  0  0  0  0  0  0  0  0  0  0  # atno 8009 bound_to 7997
  155.0973  140.0374  157.2676 H   0  0  0  0  0  0  0  0  0  0  0  0  # atno 8010 bound_to 7997
  139.5583  144.1934  152.1196 H   0  0  0  0  0  0  0  0  0  0  0  0  # atno 10167 bound_to 10162
  156.6358  130.4914  149.6112 H   0  0  0  0  0  0  0  0  0  0  0  0  # atno 10718 bound_to 10713
  153.5292  135.7015  153.5692 H   0  0  0  0  0  0  0  0  0  0  0  0  # atno 10763 bound_to 10752
  153.3707  135.3945  155.1786 H   0  0  0  0  0  0  0  0  0  0  0  0  # atno 10764 bound_to 10752
  154.8686  135.3811  154.4787 H   0  0  0  0  0  0  0  0  0  0  0  0  # atno 10765 bound_to 10752
  140.0034  134.6407  155.9894 H   0  0  0  0  0  0  0  0  0  0  0  0  # atno 11005 bound_to 11000
  145.6787  139.1614  143.2713 LP  0  0  0  0  0  0  0  0  0  0  0  0  # atno 17320 bound_to 7965
  146.1564  140.6851  142.9298 LP  0  0  0  0  0  0  0  0  0  0  0  0  # atno 17321 bound_to 7965
  140.1442  144.5174  150.6725 LP  0  0  0  0  0  0  0  0  0  0  0  0  # atno 17342 bound_to 10162
  140.6859  143.2350  151.5261 LP  0  0  0  0  0  0  0  0  0  0  0  0  # atno 17343 bound_to 10162
  156.2198  130.6730  151.1357 LP  0  0  0  0  0  0  0  0  0  0  0  0  # atno 17370 bound_to 10713
  157.7186  131.0695  150.6227 LP  0  0  0  0  0  0  0  0  0  0  0  0  # atno 17371 bound_to 10713
  141.1659  133.6537  156.4477 LP  0  0  0  0  0  0  0  0  0  0  0  0  # atno 17394 bound_to 11000
  140.4686  134.6774  157.5119 LP  0  0  0  0  0  0  0  0  0  0  0  0  # atno 17395 bound_to 11000

$$$$
