AV-unprocessed.smi:2453|AV-procd|sdf|9689|dock10
  -GOLD-   2272013323D 1   1.00000     0.00000
 Structure written by MMmdl.
 40 41  0  0  0  0  0  0  0  0  1 V2000
  151.0990  137.9535  154.5810 C   0  0  0  0  0  0  0  0  0  0  0  0
  150.1811  139.1509  154.7555 C   0  0  0  0  0  0  0  0  0  0  0  0
  150.6937  140.3605  155.2723 C   0  0  0  0  0  0  0  0  0  0  0  0
  149.9482  141.4697  155.4547 N   0  0  0  0  0  0  0  0  0  0  0  0
  148.6441  141.4122  155.1157 C   0  0  0  0  0  0  0  0  0  0  0  0
  148.0286  140.2591  154.5912 C   0  0  0  0  0  0  0  0  0  0  0  0
  148.8073  139.0892  154.4155 C   0  0  0  0  0  0  0  0  0  0  0  0
  148.2915  137.8734  153.8822 N   0  0  0  0  0  0  0  0  0  0  0  0
  147.0663  137.3378  154.0225 C   0  0  0  0  0  0  0  0  0  0  0  0
  146.1396  137.8289  154.6663 O   0  0  0  0  0  0  0  0  0  0  0  0
  146.9772  136.1662  153.3767 N   0  0  0  0  0  0  0  0  0  0  0  0
  145.7872  135.3150  153.3172 C   0  0  2  0  0  0  0  0  0  0  0  0
  146.0054  134.0036  154.1035 C   0  0  0  0  0  0  0  0  0  0  0  0
  147.0143  133.0723  153.4111 C   0  0  0  0  0  0  0  0  0  0  0  0
  146.5989  132.7848  151.9613 C   0  0  0  0  0  0  0  0  0  0  0  0
  146.3990  134.0861  151.1682 C   0  0  0  0  0  0  0  0  0  0  0  0
  145.3762  135.0208  151.8493 C   0  0  2  0  0  0  0  0  0  0  0  0
  145.1371  136.2905  151.0049 C   0  0  0  0  0  0  0  0  0  0  0  0
  146.2859  137.1119  150.9957 O   0  0  0  0  0  0  0  0  0  0  0  0
  152.1121  138.1780  154.9155 H   0  0  0  0  0  0  0  0  0  0  0  0
  151.1479  137.6614  153.5316 H   0  0  0  0  0  0  0  0  0  0  0  0
  150.7337  137.1051  155.1604 H   0  0  0  0  0  0  0  0  0  0  0  0
  151.7348  140.4440  155.5478 H   0  0  0  0  0  0  0  0  0  0  0  0
  148.0728  142.3172  155.2605 H   0  0  0  0  0  0  0  0  0  0  0  0
  146.9837  140.3027  154.3267 H   0  0  0  0  0  0  0  0  0  0  0  0
  148.9619  137.3091  153.3813 H   0  0  0  0  0  0  0  0  0  0  0  0
  147.7923  135.8352  152.8818 H   0  0  0  0  0  0  0  0  0  0  0  0
  144.9654  135.8539  153.7923 H   0  0  0  0  0  0  0  0  0  0  0  0
  146.3328  134.2167  155.1216 H   0  0  0  0  0  0  0  0  0  0  0  0
  145.0513  133.4839  154.1991 H   0  0  0  0  0  0  0  0  0  0  0  0
  148.0067  133.5247  153.4263 H   0  0  0  0  0  0  0  0  0  0  0  0
  147.0945  132.1365  153.9649 H   0  0  0  0  0  0  0  0  0  0  0  0
  147.3531  132.1652  151.4755 H   0  0  0  0  0  0  0  0  0  0  0  0
  145.6738  132.2069  151.9545 H   0  0  0  0  0  0  0  0  0  0  0  0
  147.3562  134.5972  151.0585 H   0  0  0  0  0  0  0  0  0  0  0  0
  146.0658  133.8424  150.1588 H   0  0  0  0  0  0  0  0  0  0  0  0
  144.4292  134.4792  151.8814 H   0  0  0  0  0  0  0  0  0  0  0  0
  144.8582  136.0447  149.9800 H   0  0  0  0  0  0  0  0  0  0  0  0
  144.3152  136.8710  151.4248 H   0  0  0  0  0  0  0  0  0  0  0  0
  147.0473  136.5675  151.1266 H   0  0  0  0  0  0  0  0  0  0  0  0
  1  2  1  0  0  0  0
  1 20  1  0  0  0  0
  1 21  1  0  0  0  0
  1 22  1  0  0  0  0
  2  7  1  0  0  0  0
  2  3  2  0  0  0  0
  3  4  1  0  0  0  0
  3 23  1  0  0  0  0
  4  5  2  0  0  0  0
  5  6  1  0  0  0  0
  5 24  1  0  0  0  0
  6  7  2  0  0  0  0
  6 25  1  0  0  0  0
  7  8  1  0  0  0  0
  8  9  1  0  0  0  0
  8 26  1  0  0  0  0
  9 10  2  0  0  0  0
  9 11  1  0  0  0  0
 11 12  1  0  0  0  0
 11 27  1  0  0  0  0
 12 17  1  0  0  0  0
 12 13  1  0  0  0  0
 12 28  1  0  0  0  0
 13 14  1  0  0  0  0
 13 29  1  0  0  0  0
 13 30  1  0  0  0  0
 14 15  1  0  0  0  0
 14 31  1  0  0  0  0
 14 32  1  0  0  0  0
 15 16  1  0  0  0  0
 15 33  1  0  0  0  0
 15 34  1  0  0  0  0
 16 17  1  0  0  0  0
 16 35  1  0  0  0  0
 16 36  1  0  0  0  0
 17 18  1  0  0  0  0
 17 37  1  0  0  0  0
 18 19  1  0  0  0  0
 18 38  1  0  0  0  0
 18 39  1  0  0  0  0
 19 40  1  0  0  0  0
M  END
> <s_m_source_file>
AV-unprocessed.smi

> <i_m_source_file_index>
2453

> <i_lp_mmshare_version>
43012

> <i_f3d_flags>
0

> <s_epik_input>
W0NIM11jMVtjSF1uW2NIXVtjSF1jMVtOSF1DKD1PKVtOSF1bQ0BASF0yW0NIMl1bQ0gyXVtDSDJdW0NIMl1bQ0BIXTJbQ0gyXVtPSF0=

> <s_epik_cmdline>
J2VwaWtfcHl0aG9uJywgJy1waCcsICc3LjAnLCAnLXRuJywgJzgnLCAnLW1hJywgJzIwMCcsICctbWV0YWxfYmluZGluZycsICctaW1hZScsICc8aW5maWxlLm1hZT4nLCAnLW9tYWUnLCAnPG91dGZpbGUubWFlPic=

> <r_epik_Ionization_Penalty>
0.210691

> <r_epik_Ionization_Penalty_Charging>
0

> <r_epik_Ionization_Penalty_Neutral>
0.210691

> <r_epik_State_Penalty>
0.200732

> <r_epik_Charging_Adjusted_Penalty>
0.200732

> <i_epik_Tot_Q>
0

> <i_epik_Tot_abs_Q>
0

> <r_epik_Metal_State_Penalty>
0.147519

> <b_epik_Metal_Only>
0

> <s_lp_Force_Field>
OPLS_2005

> <r_lp_Energy>
18.5766

> <b_lp_Chiralities_Consistent>
1

> <s_lp_Variant>
AV-unprocessed.smi:2453-3

> <Gold.Version>
5.8.1

> <Gold.Id.Protein>
6NUR|6NUR_protein|mol2

> <Gold.PLP.Fitness>
38.0782

> <Gold.PLP.PLP>
-27.7003

> <Gold.PLP.part.hbond>
-4.5840

> <Gold.PLP.part.metal>
0.0000

> <Gold.PLP.part.buried>
0.6343

> <Gold.PLP.part.nonpolar>
-24.8153

> <Gold.PLP.part.repulsive>
0.2002

> <Gold.PLP.ligand.clash>
0.0000

> <Gold.PLP.ligand.torsion>
0.2922

> <Gold.PLP.Chemscore.Hbond>
2.6480

> <Gold.PLP.Chemscore.CHOScore>
1.0000

> <Gold.PLP.Chemscore.Metal>
0.0000

> <Gold.Chemscore.Hbonds>
donor molecule, donor type, donor heavy atom, donor atom, acceptor molecule, acceptor atom, score
      L1  H     8    26       P1  7948  0.75
      L1  H    11    27       P1  7948  0.91
      L1  H    19    40       P1  7948  1.00
      L1  C     5    24       P1  8028  0.95

> <Gold.PLP.Chemscore.Internal.Correction>
0.0184

> <Gold.Rescore>
     Score         DG    S(hbond)    S(metal)    S(lipo)     H(rot)  DE(clash)    DE(int)     intcor
     15.65     -17.56       2.59        0.00      67.67       1.75       0.04       1.88       ----

> <Gold.Chemscore.Fitness>
15.6466

> <Gold.Chemscore.DG>
-17.5615

> <Gold.Chemscore.ZeroCoef>
-5.4800

> <Gold.Chemscore.Hbond>
2.5874

> <Gold.Chemscore.Metal>
0.0000

> <Gold.Chemscore.Lipo>
67.6742

> <Gold.Chemscore.Internal_Hbond>
0.0000

> <Gold.Chemscore.DEClash>
0.0390

> <Gold.Chemscore.DEInternal>
1.8758

> <Gold.Chemscore.Rot>
1.7493

> <Gold.Chemscore.Internal.Correction>
   9.000000E+99

> <Gold.Chemscore.Hbonds>
donor molecule, donor type, donor heavy atom, donor atom, acceptor molecule, acceptor atom, score
      L1  H     8    26       P1  7948  0.76
      L1  H    11    27       P1  7948  0.88
      L1  H    19    40       P1  7948  0.91

> <Gold.Chemscore.Hbond.Weighted>
-8.6418

> <Gold.Chemscore.Metal.Weighted>
-0.0000

> <Gold.Chemscore.Lipo.Weighted>
-7.9179

> <Gold.Chemscore.Internal_Hbond.Weighted>
0.0000

> <Gold.Chemscore.DEClash.Weighted>
0.0390

> <Gold.Chemscore.DEInternal.Weighted>
1.8758

> <Gold.Chemscore.Rot.Weighted>
4.4782

> <Gold.Chemscore.Internal.Correction.Weighted>
   9.000000E+99

> <Gold.Protein.RotatedTorsions>
[ 6907 6896 6895 6894 ] final  116.57 input  -60.11 | X-H torsion
[ 7974 7965 7964 7962 ] final -137.06 input  175.53 | X-H torsion
[ 8008 7997 7996 7995 ] final  -64.93 input   59.86 | X-H torsion
[ 10167 10162 10161 10158 ] final  137.19 input  -65.29 | X-H torsion
[ 10718 10713 10712 10709 ] final   34.61 input   66.30 | X-H torsion
[ 10763 10752 10751 10750 ] final  -61.57 input  -60.55 | X-H torsion
[ 11005 11000 10999 10996 ] final -140.27 input  -57.11 | X-H torsion

> <Gold.Protein.ActiveResidues>
 VAL166  LYS551  ARG553  GLY616  TRP617  ASP618  TYR619  PRO620  LYS621  CYS622 
 ASP623  PHE694  ASN695  SER759  ASP760  ASP761  ALA762  ILE779  LEU786  VAL792 
 PHE793  MET794  SER795  GLU796  ALA797  LYS798  CYS799  TRP800  GLU811  SER814 

> <Gold.Protein.RotatedAtoms>
  152.4669  133.7943  159.6918 H   0  0  0  0  0  0  0  0  0  0  0  0  # atno 6907 bound_to 6896
  150.8638  133.7594  159.2990 H   0  0  0  0  0  0  0  0  0  0  0  0  # atno 6908 bound_to 6896
  151.5151  135.1069  159.9916 H   0  0  0  0  0  0  0  0  0  0  0  0  # atno 6909 bound_to 6896
  144.8874  140.6594  143.5167 H   0  0  0  0  0  0  0  0  0  0  0  0  # atno 7974 bound_to 7965
  154.4641  140.0943  156.6972 H   0  0  0  0  0  0  0  0  0  0  0  0  # atno 8008 bound_to 7997
  155.4909  140.3470  155.4336 H   0  0  0  0  0  0  0  0  0  0  0  0  # atno 8009 bound_to 7997
  156.0924  140.1400  156.9564 H   0  0  0  0  0  0  0  0  0  0  0  0  # atno 8010 bound_to 7997
  139.5153  144.6423  151.5534 H   0  0  0  0  0  0  0  0  0  0  0  0  # atno 10167 bound_to 10162
  157.3124  130.7406  149.6733 H   0  0  0  0  0  0  0  0  0  0  0  0  # atno 10718 bound_to 10713
  154.2866  135.6261  153.5368 H   0  0  0  0  0  0  0  0  0  0  0  0  # atno 10763 bound_to 10752
  152.9858  135.5645  154.5437 H   0  0  0  0  0  0  0  0  0  0  0  0  # atno 10764 bound_to 10752
  154.5038  135.2873  155.1374 H   0  0  0  0  0  0  0  0  0  0  0  0  # atno 10765 bound_to 10752
  140.8439  134.2369  157.4796 H   0  0  0  0  0  0  0  0  0  0  0  0  # atno 11005 bound_to 11000
  145.3844  139.1630  143.4263 LP  0  0  0  0  0  0  0  0  0  0  0  0  # atno 17320 bound_to 7965
  146.3033  140.3928  142.8696 LP  0  0  0  0  0  0  0  0  0  0  0  0  # atno 17321 bound_to 7965
  140.6195  143.9285  150.6515 LP  0  0  0  0  0  0  0  0  0  0  0  0  # atno 17342 bound_to 10162
  140.2554  143.3562  152.1369 LP  0  0  0  0  0  0  0  0  0  0  0  0  # atno 17343 bound_to 10162
  155.9679  130.4247  150.4621 LP  0  0  0  0  0  0  0  0  0  0  0  0  # atno 17370 bound_to 10713
  157.2622  131.0569  151.2313 LP  0  0  0  0  0  0  0  0  0  0  0  0  # atno 17371 bound_to 10713
  139.8703  134.9649  156.4511 LP  0  0  0  0  0  0  0  0  0  0  0  0  # atno 17394 bound_to 11000
  140.8865  133.7879  155.9524 LP  0  0  0  0  0  0  0  0  0  0  0  0  # atno 17395 bound_to 11000

$$$$
