AV-unprocessed.smi:470|AV-procd|sdf|2655|dock2
  -GOLD-   2262023 63D 1   1.00000     0.00000
 Structure written by MMmdl.
 33 34  0  0  0  0  0  0  0  0  1 V2000
  150.0365  135.9806  154.5116 N   0  0  0  0  0  0  0  0  0  0  0  0
  150.9832  136.7407  155.0690 C   0  0  0  0  0  0  0  0  0  0  0  0
  151.4198  136.5254  156.1977 O   0  0  0  0  0  0  0  0  0  0  0  0
  151.5143  137.9133  154.2426 C   0  0  0  0  0  0  0  0  0  0  0  0
  151.0260  139.2135  154.8111 C   0  0  0  0  0  0  0  0  0  0  0  0
  149.9842  139.9798  154.3472 C   0  0  0  0  0  0  0  0  0  0  0  0
  149.7450  141.4117  155.3128 S   0  0  0  0  0  0  0  0  0  0  0  0
  151.1113  140.9262  156.3043 C   0  0  0  0  0  0  0  0  0  0  0  0
  151.5168  141.6733  157.4416 N   0  0  0  0  0  0  0  0  0  0  0  0
  152.5006  141.4440  158.3358 C   0  0  0  0  0  0  0  0  0  0  0  0
  153.1981  140.4370  158.2240 O   0  0  0  0  0  0  0  0  0  0  0  0
  152.7642  142.4077  159.5119 C   0  0  1  0  0  0  0  0  0  0  0  0
  151.7598  143.5860  159.5370 C   0  0  0  0  0  0  0  0  0  0  0  0
  151.8811  144.4078  160.8085 C   0  0  0  0  0  0  0  0  0  0  0  0
  152.5049  143.9670  161.9147 C   0  0  0  0  0  0  0  0  0  0  0  0
  153.1530  142.5974  162.0182 C   0  0  0  0  0  0  0  0  0  0  0  0
  152.7335  141.6671  160.8647 C   0  0  0  0  0  0  0  0  0  0  0  0
  151.6531  139.7616  155.9342 N   0  0  0  0  0  0  0  0  0  0  0  0
  149.6641  135.1913  155.0193 H   0  0  0  0  0  0  0  0  0  0  0  0
  149.7026  136.1921  153.5824 H   0  0  0  0  0  0  0  0  0  0  0  0
  152.6048  137.8810  154.2238 H   0  0  0  0  0  0  0  0  0  0  0  0
  151.1867  137.8006  153.2086 H   0  0  0  0  0  0  0  0  0  0  0  0
  149.3389  139.7826  153.5040 H   0  0  0  0  0  0  0  0  0  0  0  0
  150.9649  142.4998  157.6199 H   0  0  0  0  0  0  0  0  0  0  0  0
  153.7434  142.8662  159.3822 H   0  0  0  0  0  0  0  0  0  0  0  0
  151.9346  144.2394  158.6816 H   0  0  0  0  0  0  0  0  0  0  0  0
  150.7277  143.2402  159.4680 H   0  0  0  0  0  0  0  0  0  0  0  0
  151.4234  145.3861  160.8025 H   0  0  0  0  0  0  0  0  0  0  0  0
  152.5694  144.6040  162.7846 H   0  0  0  0  0  0  0  0  0  0  0  0
  154.2349  142.7344  162.0149 H   0  0  0  0  0  0  0  0  0  0  0  0
  152.8917  142.1452  162.9751 H   0  0  0  0  0  0  0  0  0  0  0  0
  151.7236  141.2972  161.0504 H   0  0  0  0  0  0  0  0  0  0  0  0
  153.3794  140.7885  160.8509 H   0  0  0  0  0  0  0  0  0  0  0  0
  1  2  1  0  0  0  0
  1 19  1  0  0  0  0
  1 20  1  0  0  0  0
  2  3  2  0  0  0  0
  2  4  1  0  0  0  0
  4  5  1  0  0  0  0
  4 21  1  0  0  0  0
  4 22  1  0  0  0  0
  5 18  1  0  0  0  0
  5  6  2  0  0  0  0
  6  7  1  0  0  0  0
  6 23  1  0  0  0  0
  7  8  1  0  0  0  0
  8  9  1  0  0  0  0
  8 18  2  0  0  0  0
  9 10  1  0  0  0  0
  9 24  1  0  0  0  0
 10 11  2  0  0  0  0
 10 12  1  0  0  0  0
 12 17  1  0  0  0  0
 12 13  1  0  0  0  0
 12 25  1  0  0  0  0
 13 14  1  0  0  0  0
 13 26  1  0  0  0  0
 13 27  1  0  0  0  0
 14 15  2  0  0  0  0
 14 28  1  0  0  0  0
 15 16  1  0  0  0  0
 15 29  1  0  0  0  0
 16 17  1  0  0  0  0
 16 30  1  0  0  0  0
 16 31  1  0  0  0  0
 17 32  1  0  0  0  0
 17 33  1  0  0  0  0
M  END
> <s_m_source_file>
AV-unprocessed.smi

> <i_m_source_file_index>
470

> <i_lp_mmshare_version>
43012

> <i_f3d_flags>
0

> <s_epik_input>
W05IMl1DKD1PKVtDSDJdYzFbY0hdc2MobjEpW05IXUMoPU8pW0NAQEhdMltDSDJdW0NIXT1bQ0hdW0NIMl1bQ0gyXTI=

> <s_epik_cmdline>
J2VwaWtfcHl0aG9uJywgJy1waCcsICc3LjAnLCAnLXRuJywgJzgnLCAnLW1hJywgJzIwMCcsICctbWV0YWxfYmluZGluZycsICctaW1hZScsICc8aW5maWxlLm1hZT4nLCAnLW9tYWUnLCAnPG91dGZpbGUubWFlPic=

> <r_lp_tautomer_probability>
1

> <r_epik_Ionization_Penalty>
0.00025496

> <r_epik_Ionization_Penalty_Charging>
0

> <r_epik_Ionization_Penalty_Neutral>
0.00025496

> <r_epik_State_Penalty>
-0

> <r_epik_Charging_Adjusted_Penalty>
0

> <i_epik_Tot_Q>
0

> <i_epik_Tot_abs_Q>
0

> <r_epik_Metal_State_Penalty>
0.149391

> <b_epik_Metal_Only>
0

> <s_lp_Force_Field>
OPLS_2005

> <r_lp_Energy>
12.0987

> <b_lp_Chiralities_Consistent>
1

> <s_lp_Variant>
AV-unprocessed.smi:470-2

> <Gold.Version>
5.8.1

> <Gold.Id.Protein>
6NUR|6NUR_protein|mol2

> <Gold.PLP.Fitness>
48.9253

> <Gold.PLP.PLP>
-41.1618

> <Gold.PLP.part.hbond>
-2.0000

> <Gold.PLP.part.metal>
0.0000

> <Gold.PLP.part.buried>
-3.2674

> <Gold.PLP.part.nonpolar>
-34.8134

> <Gold.PLP.part.repulsive>
0.1159

> <Gold.PLP.ligand.clash>
0.0000

> <Gold.PLP.ligand.torsion>
0.4283

> <Gold.PLP.Chemscore.Hbond>
1.8640

> <Gold.PLP.Chemscore.CHOScore>
1.0000

> <Gold.PLP.Chemscore.Metal>
0.0000

> <Gold.Chemscore.Hbonds>
donor molecule, donor type, donor heavy atom, donor atom, acceptor molecule, acceptor atom, score
      L1  H     1    20       P1  7948  1.00
      P1  H  7997  8009       L1    11  0.80
      L1  C     6    23       P1  7957  1.00

> <Gold.PLP.Chemscore.Internal.Correction>
0.0281

> <Gold.Rescore>
     Score         DG    S(hbond)    S(metal)    S(lipo)     H(rot)  DE(clash)    DE(int)     intcor
     16.35     -18.16       1.83        0.00      97.72       1.90       0.01       1.80       ----

> <Gold.Chemscore.Fitness>
16.3533

> <Gold.Chemscore.DG>
-18.1597

> <Gold.Chemscore.ZeroCoef>
-5.4800

> <Gold.Chemscore.Hbond>
1.8269

> <Gold.Chemscore.Metal>
0.0000

> <Gold.Chemscore.Lipo>
97.7241

> <Gold.Chemscore.Internal_Hbond>
0.0000

> <Gold.Chemscore.DEClash>
0.0107

> <Gold.Chemscore.DEInternal>
1.7957

> <Gold.Chemscore.Rot>
1.8968

> <Gold.Chemscore.Internal.Correction>
   9.000000E+99

> <Gold.Chemscore.Hbonds>
donor molecule, donor type, donor heavy atom, donor atom, acceptor molecule, acceptor atom, score
      L1  H     1    20       P1  7948  0.30
      P1  H  7997  8009       L1    11  0.79

> <Gold.Chemscore.Hbond.Weighted>
-6.1018

> <Gold.Chemscore.Metal.Weighted>
-0.0000

> <Gold.Chemscore.Lipo.Weighted>
-11.4337

> <Gold.Chemscore.Internal_Hbond.Weighted>
0.0000

> <Gold.Chemscore.DEClash.Weighted>
0.0107

> <Gold.Chemscore.DEInternal.Weighted>
1.7957

> <Gold.Chemscore.Rot.Weighted>
4.8558

> <Gold.Chemscore.Internal.Correction.Weighted>
   9.000000E+99

> <Gold.Protein.RotatedTorsions>
[ 6907 6896 6895 6894 ] final   78.27 input  -60.11 | X-H torsion
[ 7974 7965 7964 7962 ] final   45.46 input  175.53 | X-H torsion
[ 8008 7997 7996 7995 ] final  148.49 input   59.86 | X-H torsion
[ 10167 10162 10161 10158 ] final  -53.71 input  -65.29 | X-H torsion
[ 10718 10713 10712 10709 ] final  -28.85 input   66.30 | X-H torsion
[ 10763 10752 10751 10750 ] final  -44.50 input  -60.55 | X-H torsion
[ 11005 11000 10999 10996 ] final   13.93 input  -57.11 | X-H torsion

> <Gold.Protein.ActiveResidues>
 VAL166  LYS551  ARG553  GLY616  TRP617  ASP618  TYR619  PRO620  LYS621  CYS622 
 ASP623  PHE694  ASN695  SER759  ASP760  ASP761  ALA762  ILE779  LEU786  VAL792 
 PHE793  MET794  SER795  GLU796  ALA797  LYS798  CYS799  TRP800  GLU811  SER814 

> <Gold.Protein.RotatedAtoms>
  152.5152  134.3690  159.9311 H   0  0  0  0  0  0  0  0  0  0  0  0  # atno 6907 bound_to 6896
  151.3644  133.3871  159.2701 H   0  0  0  0  0  0  0  0  0  0  0  0  # atno 6908 bound_to 6896
  150.9626  134.9031  159.7798 H   0  0  0  0  0  0  0  0  0  0  0  0  # atno 6909 bound_to 6896
  146.0478  139.4962  142.9737 H   0  0  0  0  0  0  0  0  0  0  0  0  # atno 7974 bound_to 7965
  156.2789  140.2127  156.5706 H   0  0  0  0  0  0  0  0  0  0  0  0  # atno 8008 bound_to 7997
  154.7138  140.0509  157.0598 H   0  0  0  0  0  0  0  0  0  0  0  0  # atno 8009 bound_to 7997
  155.0569  140.3162  155.4676 H   0  0  0  0  0  0  0  0  0  0  0  0  # atno 8010 bound_to 7997
  140.6470  143.2541  151.4831 H   0  0  0  0  0  0  0  0  0  0  0  0  # atno 10167 bound_to 10162
  156.4200  130.4424  149.7190 H   0  0  0  0  0  0  0  0  0  0  0  0  # atno 10718 bound_to 10713
  154.0131  135.6679  153.4767 H   0  0  0  0  0  0  0  0  0  0  0  0  # atno 10763 bound_to 10752
  153.0612  135.5027  154.8093 H   0  0  0  0  0  0  0  0  0  0  0  0  # atno 10764 bound_to 10752
  154.6983  135.3074  154.9343 H   0  0  0  0  0  0  0  0  0  0  0  0  # atno 10765 bound_to 10752
  140.4752  134.0990  155.7740 H   0  0  0  0  0  0  0  0  0  0  0  0  # atno 11005 bound_to 11000
  145.6776  141.0200  143.1624 LP  0  0  0  0  0  0  0  0  0  0  0  0  # atno 17320 bound_to 7965
  144.7107  139.8383  143.7415 LP  0  0  0  0  0  0  0  0  0  0  0  0  # atno 17321 bound_to 7965
  139.5682  144.1992  152.1796 LP  0  0  0  0  0  0  0  0  0  0  0  0  # atno 17342 bound_to 10162
  140.1280  144.5314  150.6820 LP  0  0  0  0  0  0  0  0  0  0  0  0  # atno 17343 bound_to 10162
  156.4135  130.7734  151.2748 LP  0  0  0  0  0  0  0  0  0  0  0  0  # atno 17370 bound_to 10713
  157.7508  131.0204  150.3708 LP  0  0  0  0  0  0  0  0  0  0  0  0  # atno 17371 bound_to 10713
  141.1557  133.8886  157.1982 LP  0  0  0  0  0  0  0  0  0  0  0  0  # atno 17394 bound_to 11000
  139.9860  135.0082  156.9863 LP  0  0  0  0  0  0  0  0  0  0  0  0  # atno 17395 bound_to 11000

$$$$
