#       Name:                AV-unprocessed.smi:1163
#       Creating user name   scv26
#       Creation time:       Fri Mar 27 03:50:25 2020


#       File generated by GOLD software.
#

@<TRIPOS>MOLECULE
AV-unprocessed.smi:1163
    45    46     1
SMALL
NO_CHARGES


@<TRIPOS>ATOM
      1 ****        -7.6028   2.1719   0.1274 C.3            1 S1                 0.0000
      2 ****        -6.9952   0.9246  -0.1908 O.3            1 S1                 0.0000
      3 ****        -5.6528   0.7612   0.0834 C.ar           1 S1                 0.0000
      4 ****        -5.0427  -0.4668  -0.2412 C.ar           1 S1                 0.0000
      5 ****        -3.6723  -0.6402   0.0312 C.ar           1 S1                 0.0000
      6 ****        -2.9508   0.4277   0.6156 C.ar           1 S1                 0.0000
      7 ****        -1.5718   0.3695   0.9527 N.am           1 S1                 0.0000
      8 ****        -0.6194  -0.4211   0.4293 C.2            1 S1                 0.0000
      9 ****        -0.7904  -1.2447  -0.4691 O.2            1 S1                 0.0000
     10 ****         0.5733  -0.1880   0.9949 N.am           1 S1                 0.0000
     11 ****         1.8108  -0.8741   0.6379 C.3            1 S1                 0.0000
     12 ****         2.9675  -0.5845   1.5933 C.3            1 S1                 0.0000
     13 ****         4.2302  -0.7284   0.7258 C.3            1 S1                 0.0000
     14 ****         3.7766  -0.8637  -0.6803 N.4            1 S1                 1.0000
     15 ****         4.6383  -0.2121  -1.6963 C.3            1 S1                 0.0000
     16 ****         5.9749  -0.9461  -1.9024 C.3            1 S1                 0.0000
     17 ****         6.6332  -0.3758  -2.9104 F              1 S1                 0.0000
     18 ****         6.7355  -0.8788  -0.8103 F              1 S1                 0.0000
     19 ****         5.7529  -2.2251  -2.2053 F              1 S1                 0.0000
     20 ****         2.3717  -0.4206  -0.7097 C.3            1 S1                 0.0000
     21 ****        -3.6585   1.6093   0.9184 C.ar           1 S1                 0.0000
     22 ****        -4.9712   1.7830   0.6578 N.ar           1 S1                 0.0000
     23 ****        -8.6569   2.1403  -0.1480 H              1 S1                 0.0000
     24 ****        -7.1416   2.9924  -0.4245 H              1 S1                 0.0000
     25 ****        -7.5466   2.3833   1.1963 H              1 S1                 0.0000
     26 ****        -5.6168  -1.2644  -0.6889 H              1 S1                 0.0000
     27 ****        -3.2092  -1.5871  -0.1995 H              1 S1                 0.0000
     28 ****        -1.2628   1.0548   1.6266 H              1 S1                 0.0000
     29 ****         0.6282   0.5079   1.7245 H              1 S1                 0.0000
     30 ****         1.6383  -1.9522   0.6131 H              1 S1                 0.0000
     31 ****         2.9027   0.4367   1.9724 H              1 S1                 0.0000
     32 ****         2.9721  -1.2564   2.4523 H              1 S1                 0.0000
     33 ****         4.8727   0.1436   0.8575 H              1 S1                 0.0000
     34 ****         4.8066  -1.6110   1.0049 H              1 S1                 0.0000
     35 ****         4.0990  -0.2088  -2.6446 H              1 S1                 0.0000
     36 ****         4.8073   0.8331  -1.4335 H              1 S1                 0.0000
     37 ****         1.8360  -0.8527  -1.5559 H              1 S1                 0.0000
     38 ****         2.3283   0.6670  -0.7966 H              1 S1                 0.0000
     39 ****        -3.1553   2.4473   1.3786 H              1 S1                 0.0000
     40 ****         3.7601  -1.8525  -0.8867 H              1 S1                 0.0000
     41 ****        -7.1166   0.7782  -1.1725 LP             1 S1                 0.0000
     42 ****        -7.4888   0.2174   0.3153 LP             1 S1                 0.0000
     43 ****        -1.6985  -1.3662  -0.8698 LP             1 S1                 0.0000
     44 ****        -0.0212  -1.7923  -0.7984 LP             1 S1                 0.0000
     45 ****        -5.4293   2.6430   0.8825 LP             1 S1                 0.0000
@<TRIPOS>BOND
    1    1    2 1     
    2    1   23 1     
    3    1   24 1     
    4    1   25 1     
    5    2    3 1     
    6    3   22 ar    
    7    3    4 ar    
    8    4    5 ar    
    9    4   26 1     
   10    5    6 ar    
   11    5   27 1     
   12    6    7 1     
   13    6   21 ar    
   14    7    8 am    
   15    7   28 1     
   16    8    9 2     
   17    8   10 am    
   18   10   11 1     
   19   10   29 1     
   20   11   20 1     
   21   11   12 1     
   22   11   30 1     
   23   12   13 1     
   24   12   31 1     
   25   12   32 1     
   26   13   14 1     
   27   13   33 1     
   28   13   34 1     
   29   14   15 1     
   30   14   20 1     
   31   14   40 1     
   32   15   16 1     
   33   15   35 1     
   34   15   36 1     
   35   16   17 1     
   36   16   18 1     
   37   16   19 1     
   38   20   37 1     
   39   20   38 1     
   40   21   22 ar    
   41   21   39 1     
   42    2   41 1     
   43    2   42 1     
   44    9   43 1     
   45    9   44 1     
   46   22   45 1     
@<TRIPOS>SUBSTRUCTURE
      1 S1             1
@<TRIPOS>SET
LONE_PAIRS      STATIC     ATOMS    <user>   **** ""
5 41 42 43 44 45
DONOR_HYDROGENS      STATIC     ATOMS    <user>   **** ""
3 28 29 40
ATOM$BLUE        STATIC     ATOMS    COLORGROUP SYSTEM
5 41 42 43 44 45
ATOM$RED        STATIC     ATOMS    COLORGROUP SYSTEM
3 28 29 40
