AV-unprocessed.smi:587|AV-procd|sdf|3002|dock1
  -GOLD-   2262023503D 1   1.00000     0.00000
 Structure written by MMmdl.
 46 48  0  0  0  0  0  0  0  0  1 V2000
  148.6449  133.3567  155.9977 C   0  0  0  0  0  0  0  0  0  0  0  0
  148.8221  134.7601  156.3075 N   0  0  0  0  0  0  0  0  0  0  0  0
  148.7850  135.7874  155.3672 C   0  0  0  0  0  0  0  0  0  0  0  0
  148.6145  135.4522  154.0341 N   0  0  0  0  0  0  0  0  0  0  0  0
  148.9499  137.0911  155.7245 C   0  0  0  0  0  0  0  0  0  0  0  0
  148.9218  138.1491  154.8146 N   0  0  0  0  0  0  0  0  0  0  0  0
  150.0964  138.9543  154.4827 C   0  0  0  0  0  0  0  0  0  0  0  0
  149.8570  140.4485  154.7710 C   0  0  0  0  0  0  0  0  0  0  0  0
  148.5796  140.9464  154.0771 C   0  0  0  0  0  0  0  0  0  0  0  0
  147.3878  140.0511  154.4492 C   0  0  0  0  0  0  0  0  0  0  0  0
  147.6975  138.5773  154.1395 C   0  0  0  0  0  0  0  0  0  0  0  0
  149.1682  137.4574  157.1302 C   0  0  0  0  0  0  0  0  0  0  0  0
  149.3052  138.6209  157.5171 O   0  0  0  0  0  0  0  0  0  0  0  0
  149.2240  136.3906  158.0549 N   0  0  0  0  0  0  0  0  0  0  0  0
  149.4951  136.6962  159.4784 C   0  0  0  0  0  0  0  0  0  0  0  0
  148.3209  136.3613  160.4119 C   0  0  0  0  0  0  0  0  0  0  0  0
  147.6751  137.2526  160.9658 O   0  0  0  0  0  0  0  0  0  0  0  0
  148.0588  135.0561  160.5715 N   0  0  0  0  0  0  0  0  0  0  0  0
  147.0115  134.5139  161.3752 C   0  0  0  0  0  0  0  0  0  0  0  0
  147.3858  133.9158  162.7139 C   0  0  0  0  0  0  0  0  0  0  0  0
  146.9905  133.0141  161.5771 C   0  0  0  0  0  0  0  0  0  0  0  0
  149.0729  135.0432  157.6692 C   0  0  0  0  0  0  0  0  0  0  0  0
  149.1615  134.1383  158.5049 O   0  0  0  0  0  0  0  0  0  0  0  0
  148.2908  133.2373  154.9759 H   0  0  0  0  0  0  0  0  0  0  0  0
  147.8936  132.9516  156.6783 H   0  0  0  0  0  0  0  0  0  0  0  0
  149.6143  132.8729  156.1282 H   0  0  0  0  0  0  0  0  0  0  0  0
  148.5189  134.4894  153.7444 H   0  0  0  0  0  0  0  0  0  0  0  0
  148.4465  136.1525  153.3265 H   0  0  0  0  0  0  0  0  0  0  0  0
  150.9656  138.6007  155.0387 H   0  0  0  0  0  0  0  0  0  0  0  0
  150.3281  138.8099  153.4266 H   0  0  0  0  0  0  0  0  0  0  0  0
  149.7719  140.6121  155.8451 H   0  0  0  0  0  0  0  0  0  0  0  0
  150.7148  141.0338  154.4394 H   0  0  0  0  0  0  0  0  0  0  0  0
  148.3768  141.9809  154.3560 H   0  0  0  0  0  0  0  0  0  0  0  0
  148.7218  140.9356  152.9958 H   0  0  0  0  0  0  0  0  0  0  0  0
  147.1623  140.1614  155.5107 H   0  0  0  0  0  0  0  0  0  0  0  0
  146.4970  140.3684  153.9065 H   0  0  0  0  0  0  0  0  0  0  0  0
  147.8144  138.4306  153.0648 H   0  0  0  0  0  0  0  0  0  0  0  0
  146.8562  137.9562  154.4500 H   0  0  0  0  0  0  0  0  0  0  0  0
  150.3794  136.1642  159.8325 H   0  0  0  0  0  0  0  0  0  0  0  0
  149.7550  137.7476  159.6112 H   0  0  0  0  0  0  0  0  0  0  0  0
  148.6411  134.3943  160.0788 H   0  0  0  0  0  0  0  0  0  0  0  0
  146.0374  134.9982  161.3208 H   0  0  0  0  0  0  0  0  0  0  0  0
  148.4351  133.9302  163.0030 H   0  0  0  0  0  0  0  0  0  0  0  0
  146.6768  134.0358  163.5308 H   0  0  0  0  0  0  0  0  0  0  0  0
  146.0180  132.5289  161.6357 H   0  0  0  0  0  0  0  0  0  0  0  0
  147.7768  132.4250  161.1087 H   0  0  0  0  0  0  0  0  0  0  0  0
  1  2  1  0  0  0  0
  1 24  1  0  0  0  0
  1 25  1  0  0  0  0
  1 26  1  0  0  0  0
  2 22  1  0  0  0  0
  2  3  1  0  0  0  0
  3  4  1  0  0  0  0
  3  5  2  0  0  0  0
  4 27  1  0  0  0  0
  4 28  1  0  0  0  0
  5  6  1  0  0  0  0
  5 12  1  0  0  0  0
  6 11  1  0  0  0  0
  6  7  1  0  0  0  0
  7  8  1  0  0  0  0
  7 29  1  0  0  0  0
  7 30  1  0  0  0  0
  8  9  1  0  0  0  0
  8 31  1  0  0  0  0
  8 32  1  0  0  0  0
  9 10  1  0  0  0  0
  9 33  1  0  0  0  0
  9 34  1  0  0  0  0
 10 11  1  0  0  0  0
 10 35  1  0  0  0  0
 10 36  1  0  0  0  0
 11 37  1  0  0  0  0
 11 38  1  0  0  0  0
 12 13  2  0  0  0  0
 12 14  1  0  0  0  0
 14 15  1  0  0  0  0
 14 22  1  0  0  0  0
 15 16  1  0  0  0  0
 15 39  1  0  0  0  0
 15 40  1  0  0  0  0
 16 17  2  0  0  0  0
 16 18  1  0  0  0  0
 18 19  1  0  0  0  0
 18 41  1  0  0  0  0
 19 21  1  0  0  0  0
 19 20  1  0  0  0  0
 19 42  1  0  0  0  0
 20 21  1  0  0  0  0
 20 43  1  0  0  0  0
 20 44  1  0  0  0  0
 21 45  1  0  0  0  0
 21 46  1  0  0  0  0
 22 23  2  0  0  0  0
M  END
> <s_m_source_file>
AV-unprocessed.smi

> <i_m_source_file_index>
587

> <i_lp_mmshare_version>
43012

> <i_f3d_flags>
0

> <s_epik_input>
W0NIMl0xW0NIMl1bQ0gyXVtDSDJdW0NIMl1OMWMoYyhbTkgyXSluMltDSDNdKWMoPU8pbihjMj1PKVtDSDJdQyg9TylbTkhdW0NIXTNbQ0gyXVtDSDJdMw==

> <s_epik_cmdline>
J2VwaWtfcHl0aG9uJywgJy1waCcsICc3LjAnLCAnLXRuJywgJzgnLCAnLW1hJywgJzIwMCcsICctbWV0YWxfYmluZGluZycsICctaW1hZScsICc8aW5maWxlLm1hZT4nLCAnLW9tYWUnLCAnPG91dGZpbGUubWFlPic=

> <r_lp_tautomer_probability>
0.999881

> <r_epik_Ionization_Penalty>
0.00852669

> <r_epik_Ionization_Penalty_Charging>
2.6249e-08

> <r_epik_Ionization_Penalty_Neutral>
0.00852666

> <r_epik_State_Penalty>
0.00667057

> <r_epik_Charging_Adjusted_Penalty>
0.00667059

> <i_epik_Tot_Q>
0

> <i_epik_Tot_abs_Q>
0

> <r_epik_Metal_State_Penalty>
0.00667057

> <b_epik_Metal_Only>
0

> <s_lp_Force_Field>
OPLS_2005

> <r_lp_Energy>
38.4775

> <b_lp_Chiralities_Consistent>
1

> <s_lp_Variant>
AV-unprocessed.smi:587-1

> <Gold.Version>
5.8.1

> <Gold.Id.Protein>
6NUR|6NUR_protein|mol2

> <Gold.PLP.Fitness>
38.2646

> <Gold.PLP.PLP>
-29.7243

> <Gold.PLP.part.hbond>
-3.4153

> <Gold.PLP.part.metal>
0.0000

> <Gold.PLP.part.buried>
-1.8405

> <Gold.PLP.part.nonpolar>
-24.6575

> <Gold.PLP.part.repulsive>
0.1007

> <Gold.PLP.ligand.clash>
0.0000

> <Gold.PLP.ligand.torsion>
1.5576

> <Gold.PLP.Chemscore.Hbond>
3.2344

> <Gold.PLP.Chemscore.CHOScore>
0.0000

> <Gold.PLP.Chemscore.Metal>
0.0000

> <Gold.Chemscore.Hbonds>
donor molecule, donor type, donor heavy atom, donor atom, acceptor molecule, acceptor atom, score
      L1  H     4    28       P1  7948  0.58
      P1  H  6896  6908       L1    23  1.00
      P1  H  6931  6943       L1    17  0.85
      P1  H  6934  6947       L1    17  0.90

> <Gold.PLP.Chemscore.Internal.Correction>
1.9524

> <Gold.Rescore>
     Score         DG    S(hbond)    S(metal)    S(lipo)     H(rot)  DE(clash)    DE(int)     intcor
     14.40     -17.94       2.70        0.00      63.65       1.56       0.26       3.28       ----

> <Gold.Chemscore.Fitness>
14.4037

> <Gold.Chemscore.DG>
-17.9445

> <Gold.Chemscore.ZeroCoef>
-5.4800

> <Gold.Chemscore.Hbond>
2.6960

> <Gold.Chemscore.Metal>
0.0000

> <Gold.Chemscore.Lipo>
63.6547

> <Gold.Chemscore.Internal_Hbond>
0.0000

> <Gold.Chemscore.DEClash>
0.2567

> <Gold.Chemscore.DEInternal>
3.2841

> <Gold.Chemscore.Rot>
1.5577

> <Gold.Chemscore.Internal.Correction>
   9.000000E+99

> <Gold.Chemscore.Hbonds>
donor molecule, donor type, donor heavy atom, donor atom, acceptor molecule, acceptor atom, score
      L1  H     4    28       P1  7948  0.55
      P1  H  6896  6908       L1    23  0.94
      P1  H  6931  6943       L1    17  0.34
      P1  H  6934  6947       L1    17  0.88

> <Gold.Chemscore.Hbond.Weighted>
-9.0046

> <Gold.Chemscore.Metal.Weighted>
-0.0000

> <Gold.Chemscore.Lipo.Weighted>
-7.4476

> <Gold.Chemscore.Internal_Hbond.Weighted>
0.0000

> <Gold.Chemscore.DEClash.Weighted>
0.2567

> <Gold.Chemscore.DEInternal.Weighted>
3.2841

> <Gold.Chemscore.Rot.Weighted>
3.9877

> <Gold.Chemscore.Internal.Correction.Weighted>
   9.000000E+99

> <Gold.Protein.RotatedTorsions>
[ 6907 6896 6895 6894 ] final  129.13 input  -60.11 | X-H torsion
[ 7974 7965 7964 7962 ] final   10.19 input  175.53 | X-H torsion
[ 8008 7997 7996 7995 ] final  107.56 input   59.86 | X-H torsion
[ 10167 10162 10161 10158 ] final  122.09 input  -65.29 | X-H torsion
[ 10718 10713 10712 10709 ] final -152.37 input   66.30 | X-H torsion
[ 10763 10752 10751 10750 ] final  170.52 input  -60.55 | X-H torsion
[ 11005 11000 10999 10996 ] final  134.05 input  -57.11 | X-H torsion

> <Gold.Protein.ActiveResidues>
 VAL166  LYS551  ARG553  GLY616  TRP617  ASP618  TYR619  PRO620  LYS621  CYS622 
 ASP623  PHE694  ASN695  SER759  ASP760  ASP761  ALA762  ILE779  LEU786  VAL792 
 PHE793  MET794  SER795  GLU796  ALA797  LYS798  CYS799  TRP800  GLU811  SER814 

> <Gold.Protein.RotatedAtoms>
  152.3654  133.6349  159.6045 H   0  0  0  0  0  0  0  0  0  0  0  0  # atno 6907 bound_to 6896
  150.7630  133.9357  159.3449 H   0  0  0  0  0  0  0  0  0  0  0  0  # atno 6908 bound_to 6896
  151.7189  135.0899  160.0332 H   0  0  0  0  0  0  0  0  0  0  0  0  # atno 6909 bound_to 6896
  146.2392  139.9671  142.8451 H   0  0  0  0  0  0  0  0  0  0  0  0  # atno 7974 bound_to 7965
  156.1834  140.3092  155.9192 H   0  0  0  0  0  0  0  0  0  0  0  0  # atno 8008 bound_to 7997
  155.3334  140.0462  157.3060 H   0  0  0  0  0  0  0  0  0  0  0  0  # atno 8009 bound_to 7997
  154.5368  140.2248  155.8718 H   0  0  0  0  0  0  0  0  0  0  0  0  # atno 8010 bound_to 7997
  139.5880  144.7014  151.3362 H   0  0  0  0  0  0  0  0  0  0  0  0  # atno 10167 bound_to 10162
  156.4716  130.8261  151.2490 H   0  0  0  0  0  0  0  0  0  0  0  0  # atno 10718 bound_to 10713
  154.3987  135.2755  155.2110 H   0  0  0  0  0  0  0  0  0  0  0  0  # atno 10763 bound_to 10752
  154.4145  135.6014  153.5976 H   0  0  0  0  0  0  0  0  0  0  0  0  # atno 10764 bound_to 10752
  152.9831  135.5957  154.4252 H   0  0  0  0  0  0  0  0  0  0  0  0  # atno 10765 bound_to 10752
  139.9890  134.9522  156.9812 H   0  0  0  0  0  0  0  0  0  0  0  0  # atno 11005 bound_to 11000
  145.1716  140.9723  143.4318 LP  0  0  0  0  0  0  0  0  0  0  0  0  # atno 17320 bound_to 7965
  145.0023  139.3586  143.6161 LP  0  0  0  0  0  0  0  0  0  0  0  0  # atno 17321 bound_to 7965
  140.7148  143.7295  150.7634 LP  0  0  0  0  0  0  0  0  0  0  0  0  # atno 17342 bound_to 10162
  140.0844  143.4937  152.2512 LP  0  0  0  0  0  0  0  0  0  0  0  0  # atno 17343 bound_to 10162
  157.7491  131.0074  150.3190 LP  0  0  0  0  0  0  0  0  0  0  0  0  # atno 17370 bound_to 10713
  156.3613  130.3847  149.7249 LP  0  0  0  0  0  0  0  0  0  0  0  0  # atno 17371 bound_to 10713
  140.4945  134.1159  155.7239 LP  0  0  0  0  0  0  0  0  0  0  0  0  # atno 17394 bound_to 11000
  141.1550  133.8900  157.2001 LP  0  0  0  0  0  0  0  0  0  0  0  0  # atno 17395 bound_to 11000

$$$$
